@<TRIPOS>MOLECULE
NONAME
35 36 1 0 0 
SMALL
USER_CHARGES


@<TRIPOS>ATOM
  1 CL      -0.1360     3.2760    -0.9290 Cl    1 <1>  -0.1770 
  2 C        1.5990     3.3080    -0.7270 C.ar  1 <1>   0.1770 
  3 C        2.2100     4.4100    -0.1500 C.ar  1 <1>   0.1600 
  4 C        2.3500     2.2300    -1.1480 C.ar  1 <1>  -0.1500 
  5 N        3.5210     4.5320     0.0430 N.ar  1 <1>  -0.6200 
  6 C        3.7020     2.3570    -0.9430 C.ar  1 <1>   0.1900 
  7 C        4.2640     3.5000    -0.3490 C.ar  1 <1>   0.4100 
  8 F        4.4820     1.3700    -1.3160 F     1 <1>  -0.1900 
  9 N        5.6270     3.6190    -0.1590 N.pl3 1 <1>  -0.8690 
 10 C        6.2050     4.3270     1.0160 C.3   1 <1>   0.3890 
 11 C        7.3450     5.2340     0.5880 C.2   1 <1>   0.0070 
 12 N        8.5580     5.1170     1.0160 N.2   1 <1>  -0.3380 
 13 N        7.2230     6.2580    -0.2660 N.pl3 1 <1>   0.0480 
 14 N        9.2720     6.0850     0.4400 N.2   1 <1>  -0.3380 
 15 C        8.4630     6.7460    -0.3120 C.2   1 <1>   0.0370 
 16 C        6.0390     6.7470    -1.0060 C.3   1 <1>   0.0960 
 17 C        5.1650     7.6420    -0.1210 C.3   1 <1>  -0.1600 
 18 C        3.9020     8.0600    -0.8670 C.3   1 <1>   0.1200 
 19 O        3.1690     8.8840    -0.0250 O.3   1 <1>  -0.5600 
 20 C        1.9830     9.3520    -0.5800 C.3   1 <1>   0.0400 
 21 H        1.5880     5.2300     0.1670 H     1 <1>   0.1500 
 22 H        1.9090     1.3610    -1.5990 H     1 <1>   0.1500 
 23 H        6.1870     2.8080    -0.4410 H     1 <1>   0.4000 
 24 H        6.5800     3.6000     1.7150 H     1 <1>   0.0800 
 25 H        5.4610     4.9140     1.5250 H     1 <1>   0.0800 
 26 H        8.7400     7.5930    -0.9130 H     1 <1>   0.1500 
 27 H        5.4740     5.9030    -1.3550 H     1 <1>   0.0800 
 28 H        6.3760     7.2990    -1.8660 H     1 <1>   0.0800 
 29 H        5.7170     8.5210     0.1630 H     1 <1>   0.0800 
 30 H        4.8740     7.1030     0.7630 H     1 <1>   0.0800 
 31 H        3.3040     7.1990    -1.1150 H     1 <1>   0.0800 
 32 H        4.1470     8.6110    -1.7600 H     1 <1>   0.0800 
 33 H        1.4950     9.9730     0.1510 H     1 <1>   0.0800 
 34 H        1.3510     8.5170    -0.8270 H     1 <1>   0.0800 
 35 H        2.2060     9.9340    -1.4570 H     1 <1>   0.0800 
@<TRIPOS>BOND
  1   1   2  1   
  2   2   3  ar  
  3   2   4  ar  
  4   3   5  ar  
  5   3  21  1   
  6   4   6  ar  
  7   4  22  1   
  8   5   7  ar  
  9   6   7  ar  
 10   6   8  1   
 11   7   9  1   
 12   9  10  1   
 13   9  23  1   
 14  10  11  1   
 15  10  24  1   
 16  10  25  1   
 17  11  12  2   
 18  11  13  1   
 19  12  14  1   
 20  13  15  1   
 21  13  16  1   
 22  14  15  2   
 23  15  26  1   
 24  16  17  1   
 25  16  27  1   
 26  16  28  1   
 27  17  18  1   
 28  17  29  1   
 29  17  30  1   
 30  18  19  1   
 31  18  31  1   
 32  18  32  1   
 33  19  20  1   
 34  20  33  1   
 35  20  34  1   
 36  20  35  1   
@<TRIPOS>SUBSTRUCTURE
  1 ****   5 GROUP 4 **** **** 0

# MOE 2024.06 (io_trps.svl 2023.06)
