@<TRIPOS>MOLECULE
NONAME
61 64 1 0 0 
SMALL
USER_CHARGES


@<TRIPOS>ATOM
  1 O        0.1130    -0.4230     0.7610 O.3   1 <1>  -0.6800 
  2 C        1.1060    -0.4210    -0.2080 C.3   1 <1>   0.2000 
  3 C        2.0990    -1.5230     0.1290 C.3   1 <1>  -0.0800 
  4 C        1.9360     0.8580    -0.0300 C.3   1 <1>   0.3430 
  5 C        2.8420    -0.9040     1.3110 C.3   1 <1>   0.3430 
  6 C        3.0340    -1.8380    -1.0600 C.3   1 <1>   0.0210 
  7 N        2.9960     0.5640     1.0090 N.4   1 <1>  -0.9590 
  8 C        4.2820    -2.5860    -0.6310 C.2   1 <1>   0.1080 
  9 C        4.3950     0.9040     0.6020 C.3   1 <1>   0.4230 
 10 N        5.3620    -2.0070    -0.1880 N.2   1 <1>  -0.7070 
 11 C        4.3990    -3.9700    -0.6740 C.2   1 <1>  -0.1500 
 12 C        5.3630     0.6840     1.7700 C.3   1 <1>  -0.1600 
 13 C        4.5130     2.3590     0.1280 C.3   1 <1>  -0.1600 
 14 N        6.2140    -3.0380     0.0430 N.pl3 1 <1>   0.3000 
 15 C        5.6460    -4.2270    -0.2350 C.2   1 <1>  -0.3320 
 16 C        6.7900     0.9830     1.3250 C.3   1 <1>   0.3430 
 17 C        5.9530     2.6770    -0.2780 C.3   1 <1>   0.3430 
 18 C        6.3450    -5.5660    -0.0730 C.3   1 <1>  -0.0600 
 19 N        6.8900     2.3940     0.8490 N.4   1 <1>  -0.9590 
 20 C        8.3140     2.6830     0.4690 C.3   1 <1>   0.3430 
 21 C        8.5810     4.1800     0.2910 C.3   1 <1>  -0.0170 
 22 C       10.0610     4.3640     0.0240 C.ar  1 <1>  -0.1430 
 23 C       10.9450     4.5320     1.0800 C.ar  1 <1>  -0.1500 
 24 C       10.5460     4.3510    -1.2750 C.ar  1 <1>  -0.1500 
 25 C       12.3000     4.6780     0.8380 C.ar  1 <1>  -0.1500 
 26 C       11.9000     4.4970    -1.5160 C.ar  1 <1>  -0.1500 
 27 C       12.7780     4.6590    -0.4590 C.ar  1 <1>  -0.1500 
 28 H       -0.5560    -1.1210     0.5910 H     1 <1>   0.4000 
 29 H        0.6500    -0.5010    -1.1810 H     1 <1>   0.0800 
 30 H        1.6060    -2.4310     0.4320 H     1 <1>   0.0800 
 31 H        1.3020     1.6780     0.2660 H     1 <1>   0.0800 
 32 H        2.4010     1.0930    -0.9710 H     1 <1>   0.0800 
 33 H        3.7810    -1.3980     1.4870 H     1 <1>   0.0800 
 34 H        2.2280    -1.0170     2.1910 H     1 <1>   0.0800 
 35 H        3.3480    -0.9430    -1.5650 H     1 <1>   0.0800 
 36 H        2.5020    -2.4350    -1.7810 H     1 <1>   0.0800 
 37 H        2.7360     1.0710     1.8650 H     1 <1>   0.4500 
 38 H        4.6850     0.2580    -0.2110 H     1 <1>   0.0800 
 39 H        3.6480    -4.6700    -0.9990 H     1 <1>   0.1500 
 40 H        5.1070     1.3080     2.6080 H     1 <1>   0.0800 
 41 H        5.3450    -0.3390     2.0960 H     1 <1>   0.0800 
 42 H        3.8970     2.5280    -0.7350 H     1 <1>   0.0800 
 43 H        4.2020     3.0370     0.9030 H     1 <1>   0.0800 
 44 H        7.1780    -2.9200     0.3770 H     1 <1>   0.2700 
 45 H        7.0660     0.3070     0.5300 H     1 <1>   0.0800 
 46 H        7.4660     0.8240     2.1510 H     1 <1>   0.0800 
 47 H        6.0210     3.7160    -0.5630 H     1 <1>   0.0800 
 48 H        6.2270     2.0790    -1.1340 H     1 <1>   0.0800 
 49 H        5.6860    -6.3650    -0.3650 H     1 <1>   0.0800 
 50 H        6.6310    -5.7200     0.9530 H     1 <1>   0.0800 
 51 H        7.2240    -5.6080    -0.6920 H     1 <1>   0.0800 
 52 H        6.6610     3.0160     1.6390 H     1 <1>   0.4500 
 53 H        8.9730     2.3210     1.2420 H     1 <1>   0.0800 
 54 H        8.5680     2.1670    -0.4430 H     1 <1>   0.0800 
 55 H        8.0240     4.5780    -0.5370 H     1 <1>   0.0800 
 56 H        8.3130     4.7190     1.1820 H     1 <1>   0.0800 
 57 H       10.5950     4.5550     2.0970 H     1 <1>   0.1500 
 58 H        9.8820     4.2320    -2.1140 H     1 <1>   0.1500 
 59 H       12.9840     4.8090     1.6590 H     1 <1>   0.1500 
 60 H       12.2750     4.4890    -2.5250 H     1 <1>   0.1500 
 61 H       13.8320     4.7740    -0.6470 H     1 <1>   0.1500 
@<TRIPOS>BOND
  1   1   2  1   
  2   1  28  1   
  3   2   3  1   
  4   2   4  1   
  5   2  29  1   
  6   3   5  1   
  7   3   6  1   
  8   3  30  1   
  9   4   7  1   
 10   4  31  1   
 11   4  32  1   
 12   5   7  1   
 13   5  33  1   
 14   5  34  1   
 15   6   8  1   
 16   6  35  1   
 17   6  36  1   
 18   7   9  1   
 19   7  37  1   
 20   8  10  2   
 21   8  11  1   
 22   9  12  1   
 23   9  13  1   
 24   9  38  1   
 25  10  14  1   
 26  11  15  2   
 27  11  39  1   
 28  12  16  1   
 29  12  40  1   
 30  12  41  1   
 31  13  17  1   
 32  13  42  1   
 33  13  43  1   
 34  14  15  1   
 35  14  44  1   
 36  15  18  1   
 37  16  19  1   
 38  16  45  1   
 39  16  46  1   
 40  17  19  1   
 41  17  47  1   
 42  17  48  1   
 43  18  49  1   
 44  18  50  1   
 45  18  51  1   
 46  19  20  1   
 47  19  52  1   
 48  20  21  1   
 49  20  53  1   
 50  20  54  1   
 51  21  22  1   
 52  21  55  1   
 53  21  56  1   
 54  22  23  ar  
 55  22  24  ar  
 56  23  25  ar  
 57  23  57  1   
 58  24  26  ar  
 59  24  58  1   
 60  25  27  ar  
 61  25  59  1   
 62  26  27  ar  
 63  26  60  1   
 64  27  61  1   
@<TRIPOS>SUBSTRUCTURE
  1 ****  16 GROUP 4 **** **** 0

# MOE 2024.06 (io_trps.svl 2023.06)
