@<TRIPOS>MOLECULE
NONAME
46 49 1 0 0 
SMALL
USER_CHARGES


@<TRIPOS>ATOM
  1 S        0.1150     0.0940     0.0990 S.3   1 <1>  -0.0800 
  2 C       -0.4690    -1.4870     0.6330 C.2   1 <1>   0.0410 
  3 C       -1.1800     0.9350     0.9300 C.2   1 <1>  -0.1100 
  4 C        0.2450    -2.6750     0.2330 C.2   1 <1>   0.2880 
  5 C       -1.5800    -1.3030     1.3910 C.2   1 <1>  -0.1500 
  6 C       -1.9810     0.0570     1.5580 C.2   1 <1>  -0.1500 
  7 N        1.3440    -2.6880    -0.4810 N.2   1 <1>  -0.7070 
  8 C       -0.1370    -3.9730     0.5490 C.2   1 <1>  -0.1500 
  9 N        1.6730    -3.9760    -0.6150 N.pl3 1 <1>   0.3140 
 10 C        0.7820    -4.8040    -0.0120 C.2   1 <1>  -0.2370 
 11 C        2.8830    -4.3530    -1.3640 C.3   1 <1>   0.0160 
 12 C        0.8780    -6.2380    -0.0120 C.2   1 <1>   0.7150 
 13 O        1.9670    -6.7820    -0.0260 O.2   1 <1>  -0.5700 
 14 N       -0.2460    -7.0290    -0.0120 N.am  1 <1>  -0.6600 
 15 C       -1.5800    -6.5940    -0.4980 C.3   1 <1>   0.1400 
 16 C       -0.1650    -8.5110     0.0270 C.3   1 <1>   0.1400 
 17 C       -2.2390    -7.8700    -1.0190 C.3   1 <1>   0.2000 
 18 C       -1.5890    -9.0060    -0.2340 C.3   1 <1>  -0.0800 
 19 O       -3.6080    -7.8620    -0.8090 O.3   1 <1>  -0.6800 
 20 C       -1.6490   -10.3550    -0.9660 C.3   1 <1>   0.0200 
 21 C       -0.9180   -11.4290    -0.1830 C.2   1 <1>  -0.0400 
 22 O       -1.3250   -11.7540     1.0150 O.3   1 <1>  -0.0190 
 23 C        0.1530   -12.1810    -0.4740 C.2   1 <1>  -0.1500 
 24 N       -0.5790   -12.6800     1.5440 N.2   1 <1>  -0.4100 
 25 C        0.3190   -12.9590     0.6680 C.2   1 <1>   0.1080 
 26 C        1.4050   -13.9920     0.8640 C.3   1 <1>  -0.0590 
 27 H       -1.2020     2.0080     0.8570 H     1 <1>   0.1500 
 28 H       -2.1440    -2.0950     1.8490 H     1 <1>   0.1500 
 29 H       -2.8490     0.3130     2.1400 H     1 <1>   0.1500 
 30 H       -0.9960    -4.2380     1.1350 H     1 <1>   0.1500 
 31 H        2.6270    -5.0710    -2.1190 H     1 <1>   0.0800 
 32 H        3.5980    -4.7780    -0.6850 H     1 <1>   0.0800 
 33 H        3.3020    -3.4770    -1.8250 H     1 <1>   0.0800 
 34 H       -2.1390    -6.1890     0.3270 H     1 <1>   0.0800 
 35 H       -1.4850    -5.8630    -1.2820 H     1 <1>   0.0800 
 36 H        0.5080    -8.8480    -0.7440 H     1 <1>   0.0800 
 37 H        0.1990    -8.8470     0.9840 H     1 <1>   0.0800 
 38 H       -2.0580    -7.9650    -2.0760 H     1 <1>   0.0800 
 39 H       -2.0700    -9.1000     0.7250 H     1 <1>   0.0800 
 40 H       -3.8110    -7.8880     0.1470 H     1 <1>   0.4000 
 41 H       -1.2050   -10.2650    -1.9410 H     1 <1>   0.0800 
 42 H       -2.6750   -10.6510    -1.0930 H     1 <1>   0.0800 
 43 H        0.7620   -12.2070    -1.3580 H     1 <1>   0.1500 
 44 H        1.3410   -14.7400     0.0960 H     1 <1>   0.0800 
 45 H        1.2920   -14.4670     1.8220 H     1 <1>   0.0800 
 46 H        2.3690   -13.5200     0.8220 H     1 <1>   0.0800 
@<TRIPOS>BOND
  1   1   2  1   
  2   1   3  1   
  3   2   4  1   
  4   2   5  2   
  5   3   6  2   
  6   3  27  1   
  7   4   7  2   
  8   4   8  1   
  9   5   6  1   
 10   5  28  1   
 11   6  29  1   
 12   7   9  1   
 13   8  10  2   
 14   8  30  1   
 15   9  10  1   
 16   9  11  1   
 17  10  12  1   
 18  11  31  1   
 19  11  32  1   
 20  11  33  1   
 21  12  13  2   
 22  12  14  am  
 23  14  15  1   
 24  14  16  1   
 25  15  17  1   
 26  15  34  1   
 27  15  35  1   
 28  16  18  1   
 29  16  36  1   
 30  16  37  1   
 31  17  18  1   
 32  17  19  1   
 33  17  38  1   
 34  18  20  1   
 35  18  39  1   
 36  19  40  1   
 37  20  21  1   
 38  20  41  1   
 39  20  42  1   
 40  21  22  1   
 41  21  23  2   
 42  22  24  1   
 43  23  25  1   
 44  23  43  1   
 45  24  25  2   
 46  25  26  1   
 47  26  44  1   
 48  26  45  1   
 49  26  46  1   
@<TRIPOS>SUBSTRUCTURE
  1 ****  14 GROUP 4 **** **** 0

# MOE 2024.06 (io_trps.svl 2023.06)
