@<TRIPOS>MOLECULE
NONAME
53 55 1 0 0 
SMALL
USER_CHARGES


@<TRIPOS>ATOM
  1 O        0.4140     0.4330    -1.3530 O.2   1 <1>  -0.5700 
  2 C        1.2390    -0.2240    -0.7610 C.2   1 <1>   0.5770 
  3 N        2.2020     0.4130     0.0050 N.am  1 <1>  -0.6600 
  4 C        1.1160    -1.7490    -0.9130 C.3   1 <1>   0.0530 
  5 C        3.2130    -0.2840     0.8610 C.3   1 <1>   0.1400 
  6 C        2.0700     1.8830     0.2510 C.3   1 <1>   0.1400 
  7 C        2.4160    -2.5450    -1.2510 C.3   1 <1>   0.0000 
  8 C        0.6190    -2.1700    -2.3350 C.3   1 <1>   0.0000 
  9 C        0.2200    -2.3600     0.1820 C.3   1 <1>   0.1200 
 10 C        4.5980    -0.3320     0.1910 C.3   1 <1>   0.3430 
 11 C        3.4140     2.6150     0.2880 C.3   1 <1>  -0.1600 
 12 C        1.5880    -3.3760    -2.2610 C.3   1 <1>   0.0000 
 13 O        0.8910    -2.3760     1.4030 O.3   1 <1>  -0.5600 
 14 N        5.2610     1.0020     0.0270 N.4   1 <1>  -0.9590 
 15 C        4.4440     2.0340    -0.6770 C.3   1 <1>   0.3430 
 16 C        0.1230    -2.8660     2.4550 C.3   1 <1>   0.0400 
 17 C        6.6120     0.8670    -0.5720 C.3   1 <1>   0.4860 
 18 C        7.3800     2.1490    -0.3260 C.ar  1 <1>  -0.1440 
 19 C        7.5260     2.6430     0.9710 C.ar  1 <1>   0.4100 
 20 C        7.9290     2.8560    -1.3750 C.ar  1 <1>  -0.1500 
 21 N        8.1320     3.7660     1.2770 N.ar  1 <1>  -0.6200 
 22 N        7.0260     2.0100     2.0650 N.pl3 1 <1>  -0.9000 
 23 C        8.5850     4.0300    -1.0600 C.ar  1 <1>  -0.1500 
 24 C        8.6540     4.4340     0.2610 C.ar  1 <1>   0.1600 
 25 H        2.9090    -1.2920     1.0510 H     1 <1>   0.0800 
 26 H        3.2800     0.2000     1.8190 H     1 <1>   0.0800 
 27 H        1.5420     2.0400     1.1770 H     1 <1>   0.0800 
 28 H        1.4750     2.3300    -0.5290 H     1 <1>   0.0800 
 29 H        2.8150    -3.1290    -0.4400 H     1 <1>   0.0000 
 30 H        3.1560    -1.9490    -1.7550 H     1 <1>   0.0000 
 31 H        0.9070    -1.4810    -3.1120 H     1 <1>   0.0000 
 32 H       -0.4190    -2.4490    -2.3830 H     1 <1>   0.0000 
 33 H       -0.0540    -3.3730    -0.0610 H     1 <1>   0.0800 
 34 H       -0.6760    -1.7700     0.2870 H     1 <1>   0.0800 
 35 H        4.4940    -0.7980    -0.7730 H     1 <1>   0.0800 
 36 H        5.2330    -0.9650     0.7890 H     1 <1>   0.0800 
 37 H        3.8000     2.6450     1.2910 H     1 <1>   0.0800 
 38 H        3.2250     3.6350     0.0040 H     1 <1>   0.0800 
 39 H        1.1420    -4.2520    -1.8200 H     1 <1>   0.0000 
 40 H        2.1030    -3.5760    -3.1830 H     1 <1>   0.0000 
 41 H        5.4730     1.3840     0.9700 H     1 <1>   0.4500 
 42 H        5.0860     2.8370    -1.0030 H     1 <1>   0.0800 
 43 H        3.9560     1.6150    -1.5420 H     1 <1>   0.0800 
 44 H        0.7220    -2.8470     3.3480 H     1 <1>   0.0800 
 45 H       -0.1730    -3.8790     2.2400 H     1 <1>   0.0800 
 46 H       -0.7430    -2.2400     2.5870 H     1 <1>   0.0800 
 47 H        6.5360     0.6700    -1.6280 H     1 <1>   0.0800 
 48 H        7.1420     0.0530    -0.1050 H     1 <1>   0.0800 
 49 H        7.8620     2.5300    -2.4000 H     1 <1>   0.1500 
 50 H        6.8850     2.7240     2.7920 H     1 <1>   0.4000 
 51 H        7.7250     1.3810     2.4760 H     1 <1>   0.4000 
 52 H        9.0390     4.6290    -1.8300 H     1 <1>   0.1500 
 53 H        9.1660     5.3540     0.4950 H     1 <1>   0.1500 
@<TRIPOS>BOND
  1   1   2  2   
  2   2   3  am  
  3   2   4  1   
  4   3   5  1   
  5   3   6  1   
  6   4   7  1   
  7   4   8  1   
  8   4   9  1   
  9   5  10  1   
 10   5  25  1   
 11   5  26  1   
 12   6  11  1   
 13   6  27  1   
 14   6  28  1   
 15   7  12  1   
 16   7  29  1   
 17   7  30  1   
 18   8  12  1   
 19   8  31  1   
 20   8  32  1   
 21   9  13  1   
 22   9  33  1   
 23   9  34  1   
 24  10  14  1   
 25  10  35  1   
 26  10  36  1   
 27  11  15  1   
 28  11  37  1   
 29  11  38  1   
 30  12  39  1   
 31  12  40  1   
 32  13  16  1   
 33  14  15  1   
 34  14  17  1   
 35  14  41  1   
 36  15  42  1   
 37  15  43  1   
 38  16  44  1   
 39  16  45  1   
 40  16  46  1   
 41  17  18  1   
 42  17  47  1   
 43  17  48  1   
 44  18  19  ar  
 45  18  20  ar  
 46  19  21  ar  
 47  19  22  1   
 48  20  23  ar  
 49  20  49  1   
 50  21  24  ar  
 51  22  50  1   
 52  22  51  1   
 53  23  24  ar  
 54  23  52  1   
 55  24  53  1   
@<TRIPOS>SUBSTRUCTURE
  1 ****  10 GROUP 4 **** **** 0

# MOE 2024.06 (io_trps.svl 2023.06)
