@<TRIPOS>MOLECULE
NONAME
51 53 1 0 0 
SMALL
USER_CHARGES


@<TRIPOS>ATOM
  1 O        0.9280     1.4010     0.5500 O.co2 1 <1>  -0.9000 
  2 C        0.0770     1.8920    -0.1970 C.2   1 <1>   0.9060 
  3 O        0.0920     1.7080    -1.4240 O.co2 1 <1>  -0.9000 
  4 C       -1.1650     2.5470     0.4700 C.3   1 <1>   0.4600 
  5 N       -2.4680     1.7940     0.2530 N.4   1 <1>  -0.9590 
  6 C       -1.4300     4.0230     0.1560 C.ar  1 <1>  -0.1430 
  7 C       -2.3300     0.4040     0.7930 C.3   1 <1>   0.3430 
  8 C       -2.7960     1.7420    -1.2010 C.3   1 <1>   0.3430 
  9 C       -2.0100     4.8200     1.1100 C.ar  1 <1>  -0.1500 
 10 C       -1.1070     4.5870    -1.0910 C.ar  1 <1>  -0.1500 
 11 C       -3.4330    -0.5430     0.2750 C.3   1 <1>  -0.0800 
 12 C       -4.2330     1.2320    -1.3870 C.3   1 <1>  -0.0800 
 13 C       -2.3050     6.1770     0.8710 C.ar  1 <1>   0.0000 
 14 C       -1.3800     5.9010    -1.3500 C.ar  1 <1>  -0.1500 
 15 C       -4.6500     0.2290    -0.2800 C.3   1 <1>  -0.1600 
 16 C       -3.8130    -1.5270     1.3900 C.3   1 <1>   0.1200 
 17 C       -5.1920     2.4300    -1.4750 C.3   1 <1>   0.1200 
 18 C       -1.9870     6.7290    -0.3870 C.ar  1 <1>   0.0000 
 19 C       -2.9070     7.0070     1.8390 C.ar  1 <1>  -0.1500 
 20 O       -4.7030    -2.4640     0.8990 O.3   1 <1>  -0.6800 
 21 O       -6.4960     1.9780    -1.5690 O.3   1 <1>  -0.6800 
 22 C       -2.2820     8.0840    -0.6280 C.ar  1 <1>  -0.1500 
 23 C       -3.1850     8.3210     1.5790 C.ar  1 <1>  -0.1500 
 24 C       -2.8670     8.8740     0.3240 C.ar  1 <1>   0.0830 
 25 O       -3.1120    10.1670     0.0000 O.3   1 <1>  -0.3620 
 26 C       -3.6690    11.0730     0.9250 C.3   1 <1>   0.0400 
 27 H       -0.9400     2.5030     1.5210 H     1 <1>   0.0800 
 28 H       -3.2120     2.3040     0.7340 H     1 <1>   0.4500 
 29 H       -1.3710    -0.0060     0.5110 H     1 <1>   0.0800 
 30 H       -2.3600     0.4420     1.8690 H     1 <1>   0.0800 
 31 H       -2.6880     2.7140    -1.6530 H     1 <1>   0.0800 
 32 H       -2.1060     1.0740    -1.6940 H     1 <1>   0.0800 
 33 H       -2.2560     4.4270     2.0800 H     1 <1>   0.1500 
 34 H       -0.6340     3.9880    -1.8530 H     1 <1>   0.1500 
 35 H       -2.9980    -1.1210    -0.5250 H     1 <1>   0.0800 
 36 H       -4.2530     0.7290    -2.3390 H     1 <1>   0.0800 
 37 H       -1.1270     6.3280    -2.3040 H     1 <1>   0.1500 
 38 H       -5.1230     0.7590     0.5300 H     1 <1>   0.0800 
 39 H       -5.3780    -0.4510    -0.6870 H     1 <1>   0.0800 
 40 H       -4.2770    -1.0260     2.2230 H     1 <1>   0.0800 
 41 H       -2.9450    -2.0630     1.7380 H     1 <1>   0.0800 
 42 H       -4.9820     3.0430    -2.3370 H     1 <1>   0.0800 
 43 H       -5.1260     3.0410    -0.5900 H     1 <1>   0.0800 
 44 H       -3.1460     6.5860     2.7990 H     1 <1>   0.1500 
 45 H       -5.5620    -2.0550     0.6720 H     1 <1>   0.4000 
 46 H       -6.6660     1.5570    -2.4350 H     1 <1>   0.4000 
 47 H       -2.0380     8.5060    -1.5850 H     1 <1>   0.1500 
 48 H       -3.6450     8.9250     2.3380 H     1 <1>   0.1500 
 49 H       -3.7490    12.0320     0.4460 H     1 <1>   0.0800 
 50 H       -3.0190    11.1450     1.7790 H     1 <1>   0.0800 
 51 H       -4.6460    10.7250     1.2110 H     1 <1>   0.0800 
@<TRIPOS>BOND
  1   1   2  ar  
  2   2   3  ar  
  3   2   4  1   
  4   4   5  1   
  5   4   6  1   
  6   4  27  1   
  7   5   7  1   
  8   5   8  1   
  9   5  28  1   
 10   6   9  ar  
 11   6  10  ar  
 12   7  11  1   
 13   7  29  1   
 14   7  30  1   
 15   8  12  1   
 16   8  31  1   
 17   8  32  1   
 18   9  13  ar  
 19   9  33  1   
 20  10  14  ar  
 21  10  34  1   
 22  11  15  1   
 23  11  16  1   
 24  11  35  1   
 25  12  15  1   
 26  12  17  1   
 27  12  36  1   
 28  13  18  ar  
 29  13  19  ar  
 30  14  18  ar  
 31  14  37  1   
 32  15  38  1   
 33  15  39  1   
 34  16  20  1   
 35  16  40  1   
 36  16  41  1   
 37  17  21  1   
 38  17  42  1   
 39  17  43  1   
 40  18  22  ar  
 41  19  23  ar  
 42  19  44  1   
 43  20  45  1   
 44  21  46  1   
 45  22  24  ar  
 46  22  47  1   
 47  23  24  ar  
 48  23  48  1   
 49  24  25  1   
 50  25  26  1   
 51  26  49  1   
 52  26  50  1   
 53  26  51  1   
@<TRIPOS>SUBSTRUCTURE
  1 ****   6 GROUP 4 **** **** 0

# MOE 2024.06 (io_trps.svl 2023.06)
