@<TRIPOS>MOLECULE
NONAME
53 55 1 0 0 
SMALL
USER_CHARGES


@<TRIPOS>ATOM
  1 O        0.1630     0.1340     1.2520 O.2   1 <1>  -0.5700 
  2 C        1.2530    -0.4050     1.1720 C.2   1 <1>   0.7150 
  3 N        2.3650     0.3750     1.2260 N.am  1 <1>  -0.7300 
  4 C        1.3720    -1.8370     1.0070 C.2   1 <1>   0.0550 
  5 C        2.3800     1.8370     1.1770 C.3   1 <1>   0.4000 
  6 O        0.3030    -2.6190     1.1160 O.3   1 <1>  -0.2800 
  7 C        2.4460    -2.6320     0.7360 C.2   1 <1>  -0.1500 
  8 C        3.4900     2.2600     0.2210 C.2   1 <1>   0.0060 
  9 C        2.6460     2.3570     2.5870 C.3   1 <1>  -0.2400 
 10 C        0.6490    -3.8700     0.9200 C.2   1 <1>  -0.0400 
 11 C        1.9760    -3.9460     0.6770 C.2   1 <1>  -0.1500 
 12 N        4.5690     1.5890    -0.0070 N.2   1 <1>  -0.5650 
 13 N        3.4630     3.3920    -0.4980 N.pl3 1 <1>   0.3140 
 14 C       -0.4180    -4.9490     0.9910 C.3   1 <1>   0.5230 
 15 C        5.1910     2.3750    -0.8940 C.2   1 <1>   0.3660 
 16 N        4.5740     3.4620    -1.2180 N.2   1 <1>  -0.7070 
 17 C        2.4260     4.4460    -0.5660 C.3   1 <1>   0.0960 
 18 N       -1.4920    -4.6630    -0.0040 N.4   1 <1>  -0.9590 
 19 C        1.3270     4.0810    -1.5720 C.3   1 <1>  -0.2400 
 20 C       -2.4400    -3.6200     0.4950 C.3   1 <1>   0.3430 
 21 C       -2.1980    -5.9020    -0.4330 C.3   1 <1>   0.3430 
 22 C       -3.4300    -3.2540    -0.6110 C.3   1 <1>  -0.1600 
 23 C       -3.1810    -5.5720    -1.5570 C.3   1 <1>  -0.1600 
 24 C       -4.1810    -4.4860    -1.1350 C.3   1 <1>  -0.0800 
 25 C       -5.0920    -4.1050    -2.3060 C.3   1 <1>  -0.2400 
 26 H        3.2830    -0.0080     0.9890 H     1 <1>   0.3700 
 27 H        1.4280     2.1990     0.8260 H     1 <1>   0.0800 
 28 H        3.4690    -2.3320     0.5870 H     1 <1>   0.1500 
 29 H        3.5940     1.9960     2.9430 H     1 <1>   0.0800 
 30 H        1.8650     2.0310     3.2510 H     1 <1>   0.0800 
 31 H        2.6680     3.4310     2.5860 H     1 <1>   0.0800 
 32 H        2.5890    -4.8090     0.4770 H     1 <1>   0.1500 
 33 H       -0.8320    -4.9870     1.9860 H     1 <1>   0.0800 
 34 H        0.0410    -5.8990     0.7750 H     1 <1>   0.0800 
 35 H        6.1500     2.0980    -1.3010 H     1 <1>   0.1500 
 36 H        2.9030     5.3620    -0.8670 H     1 <1>   0.0800 
 37 H        2.0070     4.5900     0.4130 H     1 <1>   0.0800 
 38 H       -1.0200    -4.2540    -0.8210 H     1 <1>   0.4500 
 39 H        1.7530     3.9560    -2.5520 H     1 <1>   0.0800 
 40 H        0.5990     4.8710    -1.6180 H     1 <1>   0.0800 
 41 H        0.8280     3.1730    -1.2840 H     1 <1>   0.0800 
 42 H       -1.9070    -2.7320     0.7950 H     1 <1>   0.0800 
 43 H       -2.9800    -3.9930     1.3510 H     1 <1>   0.0800 
 44 H       -2.7360    -6.3230     0.4010 H     1 <1>   0.0800 
 45 H       -1.4870    -6.6320    -0.7850 H     1 <1>   0.0800 
 46 H       -2.8990    -2.7690    -1.4120 H     1 <1>   0.0800 
 47 H       -4.1360    -2.5420    -0.2200 H     1 <1>   0.0800 
 48 H       -3.7170    -6.4660    -1.8230 H     1 <1>   0.0800 
 49 H       -2.6320    -5.2550    -2.4270 H     1 <1>   0.0800 
 50 H       -4.8000    -4.8750    -0.3420 H     1 <1>   0.0800 
 51 H       -4.5200    -3.7060    -3.1270 H     1 <1>   0.0800 
 52 H       -5.8070    -3.3620    -1.9990 H     1 <1>   0.0800 
 53 H       -5.6350    -4.9660    -2.6560 H     1 <1>   0.0800 
@<TRIPOS>BOND
  1   1   2  2   
  2   2   3  am  
  3   2   4  1   
  4   3   5  1   
  5   3  26  1   
  6   4   6  1   
  7   4   7  2   
  8   5   8  1   
  9   5   9  1   
 10   5  27  1   
 11   6  10  1   
 12   7  11  1   
 13   7  28  1   
 14   8  12  2   
 15   8  13  1   
 16   9  29  1   
 17   9  30  1   
 18   9  31  1   
 19  10  11  2   
 20  10  14  1   
 21  11  32  1   
 22  12  15  1   
 23  13  16  1   
 24  13  17  1   
 25  14  18  1   
 26  14  33  1   
 27  14  34  1   
 28  15  16  2   
 29  15  35  1   
 30  17  19  1   
 31  17  36  1   
 32  17  37  1   
 33  18  20  1   
 34  18  21  1   
 35  18  38  1   
 36  19  39  1   
 37  19  40  1   
 38  19  41  1   
 39  20  22  1   
 40  20  42  1   
 41  20  43  1   
 42  21  23  1   
 43  21  44  1   
 44  21  45  1   
 45  22  24  1   
 46  22  46  1   
 47  22  47  1   
 48  23  24  1   
 49  23  48  1   
 50  23  49  1   
 51  24  25  1   
 52  24  50  1   
 53  25  51  1   
 54  25  52  1   
 55  25  53  1   
@<TRIPOS>SUBSTRUCTURE
  1 ****   2 GROUP 4 **** **** 0

# MOE 2024.06 (io_trps.svl 2023.06)
