@<TRIPOS>MOLECULE
NONAME
41 43 1 0 0 
SMALL
USER_CHARGES


@<TRIPOS>ATOM
  1 CL      -2.1810    -1.3620    -2.7950 Cl    1 <1>  -0.1770 
  2 C       -2.3690     0.1890    -2.0120 C.ar  1 <1>   0.1770 
  3 C       -2.8520     0.2540    -0.7180 C.ar  1 <1>  -0.1440 
  4 C       -2.0340     1.3440    -2.7040 C.ar  1 <1>   0.1600 
  5 C       -2.9530     1.5310    -0.2010 C.ar  1 <1>   0.1770 
  6 C       -3.2220    -0.9700     0.0990 C.3   1 <1>   0.4860 
  7 N       -2.1440     2.5680    -2.2050 N.ar  1 <1>  -0.6200 
  8 CL      -3.5490     1.7600     1.4240 Cl    1 <1>  -0.1770 
  9 C       -2.5980     2.6370    -0.9600 C.ar  1 <1>   0.1600 
 10 N       -4.2820    -1.7940    -0.5640 N.4   1 <1>  -0.9590 
 11 C       -5.6720    -1.2790    -0.3550 C.3   1 <1>   0.4230 
 12 C       -4.1330    -3.2160    -0.1120 C.3   1 <1>   0.2630 
 13 C       -6.7250    -2.2190    -0.9470 C.3   1 <1>  -0.1600 
 14 C       -5.9330     0.0410    -1.0790 C.3   1 <1>  -0.1600 
 15 C       -7.9580    -1.3450    -1.1950 C.3   1 <1>  -0.0800 
 16 C       -7.4490     0.0990    -1.3000 C.3   1 <1>  -0.0800 
 17 C       -8.9730    -1.3640    -0.0430 C.3   1 <1>  -0.1600 
 18 C       -8.2000     0.9050    -0.2280 C.3   1 <1>  -0.1600 
 19 C       -9.4400     0.0780     0.0710 C.3   1 <1>   0.2000 
 20 O       -9.8940     0.3360     1.3440 O.3   1 <1>  -0.6800 
 21 H       -1.6600     1.2540    -3.7110 H     1 <1>   0.1500 
 22 H       -3.5490    -0.6820     1.0840 H     1 <1>   0.0800 
 23 H       -2.3300    -1.5650     0.2150 H     1 <1>   0.0800 
 24 H       -2.6930     3.6170    -0.5220 H     1 <1>   0.1500 
 25 H       -4.0930    -1.7690    -1.5770 H     1 <1>   0.4500 
 26 H       -5.8760    -1.1510     0.6970 H     1 <1>   0.0800 
 27 H       -4.3530    -3.3020     0.9400 H     1 <1>   0.0800 
 28 H       -3.1260    -3.5610    -0.2840 H     1 <1>   0.0800 
 29 H       -4.8050    -3.8590    -0.6570 H     1 <1>   0.0800 
 30 H       -6.3870    -2.5960    -1.8970 H     1 <1>   0.0800 
 31 H       -6.9540    -3.0430    -0.2940 H     1 <1>   0.0800 
 32 H       -5.5980     0.8910    -0.5160 H     1 <1>   0.0800 
 33 H       -5.4550     0.0350    -2.0430 H     1 <1>   0.0800 
 34 H       -8.4520    -1.6310    -2.1100 H     1 <1>   0.0800 
 35 H       -7.6770     0.5020    -2.2740 H     1 <1>   0.0800 
 36 H       -8.5020    -1.6660     0.8760 H     1 <1>   0.0800 
 37 H       -9.7990    -2.0200    -0.2570 H     1 <1>   0.0800 
 38 H       -8.4680     1.8830    -0.5880 H     1 <1>   0.0800 
 39 H       -7.6050     1.0020     0.6630 H     1 <1>   0.0800 
 40 H      -10.2290     0.2890    -0.6330 H     1 <1>   0.0800 
 41 H       -9.1930     0.1850     2.0030 H     1 <1>   0.4000 
@<TRIPOS>BOND
  1   1   2  1   
  2   2   3  ar  
  3   2   4  ar  
  4   3   5  ar  
  5   3   6  1   
  6   4   7  ar  
  7   4  21  1   
  8   5   8  1   
  9   5   9  ar  
 10   6  10  1   
 11   6  22  1   
 12   6  23  1   
 13   7   9  ar  
 14   9  24  1   
 15  10  11  1   
 16  10  12  1   
 17  10  25  1   
 18  11  13  1   
 19  11  14  1   
 20  11  26  1   
 21  12  27  1   
 22  12  28  1   
 23  12  29  1   
 24  13  15  1   
 25  13  30  1   
 26  13  31  1   
 27  14  16  1   
 28  14  32  1   
 29  14  33  1   
 30  15  16  1   
 31  15  17  1   
 32  15  34  1   
 33  16  18  1   
 34  16  35  1   
 35  17  19  1   
 36  17  36  1   
 37  17  37  1   
 38  18  19  1   
 39  18  38  1   
 40  18  39  1   
 41  19  20  1   
 42  19  40  1   
 43  20  41  1   
@<TRIPOS>SUBSTRUCTURE
  1 ****  14 GROUP 4 **** **** 0

# MOE 2024.06 (io_trps.svl 2023.06)
