@<TRIPOS>MOLECULE
NONAME
41 43 1 0 0 
SMALL
USER_CHARGES


@<TRIPOS>ATOM
  1 CL      -0.5300    -0.5740     1.5170 Cl    1 <1>  -0.1770 
  2 C        1.0410    -1.1690     1.0020 C.ar  1 <1>   0.1770 
  3 C        1.2010    -2.3970     0.3650 C.ar  1 <1>   0.4100 
  4 C        2.1560    -0.4140     1.2420 C.ar  1 <1>   0.1600 
  5 N        2.4090    -2.8110     0.0180 N.ar  1 <1>  -0.6200 
  6 N        0.1480    -3.2410     0.0560 N.pl3 1 <1>  -0.8380 
  7 N        3.3650    -0.8170     0.8900 N.ar  1 <1>  -0.6200 
  8 C        3.4130    -1.9990     0.2970 C.ar  1 <1>   0.4770 
  9 C        0.3190    -4.7110     0.1730 C.3   1 <1>   0.2090 
 10 C       -0.8900    -2.8000    -0.9100 C.3   1 <1>   0.2090 
 11 C        4.7840    -2.4870    -0.1070 C.3   1 <1>  -0.0960 
 12 C       -1.0180    -5.3540     0.5460 C.3   1 <1>  -0.1600 
 13 C       -2.2310    -3.4230    -0.5260 C.3   1 <1>  -0.1600 
 14 C       -2.1130    -4.9450    -0.4460 C.3   1 <1>   0.2000 
 15 O       -3.3430    -5.4300    -0.0120 O.3   1 <1>  -0.5600 
 16 C       -3.6430    -6.7410    -0.3830 C.3   1 <1>   0.2630 
 17 C       -5.0230    -7.1130     0.1370 C.ar  1 <1>  -0.1440 
 18 C       -5.2600    -8.3880     0.6330 C.ar  1 <1>   0.1600 
 19 C       -6.0670    -6.2080     0.1190 C.ar  1 <1>  -0.1500 
 20 N       -6.4230    -8.8230     1.0930 N.ar  1 <1>  -0.6200 
 21 C       -7.2840    -6.6410     0.5980 C.ar  1 <1>  -0.1500 
 22 C       -7.4060    -7.9380     1.0660 C.ar  1 <1>   0.1600 
 23 H        2.0610     0.5370     1.7330 H     1 <1>   0.1500 
 24 H        1.0520    -4.9330     0.9310 H     1 <1>   0.0800 
 25 H        0.6750    -5.1010    -0.7660 H     1 <1>   0.0800 
 26 H       -0.6050    -3.1160    -1.8990 H     1 <1>   0.0800 
 27 H       -0.9710    -1.7270    -0.9120 H     1 <1>   0.0800 
 28 H        4.7310    -2.9670    -1.0660 H     1 <1>   0.0800 
 29 H        5.1380    -3.1900     0.6210 H     1 <1>   0.0800 
 30 H        5.4720    -1.6640    -0.1670 H     1 <1>   0.0800 
 31 H       -1.2890    -5.0310     1.5350 H     1 <1>   0.0800 
 32 H       -0.8960    -6.4200     0.5540 H     1 <1>   0.0800 
 33 H       -2.9690    -3.1550    -1.2590 H     1 <1>   0.0800 
 34 H       -2.5350    -3.0290     0.4270 H     1 <1>   0.0800 
 35 H       -1.9030    -5.3360    -1.4280 H     1 <1>   0.0800 
 36 H       -2.8970    -7.3960     0.0310 H     1 <1>   0.0800 
 37 H       -3.6300    -6.8060    -1.4570 H     1 <1>   0.0800 
 38 H       -4.4500    -9.0950     0.6510 H     1 <1>   0.1500 
 39 H       -5.9310    -5.2050    -0.2500 H     1 <1>   0.1500 
 40 H       -8.1310    -5.9800     0.6110 H     1 <1>   0.1500 
 41 H       -8.3620    -8.2640     1.4370 H     1 <1>   0.1500 
@<TRIPOS>BOND
  1   1   2  1   
  2   2   3  ar  
  3   2   4  ar  
  4   3   5  ar  
  5   3   6  1   
  6   4   7  ar  
  7   4  23  1   
  8   5   8  ar  
  9   6   9  1   
 10   6  10  1   
 11   7   8  ar  
 12   8  11  1   
 13   9  12  1   
 14   9  24  1   
 15   9  25  1   
 16  10  13  1   
 17  10  26  1   
 18  10  27  1   
 19  11  28  1   
 20  11  29  1   
 21  11  30  1   
 22  12  14  1   
 23  12  31  1   
 24  12  32  1   
 25  13  14  1   
 26  13  33  1   
 27  13  34  1   
 28  14  15  1   
 29  14  35  1   
 30  15  16  1   
 31  16  17  1   
 32  16  36  1   
 33  16  37  1   
 34  17  18  ar  
 35  17  19  ar  
 36  18  20  ar  
 37  18  38  1   
 38  19  21  ar  
 39  19  39  1   
 40  20  22  ar  
 41  21  22  ar  
 42  21  40  1   
 43  22  41  1   
@<TRIPOS>SUBSTRUCTURE
  1 ****  12 GROUP 4 **** **** 0

# MOE 2024.06 (io_trps.svl 2023.06)
