@<TRIPOS>MOLECULE
NONAME
51 53 1 0 0 
SMALL
USER_CHARGES


@<TRIPOS>ATOM
  1 O       -0.6680    -0.0090     2.6460 O.2   1 <1>  -0.5700 
  2 C       -1.2070     0.7120     1.8380 C.2   1 <1>   0.5690 
  3 N       -2.1610     0.2290     0.9830 N.am  1 <1>  -0.6600 
  4 C       -0.8010     2.1810     1.8150 C.3   1 <1>   0.0440 
  5 C       -2.7640     0.9460    -0.1710 C.3   1 <1>   0.1400 
  6 C       -2.6070    -1.1800     0.9870 C.3   1 <1>   0.1400 
  7 C       -0.2270     2.6420     0.4700 C.ar  1 <1>  -0.1440 
  8 C       -3.7000    -0.0640    -0.8470 C.3   1 <1>   0.2000 
  9 C       -3.1320    -1.4240    -0.4290 C.3   1 <1>  -0.0800 
 10 C       -0.6500     3.8020    -0.1770 C.ar  1 <1>  -0.1440 
 11 C        0.7510     1.8530    -0.1200 C.ar  1 <1>  -0.1500 
 12 O       -4.9960     0.0640    -0.3320 O.3   1 <1>  -0.5600 
 13 C       -4.1300    -2.5930    -0.5230 C.3   1 <1>   0.0200 
 14 C       -0.0960     4.1340    -1.4040 C.ar  1 <1>  -0.1500 
 15 C       -1.6970     4.7340     0.4170 C.3   1 <1>  -0.0970 
 16 C        1.2990     2.1870    -1.3460 C.ar  1 <1>  -0.1430 
 17 C       -5.7890     1.0240    -0.9560 C.3   1 <1>   0.0400 
 18 C       -3.4880    -3.9480    -0.2750 C.2   1 <1>  -0.0400 
 19 C        0.8690     3.3330    -1.9870 C.ar  1 <1>  -0.1500 
 20 C        2.3640     1.3040    -1.9690 C.3   1 <1>  -0.0970 
 21 O       -4.2500    -5.0090    -0.2530 O.3   1 <1>  -0.0190 
 22 C       -2.2240    -4.3500    -0.0600 C.2   1 <1>  -0.1500 
 23 N       -3.5680    -6.0960    -0.0330 N.2   1 <1>  -0.4100 
 24 C       -2.3430    -5.7290     0.0890 C.2   1 <1>   0.1080 
 25 C       -1.1940    -6.6740     0.3580 C.3   1 <1>  -0.0590 
 26 H       -1.6640     2.7490     2.0970 H     1 <1>   0.0800 
 27 H       -0.0550     2.3400     2.5710 H     1 <1>   0.0800 
 28 H       -3.2900     1.8260     0.1520 H     1 <1>   0.0800 
 29 H       -1.9840     1.2190    -0.8590 H     1 <1>   0.0800 
 30 H       -1.7970    -1.8420     1.2410 H     1 <1>   0.0800 
 31 H       -3.3990    -1.2890     1.7090 H     1 <1>   0.0800 
 32 H       -3.7280     0.0480    -1.9180 H     1 <1>   0.0800 
 33 H       -2.2890    -1.6340    -1.0610 H     1 <1>   0.0800 
 34 H        1.0930     0.9630     0.3810 H     1 <1>   0.1500 
 35 H       -4.5720    -2.6030    -1.5030 H     1 <1>   0.0800 
 36 H       -4.9240    -2.4530     0.1900 H     1 <1>   0.0800 
 37 H       -0.4100     5.0250    -1.9190 H     1 <1>   0.1500 
 38 H       -1.8230     5.6120    -0.1910 H     1 <1>   0.0800 
 39 H       -1.3940     5.0510     1.3980 H     1 <1>   0.0800 
 40 H       -2.6460     4.2330     0.4840 H     1 <1>   0.0800 
 41 H       -6.7460     1.0370    -0.4640 H     1 <1>   0.0800 
 42 H       -5.9210     0.7580    -1.9910 H     1 <1>   0.0800 
 43 H       -5.3260     1.9910    -0.8690 H     1 <1>   0.0800 
 44 H        1.2850     3.6120    -2.9390 H     1 <1>   0.1500 
 45 H        2.4150     1.4610    -3.0310 H     1 <1>   0.0800 
 46 H        2.1410     0.2680    -1.7880 H     1 <1>   0.0800 
 47 H        3.3220     1.5330    -1.5380 H     1 <1>   0.0800 
 48 H       -1.3120    -3.7870    -0.0080 H     1 <1>   0.1500 
 49 H       -0.4840    -6.6220    -0.4460 H     1 <1>   0.0800 
 50 H       -1.5590    -7.6820     0.4370 H     1 <1>   0.0800 
 51 H       -0.7110    -6.4060     1.2790 H     1 <1>   0.0800 
@<TRIPOS>BOND
  1   1   2  2   
  2   2   3  am  
  3   2   4  1   
  4   3   5  1   
  5   3   6  1   
  6   4   7  1   
  7   4  26  1   
  8   4  27  1   
  9   5   8  1   
 10   5  28  1   
 11   5  29  1   
 12   6   9  1   
 13   6  30  1   
 14   6  31  1   
 15   7  10  ar  
 16   7  11  ar  
 17   8   9  1   
 18   8  12  1   
 19   8  32  1   
 20   9  13  1   
 21   9  33  1   
 22  10  14  ar  
 23  10  15  1   
 24  11  16  ar  
 25  11  34  1   
 26  12  17  1   
 27  13  18  1   
 28  13  35  1   
 29  13  36  1   
 30  14  19  ar  
 31  14  37  1   
 32  15  38  1   
 33  15  39  1   
 34  15  40  1   
 35  16  19  ar  
 36  16  20  1   
 37  17  41  1   
 38  17  42  1   
 39  17  43  1   
 40  18  21  1   
 41  18  22  2   
 42  19  44  1   
 43  20  45  1   
 44  20  46  1   
 45  20  47  1   
 46  21  23  1   
 47  22  24  1   
 48  22  48  1   
 49  23  24  2   
 50  24  25  1   
 51  25  49  1   
 52  25  50  1   
 53  25  51  1   
@<TRIPOS>SUBSTRUCTURE
  1 ****   3 GROUP 4 **** **** 0

# MOE 2024.06 (io_trps.svl 2023.06)
