@<TRIPOS>MOLECULE
NONAME
29 29 1 0 0 
SMALL
USER_CHARGES


@<TRIPOS>ATOM
  1 BR      -0.0410    -0.1600     1.3010 Br    1 <1>  -0.1110 
  2 C        1.4160     0.9860     0.7590 C.ar  1 <1>   0.1110 
  3 C        1.1980     2.2890     0.3140 C.ar  1 <1>  -0.1440 
  4 C        2.6800     0.4320     0.8410 C.ar  1 <1>  -0.1500 
  5 C        2.3130     3.0350    -0.0490 C.ar  1 <1>  -0.1500 
  6 C       -0.1760     2.9460     0.1920 C.3   1 <1>   0.3440 
  7 C        3.7720     1.1940     0.4720 C.ar  1 <1>  -0.1500 
  8 C        3.5970     2.4950     0.0280 C.ar  1 <1>   0.0830 
  9 O       -0.8460     2.8320     1.3920 O.3   1 <1>  -0.6800 
 10 C       -1.0150     2.3560    -0.9370 C.3   1 <1>  -0.0990 
 11 O        4.7210     3.1740    -0.3130 O.3   1 <1>  -0.3630 
 12 C       -2.2580     3.1800    -1.1390 C.2   1 <1>   0.6590 
 13 C        4.6720     4.5210    -0.7290 C.3   1 <1>   0.0400 
 14 O       -2.2070     4.2580    -1.6730 O.2   1 <1>  -0.5700 
 15 O       -3.3970     2.6440    -0.7180 O.3   1 <1>  -0.4300 
 16 C       -4.6250     3.3310    -0.8360 C.3   1 <1>   0.0400 
 17 H        2.8080    -0.5770     1.1890 H     1 <1>   0.1500 
 18 H        2.1730     4.0420    -0.3930 H     1 <1>   0.1500 
 19 H       -0.0540     4.0020     0.0130 H     1 <1>   0.0800 
 20 H        4.7670     0.7890     0.5270 H     1 <1>   0.1500 
 21 H       -0.7890     1.9080     1.7070 H     1 <1>   0.4000 
 22 H       -1.2780     1.3350    -0.7420 H     1 <1>   0.0800 
 23 H       -0.4470     2.3870    -1.8460 H     1 <1>   0.0800 
 24 H        5.6790     4.8470    -0.9210 H     1 <1>   0.0800 
 25 H        4.2400     5.1140     0.0570 H     1 <1>   0.0800 
 26 H        4.0890     4.5870    -1.6310 H     1 <1>   0.0800 
 27 H       -5.4030     2.7100    -0.4310 H     1 <1>   0.0800 
 28 H       -4.8120     3.5330    -1.8770 H     1 <1>   0.0800 
 29 H       -4.5600     4.2530    -0.2840 H     1 <1>   0.0800 
@<TRIPOS>BOND
  1   1   2  1   
  2   2   3  ar  
  3   2   4  ar  
  4   3   5  ar  
  5   3   6  1   
  6   4   7  ar  
  7   4  17  1   
  8   5   8  ar  
  9   5  18  1   
 10   6   9  1   
 11   6  10  1   
 12   6  19  1   
 13   7   8  ar  
 14   7  20  1   
 15   8  11  1   
 16   9  21  1   
 17  10  12  1   
 18  10  22  1   
 19  10  23  1   
 20  11  13  1   
 21  12  14  2   
 22  12  15  1   
 23  13  24  1   
 24  13  25  1   
 25  13  26  1   
 26  15  16  1   
 27  16  27  1   
 28  16  28  1   
 29  16  29  1   
@<TRIPOS>SUBSTRUCTURE
  1 ****   3 GROUP 4 **** **** 0

# MOE 2024.06 (io_trps.svl 2023.06)
