@<TRIPOS>MOLECULE
NONAME
51 53 1 0 0 
SMALL
USER_CHARGES


@<TRIPOS>ATOM
  1 F       -0.2640    -0.8450     1.7630 F     1 <1>  -0.1900 
  2 C       -1.0520     0.1630     1.4970 C.ar  1 <1>   0.1900 
  3 C       -2.2060    -0.0520     0.7430 C.ar  1 <1>   0.0000 
  4 C       -0.6880     1.4040     1.9840 C.ar  1 <1>  -0.1500 
  5 C       -2.5860    -1.3510     0.2340 C.ar  1 <1>   0.0000 
  6 C       -3.0010     1.0650     0.4920 C.ar  1 <1>  -0.1500 
  7 C       -1.4990     2.4920     1.7160 C.ar  1 <1>  -0.1500 
  8 C       -2.8050    -2.4290     1.0870 C.ar  1 <1>  -0.1500 
  9 C       -2.7520    -1.5670    -1.1310 C.ar  1 <1>  -0.1500 
 10 C       -2.6540     2.3190     0.9700 C.ar  1 <1>  -0.1500 
 11 C       -3.1830    -3.6640     0.5970 C.ar  1 <1>  -0.1500 
 12 C       -3.1320    -2.8020    -1.6190 C.ar  1 <1>  -0.1500 
 13 C       -3.3690    -3.8810    -0.7690 C.ar  1 <1>   0.0860 
 14 C       -3.7820    -5.1700    -1.2940 C.2   1 <1>   0.5440 
 15 O       -3.1830    -5.6470    -2.2410 O.2   1 <1>  -0.5700 
 16 N       -4.8430    -5.8680    -0.7600 N.am  1 <1>  -0.6600 
 17 C       -5.0590    -7.3160    -1.1030 C.3   1 <1>   0.1400 
 18 C       -5.8730    -5.2340     0.1270 C.3   1 <1>   0.1400 
 19 C       -5.8720    -8.0020     0.0020 C.3   1 <1>   0.2000 
 20 C       -7.2440    -5.8590    -0.1400 C.3   1 <1>  -0.1600 
 21 O       -5.9680    -9.3690    -0.2030 O.3   1 <1>  -0.6800 
 22 C       -7.2780    -7.3790     0.2200 C.3   1 <1>  -0.1060 
 23 C       -7.5160    -7.6000     1.7240 C.2   1 <1>   0.9060 
 24 C       -8.4470    -8.0520    -0.5740 C.3   1 <1>  -0.1600 
 25 O       -7.5780    -6.6360     2.4970 O.co2 1 <1>  -0.9000 
 26 O       -7.5740    -8.7680     2.1370 O.co2 1 <1>  -0.9000 
 27 C       -8.2850    -8.1690    -2.1030 C.3   1 <1>  -0.1600 
 28 C       -9.5180    -8.8250    -2.7300 C.3   1 <1>  -0.2400 
 29 H        0.2130     1.5130     2.5600 H     1 <1>   0.1500 
 30 H       -3.9030     0.9470    -0.0820 H     1 <1>   0.1500 
 31 H       -1.2350     3.4690     2.0850 H     1 <1>   0.1500 
 32 H       -2.6760    -2.2940     2.1470 H     1 <1>   0.1500 
 33 H       -2.5750    -0.7550    -1.8150 H     1 <1>   0.1500 
 34 H       -3.2860     3.1660     0.7620 H     1 <1>   0.1500 
 35 H       -3.3370    -4.4830     1.2780 H     1 <1>   0.1500 
 36 H       -3.2490    -2.9500    -2.6790 H     1 <1>   0.1500 
 37 H       -5.5790    -7.3800    -2.0410 H     1 <1>   0.0800 
 38 H       -4.1060    -7.8070    -1.1990 H     1 <1>   0.0800 
 39 H       -5.6080    -5.3840     1.1600 H     1 <1>   0.0800 
 40 H       -5.9250    -4.1760    -0.0620 H     1 <1>   0.0800 
 41 H       -5.2970    -7.8880     0.9060 H     1 <1>   0.0800 
 42 H       -7.9920    -5.3350     0.4280 H     1 <1>   0.0800 
 43 H       -7.4710    -5.6910    -1.1740 H     1 <1>   0.0800 
 44 H       -6.5250    -9.7020     0.5450 H     1 <1>   0.4000 
 45 H       -8.5960    -9.0460    -0.1860 H     1 <1>   0.0800 
 46 H       -9.3500    -7.5080    -0.3570 H     1 <1>   0.0800 
 47 H       -8.1450    -7.2030    -2.5520 H     1 <1>   0.0800 
 48 H       -7.4230    -8.7710    -2.3300 H     1 <1>   0.0800 
 49 H      -10.3960    -8.2360    -2.5360 H     1 <1>   0.0800 
 50 H       -9.6620    -9.8100    -2.3220 H     1 <1>   0.0800 
 51 H       -9.3880    -8.9110    -3.7940 H     1 <1>   0.0800 
@<TRIPOS>BOND
  1   1   2  1   
  2   2   3  ar  
  3   2   4  ar  
  4   3   5  1   
  5   3   6  ar  
  6   4   7  ar  
  7   4  29  1   
  8   5   8  ar  
  9   5   9  ar  
 10   6  10  ar  
 11   6  30  1   
 12   7  10  ar  
 13   7  31  1   
 14   8  11  ar  
 15   8  32  1   
 16   9  12  ar  
 17   9  33  1   
 18  10  34  1   
 19  11  13  ar  
 20  11  35  1   
 21  12  13  ar  
 22  12  36  1   
 23  13  14  1   
 24  14  15  2   
 25  14  16  am  
 26  16  17  1   
 27  16  18  1   
 28  17  19  1   
 29  17  37  1   
 30  17  38  1   
 31  18  20  1   
 32  18  39  1   
 33  18  40  1   
 34  19  21  1   
 35  19  22  1   
 36  19  41  1   
 37  20  22  1   
 38  20  42  1   
 39  20  43  1   
 40  21  44  1   
 41  22  23  1   
 42  22  24  1   
 43  23  25  ar  
 44  23  26  ar  
 45  24  27  1   
 46  24  45  1   
 47  24  46  1   
 48  27  28  1   
 49  27  47  1   
 50  27  48  1   
 51  28  49  1   
 52  28  50  1   
 53  28  51  1   
@<TRIPOS>SUBSTRUCTURE
  1 ****  13 GROUP 4 **** **** 0

# MOE 2024.06 (io_trps.svl 2023.06)
