@<TRIPOS>MOLECULE
NONAME
47 49 1 0 0 
SMALL
USER_CHARGES


@<TRIPOS>ATOM
  1 O        0.1340     0.2850     1.2690 O.2   1 <1>  -0.5700 
  2 C        1.0340    -0.4590     0.9630 C.2   1 <1>   0.5690 
  3 N        2.1360    -0.0150     0.2990 N.am  1 <1>  -0.5100 
  4 C        0.9200    -1.9260     1.3430 C.3   1 <1>  -0.0990 
  5 C        3.5470    -0.5140     0.2630 C.3   1 <1>   0.2250 
  6 C        2.6110     1.3900     0.1210 C.3   1 <1>   0.2250 
  7 C        0.7650    -2.8400     0.1160 C.3   1 <1>  -0.1600 
  8 C        3.9790     0.9200     0.6570 C.3   1 <1>   0.0850 
  9 C        0.5820    -4.3140     0.5240 C.3   1 <1>  -0.0990 
 10 N        5.1100     1.4540    -0.1290 N.pl3 1 <1>   0.4850 
 11 C        0.4070    -5.2540    -0.6680 C.2   1 <1>   0.4230 
 12 N        5.9590     0.6580    -0.8110 N.2   1 <1>  -0.7070 
 13 C        5.4810     2.7550    -0.2310 C.2   1 <1>  -0.3320 
 14 O        1.0270    -5.0060    -1.6710 O.2   1 <1>  -0.5700 
 15 C       -0.4800    -6.3970    -0.5660 C.ar  1 <1>   0.0860 
 16 C        6.8280     1.4600    -1.3370 C.2   1 <1>   0.1080 
 17 C        6.5830     2.7870    -1.0100 C.2   1 <1>  -0.1500 
 18 C        4.7750     3.9310     0.4280 C.3   1 <1>  -0.0600 
 19 C       -1.0420    -6.9500    -1.7190 C.ar  1 <1>  -0.1500 
 20 C       -0.8110    -7.0010     0.6520 C.ar  1 <1>  -0.1500 
 21 C        7.9670     0.9670    -2.1990 C.3   1 <1>  -0.0590 
 22 C       -1.8980    -8.0340    -1.6650 C.ar  1 <1>  -0.1500 
 23 C       -1.6680    -8.0860     0.7130 C.ar  1 <1>  -0.1500 
 24 C       -2.2160    -8.6030    -0.4460 C.ar  1 <1>  -0.1500 
 25 H        0.0630    -2.0380     1.9820 H     1 <1>   0.0800 
 26 H        1.7880    -2.2090     1.9090 H     1 <1>   0.0800 
 27 H        3.8090    -0.8200    -0.7350 H     1 <1>   0.0000 
 28 H        3.7360    -1.2490     1.0230 H     1 <1>   0.0000 
 29 H        2.0990     2.0760     0.7720 H     1 <1>   0.0000 
 30 H        2.6100     1.6680    -0.9190 H     1 <1>   0.0000 
 31 H        1.6350    -2.7480    -0.5130 H     1 <1>   0.0800 
 32 H       -0.0880    -2.5220    -0.4600 H     1 <1>   0.0800 
 33 H        4.1020     1.0620     1.7160 H     1 <1>   0.0000 
 34 H       -0.2830    -4.3790     1.1590 H     1 <1>   0.0800 
 35 H        1.4400    -4.6400     1.0830 H     1 <1>   0.0800 
 36 H        7.1680     3.6340    -1.3210 H     1 <1>   0.1500 
 37 H        4.7050     3.7780     1.4900 H     1 <1>   0.0800 
 38 H        3.7870     4.0520     0.0230 H     1 <1>   0.0800 
 39 H        5.3260     4.8380     0.2510 H     1 <1>   0.0800 
 40 H       -0.7980    -6.5160    -2.6740 H     1 <1>   0.1500 
 41 H       -0.3920    -6.6330     1.5690 H     1 <1>   0.1500 
 42 H        7.5710     0.4280    -3.0390 H     1 <1>   0.0800 
 43 H        8.5900     0.3070    -1.6250 H     1 <1>   0.0800 
 44 H        8.5560     1.7910    -2.5530 H     1 <1>   0.0800 
 45 H       -2.3170    -8.4350    -2.5720 H     1 <1>   0.1500 
 46 H       -1.9100    -8.5320     1.6620 H     1 <1>   0.1500 
 47 H       -2.8830    -9.4470    -0.4010 H     1 <1>   0.1500 
@<TRIPOS>BOND
  1   1   2  2   
  2   2   3  am  
  3   2   4  1   
  4   3   5  1   
  5   3   6  1   
  6   4   7  1   
  7   4  25  1   
  8   4  26  1   
  9   5   8  1   
 10   5  27  1   
 11   5  28  1   
 12   6   8  1   
 13   6  29  1   
 14   6  30  1   
 15   7   9  1   
 16   7  31  1   
 17   7  32  1   
 18   8  10  1   
 19   8  33  1   
 20   9  11  1   
 21   9  34  1   
 22   9  35  1   
 23  10  12  1   
 24  10  13  1   
 25  11  14  2   
 26  11  15  1   
 27  12  16  2   
 28  13  17  2   
 29  13  18  1   
 30  15  19  ar  
 31  15  20  ar  
 32  16  17  1   
 33  16  21  1   
 34  17  36  1   
 35  18  37  1   
 36  18  38  1   
 37  18  39  1   
 38  19  22  ar  
 39  19  40  1   
 40  20  23  ar  
 41  20  41  1   
 42  21  42  1   
 43  21  43  1   
 44  21  44  1   
 45  22  24  ar  
 46  22  45  1   
 47  23  24  ar  
 48  23  46  1   
 49  24  47  1   
@<TRIPOS>SUBSTRUCTURE
  1 ****   7 GROUP 4 **** **** 0

# MOE 2024.06 (io_trps.svl 2023.06)
