@<TRIPOS>MOLECULE
NONAME
44 46 1 0 0 
SMALL
USER_CHARGES


@<TRIPOS>ATOM
  1 O       -0.3470    -0.8020     1.7050 O.3   1 <1>  -0.5600 
  2 C        0.8220    -0.4000     1.0610 C.3   1 <1>   0.1200 
  3 C       -1.4440    -0.3070     1.0120 C.3   1 <1>   0.1200 
  4 C        0.5060     0.9270     0.3660 C.3   1 <1>   0.2890 
  5 C       -1.0080     1.0630     0.5030 C.3   1 <1>  -0.0800 
  6 N        1.1800     2.0620     1.0310 N.pl3 1 <1>  -0.8690 
  7 C       -1.6930     1.4870    -0.8050 C.3   1 <1>  -0.0170 
  8 C        1.3790     3.2690     0.4600 C.ar  1 <1>   0.7200 
  9 C       -3.2040     1.5350    -0.6440 C.ar  1 <1>  -0.1440 
 10 N        1.5610     4.2530     1.3230 N.ar  1 <1>  -0.6200 
 11 N        1.3570     3.3500    -0.8650 N.ar  1 <1>  -0.6200 
 12 C       -3.8240     2.5600     0.0430 C.ar  1 <1>  -0.1500 
 13 C       -4.0340     0.5650    -1.1690 C.ar  1 <1>  -0.1500 
 14 C        1.7580     5.4370     0.7960 C.ar  1 <1>   0.1600 
 15 C        1.5570     4.5480    -1.3590 C.ar  1 <1>   0.1600 
 16 C       -5.2030     2.5630     0.1710 C.ar  1 <1>   0.1600 
 17 C       -5.4030     0.6620    -0.9840 C.ar  1 <1>   0.1600 
 18 C        1.7680     5.6530    -0.5650 C.ar  1 <1>  -0.1430 
 19 N       -6.0080     1.6370    -0.3250 N.ar  1 <1>  -0.6200 
 20 C        1.9970     7.0330    -1.1740 C.3   1 <1>   0.0630 
 21 C        3.3760     7.5770    -0.7850 C.3   1 <1>  -0.2400 
 22 C        0.8910     8.0050    -0.7500 C.3   1 <1>  -0.2400 
 23 H        1.6110    -0.3070     1.7860 H     1 <1>   0.0800 
 24 H        1.0730    -1.1530     0.3360 H     1 <1>   0.0800 
 25 H       -1.6570    -0.9830     0.2020 H     1 <1>   0.0800 
 26 H       -2.2890    -0.2490     1.6770 H     1 <1>   0.0800 
 27 H        0.8170     0.8650    -0.6640 H     1 <1>   0.0800 
 28 H       -1.2410     1.7800     1.2710 H     1 <1>   0.0800 
 29 H        1.0540     2.1210     2.0400 H     1 <1>   0.4000 
 30 H       -1.4330     0.8040    -1.5950 H     1 <1>   0.0800 
 31 H       -1.3380     2.4620    -1.0920 H     1 <1>   0.0800 
 32 H       -3.2460     3.3540     0.4790 H     1 <1>   0.1500 
 33 H       -3.6310    -0.2650    -1.7200 H     1 <1>   0.1500 
 34 H        1.9160     6.2600     1.4710 H     1 <1>   0.1500 
 35 H        1.5520     4.6490    -2.4310 H     1 <1>   0.1500 
 36 H       -5.6680     3.3700     0.7110 H     1 <1>   0.1500 
 37 H       -6.0350    -0.1040    -1.4010 H     1 <1>   0.1500 
 38 H        1.9680     6.9480    -2.2470 H     1 <1>   0.0800 
 39 H        3.4450     7.7310     0.2770 H     1 <1>   0.0800 
 40 H        3.5570     8.5160    -1.2780 H     1 <1>   0.0800 
 41 H        4.1430     6.8840    -1.0820 H     1 <1>   0.0800 
 42 H        0.9060     8.1670     0.3130 H     1 <1>   0.0800 
 43 H       -0.0710     7.6090    -1.0230 H     1 <1>   0.0800 
 44 H        1.0210     8.9520    -1.2420 H     1 <1>   0.0800 
@<TRIPOS>BOND
  1   1   2  1   
  2   1   3  1   
  3   2   4  1   
  4   2  23  1   
  5   2  24  1   
  6   3   5  1   
  7   3  25  1   
  8   3  26  1   
  9   4   5  1   
 10   4   6  1   
 11   4  27  1   
 12   5   7  1   
 13   5  28  1   
 14   6   8  1   
 15   6  29  1   
 16   7   9  1   
 17   7  30  1   
 18   7  31  1   
 19   8  10  ar  
 20   8  11  ar  
 21   9  12  ar  
 22   9  13  ar  
 23  10  14  ar  
 24  11  15  ar  
 25  12  16  ar  
 26  12  32  1   
 27  13  17  ar  
 28  13  33  1   
 29  14  18  ar  
 30  14  34  1   
 31  15  18  ar  
 32  15  35  1   
 33  16  19  ar  
 34  16  36  1   
 35  17  19  ar  
 36  17  37  1   
 37  18  20  1   
 38  20  21  1   
 39  20  22  1   
 40  20  38  1   
 41  21  39  1   
 42  21  40  1   
 43  21  41  1   
 44  22  42  1   
 45  22  43  1   
 46  22  44  1   
@<TRIPOS>SUBSTRUCTURE
  1 ****   7 GROUP 4 **** **** 0

# MOE 2024.06 (io_trps.svl 2023.06)
