@<TRIPOS>MOLECULE
NONAME
55 58 1 0 0 
SMALL
USER_CHARGES


@<TRIPOS>ATOM
  1 O       -0.0930     0.2170     1.1950 O.2   1 <1>  -0.5700 
  2 C        0.9330    -0.2750     0.7660 C.2   1 <1>   0.5440 
  3 N        2.0690     0.4870     0.6310 N.am  1 <1>  -0.4940 
  4 C        0.9860    -1.6810     0.4140 C.ar  1 <1>   0.0860 
  5 C        2.2560     1.8840     0.7580 C.2   1 <1>  -0.0880 
  6 C        1.7290    -2.1380    -0.6770 C.ar  1 <1>  -0.1500 
  7 C        0.2960    -2.6350     1.1600 C.ar  1 <1>  -0.1500 
  8 N        3.4590     2.5250     0.8570 N.pl3 1 <1>   0.3140 
  9 C        1.3100     2.8510     0.7850 C.2   1 <1>  -0.1500 
 10 C        1.7930    -3.4830    -0.9940 C.ar  1 <1>  -0.1500 
 11 C        0.3570    -3.9800     0.8480 C.ar  1 <1>  -0.1500 
 12 N        3.2860     3.8700     0.9320 N.2   1 <1>  -0.7070 
 13 C        4.8390     1.9620     0.9800 C.3   1 <1>   0.2710 
 14 C        2.0060     4.0460     0.8910 C.2   1 <1>   0.1080 
 15 C        1.1080    -4.4160    -0.2320 C.ar  1 <1>  -0.1430 
 16 C        5.0530     0.6620     0.1730 C.3   1 <1>  -0.1950 
 17 C        5.1940     1.7390     2.4560 C.3   1 <1>  -0.2400 
 18 C        1.3740     5.4160     0.9550 C.3   1 <1>  -0.0590 
 19 C        1.1740    -5.9030    -0.5780 C.3   1 <1>   0.2390 
 20 C        6.3040     0.4840    -0.6300 C.3   1 <1>  -0.2000 
 21 C        4.9840     0.6450    -1.3230 C.3   1 <1>  -0.2000 
 22 N       -0.1700    -6.5200    -0.6540 N.pl3 1 <1>   0.3140 
 23 N       -0.5200    -7.5170     0.1840 N.2   1 <1>  -0.7070 
 24 C       -1.1740    -6.2360    -1.5180 C.2   1 <1>  -0.3320 
 25 C       -1.7250    -7.8370    -0.1600 C.2   1 <1>   0.1080 
 26 C       -2.1910    -7.0710    -1.2200 C.2   1 <1>  -0.1500 
 27 C       -1.1280    -5.1670    -2.5970 C.3   1 <1>  -0.0600 
 28 C       -2.5030    -8.9270     0.5390 C.3   1 <1>  -0.0590 
 29 H        2.9020    -0.0380     0.3720 H     1 <1>   0.3700 
 30 H        2.2550    -1.4320    -1.2940 H     1 <1>   0.1500 
 31 H       -0.2990    -2.3090     1.9980 H     1 <1>   0.1500 
 32 H        0.2430     2.7320     0.7350 H     1 <1>   0.1500 
 33 H        2.3780    -3.7990    -1.8410 H     1 <1>   0.1500 
 34 H       -0.1900    -4.6910     1.4490 H     1 <1>   0.1500 
 35 H        5.5000     2.7120     0.5860 H     1 <1>   0.0800 
 36 H        4.7420    -0.2140     0.7150 H     1 <1>   0.1000 
 37 H        4.5300     1.0200     2.9000 H     1 <1>   0.0800 
 38 H        5.1170     2.6680     2.9920 H     1 <1>   0.0800 
 39 H        6.2040     1.3800     2.5410 H     1 <1>   0.0800 
 40 H        0.3040     5.3380     0.9120 H     1 <1>   0.0800 
 41 H        1.7190     6.0080     0.1270 H     1 <1>   0.0800 
 42 H        1.6570     5.8980     1.8720 H     1 <1>   0.0800 
 43 H        1.7370    -6.4200     0.1760 H     1 <1>   0.0800 
 44 H        1.6590    -6.0510    -1.5230 H     1 <1>   0.0800 
 45 H        6.7810    -0.4810    -0.6460 H     1 <1>   0.1000 
 46 H        7.0150     1.2910    -0.7010 H     1 <1>   0.1000 
 47 H        4.7850     1.5670    -1.8470 H     1 <1>   0.1000 
 48 H        4.5650    -0.2090    -1.8270 H     1 <1>   0.1000 
 49 H       -3.1590    -7.1490    -1.6820 H     1 <1>   0.1500 
 50 H       -0.3020    -5.3400    -3.2620 H     1 <1>   0.0800 
 51 H       -1.0260    -4.1930    -2.1510 H     1 <1>   0.0800 
 52 H       -2.0380    -5.1820    -3.1710 H     1 <1>   0.0800 
 53 H       -1.9710    -9.8570     0.4510 H     1 <1>   0.0800 
 54 H       -3.4770    -9.0340     0.1010 H     1 <1>   0.0800 
 55 H       -2.6060    -8.6810     1.5790 H     1 <1>   0.0800 
@<TRIPOS>BOND
  1   1   2  2   
  2   2   3  am  
  3   2   4  1   
  4   3   5  1   
  5   3  29  1   
  6   4   6  ar  
  7   4   7  ar  
  8   5   8  1   
  9   5   9  2   
 10   6  10  ar  
 11   6  30  1   
 12   7  11  ar  
 13   7  31  1   
 14   8  12  1   
 15   8  13  1   
 16   9  14  1   
 17   9  32  1   
 18  10  15  ar  
 19  10  33  1   
 20  11  15  ar  
 21  11  34  1   
 22  12  14  2   
 23  13  16  1   
 24  13  17  1   
 25  13  35  1   
 26  14  18  1   
 27  15  19  1   
 28  16  20  1   
 29  16  21  1   
 30  16  36  1   
 31  17  37  1   
 32  17  38  1   
 33  17  39  1   
 34  18  40  1   
 35  18  41  1   
 36  18  42  1   
 37  19  22  1   
 38  19  43  1   
 39  19  44  1   
 40  20  21  1   
 41  20  45  1   
 42  20  46  1   
 43  21  47  1   
 44  21  48  1   
 45  22  23  1   
 46  22  24  1   
 47  23  25  2   
 48  24  26  2   
 49  24  27  1   
 50  25  26  1   
 51  25  28  1   
 52  26  49  1   
 53  27  50  1   
 54  27  51  1   
 55  27  52  1   
 56  28  53  1   
 57  28  54  1   
 58  28  55  1   
@<TRIPOS>SUBSTRUCTURE
  1 ****   4 GROUP 4 **** **** 0

# MOE 2024.06 (io_trps.svl 2023.06)
