@<TRIPOS>MOLECULE
NONAME
47 49 1 0 0 
SMALL
USER_CHARGES


@<TRIPOS>ATOM
  1 O       -2.3820     1.2960     0.2780 O.2   1 <1>  -0.5700 
  2 C       -1.6690     2.2260     0.5730 C.2   1 <1>   0.5690 
  3 N       -2.1570     3.4970     0.7320 N.am  1 <1>  -0.6600 
  4 C       -0.1650     1.9490     0.7320 C.3   1 <1>   0.1810 
  5 C       -1.2420     4.6090     1.1360 C.3   1 <1>   0.3640 
  6 C       -3.6150     3.8090     0.6940 C.3   1 <1>   0.0600 
  7 O        0.5560     2.9850     1.3630 O.3   1 <1>  -0.5600 
  8 C       -1.6060     5.9550     0.4830 C.ar  1 <1>  -0.1430 
  9 C        0.2400     4.2740     0.8800 C.3   1 <1>   0.2610 
 10 C       -1.6380     6.2020    -0.8930 C.ar  1 <1>  -0.1430 
 11 C       -1.8920     7.0000     1.3560 C.ar  1 <1>  -0.1500 
 12 C        1.1170     5.3720     1.4990 C.2   1 <1>   0.5690 
 13 C       -1.9510     7.4740    -1.3490 C.ar  1 <1>  -0.1500 
 14 C       -1.3370     5.1600    -1.9660 C.3   1 <1>  -0.0960 
 15 C       -2.2040     8.2620     0.8900 C.ar  1 <1>  -0.1500 
 16 O        0.8620     5.7600     2.6190 O.2   1 <1>  -0.5700 
 17 N        2.1120     5.9620     0.7600 N.am  1 <1>  -0.6600 
 18 C       -2.2340     8.5000    -0.4680 C.ar  1 <1>  -0.1500 
 19 C        2.5950     7.3210     1.1080 C.3   1 <1>   0.3200 
 20 C        2.7510     5.3480    -0.4390 C.3   1 <1>   0.0600 
 21 C        2.2630     8.2520    -0.0400 C.2   1 <1>  -0.3320 
 22 N        1.0070     8.4540    -0.4950 N.pl3 1 <1>   0.3000 
 23 C        3.0800     9.0130    -0.8010 C.2   1 <1>  -0.1500 
 24 N        0.9940     9.3180    -1.5320 N.2   1 <1>  -0.7070 
 25 C        2.2370     9.6480    -1.7040 C.2   1 <1>   0.1390 
 26 H        0.2650     1.7840    -0.2380 H     1 <1>   0.0800 
 27 H       -0.0330     1.0590     1.3200 H     1 <1>   0.0800 
 28 H       -1.3550     4.7130     2.2020 H     1 <1>   0.0800 
 29 H       -3.8290     4.4640    -0.1320 H     1 <1>   0.0800 
 30 H       -3.9100     4.2900     1.6100 H     1 <1>   0.0800 
 31 H       -4.1940     2.9090     0.5770 H     1 <1>   0.0800 
 32 H        0.4070     4.2640    -0.1770 H     1 <1>   0.0800 
 33 H       -1.8660     6.8410     2.4210 H     1 <1>   0.1500 
 34 H       -1.9700     7.6850    -2.4050 H     1 <1>   0.1500 
 35 H       -1.8630     5.3990    -2.8730 H     1 <1>   0.0800 
 36 H       -1.6450     4.1760    -1.6760 H     1 <1>   0.0800 
 37 H       -0.2850     5.1530    -2.1860 H     1 <1>   0.0800 
 38 H       -2.4220     9.0570     1.5820 H     1 <1>   0.1500 
 39 H       -2.4690     9.4820    -0.8440 H     1 <1>   0.1500 
 40 H        2.1290     7.6820     2.0090 H     1 <1>   0.0800 
 41 H        3.6580     7.2920     1.2720 H     1 <1>   0.0800 
 42 H        3.8020     5.5820    -0.4520 H     1 <1>   0.0800 
 43 H        2.2980     5.7380    -1.3350 H     1 <1>   0.0800 
 44 H        2.6460     4.2770    -0.4190 H     1 <1>   0.0800 
 45 H        0.1440     8.0140    -0.1360 H     1 <1>   0.2700 
 46 H        4.1480     9.1270    -0.7500 H     1 <1>   0.1500 
 47 H        2.5650    10.3370    -2.4640 H     1 <1>   0.1500 
@<TRIPOS>BOND
  1   1   2  2   
  2   2   3  am  
  3   2   4  1   
  4   3   5  1   
  5   3   6  1   
  6   4   7  1   
  7   4  26  1   
  8   4  27  1   
  9   5   8  1   
 10   5   9  1   
 11   5  28  1   
 12   6  29  1   
 13   6  30  1   
 14   6  31  1   
 15   7   9  1   
 16   8  10  ar  
 17   8  11  ar  
 18   9  12  1   
 19   9  32  1   
 20  10  13  ar  
 21  10  14  1   
 22  11  15  ar  
 23  11  33  1   
 24  12  16  2   
 25  12  17  am  
 26  13  18  ar  
 27  13  34  1   
 28  14  35  1   
 29  14  36  1   
 30  14  37  1   
 31  15  18  ar  
 32  15  38  1   
 33  17  19  1   
 34  17  20  1   
 35  18  39  1   
 36  19  21  1   
 37  19  40  1   
 38  19  41  1   
 39  20  42  1   
 40  20  43  1   
 41  20  44  1   
 42  21  22  1   
 43  21  23  2   
 44  22  24  1   
 45  22  45  1   
 46  23  25  1   
 47  23  46  1   
 48  24  25  2   
 49  25  47  1   
@<TRIPOS>SUBSTRUCTURE
  1 ****   8 GROUP 4 **** **** 0

# MOE 2024.06 (io_trps.svl 2023.06)
