@<TRIPOS>MOLECULE
NONAME
55 59 1 0 0 
SMALL
USER_CHARGES


@<TRIPOS>ATOM
  1 O       -3.1060     2.7100    -1.6310 O.2   1 <1>  -0.5700 
  2 C       -3.1040     2.3700    -0.4660 C.2   1 <1>   0.5690 
  3 N       -4.0810     1.5170     0.0080 N.am  1 <1>  -0.6600 
  4 C       -1.9990     2.9670     0.4480 C.3   1 <1>   0.2810 
  5 C       -5.2480     1.1440    -0.8410 C.3   1 <1>   0.1400 
  6 C       -4.0480     0.7810     1.3080 C.3   1 <1>   0.1400 
  7 N       -0.6110     2.5320     0.0990 N.am  1 <1>  -0.6600 
  8 C       -1.9440     4.5040     0.3850 C.3   1 <1>  -0.1600 
  9 C       -5.1910    -0.3510    -1.1460 C.3   1 <1>  -0.1600 
 10 C       -4.0170    -0.7260     1.0440 C.3   1 <1>  -0.1600 
 11 C       -0.1840     1.2490     0.2630 C.2   1 <1>   0.5690 
 12 C        0.2150     3.6880    -0.2960 C.3   1 <1>   0.1400 
 13 C       -0.4600     4.8680     0.3870 C.3   1 <1>  -0.1600 
 14 C       -5.1670    -1.1790     0.1430 C.3   1 <1>   0.4600 
 15 O       -0.8730     0.4030     0.7770 O.2   1 <1>  -0.5700 
 16 C        1.2000     0.8530    -0.1940 C.3   1 <1>  -0.1790 
 17 O       -6.3570    -0.9500     0.8690 O.3   1 <1>  -0.5600 
 18 C       -5.0460    -2.6670    -0.1610 C.2   1 <1>  -0.3320 
 19 C       -7.5140    -1.6520     0.4790 C.3   1 <1>   0.1200 
 20 N       -3.9580    -3.2940    -0.7030 N.pl3 1 <1>   0.0330 
 21 C       -6.0140    -3.5740     0.0710 C.2   1 <1>  -0.1810 
 22 C       -7.3380    -3.1690     0.6680 C.3   1 <1>   0.0210 
 23 C       -4.2520    -4.6320    -0.8110 C.ar  1 <1>  -0.1520 
 24 C       -5.5420    -4.8420    -0.3290 C.ar  1 <1>   0.0000 
 25 C       -3.4870    -5.6960    -1.2960 C.ar  1 <1>  -0.1500 
 26 C       -6.0800    -6.1320    -0.3300 C.ar  1 <1>  -0.1500 
 27 C       -4.0290    -6.9610    -1.2920 C.ar  1 <1>  -0.1500 
 28 C       -5.3260    -7.1790    -0.8080 C.ar  1 <1>  -0.1500 
 29 H       -2.1750     2.6960     1.4690 H     1 <1>   0.0800 
 30 H       -6.1570     1.3780    -0.3130 H     1 <1>   0.0800 
 31 H       -5.2490     1.7020    -1.7620 H     1 <1>   0.0800 
 32 H       -3.1860     1.0370     1.8930 H     1 <1>   0.0800 
 33 H       -4.9280     1.0310     1.8760 H     1 <1>   0.0800 
 34 H       -2.3900     4.8530    -0.5300 H     1 <1>   0.0800 
 35 H       -2.4730     4.9490     1.2080 H     1 <1>   0.0800 
 36 H       -4.2990    -0.5460    -1.7130 H     1 <1>   0.0800 
 37 H       -6.0240    -0.6380    -1.7580 H     1 <1>   0.0800 
 38 H       -4.0630    -1.2630     1.9730 H     1 <1>   0.0800 
 39 H       -3.0800    -0.9660     0.5780 H     1 <1>   0.0800 
 40 H        1.2370     3.5810     0.0250 H     1 <1>   0.0800 
 41 H        0.1730     3.8000    -1.3660 H     1 <1>   0.0800 
 42 H       -0.1010     4.9420     1.3990 H     1 <1>   0.0800 
 43 H       -0.2650     5.7930    -0.1260 H     1 <1>   0.0800 
 44 H        1.3630     1.1900    -1.2000 H     1 <1>   0.0800 
 45 H        1.2970    -0.2160    -0.1680 H     1 <1>   0.0800 
 46 H        1.9340     1.2850     0.4600 H     1 <1>   0.0800 
 47 H       -8.3320    -1.2960     1.0790 H     1 <1>   0.0800 
 48 H       -7.7200    -1.4270    -0.5520 H     1 <1>   0.0800 
 49 H       -3.0680    -2.8560    -0.9620 H     1 <1>   0.2700 
 50 H       -7.3530    -3.4120     1.7150 H     1 <1>   0.0800 
 51 H       -8.1410    -3.6900     0.1800 H     1 <1>   0.0800 
 52 H       -2.4930    -5.5190    -1.6640 H     1 <1>   0.1500 
 53 H       -7.0740    -6.2840     0.0450 H     1 <1>   0.1500 
 54 H       -3.4610    -7.7970    -1.6600 H     1 <1>   0.1500 
 55 H       -5.7260    -8.1780    -0.8150 H     1 <1>   0.1500 
@<TRIPOS>BOND
  1   1   2  2   
  2   2   3  am  
  3   2   4  1   
  4   3   5  1   
  5   3   6  1   
  6   4   7  1   
  7   4   8  1   
  8   4  29  1   
  9   5   9  1   
 10   5  30  1   
 11   5  31  1   
 12   6  10  1   
 13   6  32  1   
 14   6  33  1   
 15   7  11  am  
 16   7  12  1   
 17   8  13  1   
 18   8  34  1   
 19   8  35  1   
 20   9  14  1   
 21   9  36  1   
 22   9  37  1   
 23  10  14  1   
 24  10  38  1   
 25  10  39  1   
 26  11  15  2   
 27  11  16  1   
 28  12  13  1   
 29  12  40  1   
 30  12  41  1   
 31  13  42  1   
 32  13  43  1   
 33  14  17  1   
 34  14  18  1   
 35  16  44  1   
 36  16  45  1   
 37  16  46  1   
 38  17  19  1   
 39  18  20  1   
 40  18  21  2   
 41  19  22  1   
 42  19  47  1   
 43  19  48  1   
 44  20  23  1   
 45  20  49  1   
 46  21  22  1   
 47  21  24  1   
 48  22  50  1   
 49  22  51  1   
 50  23  24  ar  
 51  23  25  ar  
 52  24  26  ar  
 53  25  27  ar  
 54  25  52  1   
 55  26  28  ar  
 56  26  53  1   
 57  27  28  ar  
 58  27  54  1   
 59  28  55  1   
@<TRIPOS>SUBSTRUCTURE
  1 ****  10 GROUP 4 **** **** 0

# MOE 2024.06 (io_trps.svl 2023.06)
