@<TRIPOS>MOLECULE
NONAME
43 45 1 0 0 
SMALL
USER_CHARGES


@<TRIPOS>ATOM
  1 S        0.0070     1.9390    -2.2650 S.3   1 <1>  -0.3320 
  2 C        0.2980     2.8220    -0.7470 C.ar  1 <1>   0.7720 
  3 C       -1.7330     1.2980    -2.2720 C.3   1 <1>  -0.0100 
  4 N        1.4820     3.3080    -0.5700 N.ar  1 <1>  -0.6200 
  5 N       -0.7310     2.9430     0.1160 N.ar  1 <1>  -0.1790 
  6 C        1.6980     3.9670     0.5810 C.ar  1 <1>   0.4100 
  7 C       -0.5690     3.6200     1.2630 C.ar  1 <1>   0.4610 
  8 N        2.9620     4.4150     0.7730 N.pl3 1 <1>  -0.8380 
  9 C        0.6830     4.1510     1.5010 C.ar  1 <1>  -0.1500 
 10 N       -1.6040     3.7510     2.1190 N.pl3 1 <1>  -0.9000 
 11 C        3.2870     5.8000     1.2600 C.3   1 <1>   0.2090 
 12 C        4.1290     3.4830     0.6360 C.3   1 <1>   0.2090 
 13 C        4.2770     6.6180     0.3690 C.3   1 <1>   0.4230 
 14 C        5.1100     3.9350    -0.4610 C.3   1 <1>  -0.0800 
 15 N        4.2780     6.2890    -1.1170 N.4   1 <1>  -0.9590 
 16 C        5.7110     6.6030     0.9420 C.3   1 <1>   0.1200 
 17 C        6.4250     4.5010     0.0960 C.3   1 <1>   0.1200 
 18 C        4.4280     4.8380    -1.4950 C.3   1 <1>   0.3430 
 19 C        3.0480     6.8200    -1.7760 C.3   1 <1>   0.2630 
 20 O        6.1850     5.3200     1.1940 O.3   1 <1>  -0.5600 
 21 H       -1.8660     0.7580    -3.1940 H     1 <1>   0.0800 
 22 H       -2.4110     2.1320    -2.2360 H     1 <1>   0.0800 
 23 H       -1.8610     0.6320    -1.4370 H     1 <1>   0.0800 
 24 H       -1.6200     2.5210    -0.1110 H     1 <1>   0.4570 
 25 H        0.8770     4.6840     2.4120 H     1 <1>   0.1500 
 26 H       -2.5560     3.3810     2.0110 H     1 <1>   0.4000 
 27 H       -1.5040     4.2430     3.0200 H     1 <1>   0.4000 
 28 H        2.3740     6.3650     1.3290 H     1 <1>   0.0800 
 29 H        3.6850     5.7330     2.2590 H     1 <1>   0.0800 
 30 H        4.6330     3.3950     1.5850 H     1 <1>   0.0800 
 31 H        3.7660     2.4990     0.3890 H     1 <1>   0.0800 
 32 H        3.9670     7.6450     0.4580 H     1 <1>   0.0800 
 33 H        5.3850     3.0430    -0.9930 H     1 <1>   0.0800 
 34 H        5.0880     6.7780    -1.5200 H     1 <1>   0.4500 
 35 H        5.7130     7.1160     1.8880 H     1 <1>   0.0800 
 36 H        6.4020     7.1120     0.2920 H     1 <1>   0.0800 
 37 H        6.9900     5.0420    -0.6450 H     1 <1>   0.0800 
 38 H        7.0370     3.6890     0.4540 H     1 <1>   0.0800 
 39 H        3.4520     4.4210    -1.6850 H     1 <1>   0.0800 
 40 H        4.9790     4.7780    -2.4200 H     1 <1>   0.0800 
 41 H        2.1780     6.3100    -1.3960 H     1 <1>   0.0800 
 42 H        3.0980     6.6660    -2.8420 H     1 <1>   0.0800 
 43 H        2.9440     7.8770    -1.5880 H     1 <1>   0.0800 
@<TRIPOS>BOND
  1   1   2  1   
  2   1   3  1   
  3   2   4  ar  
  4   2   5  ar  
  5   3  21  1   
  6   3  22  1   
  7   3  23  1   
  8   4   6  ar  
  9   5   7  ar  
 10   5  24  1   
 11   6   8  1   
 12   6   9  ar  
 13   7   9  ar  
 14   7  10  1   
 15   8  11  1   
 16   8  12  1   
 17   9  25  1   
 18  10  26  1   
 19  10  27  1   
 20  11  13  1   
 21  11  28  1   
 22  11  29  1   
 23  12  14  1   
 24  12  30  1   
 25  12  31  1   
 26  13  15  1   
 27  13  16  1   
 28  13  32  1   
 29  14  17  1   
 30  14  18  1   
 31  14  33  1   
 32  15  18  1   
 33  15  19  1   
 34  15  34  1   
 35  16  20  1   
 36  16  35  1   
 37  16  36  1   
 38  17  20  1   
 39  17  37  1   
 40  17  38  1   
 41  18  39  1   
 42  18  40  1   
 43  19  41  1   
 44  19  42  1   
 45  19  43  1   
@<TRIPOS>SUBSTRUCTURE
  1 ****   8 GROUP 4 **** **** 0

# MOE 2024.06 (io_trps.svl 2023.06)
