@<TRIPOS>MOLECULE
NONAME
52 54 1 0 0 
SMALL
USER_CHARGES


@<TRIPOS>ATOM
  1 O        1.3490    -0.5410    -2.3910 O.2   1 <1>  -0.5700 
  2 C        1.3240    -1.5080    -1.6680 C.2   1 <1>   0.5690 
  3 N        2.4090    -2.1170    -1.1520 N.am  1 <1>  -0.6600 
  4 C        0.0640    -2.1470    -1.1640 C.3   1 <1>  -0.0990 
  5 C        2.0460    -3.1320    -0.1470 C.3   1 <1>   0.1400 
  6 C        3.8260    -1.6690    -1.3340 C.3   1 <1>   0.2010 
  7 C        0.5400    -2.9020     0.0920 C.3   1 <1>   0.0640 
  8 C        4.1370    -0.3800    -0.5780 C.2   1 <1>   0.5690 
  9 C       -0.2460    -4.1740     0.4300 C.ar  1 <1>  -0.1440 
 10 O        4.9530    -0.4210     0.3150 O.2   1 <1>  -0.5700 
 11 N        3.4560     0.7410    -0.9470 N.am  1 <1>  -0.4930 
 12 C        0.3430    -5.1830     1.1840 C.ar  1 <1>  -0.1500 
 13 C       -1.5650    -4.3390     0.0210 C.ar  1 <1>  -0.1500 
 14 C        3.4170     2.0220    -0.3420 C.2   1 <1>   0.0630 
 15 C       -0.3560    -6.3340     1.4990 C.ar  1 <1>  -0.1500 
 16 C       -2.2660    -5.4910     0.3350 C.ar  1 <1>  -0.1500 
 17 C        2.2570     2.7590    -0.1060 C.2   1 <1>   0.1080 
 18 C        4.4200     2.8030     0.1180 C.2   1 <1>  -0.3320 
 19 C       -1.6610    -6.4910     1.0720 C.ar  1 <1>  -0.1500 
 20 N        2.4990     3.8960     0.4660 N.2   1 <1>  -0.7070 
 21 C        0.8570     2.3110    -0.4620 C.3   1 <1>  -0.0590 
 22 N        3.8370     3.9250     0.6130 N.pl3 1 <1>   0.3140 
 23 C        5.9210     2.5510     0.1110 C.3   1 <1>  -0.0600 
 24 C        4.5040     5.0770     1.2520 C.3   1 <1>   0.0960 
 25 C        4.8630     6.1510     0.2140 C.3   1 <1>  -0.1600 
 26 C        5.5740     7.3430     0.8640 C.3   1 <1>  -0.2400 
 27 H       -0.2920    -2.8210    -1.9200 H     1 <1>   0.0800 
 28 H       -0.6830    -1.4100    -0.9340 H     1 <1>   0.0800 
 29 H        2.6100    -2.9970     0.7610 H     1 <1>   0.0800 
 30 H        2.2280    -4.1120    -0.5550 H     1 <1>   0.0800 
 31 H        4.0070    -1.5020    -2.3810 H     1 <1>   0.0800 
 32 H        4.4930    -2.4420    -0.9990 H     1 <1>   0.0800 
 33 H        0.4530    -2.2330     0.9320 H     1 <1>   0.0800 
 34 H        2.7000     0.5720    -1.6250 H     1 <1>   0.3700 
 35 H        1.3520    -5.0880     1.5430 H     1 <1>   0.1500 
 36 H       -2.0710    -3.5770    -0.5430 H     1 <1>   0.1500 
 37 H        0.1140    -7.1090     2.0790 H     1 <1>   0.1500 
 38 H       -3.2850    -5.6070     0.0080 H     1 <1>   0.1500 
 39 H       -2.2060    -7.3870     1.3160 H     1 <1>   0.1500 
 40 H        0.6530     1.3600    -0.0060 H     1 <1>   0.0800 
 41 H        0.7640     2.2220    -1.5280 H     1 <1>   0.0800 
 42 H        0.1420     3.0310    -0.1070 H     1 <1>   0.0800 
 43 H        6.1590     1.7180    -0.5240 H     1 <1>   0.0800 
 44 H        6.2600     2.3270     1.1060 H     1 <1>   0.0800 
 45 H        6.4490     3.4110    -0.2590 H     1 <1>   0.0800 
 46 H        5.3860     4.7290     1.7560 H     1 <1>   0.0800 
 47 H        3.8310     5.4850     1.9840 H     1 <1>   0.0800 
 48 H        3.9590     6.4930    -0.2620 H     1 <1>   0.0800 
 49 H        5.5020     5.7240    -0.5400 H     1 <1>   0.0800 
 50 H        4.9420     7.7990     1.6070 H     1 <1>   0.0800 
 51 H        5.8090     8.0820     0.1180 H     1 <1>   0.0800 
 52 H        6.4900     7.0280     1.3330 H     1 <1>   0.0800 
@<TRIPOS>BOND
  1   1   2  2   
  2   2   3  am  
  3   2   4  1   
  4   3   5  1   
  5   3   6  1   
  6   4   7  1   
  7   4  27  1   
  8   4  28  1   
  9   5   7  1   
 10   5  29  1   
 11   5  30  1   
 12   6   8  1   
 13   6  31  1   
 14   6  32  1   
 15   7   9  1   
 16   7  33  1   
 17   8  10  2   
 18   8  11  am  
 19   9  12  ar  
 20   9  13  ar  
 21  11  14  1   
 22  11  34  1   
 23  12  15  ar  
 24  12  35  1   
 25  13  16  ar  
 26  13  36  1   
 27  14  17  1   
 28  14  18  2   
 29  15  19  ar  
 30  15  37  1   
 31  16  19  ar  
 32  16  38  1   
 33  17  20  2   
 34  17  21  1   
 35  18  22  1   
 36  18  23  1   
 37  19  39  1   
 38  20  22  1   
 39  21  40  1   
 40  21  41  1   
 41  21  42  1   
 42  22  24  1   
 43  23  43  1   
 44  23  44  1   
 45  23  45  1   
 46  24  25  1   
 47  24  46  1   
 48  24  47  1   
 49  25  26  1   
 50  25  48  1   
 51  25  49  1   
 52  26  50  1   
 53  26  51  1   
 54  26  52  1   
@<TRIPOS>SUBSTRUCTURE
  1 ****  11 GROUP 4 **** **** 0

# MOE 2024.06 (io_trps.svl 2023.06)
