@<TRIPOS>MOLECULE
NONAME
42 44 1 0 0 
SMALL
USER_CHARGES


@<TRIPOS>ATOM
  1 CL      -1.6590    -0.6740    -2.0770 Cl    1 <1>  -0.1770 
  2 C       -2.6530     0.5190    -1.2670 C.ar  1 <1>   0.1770 
  3 C       -2.8440     1.7680    -1.8360 C.ar  1 <1>   0.1770 
  4 C       -3.2520     0.1930    -0.0580 C.ar  1 <1>  -0.1440 
  5 CL      -2.0970     2.1760    -3.3610 Cl    1 <1>  -0.1770 
  6 C       -3.6350     2.7110    -1.2050 C.ar  1 <1>  -0.1500 
  7 C       -4.0450     1.1440     0.5730 C.ar  1 <1>  -0.1500 
  8 C       -3.0400    -1.1720     0.5690 C.3   1 <1>   0.4870 
  9 C       -4.2350     2.3940     0.0030 C.ar  1 <1>  -0.1500 
 10 N       -3.7390    -2.2150    -0.2330 N.4   1 <1>  -0.9590 
 11 C       -5.2200    -1.9990    -0.2500 C.3   1 <1>   0.3430 
 12 C       -3.5080    -3.5670     0.3680 C.3   1 <1>   0.3430 
 13 C       -5.7800    -2.9170     0.8380 C.3   1 <1>   0.2000 
 14 C       -4.8820    -4.1460     0.7430 C.3   1 <1>  -0.0800 
 15 O       -5.5690    -2.3160     2.0760 O.3   1 <1>  -0.6800 
 16 C       -5.3970    -5.1400    -0.3180 C.3   1 <1>   0.0210 
 17 C       -4.4900    -6.3480    -0.4270 C.2   1 <1>   0.1080 
 18 N       -3.3370    -6.3040    -1.0180 N.2   1 <1>  -0.7070 
 19 C       -4.7780    -7.6110     0.0750 C.2   1 <1>  -0.1500 
 20 N       -2.8570    -7.5620    -0.9200 N.pl3 1 <1>   0.3000 
 21 C       -3.7110    -8.3680    -0.2560 C.2   1 <1>  -0.3320 
 22 C       -3.4540    -9.8380     0.0200 C.3   1 <1>  -0.0600 
 23 H       -3.7760     3.6790    -1.6550 H     1 <1>   0.1500 
 24 H       -4.5210     0.9240     1.5160 H     1 <1>   0.1500 
 25 H       -3.4230    -1.1710     1.5770 H     1 <1>   0.0800 
 26 H       -1.9840    -1.3860     0.6070 H     1 <1>   0.0800 
 27 H       -4.8510     3.1270     0.5010 H     1 <1>   0.1500 
 28 H       -3.3570    -2.1880    -1.1900 H     1 <1>   0.4500 
 29 H       -5.4920    -0.9720    -0.0710 H     1 <1>   0.0800 
 30 H       -5.6130    -2.3050    -1.2050 H     1 <1>   0.0800 
 31 H       -2.9820    -4.2010    -0.3240 H     1 <1>   0.0800 
 32 H       -2.9120    -3.4770     1.2610 H     1 <1>   0.0800 
 33 H       -6.8320    -3.1180     0.7190 H     1 <1>   0.0800 
 34 H       -4.8230    -4.6660     1.6840 H     1 <1>   0.0800 
 35 H       -6.0370    -2.8030     2.7890 H     1 <1>   0.4000 
 36 H       -5.4540    -4.6770    -1.2870 H     1 <1>   0.0800 
 37 H       -6.3840    -5.4760    -0.0540 H     1 <1>   0.0800 
 38 H       -5.6670    -7.9050     0.6060 H     1 <1>   0.1500 
 39 H       -1.9520    -7.8440    -1.3180 H     1 <1>   0.2700 
 40 H       -4.2810   -10.2640     0.5610 H     1 <1>   0.0800 
 41 H       -2.5620    -9.9580     0.6100 H     1 <1>   0.0800 
 42 H       -3.3380   -10.3760    -0.9040 H     1 <1>   0.0800 
@<TRIPOS>BOND
  1   1   2  1   
  2   2   3  ar  
  3   2   4  ar  
  4   3   5  1   
  5   3   6  ar  
  6   4   7  ar  
  7   4   8  1   
  8   6   9  ar  
  9   6  23  1   
 10   7   9  ar  
 11   7  24  1   
 12   8  10  1   
 13   8  25  1   
 14   8  26  1   
 15   9  27  1   
 16  10  11  1   
 17  10  12  1   
 18  10  28  1   
 19  11  13  1   
 20  11  29  1   
 21  11  30  1   
 22  12  14  1   
 23  12  31  1   
 24  12  32  1   
 25  13  14  1   
 26  13  15  1   
 27  13  33  1   
 28  14  16  1   
 29  14  34  1   
 30  15  35  1   
 31  16  17  1   
 32  16  36  1   
 33  16  37  1   
 34  17  18  2   
 35  17  19  1   
 36  18  20  1   
 37  19  21  2   
 38  19  38  1   
 39  20  21  1   
 40  20  39  1   
 41  21  22  1   
 42  22  40  1   
 43  22  41  1   
 44  22  42  1   
@<TRIPOS>SUBSTRUCTURE
  1 ****  10 GROUP 4 **** **** 0

# MOE 2024.06 (io_trps.svl 2023.06)
