@<TRIPOS>MOLECULE
NONAME
45 48 1 0 0 
SMALL
USER_CHARGES


@<TRIPOS>ATOM
  1 F       -1.9870    -0.3950     1.5130 F     1 <1>  -0.1900 
  2 C       -2.3370     0.4770     0.6070 C.ar  1 <1>   0.1900 
  3 C       -3.0960     0.0660    -0.4950 C.ar  1 <1>   0.0860 
  4 C       -1.9190     1.7780     0.8050 C.ar  1 <1>  -0.1500 
  5 C       -3.5400    -1.2990    -0.7030 C.2   1 <1>   0.5440 
  6 C       -3.4120     1.0630    -1.4240 C.ar  1 <1>  -0.1500 
  7 C       -2.2630     2.7320    -0.1360 C.ar  1 <1>   0.0830 
  8 O       -3.6910    -1.7300    -1.8310 O.2   1 <1>  -0.5700 
  9 N       -3.8960    -2.1460     0.3210 N.am  1 <1>  -0.6600 
 10 C       -3.0070     2.3740    -1.2480 C.ar  1 <1>  -0.1500 
 11 O       -1.8800     4.0050     0.0110 O.3   1 <1>  -0.5330 
 12 C       -4.8950    -1.7360     1.3480 C.3   1 <1>   0.1400 
 13 C       -3.7960    -3.6210     0.1320 C.3   1 <1>   0.1400 
 14 C       -6.2900    -2.3350     1.0360 C.3   1 <1>   0.4230 
 15 C       -5.1740    -4.1960    -0.2300 C.3   1 <1>   0.3430 
 16 N       -6.2310    -3.8360     0.7940 N.4   1 <1>  -0.9590 
 17 C       -6.9410    -1.6100    -0.1660 C.3   1 <1>   0.1200 
 18 C       -7.5960    -4.3400     0.4190 C.3   1 <1>   0.5180 
 19 O       -8.2050    -2.1510    -0.4270 O.3   1 <1>  -0.5600 
 20 C       -7.5300    -5.8590     0.1620 C.3   1 <1>  -0.1950 
 21 C       -8.2010    -3.5150    -0.7450 C.3   1 <1>   0.1200 
 22 C       -7.2110    -6.4920    -1.1630 C.3   1 <1>  -0.2000 
 23 C       -8.5940    -6.6050    -0.5870 C.3   1 <1>  -0.2000 
 24 H       -1.3370     2.0320     1.6710 H     1 <1>   0.1500 
 25 H       -3.9800     0.8020    -2.3020 H     1 <1>   0.1500 
 26 H       -3.2600     3.1290    -1.9740 H     1 <1>   0.1500 
 27 H       -1.3280     4.1770     0.7960 H     1 <1>   0.4500 
 28 H       -4.5630    -2.0720     2.3150 H     1 <1>   0.0800 
 29 H       -4.9660    -0.6620     1.3890 H     1 <1>   0.0800 
 30 H       -3.0970    -3.8430    -0.6580 H     1 <1>   0.0800 
 31 H       -3.4240    -4.0770     1.0330 H     1 <1>   0.0800 
 32 H       -6.9200    -2.1440     1.8880 H     1 <1>   0.0800 
 33 H       -5.0910    -5.2660    -0.3150 H     1 <1>   0.0800 
 34 H       -5.4530    -3.8090    -1.1970 H     1 <1>   0.0800 
 35 H       -5.9720    -4.2900     1.6750 H     1 <1>   0.4500 
 36 H       -6.3390    -1.6910    -1.0550 H     1 <1>   0.0800 
 37 H       -7.0770    -0.5660     0.0570 H     1 <1>   0.0800 
 38 H       -8.2530    -4.1950     1.2620 H     1 <1>   0.0800 
 39 H       -7.1800    -6.3720     1.0420 H     1 <1>   0.1000 
 40 H       -9.2240    -3.8050    -0.9120 H     1 <1>   0.0800 
 41 H       -7.6530    -3.6550    -1.6590 H     1 <1>   0.0800 
 42 H       -7.1020    -5.9070    -2.0600 H     1 <1>   0.1000 
 43 H       -6.6080    -7.3850    -1.1900 H     1 <1>   0.1000 
 44 H       -8.9130    -7.5670    -0.2190 H     1 <1>   0.1000 
 45 H       -9.3910    -6.0920    -1.1000 H     1 <1>   0.1000 
@<TRIPOS>BOND
  1   1   2  1   
  2   2   3  ar  
  3   2   4  ar  
  4   3   5  1   
  5   3   6  ar  
  6   4   7  ar  
  7   4  24  1   
  8   5   8  2   
  9   5   9  am  
 10   6  10  ar  
 11   6  25  1   
 12   7  10  ar  
 13   7  11  1   
 14   9  12  1   
 15   9  13  1   
 16  10  26  1   
 17  11  27  1   
 18  12  14  1   
 19  12  28  1   
 20  12  29  1   
 21  13  15  1   
 22  13  30  1   
 23  13  31  1   
 24  14  16  1   
 25  14  17  1   
 26  14  32  1   
 27  15  16  1   
 28  15  33  1   
 29  15  34  1   
 30  16  18  1   
 31  16  35  1   
 32  17  19  1   
 33  17  36  1   
 34  17  37  1   
 35  18  20  1   
 36  18  21  1   
 37  18  38  1   
 38  19  21  1   
 39  20  22  1   
 40  20  23  1   
 41  20  39  1   
 42  21  40  1   
 43  21  41  1   
 44  22  23  1   
 45  22  42  1   
 46  22  43  1   
 47  23  44  1   
 48  23  45  1   
@<TRIPOS>SUBSTRUCTURE
  1 ****   9 GROUP 4 **** **** 0

# MOE 2024.06 (io_trps.svl 2023.06)
