@<TRIPOS>MOLECULE
NONAME
54 57 1 0 0 
SMALL
USER_CHARGES


@<TRIPOS>ATOM
  1 O       -2.2800     0.2020    -2.0580 O.2   1 <1>  -0.5700 
  2 C       -2.1160     0.3130    -0.8690 C.2   1 <1>   0.5690 
  3 N       -2.0280    -0.7630    -0.0530 N.am  1 <1>  -0.7300 
  4 C       -2.0110     1.6910    -0.2640 C.3   1 <1>  -0.0990 
  5 C       -2.0800    -2.1760    -0.4960 C.3   1 <1>   0.2200 
  6 C       -0.5660     2.1890    -0.3010 C.3   1 <1>   0.0210 
  7 C       -3.4390    -2.8020    -0.2070 C.3   1 <1>  -0.0800 
  8 C       -1.1910    -3.0070     0.4180 C.3   1 <1>   0.1200 
  9 C       -0.4680     3.5450     0.3670 C.2   1 <1>   0.1080 
 10 C       -3.3150    -3.1940     1.2710 C.3   1 <1>   0.1200 
 11 C       -4.6550    -1.9110    -0.5350 C.3   1 <1>  -0.0170 
 12 O       -1.9490    -3.2190     1.5710 O.3   1 <1>  -0.5600 
 13 N       -0.4030     3.6640     1.6550 N.2   1 <1>  -0.7070 
 14 C       -0.4500     4.7800    -0.2820 C.2   1 <1>  -0.1810 
 15 C       -6.0420    -2.5450    -0.3670 C.ar  1 <1>  -0.1440 
 16 N       -0.3320     4.9900     1.8680 N.pl3 1 <1>   0.3000 
 17 C       -0.3600     5.6890     0.7140 C.2   1 <1>  -0.3320 
 18 C       -0.5200     5.0010    -1.7830 C.3   1 <1>  -0.0590 
 19 C       -7.1970    -1.7310    -0.4680 C.ar  1 <1>   0.0000 
 20 C       -6.2430    -3.8760    -0.1270 C.ar  1 <1>  -0.1500 
 21 C       -0.2960     7.2070     0.6750 C.3   1 <1>  -0.0600 
 22 C       -8.4620    -2.3420    -0.2810 C.ar  1 <1>   0.3100 
 23 C       -7.1740    -0.3440    -0.7510 C.ar  1 <1>  -0.1500 
 24 C       -7.5380    -4.3810     0.0330 C.ar  1 <1>   0.1600 
 25 N       -8.6140    -3.6660    -0.0310 N.ar  1 <1>  -0.6200 
 26 C       -9.6200    -1.5530    -0.3590 C.ar  1 <1>  -0.1500 
 27 C       -8.3220     0.3970    -0.8250 C.ar  1 <1>  -0.1500 
 28 C       -9.5630    -0.2110    -0.6240 C.ar  1 <1>  -0.1500 
 29 H       -1.9100    -0.6450     0.9580 H     1 <1>   0.3700 
 30 H       -2.6390     2.3650    -0.8170 H     1 <1>   0.0800 
 31 H       -2.3590     1.6690     0.7520 H     1 <1>   0.0800 
 32 H       -1.7960    -2.2580    -1.5320 H     1 <1>   0.0800 
 33 H       -0.2230     2.2500    -1.3180 H     1 <1>   0.0800 
 34 H        0.0720     1.5020     0.2250 H     1 <1>   0.0800 
 35 H       -3.5030    -3.7020    -0.7920 H     1 <1>   0.0800 
 36 H       -0.2710    -2.5110     0.6710 H     1 <1>   0.0800 
 37 H       -0.9830    -3.9670    -0.0210 H     1 <1>   0.0800 
 38 H       -3.7300    -4.1660     1.4720 H     1 <1>   0.0800 
 39 H       -3.7760    -2.4630     1.9140 H     1 <1>   0.0800 
 40 H       -4.5620    -1.5720    -1.5530 H     1 <1>   0.0800 
 41 H       -4.6140    -1.0440     0.1000 H     1 <1>   0.0800 
 42 H       -0.2650     5.3860     2.8130 H     1 <1>   0.2700 
 43 H       -1.3840     4.5050    -2.1850 H     1 <1>   0.0800 
 44 H        0.3620     4.6030    -2.2500 H     1 <1>   0.0800 
 45 H       -0.5890     6.0470    -2.0150 H     1 <1>   0.0800 
 46 H       -5.4400    -4.5820    -0.0530 H     1 <1>   0.1500 
 47 H       -0.3100     7.5660    -0.3370 H     1 <1>   0.0800 
 48 H        0.6100     7.5490     1.1420 H     1 <1>   0.0800 
 49 H       -1.1380     7.6250     1.1960 H     1 <1>   0.0800 
 50 H       -6.2340     0.1490    -0.9200 H     1 <1>   0.1500 
 51 H       -7.6460    -5.4360     0.2230 H     1 <1>   0.1500 
 52 H      -10.5630    -2.0440    -0.2050 H     1 <1>   0.1500 
 53 H       -8.2850     1.4520    -1.0390 H     1 <1>   0.1500 
 54 H      -10.4590     0.3810    -0.6820 H     1 <1>   0.1500 
@<TRIPOS>BOND
  1   1   2  2   
  2   2   3  am  
  3   2   4  1   
  4   3   5  1   
  5   3  29  1   
  6   4   6  1   
  7   4  30  1   
  8   4  31  1   
  9   5   7  1   
 10   5   8  1   
 11   5  32  1   
 12   6   9  1   
 13   6  33  1   
 14   6  34  1   
 15   7  10  1   
 16   7  11  1   
 17   7  35  1   
 18   8  12  1   
 19   8  36  1   
 20   8  37  1   
 21   9  13  2   
 22   9  14  1   
 23  10  12  1   
 24  10  38  1   
 25  10  39  1   
 26  11  15  1   
 27  11  40  1   
 28  11  41  1   
 29  13  16  1   
 30  14  17  2   
 31  14  18  1   
 32  15  19  ar  
 33  15  20  ar  
 34  16  17  1   
 35  16  42  1   
 36  17  21  1   
 37  18  43  1   
 38  18  44  1   
 39  18  45  1   
 40  19  22  ar  
 41  19  23  ar  
 42  20  24  ar  
 43  20  46  1   
 44  21  47  1   
 45  21  48  1   
 46  21  49  1   
 47  22  25  ar  
 48  22  26  ar  
 49  23  27  ar  
 50  23  50  1   
 51  24  25  ar  
 52  24  51  1   
 53  26  28  ar  
 54  26  52  1   
 55  27  28  ar  
 56  27  53  1   
 57  28  54  1   
@<TRIPOS>SUBSTRUCTURE
  1 ****   2 GROUP 4 **** **** 0

# MOE 2024.06 (io_trps.svl 2023.06)
