@<TRIPOS>MOLECULE
NONAME
52 53 1 0 0 
SMALL
USER_CHARGES


@<TRIPOS>ATOM
  1 O       -1.3890     0.2070    -1.8220 O.2   1 <1>  -0.5700 
  2 C       -2.3070     0.8260    -1.3170 C.2   1 <1>   0.5440 
  3 N       -3.5100     0.1820    -1.1040 N.am  1 <1>  -0.6600 
  4 C       -2.1010     2.2250    -0.9940 C.ar  1 <1>   0.0860 
  5 C       -3.6880    -1.2570    -1.4960 C.3   1 <1>   0.3210 
  6 C       -4.7650     0.9110    -0.7050 C.3   1 <1>   0.1400 
  7 C       -1.7900     3.1410    -1.9970 C.ar  1 <1>  -0.1500 
  8 C       -2.1960     2.7080     0.3100 C.ar  1 <1>  -0.1500 
  9 C       -3.9650    -2.1380    -0.2840 C.2   1 <1>   0.0460 
 10 C       -5.2810     0.5740     0.7080 C.3   1 <1>   0.1200 
 11 C       -1.5990     4.4820    -1.7150 C.ar  1 <1>  -0.1500 
 12 C       -2.0080     4.0470     0.5970 C.ar  1 <1>  -0.1500 
 13 N       -5.1780    -2.7050    -0.1080 N.2   1 <1>  -0.5650 
 14 C       -3.1320    -2.4600     0.7360 C.2   1 <1>  -0.3320 
 15 O       -4.2330     0.3280     1.5800 O.3   1 <1>  -0.6800 
 16 C       -1.7080     4.9440    -0.4150 C.ar  1 <1>  -0.1430 
 17 C       -5.0600    -3.3510     1.0050 C.2   1 <1>   0.0360 
 18 N       -3.8410    -3.2420     1.5700 N.pl3 1 <1>   0.0330 
 19 C       -1.6840    -2.0770     0.9940 C.3   1 <1>  -0.0600 
 20 C       -1.4880     6.4140    -0.0970 C.3   1 <1>  -0.0170 
 21 C        0.0030     6.6720     0.1800 C.3   1 <1>  -0.1600 
 22 C        0.3500     8.1080     0.6110 C.3   1 <1>   0.2800 
 23 O       -0.3710     8.4070     1.7380 O.3   1 <1>  -0.6800 
 24 C        1.8240     8.2210     0.9920 C.3   1 <1>  -0.2400 
 25 C       -0.0170     9.1560    -0.4380 C.3   1 <1>  -0.2400 
 26 H       -2.8130    -1.6340    -1.9930 H     1 <1>   0.0800 
 27 H       -4.5080    -1.3390    -2.1870 H     1 <1>   0.0800 
 28 H       -5.5420     0.6880    -1.4160 H     1 <1>   0.0800 
 29 H       -4.6060     1.9720    -0.7560 H     1 <1>   0.0800 
 30 H       -1.6950     2.7870    -3.0080 H     1 <1>   0.1500 
 31 H       -2.4180     2.0230     1.1080 H     1 <1>   0.1500 
 32 H       -5.9020    -0.3040     0.6790 H     1 <1>   0.0800 
 33 H       -5.8640     1.3890     1.1000 H     1 <1>   0.0800 
 34 H       -1.3590     5.1640    -2.5130 H     1 <1>   0.1500 
 35 H       -2.0910     4.3880     1.6150 H     1 <1>   0.1500 
 36 H       -3.7270    -0.4350     1.2140 H     1 <1>   0.4000 
 37 H       -5.8490    -3.9280     1.4560 H     1 <1>   0.1500 
 38 H       -3.5280    -3.6660     2.4480 H     1 <1>   0.2700 
 39 H       -1.2910    -1.5060     0.1730 H     1 <1>   0.0800 
 40 H       -1.0810    -2.9600     1.1060 H     1 <1>   0.0800 
 41 H       -1.6080    -1.4840     1.8880 H     1 <1>   0.0800 
 42 H       -2.0800     6.6870     0.7590 H     1 <1>   0.0800 
 43 H       -1.8230     7.0100    -0.9270 H     1 <1>   0.0800 
 44 H        0.5590     6.4390    -0.7100 H     1 <1>   0.0800 
 45 H        0.3350     5.9890     0.9420 H     1 <1>   0.0800 
 46 H       -0.1150     7.8000     2.4550 H     1 <1>   0.4000 
 47 H        2.0800     7.5080     1.7550 H     1 <1>   0.0800 
 48 H        2.0450     9.2120     1.3450 H     1 <1>   0.0800 
 49 H        2.4390     8.0270     0.1310 H     1 <1>   0.0800 
 50 H       -1.0770     9.1730    -0.6120 H     1 <1>   0.0800 
 51 H        0.4820     8.9430    -1.3650 H     1 <1>   0.0800 
 52 H        0.2880    10.1330    -0.1070 H     1 <1>   0.0800 
@<TRIPOS>BOND
  1   1   2  2   
  2   2   3  am  
  3   2   4  1   
  4   3   5  1   
  5   3   6  1   
  6   4   7  ar  
  7   4   8  ar  
  8   5   9  1   
  9   5  26  1   
 10   5  27  1   
 11   6  10  1   
 12   6  28  1   
 13   6  29  1   
 14   7  11  ar  
 15   7  30  1   
 16   8  12  ar  
 17   8  31  1   
 18   9  13  1   
 19   9  14  2   
 20  10  15  1   
 21  10  32  1   
 22  10  33  1   
 23  11  16  ar  
 24  11  34  1   
 25  12  16  ar  
 26  12  35  1   
 27  13  17  2   
 28  14  18  1   
 29  14  19  1   
 30  15  36  1   
 31  16  20  1   
 32  17  18  1   
 33  17  37  1   
 34  18  38  1   
 35  19  39  1   
 36  19  40  1   
 37  19  41  1   
 38  20  21  1   
 39  20  42  1   
 40  20  43  1   
 41  21  22  1   
 42  21  44  1   
 43  21  45  1   
 44  22  23  1   
 45  22  24  1   
 46  22  25  1   
 47  23  46  1   
 48  24  47  1   
 49  24  48  1   
 50  24  49  1   
 51  25  50  1   
 52  25  51  1   
 53  25  52  1   
@<TRIPOS>SUBSTRUCTURE
  1 ****   8 GROUP 4 **** **** 0

# MOE 2024.06 (io_trps.svl 2023.06)
