@<TRIPOS>MOLECULE
NONAME
44 45 1 0 0 
SMALL
USER_CHARGES


@<TRIPOS>ATOM
  1 O       -1.0260     0.4030    -1.7740 O.2   1 <1>  -0.5700 
  2 C       -1.6920     0.8360    -0.8490 C.2   1 <1>   0.7160 
  3 N       -2.7830     0.1090    -0.4230 N.am  1 <1>  -0.6600 
  4 C       -1.3250     2.0950    -0.2450 C.2   1 <1>  -0.0860 
  5 C       -3.3570    -0.9720    -1.2980 C.3   1 <1>   0.1400 
  6 C       -3.4480     0.2990     0.9060 C.3   1 <1>   0.1400 
  7 C       -0.1300     2.5750     0.2070 C.2   1 <1>  -0.3320 
  8 C       -2.1990     3.1610    -0.0210 C.2   1 <1>   0.1390 
  9 C       -4.3910    -1.8250    -0.5490 C.3   1 <1>   0.2000 
 10 C       -4.9620     0.3370     0.6900 C.3   1 <1>  -0.1600 
 11 N       -0.3410     3.8250     0.6600 N.pl3 1 <1>   0.3140 
 12 C        1.2180     1.8690     0.2120 C.3   1 <1>  -0.0600 
 13 N       -1.6250     4.1870     0.5220 N.2   1 <1>  -0.7070 
 14 O       -4.9340    -2.7920    -1.3780 O.3   1 <1>  -0.6800 
 15 C       -5.5220    -1.0200     0.1480 C.3   1 <1>  -0.1060 
 16 C        0.6470     4.7460     1.2350 C.3   1 <1>   0.0160 
 17 C       -5.9450    -1.9660     1.2890 C.2   1 <1>   0.9060 
 18 C       -6.7780    -0.7170    -0.7360 C.3   1 <1>  -0.1600 
 19 O       -5.7350    -1.6620     2.4690 O.co2 1 <1>  -0.9000 
 20 O       -6.4330    -3.0650     0.9810 O.co2 1 <1>  -0.9000 
 21 C       -6.5290    -0.0420    -2.0990 C.3   1 <1>  -0.1600 
 22 C       -7.8530     0.3080    -2.7830 C.3   1 <1>  -0.2400 
 23 H       -3.8120    -0.5140    -2.1550 H     1 <1>   0.0800 
 24 H       -2.5610    -1.6130    -1.6360 H     1 <1>   0.0800 
 25 H       -3.1970    -0.5210     1.5590 H     1 <1>   0.0800 
 26 H       -3.1250     1.2050     1.3850 H     1 <1>   0.0800 
 27 H       -3.2450     3.1330    -0.2740 H     1 <1>   0.1500 
 28 H       -3.8430    -2.3670     0.2040 H     1 <1>   0.0800 
 29 H       -5.4460     0.5930     1.6160 H     1 <1>   0.0800 
 30 H       -5.1680     1.1450     0.0160 H     1 <1>   0.0800 
 31 H        1.1200     0.8720    -0.1800 H     1 <1>   0.0800 
 32 H        1.6020     1.8030     1.2140 H     1 <1>   0.0800 
 33 H        1.9190     2.4050    -0.4020 H     1 <1>   0.0800 
 34 H       -5.6170    -3.2520    -0.8210 H     1 <1>   0.4000 
 35 H        1.0510     4.3150     2.1310 H     1 <1>   0.0800 
 36 H        0.1660     5.6780     1.4670 H     1 <1>   0.0800 
 37 H        1.4300     4.9130     0.5200 H     1 <1>   0.0800 
 38 H       -7.3000    -1.6400    -0.9260 H     1 <1>   0.0800 
 39 H       -7.4480    -0.1070    -0.1560 H     1 <1>   0.0800 
 40 H       -5.9470     0.8540    -1.9890 H     1 <1>   0.0800 
 41 H       -5.9850    -0.7170    -2.7370 H     1 <1>   0.0800 
 42 H       -8.4140     1.0000    -2.1800 H     1 <1>   0.0800 
 43 H       -8.4410    -0.5800    -2.9310 H     1 <1>   0.0800 
 44 H       -7.6640     0.7590    -3.7410 H     1 <1>   0.0800 
@<TRIPOS>BOND
  1   1   2  2   
  2   2   3  am  
  3   2   4  1   
  4   3   5  1   
  5   3   6  1   
  6   4   7  2   
  7   4   8  1   
  8   5   9  1   
  9   5  23  1   
 10   5  24  1   
 11   6  10  1   
 12   6  25  1   
 13   6  26  1   
 14   7  11  1   
 15   7  12  1   
 16   8  13  2   
 17   8  27  1   
 18   9  14  1   
 19   9  15  1   
 20   9  28  1   
 21  10  15  1   
 22  10  29  1   
 23  10  30  1   
 24  11  13  1   
 25  11  16  1   
 26  12  31  1   
 27  12  32  1   
 28  12  33  1   
 29  14  34  1   
 30  15  17  1   
 31  15  18  1   
 32  16  35  1   
 33  16  36  1   
 34  16  37  1   
 35  17  19  ar  
 36  17  20  ar  
 37  18  21  1   
 38  18  38  1   
 39  18  39  1   
 40  21  22  1   
 41  21  40  1   
 42  21  41  1   
 43  22  42  1   
 44  22  43  1   
 45  22  44  1   
@<TRIPOS>SUBSTRUCTURE
  1 ****   3 GROUP 4 **** **** 0

# MOE 2024.06 (io_trps.svl 2023.06)
