@<TRIPOS>MOLECULE
NONAME
42 44 1 0 0 
SMALL
USER_CHARGES


@<TRIPOS>ATOM
  1 S        0.3960     0.2980    -0.3700 S.o2  1 <1>   1.3330 
  2 O        0.3600    -0.8390    -1.2620 O.2   1 <1>  -0.6500 
  3 O        0.3190     0.0840     1.0580 O.2   1 <1>  -0.6500 
  4 N       -0.8610     1.3530    -0.8040 N.am  1 <1>  -0.8490 
  5 C        1.8720     1.2370    -0.7450 C.3   1 <1>  -0.0550 
  6 C       -1.1330     2.3850     0.2020 C.3   1 <1>   0.1160 
  7 C       -2.0960     0.6350    -1.1320 C.3   1 <1>   0.1160 
  8 C        3.1720     0.4260    -0.5600 C.3   1 <1>  -0.0800 
  9 C        4.4500     1.1530    -0.9550 C.3   1 <1>   0.2200 
 10 C        3.4540    -0.0060     0.8850 C.3   1 <1>   0.1200 
 11 N        4.4200     2.5600    -0.4950 N.am  1 <1>  -0.7300 
 12 C        5.4740     0.3840    -0.1320 C.3   1 <1>   0.1200 
 13 O        4.8350     0.1090     1.0770 O.3   1 <1>  -0.5600 
 14 C        4.0460     3.6500    -1.2370 C.2   1 <1>   0.7160 
 15 O        3.7690     3.4520    -2.4090 O.2   1 <1>  -0.5700 
 16 C        3.9510     4.9690    -0.5940 C.2   1 <1>   0.4300 
 17 N        4.2810     5.1710     0.6710 N.2   1 <1>  -0.7070 
 18 N        3.4990     6.0700    -1.2360 N.2   1 <1>  -0.5650 
 19 N        4.0390     6.4590     0.8340 N.pl3 1 <1>   0.6010 
 20 C        3.5620     6.9810    -0.3280 C.2   1 <1>   0.3120 
 21 C        4.1910     7.2620     1.9450 C.2   1 <1>  -0.1810 
 22 N        3.2030     8.3010    -0.4690 N.2   1 <1>  -0.5760 
 23 C        3.8440     8.5710     1.8210 C.2   1 <1>  -0.1360 
 24 C        3.3470     9.0490     0.5750 C.2   1 <1>   0.3760 
 25 H        1.8190     1.5670    -1.7650 H     1 <1>   0.0800 
 26 H        1.8960     2.1070    -0.1210 H     1 <1>   0.0800 
 27 H       -1.8810     3.0670    -0.1630 H     1 <1>   0.0800 
 28 H       -0.2390     2.9450     0.4120 H     1 <1>   0.0800 
 29 H       -1.4840     1.9360     1.1170 H     1 <1>   0.0800 
 30 H       -2.8650     1.3290    -1.4240 H     1 <1>   0.0800 
 31 H       -2.4340     0.0650    -0.2830 H     1 <1>   0.0800 
 32 H       -1.9220    -0.0390    -1.9540 H     1 <1>   0.0800 
 33 H        3.1000    -0.4670    -1.1570 H     1 <1>   0.0800 
 34 H        4.6520     1.1010    -2.0130 H     1 <1>   0.0800 
 35 H        3.1590    -1.0260     1.0640 H     1 <1>   0.0800 
 36 H        2.9720     0.6400     1.5990 H     1 <1>   0.0800 
 37 H        4.6260     2.7060     0.4980 H     1 <1>   0.3700 
 38 H        6.3730     0.9460     0.0500 H     1 <1>   0.0800 
 39 H        5.7130    -0.5550    -0.6000 H     1 <1>   0.0800 
 40 H        4.5740     6.7960     2.8330 H     1 <1>   0.1500 
 41 H        3.9300     9.2710     2.6340 H     1 <1>   0.1500 
 42 H        3.0810    10.0900     0.5110 H     1 <1>   0.0600 
@<TRIPOS>BOND
  1   1   2  2   
  2   1   3  2   
  3   1   4  am  
  4   1   5  1   
  5   4   6  1   
  6   4   7  1   
  7   5   8  1   
  8   5  25  1   
  9   5  26  1   
 10   6  27  1   
 11   6  28  1   
 12   6  29  1   
 13   7  30  1   
 14   7  31  1   
 15   7  32  1   
 16   8   9  1   
 17   8  10  1   
 18   8  33  1   
 19   9  11  1   
 20   9  12  1   
 21   9  34  1   
 22  10  13  1   
 23  10  35  1   
 24  10  36  1   
 25  11  14  am  
 26  11  37  1   
 27  12  13  1   
 28  12  38  1   
 29  12  39  1   
 30  14  15  2   
 31  14  16  1   
 32  16  17  2   
 33  16  18  1   
 34  17  19  1   
 35  18  20  2   
 36  19  20  1   
 37  19  21  1   
 38  20  22  1   
 39  21  23  2   
 40  21  40  1   
 41  22  24  2   
 42  23  24  1   
 43  23  41  1   
 44  24  42  1   
@<TRIPOS>SUBSTRUCTURE
  1 ****  14 GROUP 4 **** **** 0

# MOE 2024.06 (io_trps.svl 2023.06)
