@<TRIPOS>MOLECULE
NONAME
49 51 1 0 0 
SMALL
USER_CHARGES


@<TRIPOS>ATOM
  1 O       -3.1790     0.1730    -2.0270 O.2   1 <1>  -0.5700 
  2 C       -2.2500     0.7090    -1.4690 C.2   1 <1>   0.5690 
  3 N       -2.2800     1.2560    -0.2330 N.am  1 <1>  -0.6600 
  4 C       -0.8760     0.8190    -2.0670 C.3   1 <1>  -0.0990 
  5 C       -0.9730     1.7670     0.2060 C.3   1 <1>   0.1400 
  6 C       -3.4660     1.2880     0.6470 C.3   1 <1>   0.1400 
  7 C       -0.1050     1.6930    -1.0590 C.3   1 <1>  -0.1600 
  8 C       -3.6480    -0.0880     1.2920 C.3   1 <1>  -0.1600 
  9 C       -5.0990    -0.3140     1.7550 C.3   1 <1>  -0.0990 
 10 C       -5.4360    -1.7930     1.8280 C.2   1 <1>   0.5690 
 11 O       -5.4610    -2.3210     2.9130 O.2   1 <1>  -0.5700 
 12 N       -5.6930    -2.4940     0.6820 N.am  1 <1>  -0.6600 
 13 C       -5.6580    -1.9790    -0.7170 C.3   1 <1>   0.1400 
 14 C       -5.9270    -3.9580     0.6820 C.3   1 <1>   0.1400 
 15 C       -6.3100    -3.0860    -1.5410 C.3   1 <1>   0.2000 
 16 C       -5.9080    -4.3650    -0.7980 C.3   1 <1>  -0.0800 
 17 O       -7.6870    -2.9250    -1.4690 O.3   1 <1>  -0.6800 
 18 C       -6.7720    -5.5990    -1.1180 C.3   1 <1>   0.0200 
 19 C       -6.2490    -6.8740    -0.4780 C.2   1 <1>  -0.0400 
 20 O       -6.9670    -7.9620    -0.5710 O.3   1 <1>  -0.0190 
 21 C       -5.1370    -7.1790     0.2120 C.2   1 <1>  -0.1500 
 22 N       -6.4000    -8.9730     0.0200 N.2   1 <1>  -0.4100 
 23 C       -5.2950    -8.5310     0.5020 C.2   1 <1>   0.1080 
 24 C       -4.3080    -9.3730     1.2780 C.3   1 <1>  -0.0590 
 25 H       -0.4470    -0.1630    -2.1390 H     1 <1>   0.0800 
 26 H       -0.9230     1.2740    -3.0390 H     1 <1>   0.0800 
 27 H       -1.0600     2.7790     0.5640 H     1 <1>   0.0800 
 28 H       -0.5820     1.1320     0.9820 H     1 <1>   0.0800 
 29 H       -3.3610     2.0530     1.3960 H     1 <1>   0.0800 
 30 H       -4.3210     1.5240     0.0360 H     1 <1>   0.0800 
 31 H        0.0150     2.6850    -1.4580 H     1 <1>   0.0800 
 32 H        0.8680     1.2900    -0.8410 H     1 <1>   0.0800 
 33 H       -3.3950    -0.8430     0.5700 H     1 <1>   0.0800 
 34 H       -2.9780    -0.1980     2.1260 H     1 <1>   0.0800 
 35 H       -5.7930     0.1540     1.0830 H     1 <1>   0.0800 
 36 H       -5.2420     0.1290     2.7240 H     1 <1>   0.0800 
 37 H       -6.1790    -1.0440    -0.8270 H     1 <1>   0.0800 
 38 H       -4.6340    -1.8580    -1.0280 H     1 <1>   0.0800 
 39 H       -5.1620    -4.4610     1.2470 H     1 <1>   0.0800 
 40 H       -6.8860    -4.1590     1.1280 H     1 <1>   0.0800 
 41 H       -6.0140    -3.0750    -2.5760 H     1 <1>   0.0800 
 42 H       -4.8890    -4.5840    -1.0650 H     1 <1>   0.0800 
 43 H       -7.9310    -2.7540    -0.5370 H     1 <1>   0.4000 
 44 H       -6.8060    -5.7430    -2.1840 H     1 <1>   0.0800 
 45 H       -7.7810    -5.4390    -0.7810 H     1 <1>   0.0800 
 46 H       -4.3010    -6.5680     0.4940 H     1 <1>   0.1500 
 47 H       -4.1550    -8.9490     2.2540 H     1 <1>   0.0800 
 48 H       -3.3700    -9.4100     0.7560 H     1 <1>   0.0800 
 49 H       -4.6860   -10.3730     1.3880 H     1 <1>   0.0800 
@<TRIPOS>BOND
  1   1   2  2   
  2   2   3  am  
  3   2   4  1   
  4   3   5  1   
  5   3   6  1   
  6   4   7  1   
  7   4  25  1   
  8   4  26  1   
  9   5   7  1   
 10   5  27  1   
 11   5  28  1   
 12   6   8  1   
 13   6  29  1   
 14   6  30  1   
 15   7  31  1   
 16   7  32  1   
 17   8   9  1   
 18   8  33  1   
 19   8  34  1   
 20   9  10  1   
 21   9  35  1   
 22   9  36  1   
 23  10  11  2   
 24  10  12  am  
 25  12  13  1   
 26  12  14  1   
 27  13  15  1   
 28  13  37  1   
 29  13  38  1   
 30  14  16  1   
 31  14  39  1   
 32  14  40  1   
 33  15  16  1   
 34  15  17  1   
 35  15  41  1   
 36  16  18  1   
 37  16  42  1   
 38  17  43  1   
 39  18  19  1   
 40  18  44  1   
 41  18  45  1   
 42  19  20  1   
 43  19  21  2   
 44  20  22  1   
 45  21  23  1   
 46  21  46  1   
 47  22  23  2   
 48  23  24  1   
 49  24  47  1   
 50  24  48  1   
 51  24  49  1   
@<TRIPOS>SUBSTRUCTURE
  1 ****  12 GROUP 4 **** **** 0

# MOE 2024.06 (io_trps.svl 2023.06)
