@<TRIPOS>MOLECULE
NONAME
55 56 1 0 0 
SMALL
USER_CHARGES


@<TRIPOS>ATOM
  1 O       -1.4480    -0.1930     2.4060 O.2   1 <1>  -0.5700 
  2 C       -1.6540     0.4720     1.4120 C.2   1 <1>   0.5690 
  3 N       -2.5920     0.0520     0.5020 N.am  1 <1>  -0.6600 
  4 C       -0.8340     1.7920     1.2170 C.3   1 <1>   0.3410 
  5 C       -2.7300    -1.4170     0.2260 C.3   1 <1>   0.3640 
  6 C       -3.6830     0.9520     0.0370 C.3   1 <1>   0.1400 
  7 O       -0.9610     2.2440    -0.1230 O.3   1 <1>  -0.5600 
  8 C        0.6570     1.5260     1.5110 C.3   1 <1>  -0.2400 
  9 C       -1.3810     2.8780     2.1590 C.3   1 <1>  -0.2400 
 10 C       -1.3370    -1.9640    -0.1160 C.ar  1 <1>  -0.1440 
 11 C       -3.7030    -1.7740    -0.9440 C.3   1 <1>   0.2000 
 12 C       -4.2620     0.4790    -1.2940 C.3   1 <1>   0.1200 
 13 C       -0.2220     3.3330    -0.5830 C.3   1 <1>   0.1200 
 14 C       -0.8310    -3.0650     0.5620 C.ar  1 <1>  -0.1500 
 15 C       -0.5610    -1.3670    -1.1030 C.ar  1 <1>  -0.1500 
 16 O       -4.7200    -0.8270    -1.1450 O.3   1 <1>  -0.5600 
 17 C       -4.4140    -3.1230    -0.7440 C.3   1 <1>   0.1200 
 18 C       -0.7190     3.6460    -1.9890 C.3   1 <1>  -0.2400 
 19 C        0.4190    -3.5750     0.2540 C.ar  1 <1>   0.0820 
 20 C        0.6960    -1.8590    -1.4070 C.ar  1 <1>  -0.1500 
 21 O       -3.5160    -4.1640    -0.5300 O.3   1 <1>  -0.6800 
 22 O        0.8300    -4.6770     0.9260 O.3   1 <1>  -0.3630 
 23 C        1.2000    -2.9530    -0.7260 C.ar  1 <1>   0.0820 
 24 C        0.9040    -5.8670     0.1730 C.3   1 <1>   0.0400 
 25 O        2.4500    -3.3690    -1.0470 O.3   1 <1>  -0.3630 
 26 C        3.4240    -3.2580    -0.0320 C.3   1 <1>   0.0400 
 27 H       -3.0850    -1.8890     1.1260 H     1 <1>   0.0800 
 28 H       -4.4670     0.9580     0.7740 H     1 <1>   0.0800 
 29 H       -3.3280     1.9590    -0.0720 H     1 <1>   0.0800 
 30 H        0.7630     1.1000     2.4930 H     1 <1>   0.0800 
 31 H        1.2390     2.4270     1.4890 H     1 <1>   0.0800 
 32 H        1.0450     0.8170     0.8010 H     1 <1>   0.0800 
 33 H       -1.4070     2.4950     3.1640 H     1 <1>   0.0800 
 34 H       -2.3820     3.1440     1.8760 H     1 <1>   0.0800 
 35 H       -0.7580     3.7530     2.1610 H     1 <1>   0.0800 
 36 H       -3.1470    -1.8200    -1.8630 H     1 <1>   0.0800 
 37 H       -3.5220     0.5160    -2.0750 H     1 <1>   0.0800 
 38 H       -5.1000     1.0920    -1.5730 H     1 <1>   0.0800 
 39 H       -0.3760     4.1800     0.0610 H     1 <1>   0.0800 
 40 H        0.8200     3.0680    -0.6130 H     1 <1>   0.0800 
 41 H       -1.4080    -3.5400     1.3350 H     1 <1>   0.1500 
 42 H       -0.9310    -0.5020    -1.6290 H     1 <1>   0.1500 
 43 H       -4.9960    -3.3630    -1.6170 H     1 <1>   0.0800 
 44 H       -5.0630    -3.0750     0.1130 H     1 <1>   0.0800 
 45 H       -1.7630     3.9020    -1.9640 H     1 <1>   0.0800 
 46 H       -0.5720     2.7950    -2.6290 H     1 <1>   0.0800 
 47 H       -0.1710     4.4780    -2.3920 H     1 <1>   0.0800 
 48 H        1.2950    -1.3910    -2.1660 H     1 <1>   0.1500 
 49 H       -2.8260    -4.1860    -1.2240 H     1 <1>   0.4000 
 50 H        1.1870    -6.6650     0.8330 H     1 <1>   0.0800 
 51 H        1.6390    -5.7510    -0.6030 H     1 <1>   0.0800 
 52 H       -0.0630    -6.0650    -0.2540 H     1 <1>   0.0800 
 53 H        4.3850    -3.4740    -0.4630 H     1 <1>   0.0800 
 54 H        3.2060    -3.9630     0.7490 H     1 <1>   0.0800 
 55 H        3.4090    -2.2550     0.3560 H     1 <1>   0.0800 
@<TRIPOS>BOND
  1   1   2  2   
  2   2   3  am  
  3   2   4  1   
  4   3   5  1   
  5   3   6  1   
  6   4   7  1   
  7   4   8  1   
  8   4   9  1   
  9   5  10  1   
 10   5  11  1   
 11   5  27  1   
 12   6  12  1   
 13   6  28  1   
 14   6  29  1   
 15   7  13  1   
 16   8  30  1   
 17   8  31  1   
 18   8  32  1   
 19   9  33  1   
 20   9  34  1   
 21   9  35  1   
 22  10  14  ar  
 23  10  15  ar  
 24  11  16  1   
 25  11  17  1   
 26  11  36  1   
 27  12  16  1   
 28  12  37  1   
 29  12  38  1   
 30  13  18  1   
 31  13  39  1   
 32  13  40  1   
 33  14  19  ar  
 34  14  41  1   
 35  15  20  ar  
 36  15  42  1   
 37  17  21  1   
 38  17  43  1   
 39  17  44  1   
 40  18  45  1   
 41  18  46  1   
 42  18  47  1   
 43  19  22  1   
 44  19  23  ar  
 45  20  23  ar  
 46  20  48  1   
 47  21  49  1   
 48  22  24  1   
 49  23  25  1   
 50  24  50  1   
 51  24  51  1   
 52  24  52  1   
 53  25  26  1   
 54  26  53  1   
 55  26  54  1   
 56  26  55  1   
@<TRIPOS>SUBSTRUCTURE
  1 ****  10 GROUP 4 **** **** 0

# MOE 2024.06 (io_trps.svl 2023.06)
