@<TRIPOS>MOLECULE
NONAME
48 50 1 0 0 
SMALL
USER_CHARGES


@<TRIPOS>ATOM
  1 CL      -1.9260    -1.2470    -1.5170 Cl    1 <1>  -0.1770 
  2 C       -2.1090     0.2740    -0.6690 C.ar  1 <1>   0.1770 
  3 C       -1.5840     1.4230    -1.2380 C.ar  1 <1>   0.1770 
  4 C       -2.7610     0.3210     0.5640 C.ar  1 <1>   0.0860 
  5 CL      -0.7880     1.3640    -2.7930 Cl    1 <1>  -0.1770 
  6 C       -1.6770     2.6430    -0.5940 C.ar  1 <1>  -0.1500 
  7 C       -3.3480    -0.8480     1.1820 C.2   1 <1>   0.5440 
  8 C       -2.8280     1.5590     1.2070 C.ar  1 <1>  -0.1500 
  9 C       -2.3000     2.7070     0.6400 C.ar  1 <1>  -0.1500 
 10 O       -2.9970    -1.1420     2.3090 O.2   1 <1>  -0.5700 
 11 N       -4.3030    -1.6360     0.5680 N.am  1 <1>  -0.6600 
 12 C       -5.2310    -1.1680    -0.5110 C.3   1 <1>   0.2200 
 13 C       -4.2550    -3.1100     0.8200 C.3   1 <1>   0.0600 
 14 C       -5.7260     0.2640    -0.2970 C.3   1 <1>  -0.1600 
 15 C       -6.5360    -1.9670    -0.5360 C.3   1 <1>  -0.1600 
 16 C       -7.0610     0.3690    -1.0480 C.3   1 <1>  -0.0800 
 17 C       -7.5660    -1.0680    -1.2300 C.3   1 <1>  -0.0800 
 18 C       -8.1460     1.1190    -0.2630 C.3   1 <1>  -0.1600 
 19 C       -8.9550    -1.1270    -0.5820 C.3   1 <1>  -0.1600 
 20 C       -8.9410     0.0130     0.4300 C.3   1 <1>   0.4230 
 21 N      -10.3080     0.4110     0.8850 N.4   1 <1>  -0.9590 
 22 C      -11.2060     0.9640    -0.1820 C.3   1 <1>   0.2630 
 23 C      -10.2210     1.3680     2.0310 C.3   1 <1>   0.2630 
 24 H       -1.2610     3.5240    -1.0510 H     1 <1>   0.1500 
 25 H       -3.3020     1.6110     2.1740 H     1 <1>   0.1500 
 26 H       -2.3700     3.6480     1.1600 H     1 <1>   0.1500 
 27 H       -4.7480    -1.2500    -1.4700 H     1 <1>   0.0800 
 28 H       -4.2770    -3.6470    -0.1130 H     1 <1>   0.0800 
 29 H       -5.0890    -3.4070     1.4300 H     1 <1>   0.0800 
 30 H       -3.3470    -3.3760     1.3360 H     1 <1>   0.0800 
 31 H       -5.8720     0.4290     0.7560 H     1 <1>   0.0800 
 32 H       -5.0320     0.9870    -0.6840 H     1 <1>   0.0800 
 33 H       -6.4180    -2.8970    -1.0650 H     1 <1>   0.0800 
 34 H       -6.8450    -2.1650     0.4760 H     1 <1>   0.0800 
 35 H       -6.8980     0.8290    -2.0100 H     1 <1>   0.0800 
 36 H       -7.6160    -1.3180    -2.2780 H     1 <1>   0.0800 
 37 H       -8.7560     1.6490    -0.9710 H     1 <1>   0.0800 
 38 H       -7.7250     1.8180     0.4380 H     1 <1>   0.0800 
 39 H       -9.1420    -2.0790    -0.1180 H     1 <1>   0.0800 
 40 H       -9.6860    -0.9550    -1.3500 H     1 <1>   0.0800 
 41 H       -8.3660    -0.3190     1.2810 H     1 <1>   0.0800 
 42 H      -10.7480    -0.4520     1.2380 H     1 <1>   0.4500 
 43 H      -10.8040     1.8840    -0.5740 H     1 <1>   0.0800 
 44 H      -12.1840     1.1660     0.2220 H     1 <1>   0.0800 
 45 H      -11.3130     0.2610    -0.9920 H     1 <1>   0.0800 
 46 H       -9.7680     2.2930     1.7120 H     1 <1>   0.0800 
 47 H       -9.6240     0.9490     2.8260 H     1 <1>   0.0800 
 48 H      -11.2040     1.5820     2.4170 H     1 <1>   0.0800 
@<TRIPOS>BOND
  1   1   2  1   
  2   2   3  ar  
  3   2   4  ar  
  4   3   5  1   
  5   3   6  ar  
  6   4   7  1   
  7   4   8  ar  
  8   6   9  ar  
  9   6  24  1   
 10   7  10  2   
 11   7  11  am  
 12   8   9  ar  
 13   8  25  1   
 14   9  26  1   
 15  11  12  1   
 16  11  13  1   
 17  12  14  1   
 18  12  15  1   
 19  12  27  1   
 20  13  28  1   
 21  13  29  1   
 22  13  30  1   
 23  14  16  1   
 24  14  31  1   
 25  14  32  1   
 26  15  17  1   
 27  15  33  1   
 28  15  34  1   
 29  16  17  1   
 30  16  18  1   
 31  16  35  1   
 32  17  19  1   
 33  17  36  1   
 34  18  20  1   
 35  18  37  1   
 36  18  38  1   
 37  19  20  1   
 38  19  39  1   
 39  19  40  1   
 40  20  21  1   
 41  20  41  1   
 42  21  22  1   
 43  21  23  1   
 44  21  42  1   
 45  22  43  1   
 46  22  44  1   
 47  22  45  1   
 48  23  46  1   
 49  23  47  1   
 50  23  48  1   
@<TRIPOS>SUBSTRUCTURE
  1 ****  14 GROUP 4 **** **** 0

# MOE 2024.06 (io_trps.svl 2023.06)
