@<TRIPOS>MOLECULE
NONAME
21 20 1 0 0 
SMALL
USER_CHARGES


@<TRIPOS>ATOM
  1 O       -5.0900     0.9650     1.1100 O.2   1 <1>  -0.5700 
  2 C       -5.7740     1.6250     0.3650 C.2   1 <1>   0.5690 
  3 N       -5.2580     2.1500    -0.7760 N.am  1 <1>  -0.7300 
  4 C       -7.2240     1.9010     0.7150 C.3   1 <1>  -0.0990 
  5 C       -3.9720     1.7750    -1.4380 C.3   1 <1>   0.1400 
  6 C       -8.2070     1.1720    -0.2150 C.3   1 <1>  -0.2400 
  7 C       -2.7290     2.3300    -0.7080 C.3   1 <1>   0.3430 
  8 N       -2.5410     1.6950     0.6230 N.4   1 <1>  -0.8530 
  9 H       -5.9130     2.6690    -1.3730 H     1 <1>   0.3700 
 10 H       -7.4010     2.9610     0.6700 H     1 <1>   0.0800 
 11 H       -7.4000     1.5840     1.7280 H     1 <1>   0.0800 
 12 H       -3.9830     2.1650    -2.4420 H     1 <1>   0.0800 
 13 H       -3.9050     0.7020    -1.5100 H     1 <1>   0.0800 
 14 H       -8.0840     1.4940    -1.2340 H     1 <1>   0.0800 
 15 H       -9.2190     1.3760     0.0880 H     1 <1>   0.0800 
 16 H       -8.0450     0.1090    -0.1650 H     1 <1>   0.0800 
 17 H       -2.8530     3.3950    -0.5920 H     1 <1>   0.0800 
 18 H       -1.8530     2.1620    -1.3140 H     1 <1>   0.0800 
 19 H       -3.4800     1.5590     1.0500 H     1 <1>   0.4500 
 20 H       -1.9780     2.2570     1.2670 H     1 <1>   0.4500 
 21 H       -2.1460     0.7520     0.5540 H     1 <1>   0.4500 
@<TRIPOS>BOND
  1   1   2  2   
  2   2   3  am  
  3   2   4  1   
  4   3   5  1   
  5   3   9  1   
  6   4   6  1   
  7   4  10  1   
  8   4  11  1   
  9   5   7  1   
 10   5  12  1   
 11   5  13  1   
 12   6  14  1   
 13   6  15  1   
 14   6  16  1   
 15   7   8  1   
 16   7  17  1   
 17   7  18  1   
 18   8  19  1   
 19   8  20  1   
 20   8  21  1   
@<TRIPOS>SUBSTRUCTURE
  1 ****   2 GROUP 4 **** **** 0

# MOE 2024.06 (io_trps.svl 2023.06)
