@<TRIPOS>MOLECULE
NONAME
52 55 1 0 0 
SMALL
USER_CHARGES


@<TRIPOS>ATOM
  1 CL      -0.5700    -3.1780     0.1330 Cl    1 <1>  -0.1770 
  2 C       -2.1550    -2.4910     0.3850 C.ar  1 <1>   0.1770 
  3 C       -3.1750    -2.8100    -0.4900 C.ar  1 <1>  -0.1500 
  4 C       -2.3590    -1.6410     1.4580 C.ar  1 <1>  -0.1500 
  5 C       -4.4420    -2.2690    -0.2990 C.ar  1 <1>   0.0280 
  6 C       -3.6160    -1.0970     1.6560 C.ar  1 <1>  -0.1500 
  7 C       -4.6470    -1.4040     0.7810 C.ar  1 <1>   0.0830 
  8 C       -5.5620    -2.5710    -1.1470 C.2   1 <1>  -0.1780 
  9 O       -5.8680    -0.8590     1.0080 O.3   1 <1>  -0.3630 
 10 C       -6.7080    -1.8820    -1.0350 C.2   1 <1>  -0.2760 
 11 C       -6.8060    -0.7190    -0.0460 C.3   1 <1>   0.2580 
 12 C       -7.9470    -2.1530    -1.8590 C.3   1 <1>   0.4810 
 13 N       -8.9580    -2.8150    -0.9910 N.4   1 <1>  -0.9590 
 14 C       -8.4390    -4.1320    -0.4590 C.3   1 <1>   0.3430 
 15 C      -10.2450    -2.9880    -1.7280 C.3   1 <1>   0.3430 
 16 C       -9.2810    -4.7400     0.6840 C.3   1 <1>   0.1400 
 17 C      -11.4420    -2.7110    -0.8160 C.3   1 <1>  -0.1600 
 18 N      -10.7370    -4.7880     0.3460 N.am  1 <1>  -0.6600 
 19 C      -11.4500    -3.4920     0.5030 C.3   1 <1>   0.1400 
 20 C      -11.4170    -5.8910    -0.1170 C.2   1 <1>   0.5690 
 21 O      -12.5130    -5.7630    -0.6070 O.2   1 <1>  -0.5700 
 22 C      -10.7990    -7.2870    -0.0560 C.3   1 <1>  -0.0190 
 23 C      -11.5700    -8.3510    -0.8250 C.3   1 <1>   0.1200 
 24 C      -10.7540    -7.8940     1.3450 C.3   1 <1>  -0.1600 
 25 O      -11.1460    -9.5450    -0.2590 O.3   1 <1>  -0.5600 
 26 C      -10.9890    -9.3860     1.1140 C.3   1 <1>   0.1200 
 27 H       -2.9760    -3.4740    -1.3100 H     1 <1>   0.1500 
 28 H       -1.5450    -1.4140     2.1240 H     1 <1>   0.1500 
 29 H       -3.8010    -0.4360     2.4830 H     1 <1>   0.1500 
 30 H       -5.4150    -3.3730    -1.8520 H     1 <1>   0.1500 
 31 H       -6.6010     0.2150    -0.5410 H     1 <1>   0.0800 
 32 H       -7.7760    -0.6650     0.4130 H     1 <1>   0.0800 
 33 H       -7.6980    -2.8010    -2.6840 H     1 <1>   0.0800 
 34 H       -8.3330    -1.2280    -2.2570 H     1 <1>   0.0800 
 35 H       -9.1350    -2.2030    -0.1890 H     1 <1>   0.4500 
 36 H       -7.4360    -4.0020    -0.0860 H     1 <1>   0.0800 
 37 H       -8.3880    -4.8460    -1.2640 H     1 <1>   0.0800 
 38 H      -10.3160    -3.9950    -2.1090 H     1 <1>   0.0800 
 39 H      -10.2920    -2.3120    -2.5670 H     1 <1>   0.0800 
 40 H       -9.1410    -4.1580     1.5790 H     1 <1>   0.0800 
 41 H       -8.9110    -5.7250     0.9000 H     1 <1>   0.0800 
 42 H      -12.3300    -2.9860    -1.3600 H     1 <1>   0.0800 
 43 H      -11.5240    -1.6590    -0.6130 H     1 <1>   0.0800 
 44 H      -12.4690    -3.6720     0.8090 H     1 <1>   0.0800 
 45 H      -10.9830    -2.9130     1.2810 H     1 <1>   0.0800 
 46 H       -9.8120    -7.2620    -0.4760 H     1 <1>   0.0800 
 47 H      -11.3490    -8.3530    -1.8770 H     1 <1>   0.0800 
 48 H      -12.6330    -8.2700    -0.6680 H     1 <1>   0.0800 
 49 H      -11.5480    -7.5050     1.9600 H     1 <1>   0.0800 
 50 H       -9.8140    -7.7210     1.8370 H     1 <1>   0.0800 
 51 H      -11.8910    -9.7230     1.5960 H     1 <1>   0.0800 
 52 H      -10.1550    -9.9880     1.4310 H     1 <1>   0.0800 
@<TRIPOS>BOND
  1   1   2  1   
  2   2   3  ar  
  3   2   4  ar  
  4   3   5  ar  
  5   3  27  1   
  6   4   6  ar  
  7   4  28  1   
  8   5   7  ar  
  9   5   8  1   
 10   6   7  ar  
 11   6  29  1   
 12   7   9  1   
 13   8  10  2   
 14   8  30  1   
 15   9  11  1   
 16  10  11  1   
 17  10  12  1   
 18  11  31  1   
 19  11  32  1   
 20  12  13  1   
 21  12  33  1   
 22  12  34  1   
 23  13  14  1   
 24  13  15  1   
 25  13  35  1   
 26  14  16  1   
 27  14  36  1   
 28  14  37  1   
 29  15  17  1   
 30  15  38  1   
 31  15  39  1   
 32  16  18  1   
 33  16  40  1   
 34  16  41  1   
 35  17  19  1   
 36  17  42  1   
 37  17  43  1   
 38  18  19  1   
 39  18  20  am  
 40  19  44  1   
 41  19  45  1   
 42  20  21  2   
 43  20  22  1   
 44  22  23  1   
 45  22  24  1   
 46  22  46  1   
 47  23  25  1   
 48  23  47  1   
 49  23  48  1   
 50  24  26  1   
 51  24  49  1   
 52  24  50  1   
 53  25  26  1   
 54  26  51  1   
 55  26  52  1   
@<TRIPOS>SUBSTRUCTURE
  1 ****  14 GROUP 4 **** **** 0

# MOE 2024.06 (io_trps.svl 2023.06)
