@<TRIPOS>MOLECULE
NONAME
47 49 1 0 0 
SMALL
USER_CHARGES


@<TRIPOS>ATOM
  1 O       -0.8410     0.3340     1.8190 O.2   1 <1>  -0.5700 
  2 C       -1.4350     0.7860     0.8510 C.2   1 <1>   0.7160 
  3 N       -2.5480     0.0910     0.4280 N.am  1 <1>  -0.6600 
  4 C       -1.0000     2.0220     0.1900 C.2   1 <1>   0.2030 
  5 C       -2.5530    -1.4070     0.4870 C.3   1 <1>   0.3640 
  6 C       -3.8580     0.7850     0.3060 C.3   1 <1>   0.1400 
  7 N       -1.4770     2.4750    -0.9610 N.2   1 <1>  -0.7070 
  8 C       -0.0100     2.9080     0.6670 C.2   1 <1>  -0.1810 
  9 C       -1.2970    -1.9220    -0.2280 C.ar  1 <1>  -0.1440 
 10 C       -3.8070    -2.0730    -0.1650 C.3   1 <1>   0.2000 
 11 C       -4.8090     0.0080    -0.6020 C.3   1 <1>   0.1200 
 12 N       -0.8080     3.6050    -1.2110 N.pl3 1 <1>   0.3000 
 13 C        0.0850     3.8950    -0.2480 C.2   1 <1>  -0.3320 
 14 C        0.7820     2.7630     1.9580 C.3   1 <1>  -0.0590 
 15 C       -0.4340    -2.7980     0.4140 C.ar  1 <1>  -0.1500 
 16 C       -1.0010    -1.5200    -1.5250 C.ar  1 <1>  -0.1500 
 17 O       -4.9650    -1.2790    -0.0960 O.3   1 <1>  -0.5600 
 18 C       -4.1850    -3.4200     0.4740 C.3   1 <1>   0.1200 
 19 C        0.9720     5.1270    -0.3060 C.3   1 <1>   0.0200 
 20 C        0.6930    -3.2770    -0.2300 C.ar  1 <1>  -0.1500 
 21 C        0.1250    -1.9970    -2.1720 C.ar  1 <1>  -0.1500 
 22 O       -3.1030    -4.2900     0.5630 O.3   1 <1>  -0.6800 
 23 C        0.1510     6.3880    -0.0360 C.3   1 <1>  -0.2400 
 24 C        0.9720    -2.8790    -1.5250 C.ar  1 <1>  -0.1500 
 25 H       -2.5150    -1.6960     1.5230 H     1 <1>   0.0800 
 26 H       -4.3010     0.8750     1.2820 H     1 <1>   0.0800 
 27 H       -3.7260     1.7760    -0.0890 H     1 <1>   0.0800 
 28 H       -3.6140    -2.2390    -1.2100 H     1 <1>   0.0800 
 29 H       -4.4300    -0.0430    -1.6080 H     1 <1>   0.0800 
 30 H       -5.7760     0.4780    -0.6140 H     1 <1>   0.0800 
 31 H       -0.9740     4.1690    -2.0530 H     1 <1>   0.2700 
 32 H        1.3970     1.8820     1.9100 H     1 <1>   0.0800 
 33 H        0.1090     2.6670     2.7910 H     1 <1>   0.0800 
 34 H        1.4130     3.6130     2.1290 H     1 <1>   0.0800 
 35 H       -0.6380    -3.1110     1.4240 H     1 <1>   0.1500 
 36 H       -1.6450    -0.8210    -2.0330 H     1 <1>   0.1500 
 37 H       -4.9480    -3.9020    -0.1120 H     1 <1>   0.0800 
 38 H       -4.5520    -3.2640     1.4730 H     1 <1>   0.0800 
 39 H        1.7570     5.0530     0.4250 H     1 <1>   0.0800 
 40 H        1.4390     5.1930    -1.2740 H     1 <1>   0.0800 
 41 H        1.3530    -3.9570     0.2790 H     1 <1>   0.1500 
 42 H        0.3450    -1.6760    -3.1750 H     1 <1>   0.1500 
 43 H       -2.6050    -4.3290    -0.2810 H     1 <1>   0.4000 
 44 H       -0.3180     6.3180     0.9300 H     1 <1>   0.0800 
 45 H       -0.6130     6.5110    -0.7820 H     1 <1>   0.0800 
 46 H        0.7890     7.2530    -0.0480 H     1 <1>   0.0800 
 47 H        1.8490    -3.2500    -2.0260 H     1 <1>   0.1500 
@<TRIPOS>BOND
  1   1   2  2   
  2   2   3  am  
  3   2   4  1   
  4   3   5  1   
  5   3   6  1   
  6   4   7  2   
  7   4   8  1   
  8   5   9  1   
  9   5  10  1   
 10   5  25  1   
 11   6  11  1   
 12   6  26  1   
 13   6  27  1   
 14   7  12  1   
 15   8  13  2   
 16   8  14  1   
 17   9  15  ar  
 18   9  16  ar  
 19  10  17  1   
 20  10  18  1   
 21  10  28  1   
 22  11  17  1   
 23  11  29  1   
 24  11  30  1   
 25  12  13  1   
 26  12  31  1   
 27  13  19  1   
 28  14  32  1   
 29  14  33  1   
 30  14  34  1   
 31  15  20  ar  
 32  15  35  1   
 33  16  21  ar  
 34  16  36  1   
 35  18  22  1   
 36  18  37  1   
 37  18  38  1   
 38  19  23  1   
 39  19  39  1   
 40  19  40  1   
 41  20  24  ar  
 42  20  41  1   
 43  21  24  ar  
 44  21  42  1   
 45  22  43  1   
 46  23  44  1   
 47  23  45  1   
 48  23  46  1   
 49  24  47  1   
@<TRIPOS>SUBSTRUCTURE
  1 ****   2 GROUP 4 **** **** 0

# MOE 2024.06 (io_trps.svl 2023.06)
