@<TRIPOS>MOLECULE
NONAME
49 51 1 0 0 
SMALL
USER_CHARGES


@<TRIPOS>ATOM
  1 O        0.4520     0.2790    -0.2520 O.3   1 <1>  -0.5600 
  2 C        1.7000    -0.3250    -0.4510 C.3   1 <1>   0.3440 
  3 C        0.4340     1.6580    -0.5050 C.3   1 <1>   0.2000 
  4 C        1.5940    -1.8210    -0.1720 C.ar  1 <1>  -0.1440 
  5 C        2.7450     0.3260     0.4770 C.3   1 <1>   0.1100 
  6 C       -1.0160     2.1640    -0.3100 C.3   1 <1>  -0.0800 
  7 C        1.4570     2.3660     0.4150 C.3   1 <1>   0.1100 
  8 C        2.3220    -2.7190    -0.9400 C.ar  1 <1>  -0.1500 
  9 C        0.7910    -2.3070     0.8510 C.ar  1 <1>  -0.1500 
 10 N        2.8170     1.7900     0.2800 N.3   1 <1>  -0.8100 
 11 C       -2.0040     1.4060    -1.2140 C.3   1 <1>  -0.2400 
 12 C       -1.1510     3.6710    -0.5890 C.3   1 <1>  -0.2400 
 13 C        2.2520    -4.0790    -0.6880 C.ar  1 <1>  -0.1500 
 14 C        0.7190    -3.6660     1.1050 C.ar  1 <1>  -0.1500 
 15 C        3.7470     2.4040     1.2480 C.3   1 <1>   0.2900 
 16 C        1.4510    -4.5530     0.3360 C.ar  1 <1>  -0.1500 
 17 C        3.9240     3.8940     0.9950 C.2   1 <1>   0.0070 
 18 N        3.6780     4.8110     1.8630 N.2   1 <1>  -0.5650 
 19 N        4.3550     4.4200    -0.1620 N.pl3 1 <1>   0.3140 
 20 C        3.9820     5.9180     1.1760 C.2   1 <1>   0.3660 
 21 N        4.3890     5.7410    -0.0360 N.2   1 <1>  -0.7070 
 22 C        4.7460     3.7510    -1.4230 C.3   1 <1>   0.0960 
 23 C        6.1900     3.2370    -1.3600 C.3   1 <1>  -0.2400 
 24 H        1.9810    -0.1710    -1.4780 H     1 <1>   0.0800 
 25 H        0.7200     1.8100    -1.5310 H     1 <1>   0.0800 
 26 H        3.7070    -0.1110     0.2740 H     1 <1>   0.0800 
 27 H        2.4830     0.1010     1.4960 H     1 <1>   0.0800 
 28 H       -1.2940     1.9890     0.7160 H     1 <1>   0.0800 
 29 H        1.1210     2.2870     1.4360 H     1 <1>   0.0800 
 30 H        1.4920     3.4100     0.1600 H     1 <1>   0.0800 
 31 H        2.9490    -2.3660    -1.7400 H     1 <1>   0.1500 
 32 H        0.2150    -1.6230     1.4500 H     1 <1>   0.1500 
 33 H       -1.7470     1.5370    -2.2500 H     1 <1>   0.0800 
 34 H       -3.0070     1.7620    -1.0580 H     1 <1>   0.0800 
 35 H       -1.9870     0.3540    -0.9890 H     1 <1>   0.0800 
 36 H       -0.8120     3.9030    -1.5840 H     1 <1>   0.0800 
 37 H       -0.5800     4.2490     0.1150 H     1 <1>   0.0800 
 38 H       -2.1790     3.9750    -0.5000 H     1 <1>   0.0800 
 39 H        2.8190    -4.7680    -1.2880 H     1 <1>   0.1500 
 40 H        0.0920    -4.0310     1.8990 H     1 <1>   0.1500 
 41 H        3.3790     2.2610     2.2500 H     1 <1>   0.0800 
 42 H        4.7080     1.9260     1.1760 H     1 <1>   0.0800 
 43 H        1.3950    -5.6090     0.5320 H     1 <1>   0.1500 
 44 H        3.8840     6.8920     1.6290 H     1 <1>   0.1500 
 45 H        4.0670     2.9420    -1.6180 H     1 <1>   0.0800 
 46 H        4.6510     4.4660    -2.2200 H     1 <1>   0.0800 
 47 H        6.2950     2.4960    -0.5890 H     1 <1>   0.0800 
 48 H        6.8630     4.0540    -1.1670 H     1 <1>   0.0800 
 49 H        6.4570     2.7900    -2.3010 H     1 <1>   0.0800 
@<TRIPOS>BOND
  1   1   2  1   
  2   1   3  1   
  3   2   4  1   
  4   2   5  1   
  5   2  24  1   
  6   3   6  1   
  7   3   7  1   
  8   3  25  1   
  9   4   8  ar  
 10   4   9  ar  
 11   5  10  1   
 12   5  26  1   
 13   5  27  1   
 14   6  11  1   
 15   6  12  1   
 16   6  28  1   
 17   7  10  1   
 18   7  29  1   
 19   7  30  1   
 20   8  13  ar  
 21   8  31  1   
 22   9  14  ar  
 23   9  32  1   
 24  10  15  1   
 25  11  33  1   
 26  11  34  1   
 27  11  35  1   
 28  12  36  1   
 29  12  37  1   
 30  12  38  1   
 31  13  16  ar  
 32  13  39  1   
 33  14  16  ar  
 34  14  40  1   
 35  15  17  1   
 36  15  41  1   
 37  15  42  1   
 38  16  43  1   
 39  17  18  2   
 40  17  19  1   
 41  18  20  1   
 42  19  21  1   
 43  19  22  1   
 44  20  21  2   
 45  20  44  1   
 46  22  23  1   
 47  22  45  1   
 48  22  46  1   
 49  23  47  1   
 50  23  48  1   
 51  23  49  1   
@<TRIPOS>SUBSTRUCTURE
  1 ****  10 GROUP 4 **** **** 0

# MOE 2024.06 (io_trps.svl 2023.06)
