@<TRIPOS>MOLECULE
NONAME
48 50 1 0 0 
SMALL
USER_CHARGES


@<TRIPOS>ATOM
  1 CL      -1.5130     0.1360     2.2650 Cl    1 <1>  -0.1770 
  2 C       -2.6400     0.8290     1.1190 C.ar  1 <1>   0.1770 
  3 C       -2.6150     2.1870     0.8210 C.ar  1 <1>   0.0830 
  4 C       -3.5630    -0.0020     0.5170 C.ar  1 <1>  -0.1500 
  5 O       -1.7330     3.0310     1.3970 O.3   1 <1>  -0.3630 
  6 C       -3.5360     2.7030    -0.0750 C.ar  1 <1>  -0.1500 
  7 C       -4.4730     0.5290    -0.3840 C.ar  1 <1>  -0.1500 
  8 C       -0.4280     3.0360     0.8690 C.3   1 <1>   0.1200 
  9 C       -4.4800     1.8880    -0.6910 C.ar  1 <1>  -0.0090 
 10 C        0.3900     4.0660     1.6410 C.3   1 <1>  -0.2400 
 11 S       -5.6750     2.5740    -1.8730 S.o2  1 <1>   1.4470 
 12 O       -4.9730     2.9190    -3.0900 O.2   1 <1>  -0.6500 
 13 O       -6.8340     1.7110    -1.9420 O.2   1 <1>  -0.6500 
 14 N       -6.1470     4.0240    -1.1330 N.am  1 <1>  -0.8490 
 15 C       -7.0250     3.8770     0.0500 C.3   1 <1>   0.1960 
 16 C       -6.5100     5.0800    -2.0830 C.3   1 <1>   0.1960 
 17 C       -8.4300     4.5220    -0.0950 C.3   1 <1>   0.0000 
 18 C       -7.0340     6.3110    -1.3400 C.3   1 <1>  -0.1600 
 19 C       -9.2640     4.3800     1.1970 C.3   1 <1>   0.2000 
 20 C       -8.2860     6.0130    -0.4920 C.3   1 <1>  -0.1600 
 21 C       -9.3090     3.7280    -1.0830 C.3   1 <1>  -0.1600 
 22 O       -8.5200     4.5490     2.3530 O.3   1 <1>  -0.6800 
 23 C       -9.8920     2.9860     1.1750 C.3   1 <1>  -0.1600 
 24 C       -9.8540     2.5360    -0.2900 C.3   1 <1>  -0.1600 
 25 H       -3.5690    -1.0520     0.7520 H     1 <1>   0.1500 
 26 H       -3.5160     3.7570    -0.2940 H     1 <1>   0.1500 
 27 H       -5.1930    -0.1210    -0.8550 H     1 <1>   0.1500 
 28 H       -0.0040     2.0530     0.9790 H     1 <1>   0.0800 
 29 H       -0.4840     3.2940    -0.1750 H     1 <1>   0.0800 
 30 H        0.4280     3.8000     2.6820 H     1 <1>   0.0800 
 31 H       -0.0480     5.0420     1.5340 H     1 <1>   0.0800 
 32 H        1.3940     4.0950     1.2580 H     1 <1>   0.0800 
 33 H       -7.1240     2.8380     0.3160 H     1 <1>   0.0800 
 34 H       -6.5190     4.3610     0.8670 H     1 <1>   0.0800 
 35 H       -5.6400     5.3540    -2.6560 H     1 <1>   0.0800 
 36 H       -7.2560     4.7230    -2.7720 H     1 <1>   0.0800 
 37 H       -6.2460     6.6720    -0.7010 H     1 <1>   0.0800 
 38 H       -7.2550     7.0900    -2.0470 H     1 <1>   0.0800 
 39 H      -10.0450     5.1210     1.2010 H     1 <1>   0.0800 
 40 H       -9.1640     6.3390    -1.0210 H     1 <1>   0.0800 
 41 H       -8.2210     6.6130     0.4010 H     1 <1>   0.0800 
 42 H      -10.1430     4.3310    -1.3970 H     1 <1>   0.0800 
 43 H       -8.7880     3.3980    -1.9620 H     1 <1>   0.0800 
 44 H       -8.0160     3.7400     2.5550 H     1 <1>   0.4000 
 45 H       -9.3400     2.2890     1.7800 H     1 <1>   0.0800 
 46 H      -10.9070     3.0380     1.5270 H     1 <1>   0.0800 
 47 H       -9.1880     1.6970    -0.3970 H     1 <1>   0.0800 
 48 H      -10.8290     2.2470    -0.6450 H     1 <1>   0.0800 
@<TRIPOS>BOND
  1   1   2  1   
  2   2   3  ar  
  3   2   4  ar  
  4   3   5  1   
  5   3   6  ar  
  6   4   7  ar  
  7   4  25  1   
  8   5   8  1   
  9   6   9  ar  
 10   6  26  1   
 11   7   9  ar  
 12   7  27  1   
 13   8  10  1   
 14   8  28  1   
 15   8  29  1   
 16   9  11  1   
 17  10  30  1   
 18  10  31  1   
 19  10  32  1   
 20  11  12  2   
 21  11  13  2   
 22  11  14  am  
 23  14  15  1   
 24  14  16  1   
 25  15  17  1   
 26  15  33  1   
 27  15  34  1   
 28  16  18  1   
 29  16  35  1   
 30  16  36  1   
 31  17  19  1   
 32  17  20  1   
 33  17  21  1   
 34  18  20  1   
 35  18  37  1   
 36  18  38  1   
 37  19  22  1   
 38  19  23  1   
 39  19  39  1   
 40  20  40  1   
 41  20  41  1   
 42  21  24  1   
 43  21  42  1   
 44  21  43  1   
 45  22  44  1   
 46  23  24  1   
 47  23  45  1   
 48  23  46  1   
 49  24  47  1   
 50  24  48  1   
@<TRIPOS>SUBSTRUCTURE
  1 ****  14 GROUP 4 **** **** 0

# MOE 2024.06 (io_trps.svl 2023.06)
