@<TRIPOS>MOLECULE
NONAME
51 55 1 0 0 
SMALL
USER_CHARGES


@<TRIPOS>ATOM
  1 O        0.9840     2.1520     1.4030 O.2   1 <1>  -0.5700 
  2 C        0.1290     2.8170     0.8640 C.2   1 <1>   0.5690 
  3 N       -1.2080     2.5800     1.0710 N.am  1 <1>  -0.6600 
  4 C        0.6140     3.9040    -0.0680 C.3   1 <1>   0.1570 
  5 C       -2.3320     3.1980     0.2880 C.3   1 <1>   0.1400 
  6 C       -1.6660     1.5310     2.0300 C.3   1 <1>   0.1400 
  7 N        0.5510     3.4020    -1.4390 N.pl3 1 <1>   0.3140 
  8 C       -3.3920     3.8160     1.2200 C.3   1 <1>   0.1440 
  9 C       -2.7100     2.1140     2.9890 C.3   1 <1>  -0.1600 
 10 N       -0.1980     3.9430    -2.3840 N.2   1 <1>  -0.4180 
 11 C        1.1630     2.3400    -1.9580 C.2   1 <1>   0.2700 
 12 C       -4.5180     4.3600     0.3610 C.ar  1 <1>   0.1660 
 13 C       -3.8840     2.7560     2.2290 C.3   1 <1>  -0.1600 
 14 C       -2.8620     5.0930     1.9270 C.3   1 <1>  -0.1600 
 15 N       -0.0270     3.2180    -3.4270 N.2   1 <1>   0.0000 
 16 N        0.8160     2.2130    -3.1850 N.2   1 <1>  -0.3380 
 17 N        2.0330     1.4810    -1.3050 N.pl3 1 <1>  -0.8840 
 18 N       -5.4000     3.6340    -0.2800 N.ar  1 <1>  -0.6200 
 19 C       -4.4990     5.7200     0.3100 C.ar  1 <1>  -0.1440 
 20 C       -3.3650     6.3000     1.1150 C.3   1 <1>  -0.0170 
 21 C       -6.3110     4.3140    -0.9910 C.ar  1 <1>   0.6200 
 22 C       -5.4640     6.3420    -0.4390 C.ar  1 <1>   0.1600 
 23 N       -6.3720     5.6500    -1.0880 N.ar  1 <1>  -0.6200 
 24 C       -7.3100     3.5400    -1.7150 C.ar  1 <1>   0.0000 
 25 C       -8.5950     4.0370    -1.9470 C.ar  1 <1>  -0.1500 
 26 C       -7.0300     2.2630    -2.2110 C.ar  1 <1>  -0.1500 
 27 C       -9.5470     3.3050    -2.6320 C.ar  1 <1>  -0.1500 
 28 C       -7.9760     1.5240    -2.8980 C.ar  1 <1>  -0.1500 
 29 C       -9.2400     2.0440    -3.1100 C.ar  1 <1>  -0.1500 
 30 H        1.6330     4.1490     0.1610 H     1 <1>   0.0800 
 31 H        0.0110     4.7860     0.0270 H     1 <1>   0.0800 
 32 H       -2.7970     2.4300    -0.3070 H     1 <1>   0.0800 
 33 H       -1.9790     3.9530    -0.3890 H     1 <1>   0.0800 
 34 H       -0.8370     1.1440     2.5990 H     1 <1>   0.0800 
 35 H       -2.0960     0.7150     1.4740 H     1 <1>   0.0800 
 36 H       -2.2350     2.8400     3.6240 H     1 <1>   0.0800 
 37 H       -3.0830     1.3270     3.6210 H     1 <1>   0.0800 
 38 H       -4.4110     1.9850     1.6940 H     1 <1>   0.0800 
 39 H       -4.5800     3.1970     2.9210 H     1 <1>   0.0800 
 40 H       -1.7920     5.0970     2.0290 H     1 <1>   0.0800 
 41 H       -3.2900     5.1580     2.9120 H     1 <1>   0.0800 
 42 H        2.2040     0.6020    -1.8000 H     1 <1>   0.4000 
 43 H        1.8910     1.3390    -0.2910 H     1 <1>   0.4000 
 44 H       -2.5980     6.6620     0.4510 H     1 <1>   0.0800 
 45 H       -3.6990     7.0970     1.7560 H     1 <1>   0.0800 
 46 H       -5.4920     7.4160    -0.5100 H     1 <1>   0.1500 
 47 H       -8.8510     5.0170    -1.5820 H     1 <1>   0.1500 
 48 H       -6.0510     1.8430    -2.0570 H     1 <1>   0.1500 
 49 H      -10.5280     3.7160    -2.7950 H     1 <1>   0.1500 
 50 H       -7.7290     0.5450    -3.2670 H     1 <1>   0.1500 
 51 H       -9.9790     1.4720    -3.6440 H     1 <1>   0.1500 
@<TRIPOS>BOND
  1   1   2  2   
  2   2   3  am  
  3   2   4  1   
  4   3   5  1   
  5   3   6  1   
  6   4   7  1   
  7   4  30  1   
  8   4  31  1   
  9   5   8  1   
 10   5  32  1   
 11   5  33  1   
 12   6   9  1   
 13   6  34  1   
 14   6  35  1   
 15   7  10  1   
 16   7  11  1   
 17   8  12  1   
 18   8  13  1   
 19   8  14  1   
 20   9  13  1   
 21   9  36  1   
 22   9  37  1   
 23  10  15  2   
 24  11  16  2   
 25  11  17  1   
 26  12  18  ar  
 27  12  19  ar  
 28  13  38  1   
 29  13  39  1   
 30  14  20  1   
 31  14  40  1   
 32  14  41  1   
 33  15  16  1   
 34  17  42  1   
 35  17  43  1   
 36  18  21  ar  
 37  19  20  1   
 38  19  22  ar  
 39  20  44  1   
 40  20  45  1   
 41  21  23  ar  
 42  21  24  1   
 43  22  23  ar  
 44  22  46  1   
 45  24  25  ar  
 46  24  26  ar  
 47  25  27  ar  
 48  25  47  1   
 49  26  28  ar  
 50  26  48  1   
 51  27  29  ar  
 52  27  49  1   
 53  28  29  ar  
 54  28  50  1   
 55  29  51  1   
@<TRIPOS>SUBSTRUCTURE
  1 ****   5 GROUP 4 **** **** 0

# MOE 2024.06 (io_trps.svl 2023.06)
