@<TRIPOS>MOLECULE
NONAME
43 45 1 0 0 
SMALL
USER_CHARGES


@<TRIPOS>ATOM
  1 F        2.0900     0.0060    -1.5020 F     1 <1>  -0.1900 
  2 C        2.3570    -0.3470    -0.2660 C.ar  1 <1>   0.1900 
  3 C        2.2870    -1.6970     0.0690 C.ar  1 <1>   0.0830 
  4 C        2.6870     0.6410     0.6520 C.ar  1 <1>  -0.1440 
  5 O        1.9630    -2.5980    -0.9010 O.3   1 <1>  -0.3630 
  6 C        2.5520    -2.0580     1.3870 C.ar  1 <1>  -0.1500 
  7 C        2.9340     0.2490     1.9610 C.ar  1 <1>  -0.1500 
  8 C        2.7540     2.1160     0.2610 C.3   1 <1>   0.2540 
  9 C        1.8880    -3.9800    -0.6300 C.3   1 <1>   0.0400 
 10 C        2.8700    -1.0880     2.3230 C.ar  1 <1>  -0.1500 
 11 N        4.1070     2.5610    -0.1250 N.3   1 <1>  -0.8100 
 12 C        5.0930     2.4660     0.9780 C.3   1 <1>   0.1100 
 13 C        4.5550     1.9450    -1.3900 C.3   1 <1>   0.1100 
 14 C        6.4430     3.2010     0.7500 C.3   1 <1>   0.2200 
 15 C        5.7990     2.6060    -2.0170 C.3   1 <1>  -0.0190 
 16 N        6.3580     4.3010    -0.2590 N.am  1 <1>  -0.6600 
 17 C        7.5920     2.2310     0.4050 C.3   1 <1>   0.1200 
 18 C        6.0370     4.0380    -1.5640 C.2   1 <1>   0.5690 
 19 C        7.0770     1.7680    -1.8620 C.3   1 <1>   0.1200 
 20 C        6.4960     5.6880     0.2590 C.3   1 <1>   0.0600 
 21 O        7.2460     1.2850    -0.5640 O.3   1 <1>  -0.5600 
 22 O        5.9810     4.9120    -2.4010 O.2   1 <1>  -0.5700 
 23 H        2.5140    -3.0830     1.7040 H     1 <1>   0.1500 
 24 H        3.1790     0.9850     2.7060 H     1 <1>   0.1500 
 25 H        2.4190     2.7160     1.0900 H     1 <1>   0.0800 
 26 H        2.0760     2.3110    -0.5520 H     1 <1>   0.0800 
 27 H        1.6240    -4.4840    -1.5420 H     1 <1>   0.0800 
 28 H        1.1300    -4.1500     0.1140 H     1 <1>   0.0800 
 29 H        2.8500    -4.3220    -0.2890 H     1 <1>   0.0800 
 30 H        3.0690    -1.3740     3.3410 H     1 <1>   0.1500 
 31 H        4.6480     2.8950     1.8570 H     1 <1>   0.0800 
 32 H        5.2900     1.4300     1.1960 H     1 <1>   0.0800 
 33 H        4.7360     0.8940    -1.2400 H     1 <1>   0.0800 
 34 H        3.7530     2.0350    -2.1030 H     1 <1>   0.0800 
 35 H        6.7150     3.6450     1.6900 H     1 <1>   0.0800 
 36 H        5.6170     2.6530    -3.0750 H     1 <1>   0.0800 
 37 H        7.8510     1.6740     1.2880 H     1 <1>   0.0800 
 38 H        8.4640     2.7700     0.0800 H     1 <1>   0.0800 
 39 H        7.9490     2.3340    -2.1440 H     1 <1>   0.0800 
 40 H        7.0130     0.9060    -2.5030 H     1 <1>   0.0800 
 41 H        7.4600     5.8130     0.7170 H     1 <1>   0.0800 
 42 H        5.7240     5.8810     0.9830 H     1 <1>   0.0800 
 43 H        6.3990     6.4040    -0.5400 H     1 <1>   0.0800 
@<TRIPOS>BOND
  1   1   2  1   
  2   2   3  ar  
  3   2   4  ar  
  4   3   5  1   
  5   3   6  ar  
  6   4   7  ar  
  7   4   8  1   
  8   5   9  1   
  9   6  10  ar  
 10   6  23  1   
 11   7  10  ar  
 12   7  24  1   
 13   8  11  1   
 14   8  25  1   
 15   8  26  1   
 16   9  27  1   
 17   9  28  1   
 18   9  29  1   
 19  10  30  1   
 20  11  12  1   
 21  11  13  1   
 22  12  14  1   
 23  12  31  1   
 24  12  32  1   
 25  13  15  1   
 26  13  33  1   
 27  13  34  1   
 28  14  16  1   
 29  14  17  1   
 30  14  35  1   
 31  15  18  1   
 32  15  19  1   
 33  15  36  1   
 34  16  18  am  
 35  16  20  1   
 36  17  21  1   
 37  17  37  1   
 38  17  38  1   
 39  18  22  2   
 40  19  21  1   
 41  19  39  1   
 42  19  40  1   
 43  20  41  1   
 44  20  42  1   
 45  20  43  1   
@<TRIPOS>SUBSTRUCTURE
  1 ****  11 GROUP 4 **** **** 0

# MOE 2024.06 (io_trps.svl 2023.06)
