@<TRIPOS>MOLECULE
NONAME
51 55 1 0 0 
SMALL
USER_CHARGES


@<TRIPOS>ATOM
  1 N       -0.6260    -0.4480    -0.9440 N.ar  1 <1>  -0.1790 
  2 C       -1.1950    -1.2690    -0.0580 C.ar  1 <1>   0.4610 
  3 C        0.7240    -0.4170    -1.2410 C.ar  1 <1>   0.3610 
  4 N       -2.5320    -1.2180     0.1430 N.pl3 1 <1>  -0.8380 
  5 C       -0.3260    -2.1650     0.6190 C.ar  1 <1>  -0.1500 
  6 C        1.5870    -1.3080    -0.5760 C.ar  1 <1>   0.0000 
  7 C        1.2310     0.4790    -2.1880 C.ar  1 <1>  -0.1500 
  8 C       -3.4240    -0.1060    -0.3700 C.3   1 <1>   0.2090 
  9 C       -3.2630    -2.2940     0.9060 C.3   1 <1>   0.2090 
 10 C        1.0150    -2.2000     0.3820 C.ar  1 <1>  -0.1430 
 11 C        2.9540    -1.2590    -0.8980 C.ar  1 <1>  -0.1500 
 12 C        2.5730     0.5030    -2.4810 C.ar  1 <1>  -0.1500 
 13 C       -4.6160     0.1820     0.5620 C.3   1 <1>   0.1440 
 14 C       -4.7370    -2.3870     0.4910 C.3   1 <1>  -0.1600 
 15 C        1.9030    -3.1810     1.1380 C.3   1 <1>  -0.0970 
 16 C        3.4360    -0.3730    -1.8310 C.ar  1 <1>  -0.1500 
 17 C       -5.4060     1.3590     0.0260 C.ar  1 <1>   0.1670 
 18 C       -5.5160    -1.0700     0.6820 C.3   1 <1>  -0.1600 
 19 C       -4.1720     0.7020     1.9580 C.3   1 <1>  -0.1600 
 20 N       -5.7650     1.5170    -1.2280 N.ar  1 <1>  -0.6200 
 21 C       -5.6950     2.2630     1.0030 C.ar  1 <1>  -0.1430 
 22 C       -5.1430     1.8350     2.3390 C.3   1 <1>  -0.0170 
 23 C       -6.4560     2.6260    -1.4610 C.ar  1 <1>   0.4770 
 24 C       -6.4070     3.3810     0.6490 C.ar  1 <1>   0.1600 
 25 N       -6.7940     3.5710    -0.5960 N.ar  1 <1>  -0.6200 
 26 C       -6.9110     2.8490    -2.8830 C.3   1 <1>  -0.0970 
 27 H       -1.2440     0.1660    -1.4600 H     1 <1>   0.4570 
 28 H       -0.7530    -2.8260     1.3490 H     1 <1>   0.1500 
 29 H        0.5730     1.1600    -2.6980 H     1 <1>   0.1500 
 30 H       -3.8120    -0.3860    -1.3370 H     1 <1>   0.0800 
 31 H       -2.8680     0.8070    -0.4850 H     1 <1>   0.0800 
 32 H       -3.1990    -2.0900     1.9620 H     1 <1>   0.0800 
 33 H       -2.8050    -3.2510     0.7210 H     1 <1>   0.0800 
 34 H        3.6460    -1.9240    -0.4110 H     1 <1>   0.1500 
 35 H        2.9710     1.1910    -3.2110 H     1 <1>   0.1500 
 36 H       -5.2190    -3.1690     1.0520 H     1 <1>   0.0800 
 37 H       -4.7750    -2.6760    -0.5450 H     1 <1>   0.0800 
 38 H        1.3280    -3.7810     1.8230 H     1 <1>   0.0800 
 39 H        2.6470    -2.6500     1.7060 H     1 <1>   0.0800 
 40 H        2.3970    -3.8440     0.4500 H     1 <1>   0.0800 
 41 H        4.4890    -0.3480    -2.0670 H     1 <1>   0.1500 
 42 H       -6.2870    -1.0300    -0.0690 H     1 <1>   0.0800 
 43 H       -6.0140    -1.0700     1.6360 H     1 <1>   0.0800 
 44 H       -3.1830     1.1200     1.8870 H     1 <1>   0.0800 
 45 H       -4.1560    -0.0690     2.7070 H     1 <1>   0.0800 
 46 H       -4.6370     2.6420     2.8420 H     1 <1>   0.0800 
 47 H       -5.9420     1.4630     2.9570 H     1 <1>   0.0800 
 48 H       -6.6640     4.1250     1.3830 H     1 <1>   0.1500 
 49 H       -6.7280     1.9760    -3.4820 H     1 <1>   0.0800 
 50 H       -6.3800     3.6830    -3.3010 H     1 <1>   0.0800 
 51 H       -7.9640     3.0630    -2.8920 H     1 <1>   0.0800 
@<TRIPOS>BOND
  1   1   2  ar  
  2   1   3  ar  
  3   1  27  1   
  4   2   4  1   
  5   2   5  ar  
  6   3   6  ar  
  7   3   7  ar  
  8   4   8  1   
  9   4   9  1   
 10   5  10  ar  
 11   5  28  1   
 12   6  10  ar  
 13   6  11  ar  
 14   7  12  ar  
 15   7  29  1   
 16   8  13  1   
 17   8  30  1   
 18   8  31  1   
 19   9  14  1   
 20   9  32  1   
 21   9  33  1   
 22  10  15  1   
 23  11  16  ar  
 24  11  34  1   
 25  12  16  ar  
 26  12  35  1   
 27  13  17  1   
 28  13  18  1   
 29  13  19  1   
 30  14  18  1   
 31  14  36  1   
 32  14  37  1   
 33  15  38  1   
 34  15  39  1   
 35  15  40  1   
 36  16  41  1   
 37  17  20  ar  
 38  17  21  ar  
 39  18  42  1   
 40  18  43  1   
 41  19  22  1   
 42  19  44  1   
 43  19  45  1   
 44  20  23  ar  
 45  21  22  1   
 46  21  24  ar  
 47  22  46  1   
 48  22  47  1   
 49  23  25  ar  
 50  23  26  1   
 51  24  25  ar  
 52  24  48  1   
 53  26  49  1   
 54  26  50  1   
 55  26  51  1   
@<TRIPOS>SUBSTRUCTURE
  1 ****   8 GROUP 4 **** **** 0

# MOE 2024.06 (io_trps.svl 2023.06)
