@<TRIPOS>MOLECULE
NONAME
58 61 1 0 0 
SMALL
USER_CHARGES


@<TRIPOS>ATOM
  1 O       -0.5150    -0.0260     1.9960 O.2   1 <1>  -0.5700 
  2 C       -1.1160     0.7630     1.3060 C.2   1 <1>   0.5690 
  3 N       -2.0020     0.3150     0.3500 N.am  1 <1>  -0.6600 
  4 C       -0.8810     2.2480     1.5620 C.3   1 <1>   0.0820 
  5 C       -2.1380    -1.1400     0.0590 C.3   1 <1>   0.1400 
  6 C       -2.9610     1.1750    -0.4030 C.3   1 <1>   0.1400 
  7 C       -0.3260     3.0000     0.3580 C.2   1 <1>  -0.1810 
  8 C       -3.5670    -1.6080     0.4090 C.3   1 <1>   0.4230 
  9 C       -4.3870     0.7310    -0.0530 C.3   1 <1>  -0.1600 
 10 C       -0.2680     4.4110     0.2160 C.ar  1 <1>   0.0000 
 11 C        0.1980     2.4840    -0.7710 C.2   1 <1>  -0.0100 
 12 N       -3.7620    -3.1160     0.3110 N.4   1 <1>  -0.9590 
 13 C       -4.6580    -0.7770    -0.3310 C.3   1 <1>   0.0000 
 14 C       -0.6080     5.5380     0.9780 C.ar  1 <1>  -0.1430 
 15 C        0.2890     4.6010    -1.0400 C.ar  1 <1>   0.1400 
 16 O        0.5640     3.4330    -1.6190 O.3   1 <1>  -0.2800 
 17 C       -5.1980    -3.5440     0.2380 C.3   1 <1>   0.3430 
 18 C       -2.9700    -3.8040    -0.7620 C.3   1 <1>   0.2630 
 19 C       -6.0580    -1.1460     0.2430 C.3   1 <1>  -0.1600 
 20 C       -4.6050    -1.0620    -1.8600 C.3   1 <1>   0.1200 
 21 C       -0.3870     6.7940     0.4420 C.ar  1 <1>  -0.1500 
 22 C       -1.2020     5.4090     2.3700 C.3   1 <1>  -0.0970 
 23 C        0.5110     5.8600    -1.5780 C.ar  1 <1>  -0.1500 
 24 C       -6.1090    -2.5280     0.9240 C.3   1 <1>  -0.1600 
 25 O       -5.4230    -0.2000    -2.5710 O.3   1 <1>  -0.6800 
 26 C        0.1680     6.9660    -0.8290 C.ar  1 <1>  -0.1430 
 27 C        0.3870     8.3690    -1.3650 C.3   1 <1>  -0.0970 
 28 H       -1.8150     2.6810     1.8630 H     1 <1>   0.0800 
 29 H       -0.1920     2.3540     2.3800 H     1 <1>   0.0800 
 30 H       -1.9170    -1.2970    -0.9800 H     1 <1>   0.0800 
 31 H       -1.4280    -1.7030     0.6400 H     1 <1>   0.0800 
 32 H       -2.8400     2.2140    -0.1510 H     1 <1>   0.0800 
 33 H       -2.7810     1.0780    -1.4610 H     1 <1>   0.0800 
 34 H       -3.6880    -1.3600     1.4510 H     1 <1>   0.0800 
 35 H       -4.5410     0.9450     0.9910 H     1 <1>   0.0800 
 36 H       -5.0810     1.3480    -0.5970 H     1 <1>   0.0800 
 37 H        0.3520     1.4610    -1.0680 H     1 <1>   0.1500 
 38 H       -3.4080    -3.4770     1.2100 H     1 <1>   0.4500 
 39 H       -5.5010    -3.6320    -0.7930 H     1 <1>   0.0800 
 40 H       -5.3160    -4.5120     0.7000 H     1 <1>   0.0800 
 41 H       -3.2570    -3.4430    -1.7360 H     1 <1>   0.0800 
 42 H       -3.1410    -4.8680    -0.7280 H     1 <1>   0.0800 
 43 H       -1.9150    -3.6290    -0.6250 H     1 <1>   0.0800 
 44 H       -6.3730    -0.4190     0.9730 H     1 <1>   0.0800 
 45 H       -6.7970    -1.1160    -0.5390 H     1 <1>   0.0800 
 46 H       -4.9200    -2.0630    -2.0890 H     1 <1>   0.0800 
 47 H       -3.6120    -0.9220    -2.2500 H     1 <1>   0.0800 
 48 H       -0.6430     7.6710     1.0090 H     1 <1>   0.1500 
 49 H       -1.2760     6.3710     2.8450 H     1 <1>   0.0800 
 50 H       -0.5790     4.7830     2.9810 H     1 <1>   0.0800 
 51 H       -2.1880     4.9860     2.3110 H     1 <1>   0.0800 
 52 H        0.9430     5.9410    -2.5580 H     1 <1>   0.1500 
 53 H       -7.1220    -2.8920     0.9060 H     1 <1>   0.0800 
 54 H       -5.8250    -2.4430     1.9590 H     1 <1>   0.0800 
 55 H       -6.3690    -0.3160    -2.3500 H     1 <1>   0.4000 
 56 H        1.0530     8.9090    -0.7160 H     1 <1>   0.0800 
 57 H       -0.5510     8.8930    -1.4140 H     1 <1>   0.0800 
 58 H        0.8160     8.3420    -2.3500 H     1 <1>   0.0800 
@<TRIPOS>BOND
  1   1   2  2   
  2   2   3  am  
  3   2   4  1   
  4   3   5  1   
  5   3   6  1   
  6   4   7  1   
  7   4  28  1   
  8   4  29  1   
  9   5   8  1   
 10   5  30  1   
 11   5  31  1   
 12   6   9  1   
 13   6  32  1   
 14   6  33  1   
 15   7  10  1   
 16   7  11  2   
 17   8  12  1   
 18   8  13  1   
 19   8  34  1   
 20   9  13  1   
 21   9  35  1   
 22   9  36  1   
 23  10  14  ar  
 24  10  15  ar  
 25  11  16  1   
 26  11  37  1   
 27  12  17  1   
 28  12  18  1   
 29  12  38  1   
 30  13  19  1   
 31  13  20  1   
 32  14  21  ar  
 33  14  22  1   
 34  15  16  1   
 35  15  23  ar  
 36  17  24  1   
 37  17  39  1   
 38  17  40  1   
 39  18  41  1   
 40  18  42  1   
 41  18  43  1   
 42  19  24  1   
 43  19  44  1   
 44  19  45  1   
 45  20  25  1   
 46  20  46  1   
 47  20  47  1   
 48  21  26  ar  
 49  21  48  1   
 50  22  49  1   
 51  22  50  1   
 52  22  51  1   
 53  23  26  ar  
 54  23  52  1   
 55  24  53  1   
 56  24  54  1   
 57  25  55  1   
 58  26  27  1   
 59  27  56  1   
 60  27  57  1   
 61  27  58  1   
@<TRIPOS>SUBSTRUCTURE
  1 ****   6 GROUP 4 **** **** 0

# MOE 2024.06 (io_trps.svl 2023.06)
