@<TRIPOS>MOLECULE
NONAME
44 46 1 0 0 
SMALL
USER_CHARGES


@<TRIPOS>ATOM
  1 O        0.5830     0.6120    -2.3340 O.co2 1 <1>  -0.9000 
  2 C       -0.1560     1.3010    -1.6050 C.2   1 <1>   1.0330 
  3 O       -1.2660     0.8270    -1.2850 O.co2 1 <1>  -0.9000 
  4 C        0.2220     2.6230    -1.1040 C.2   1 <1>  -0.0060 
  5 N        1.3870     3.3250    -1.3300 N.2   1 <1>  -0.5650 
  6 C       -0.5470     3.3870    -0.3050 C.2   1 <1>  -0.0100 
  7 C        1.2310     4.4160    -0.6650 C.2   1 <1>   0.5620 
  8 O        0.0800     4.5010    -0.0300 O.3   1 <1>  -0.2800 
  9 N        2.1440     5.4470    -0.5740 N.pl3 1 <1>  -0.8220 
 10 C        2.0340     6.4220     0.5280 C.3   1 <1>   0.4330 
 11 C        3.5580     5.1890    -0.9230 C.3   1 <1>   0.2090 
 12 C        1.0200     7.5350     0.2430 C.ar  1 <1>  -0.1440 
 13 C        3.4470     6.9780     0.6860 C.3   1 <1>  -0.1600 
 14 C        4.3620     5.8670     0.1790 C.3   1 <1>  -0.1600 
 15 C        0.4500     8.2250     1.3030 C.ar  1 <1>  -0.1500 
 16 C        0.6440     7.8700    -1.0500 C.ar  1 <1>  -0.1500 
 17 C       -0.4740     9.2310     1.0770 C.ar  1 <1>  -0.1500 
 18 C       -0.2810     8.8720    -1.2810 C.ar  1 <1>  -0.1500 
 19 C       -0.8420     9.5630    -0.2180 C.ar  1 <1>  -0.1430 
 20 C       -1.8480    10.6660    -0.4750 C.3   1 <1>   0.4860 
 21 N       -1.1690    11.9810    -0.2890 N.4   1 <1>  -0.9590 
 22 C       -2.1480    13.1080    -0.2870 C.3   1 <1>   0.2630 
 23 C       -0.0940    12.1930    -1.3100 C.3   1 <1>   0.2630 
 24 H       -1.5270     3.1960     0.0940 H     1 <1>   0.1500 
 25 H        1.7550     5.8920     1.4230 H     1 <1>   0.0800 
 26 H        3.7660     5.6370    -1.8790 H     1 <1>   0.0800 
 27 H        3.7740     4.1330    -0.9710 H     1 <1>   0.0800 
 28 H        3.6530     7.2480     1.7050 H     1 <1>   0.0800 
 29 H        3.5560     7.8470     0.0610 H     1 <1>   0.0800 
 30 H        5.3030     6.2380    -0.1860 H     1 <1>   0.0800 
 31 H        4.5450     5.1520     0.9620 H     1 <1>   0.0800 
 32 H        0.7230     7.9720     2.3140 H     1 <1>   0.1500 
 33 H        1.0670     7.3360    -1.8850 H     1 <1>   0.1500 
 34 H       -0.9020     9.7380     1.9250 H     1 <1>   0.1500 
 35 H       -0.5550     9.0910    -2.2990 H     1 <1>   0.1500 
 36 H       -2.6640    10.5660     0.2220 H     1 <1>   0.0800 
 37 H       -2.2390    10.5830    -1.4750 H     1 <1>   0.0800 
 38 H       -0.7080    11.9270     0.6310 H     1 <1>   0.4500 
 39 H       -2.6480    13.1740    -1.2400 H     1 <1>   0.0800 
 40 H       -1.6420    14.0420    -0.1000 H     1 <1>   0.0800 
 41 H       -2.8890    12.9610     0.4830 H     1 <1>   0.0800 
 42 H       -0.5140    12.2060    -2.3030 H     1 <1>   0.0800 
 43 H        0.6350    11.4000    -1.2560 H     1 <1>   0.0800 
 44 H        0.4100    13.1300    -1.1350 H     1 <1>   0.0800 
@<TRIPOS>BOND
  1   1   2  ar  
  2   2   3  ar  
  3   2   4  1   
  4   4   5  1   
  5   4   6  2   
  6   5   7  2   
  7   6   8  1   
  8   6  24  1   
  9   7   8  1   
 10   7   9  1   
 11   9  10  1   
 12   9  11  1   
 13  10  12  1   
 14  10  13  1   
 15  10  25  1   
 16  11  14  1   
 17  11  26  1   
 18  11  27  1   
 19  12  15  ar  
 20  12  16  ar  
 21  13  14  1   
 22  13  28  1   
 23  13  29  1   
 24  14  30  1   
 25  14  31  1   
 26  15  17  ar  
 27  15  32  1   
 28  16  18  ar  
 29  16  33  1   
 30  17  19  ar  
 31  17  34  1   
 32  18  19  ar  
 33  18  35  1   
 34  19  20  1   
 35  20  21  1   
 36  20  36  1   
 37  20  37  1   
 38  21  22  1   
 39  21  23  1   
 40  21  38  1   
 41  22  39  1   
 42  22  40  1   
 43  22  41  1   
 44  23  42  1   
 45  23  43  1   
 46  23  44  1   
@<TRIPOS>SUBSTRUCTURE
  1 ****  12 GROUP 4 **** **** 0

# MOE 2024.06 (io_trps.svl 2023.06)
