@<TRIPOS>MOLECULE
NONAME
39 41 1 0 0 
SMALL
USER_CHARGES


@<TRIPOS>ATOM
  1 O       -0.4580     0.2530     0.0880 O.2   1 <1>  -0.5700 
  2 C       -1.4880     0.8530     0.3390 C.2   1 <1>   0.7150 
  3 N       -2.6530     0.1310     0.4440 N.am  1 <1>  -0.6600 
  4 C       -1.4750     2.2800     0.5030 C.2   1 <1>  -0.2370 
  5 C       -4.0110     0.6910     0.2340 C.3   1 <1>   0.1400 
  6 C       -2.6760    -1.3480     0.3210 C.3   1 <1>   0.1400 
  7 N       -0.6240     3.1190    -0.1480 N.pl3 1 <1>   0.3140 
  8 C       -2.2370     3.0920     1.2890 C.2   1 <1>  -0.1500 
  9 C       -4.8370    -0.4790    -0.2950 C.3   1 <1>   0.2000 
 10 C       -4.1560    -1.7300     0.2540 C.3   1 <1>  -0.0800 
 11 N       -0.8310     4.4040     0.1760 N.2   1 <1>  -0.7070 
 12 C        0.4270     2.7630    -1.1160 C.3   1 <1>   0.0160 
 13 C       -1.7970     4.3780     1.0420 C.2   1 <1>   0.1390 
 14 O       -6.1510    -0.4180     0.1400 O.3   1 <1>  -0.6800 
 15 C       -4.4320    -2.9840    -0.5880 C.3   1 <1>   0.0200 
 16 C       -3.6680    -4.1780    -0.0500 C.2   1 <1>  -0.0400 
 17 O       -3.8990    -4.6100     1.1610 O.3   1 <1>  -0.0190 
 18 C       -2.7160    -4.9540    -0.5900 C.2   1 <1>  -0.1500 
 19 N       -3.1500    -5.6300     1.4630 N.2   1 <1>  -0.4100 
 20 C       -2.4270    -5.8610     0.4260 C.2   1 <1>   0.1080 
 21 C       -1.4030    -6.9700     0.3340 C.3   1 <1>  -0.0590 
 22 H       -4.4000     1.0330     1.1770 H     1 <1>   0.0800 
 23 H       -3.9890     1.4990    -0.4780 H     1 <1>   0.0800 
 24 H       -2.1620    -1.6350    -0.5820 H     1 <1>   0.0800 
 25 H       -2.1890    -1.8080     1.1650 H     1 <1>   0.0800 
 26 H       -3.0170     2.8180     1.9750 H     1 <1>   0.1500 
 27 H       -4.8340    -0.4670    -1.3720 H     1 <1>   0.0800 
 28 H       -4.4830    -1.9010     1.2650 H     1 <1>   0.0800 
 29 H        0.0070     2.1470    -1.8880 H     1 <1>   0.0800 
 30 H        1.2060     2.2270    -0.6060 H     1 <1>   0.0800 
 31 H        0.8300     3.6600    -1.5470 H     1 <1>   0.0800 
 32 H       -2.1950     5.2660     1.5050 H     1 <1>   0.1500 
 33 H       -6.1990    -0.5240     1.1100 H     1 <1>   0.4000 
 34 H       -4.1450    -2.8130    -1.6100 H     1 <1>   0.0800 
 35 H       -5.4850    -3.2060    -0.5700 H     1 <1>   0.0800 
 36 H       -2.2600    -4.9160    -1.5610 H     1 <1>   0.1500 
 37 H       -1.6450    -7.6230    -0.4840 H     1 <1>   0.0800 
 38 H       -1.3960    -7.5400     1.2450 H     1 <1>   0.0800 
 39 H       -0.4260    -6.5510     0.1780 H     1 <1>   0.0800 
@<TRIPOS>BOND
  1   1   2  2   
  2   2   3  am  
  3   2   4  1   
  4   3   5  1   
  5   3   6  1   
  6   4   7  1   
  7   4   8  2   
  8   5   9  1   
  9   5  22  1   
 10   5  23  1   
 11   6  10  1   
 12   6  24  1   
 13   6  25  1   
 14   7  11  1   
 15   7  12  1   
 16   8  13  1   
 17   8  26  1   
 18   9  10  1   
 19   9  14  1   
 20   9  27  1   
 21  10  15  1   
 22  10  28  1   
 23  11  13  2   
 24  12  29  1   
 25  12  30  1   
 26  12  31  1   
 27  13  32  1   
 28  14  33  1   
 29  15  16  1   
 30  15  34  1   
 31  15  35  1   
 32  16  17  1   
 33  16  18  2   
 34  17  19  1   
 35  18  20  1   
 36  18  36  1   
 37  19  20  2   
 38  20  21  1   
 39  21  37  1   
 40  21  38  1   
 41  21  39  1   
@<TRIPOS>SUBSTRUCTURE
  1 ****   6 GROUP 4 **** **** 0

# MOE 2024.06 (io_trps.svl 2023.06)
