@<TRIPOS>MOLECULE
NONAME
37 38 1 0 0 
SMALL
USER_CHARGES


@<TRIPOS>ATOM
  1 F        0.9820    -1.0950     1.9100 F     1 <1>  -0.1900 
  2 C        0.4240    -1.9850     1.1340 C.ar  1 <1>   0.1900 
  3 C        1.1690    -3.0660     0.6880 C.ar  1 <1>  -0.1440 
  4 C       -0.9010    -1.8040     0.7870 C.ar  1 <1>  -0.1500 
  5 C        0.5440    -3.9910    -0.1340 C.ar  1 <1>  -0.1500 
  6 C        2.6300    -3.2290     1.0820 C.3   1 <1>  -0.0960 
  7 C       -1.5100    -2.7390    -0.0330 C.ar  1 <1>  -0.1500 
  8 C       -0.7910    -3.8360    -0.4930 C.ar  1 <1>  -0.1440 
  9 C       -1.4590    -4.8630    -1.3900 C.3   1 <1>   0.4870 
 10 N       -2.3290    -5.7340    -0.5650 N.4   1 <1>  -0.9590 
 11 C       -1.5120    -6.5350     0.4330 C.3   1 <1>   0.3430 
 12 C       -3.1890    -6.6030    -1.4210 C.3   1 <1>   0.3430 
 13 C       -2.0830    -7.9320     0.7430 C.3   1 <1>   0.2000 
 14 C       -4.2120    -7.3370    -0.5500 C.3   1 <1>  -0.1600 
 15 O       -1.6780    -8.8000    -0.2600 O.3   1 <1>  -0.6800 
 16 C       -3.6150    -7.8980     0.7670 C.3   1 <1>  -0.1860 
 17 C       -4.1480    -9.2740     1.1000 C.2   1 <1>   0.9060 
 18 O       -4.9160    -9.3860     2.0510 O.co2 1 <1>  -0.9000 
 19 O       -3.7650   -10.2220     0.4040 O.co2 1 <1>  -0.9000 
 20 H       -1.4360    -0.9450     1.1540 H     1 <1>   0.1500 
 21 H        1.1090    -4.8340    -0.4960 H     1 <1>   0.1500 
 22 H        3.0540    -4.1220     0.6590 H     1 <1>   0.0800 
 23 H        2.7180    -3.2820     2.1530 H     1 <1>   0.0800 
 24 H        3.1990    -2.3840     0.7350 H     1 <1>   0.0800 
 25 H       -2.5420    -2.5940    -0.3080 H     1 <1>   0.1500 
 26 H       -0.7120    -5.4580    -1.8910 H     1 <1>   0.0800 
 27 H       -2.0460    -4.3540    -2.1360 H     1 <1>   0.0800 
 28 H       -2.9560    -5.1360    -0.0180 H     1 <1>   0.4500 
 29 H       -0.5070    -6.6690     0.0700 H     1 <1>   0.0800 
 30 H       -1.4540    -5.9780     1.3530 H     1 <1>   0.0800 
 31 H       -3.7030    -6.0210    -2.1680 H     1 <1>   0.0800 
 32 H       -2.5720    -7.3330    -1.9230 H     1 <1>   0.0800 
 33 H       -1.6920    -8.3110     1.6730 H     1 <1>   0.0800 
 34 H       -5.0410    -6.6910    -0.3220 H     1 <1>   0.0800 
 35 H       -4.6060    -8.1520    -1.1340 H     1 <1>   0.0800 
 36 H       -2.2880    -9.6000    -0.1870 H     1 <1>   0.4000 
 37 H       -3.9120    -7.2540     1.5750 H     1 <1>   0.0800 
@<TRIPOS>BOND
  1   1   2  1   
  2   2   3  ar  
  3   2   4  ar  
  4   3   5  ar  
  5   3   6  1   
  6   4   7  ar  
  7   4  20  1   
  8   5   8  ar  
  9   5  21  1   
 10   6  22  1   
 11   6  23  1   
 12   6  24  1   
 13   7   8  ar  
 14   7  25  1   
 15   8   9  1   
 16   9  10  1   
 17   9  26  1   
 18   9  27  1   
 19  10  11  1   
 20  10  12  1   
 21  10  28  1   
 22  11  13  1   
 23  11  29  1   
 24  11  30  1   
 25  12  14  1   
 26  12  31  1   
 27  12  32  1   
 28  13  15  1   
 29  13  16  1   
 30  13  33  1   
 31  14  16  1   
 32  14  34  1   
 33  14  35  1   
 34  15  36  1   
 35  16  17  1   
 36  16  37  1   
 37  17  18  ar  
 38  17  19  ar  
@<TRIPOS>SUBSTRUCTURE
  1 ****  11 GROUP 4 **** **** 0

# MOE 2024.06 (io_trps.svl 2023.06)
