@<TRIPOS>MOLECULE
NONAME
56 60 1 0 0 
SMALL
USER_CHARGES


@<TRIPOS>ATOM
  1 O        0.9450     0.7750    -1.3720 O.3   1 <1>  -0.5600 
  2 C        1.0750    -0.2740    -0.4780 C.3   1 <1>   0.2800 
  3 C       -0.0960     1.4700    -0.8030 C.3   1 <1>   0.2000 
  4 C        1.3370     0.4980     0.8100 C.3   1 <1>  -0.0800 
  5 C        2.3330    -1.1040    -0.7430 C.3   1 <1>   0.3430 
  6 C       -0.3230    -0.8860    -0.5110 C.3   1 <1>  -0.1600 
  7 C        0.5290     1.8050     0.5610 C.3   1 <1>  -0.0800 
  8 C       -1.1700     0.3770    -0.6930 C.3   1 <1>  -0.1600 
  9 C        2.8760     0.5220     0.9190 C.3   1 <1>   0.3430 
 10 N        3.4540    -0.2440    -0.2440 N.4   1 <1>  -0.9590 
 11 C        1.3800     3.0870     0.4700 C.3   1 <1>   0.3430 
 12 C        3.9670     0.5980    -1.3820 C.3   1 <1>   0.4860 
 13 N        0.6250     4.3360     0.8060 N.4   1 <1>  -0.9590 
 14 C        4.5520     1.9170    -0.9010 C.ar  1 <1>  -0.1440 
 15 C       -0.4730     4.6680    -0.1580 C.3   1 <1>   0.2630 
 16 C        1.5810     5.4880     0.8730 C.3   1 <1>   0.2630 
 17 C        5.5710     1.9550     0.0510 C.ar  1 <1>  -0.1500 
 18 C        4.0490     3.1060    -1.4150 C.ar  1 <1>  -0.1500 
 19 C        6.0770     3.1580     0.5260 C.ar  1 <1>   0.0820 
 20 C        4.5570     4.2960    -0.9330 C.ar  1 <1>   0.0820 
 21 O        7.0490     3.0670     1.4710 O.3   1 <1>  -0.3620 
 22 C        5.5460     4.3390     0.0070 C.ar  1 <1>   0.0820 
 23 O        4.1860     5.5330    -1.2790 O.3   1 <1>  -0.3620 
 24 C        7.7960     4.2010     1.8580 C.3   1 <1>   0.0400 
 25 O        5.8410     5.6240     0.2750 O.3   1 <1>  -0.3620 
 26 C        5.1090     6.4200    -0.6500 C.3   1 <1>   0.4000 
 27 H       -0.3810     2.3040    -1.4190 H     1 <1>   0.0800 
 28 H        0.9430    -0.0360     1.6570 H     1 <1>   0.0800 
 29 H        2.4280    -1.3500    -1.7880 H     1 <1>   0.0800 
 30 H        2.2830    -2.0130    -0.1650 H     1 <1>   0.0800 
 31 H       -0.4280    -1.5430    -1.3580 H     1 <1>   0.0800 
 32 H       -0.5630    -1.4220     0.3910 H     1 <1>   0.0800 
 33 H       -0.2280     1.9210     1.3170 H     1 <1>   0.0800 
 34 H       -1.8430     0.5490     0.1290 H     1 <1>   0.0800 
 35 H       -1.7400     0.3240    -1.6060 H     1 <1>   0.0800 
 36 H        3.1580     0.0300     1.8360 H     1 <1>   0.0800 
 37 H        3.2590     1.5250     0.9640 H     1 <1>   0.0800 
 38 H        4.2370    -0.8260     0.0820 H     1 <1>   0.4500 
 39 H        1.7880     3.1680    -0.5230 H     1 <1>   0.0800 
 40 H        2.2040     3.0070     1.1590 H     1 <1>   0.0800 
 41 H        4.7170     0.0520    -1.9320 H     1 <1>   0.0800 
 42 H        3.1600     0.8150    -2.0630 H     1 <1>   0.0800 
 43 H        0.2060     4.2300     1.7440 H     1 <1>   0.4500 
 44 H       -0.0790     4.7700    -1.1570 H     1 <1>   0.0800 
 45 H       -0.9460     5.5960     0.1190 H     1 <1>   0.0800 
 46 H       -1.2230     3.8940    -0.1580 H     1 <1>   0.0800 
 47 H        2.0350     5.6540    -0.0920 H     1 <1>   0.0800 
 48 H        2.3620     5.2900     1.5890 H     1 <1>   0.0800 
 49 H        1.0660     6.3870     1.1690 H     1 <1>   0.0800 
 50 H        5.9970     1.0480     0.4450 H     1 <1>   0.1500 
 51 H        3.2860     3.1260    -2.1760 H     1 <1>   0.1500 
 52 H        8.5730     3.8780     2.5280 H     1 <1>   0.0800 
 53 H        7.1470     4.8950     2.3610 H     1 <1>   0.0800 
 54 H        8.2320     4.6500     0.9830 H     1 <1>   0.0800 
 55 H        4.5830     7.2010    -0.1300 H     1 <1>   0.0800 
 56 H        5.7830     6.8200    -1.3890 H     1 <1>   0.0800 
@<TRIPOS>BOND
  1   1   2  1   
  2   1   3  1   
  3   2   4  1   
  4   2   5  1   
  5   2   6  1   
  6   3   7  1   
  7   3   8  1   
  8   3  27  1   
  9   4   7  1   
 10   4   9  1   
 11   4  28  1   
 12   5  10  1   
 13   5  29  1   
 14   5  30  1   
 15   6   8  1   
 16   6  31  1   
 17   6  32  1   
 18   7  11  1   
 19   7  33  1   
 20   8  34  1   
 21   8  35  1   
 22   9  10  1   
 23   9  36  1   
 24   9  37  1   
 25  10  12  1   
 26  10  38  1   
 27  11  13  1   
 28  11  39  1   
 29  11  40  1   
 30  12  14  1   
 31  12  41  1   
 32  12  42  1   
 33  13  15  1   
 34  13  16  1   
 35  13  43  1   
 36  14  17  ar  
 37  14  18  ar  
 38  15  44  1   
 39  15  45  1   
 40  15  46  1   
 41  16  47  1   
 42  16  48  1   
 43  16  49  1   
 44  17  19  ar  
 45  17  50  1   
 46  18  20  ar  
 47  18  51  1   
 48  19  21  1   
 49  19  22  ar  
 50  20  22  ar  
 51  20  23  1   
 52  21  24  1   
 53  22  25  1   
 54  23  26  1   
 55  24  52  1   
 56  24  53  1   
 57  24  54  1   
 58  25  26  1   
 59  26  55  1   
 60  26  56  1   
@<TRIPOS>SUBSTRUCTURE
  1 ****  18 GROUP 4 **** **** 0

# MOE 2024.06 (io_trps.svl 2023.06)
