@<TRIPOS>MOLECULE
NONAME
49 52 1 0 0 
SMALL
USER_CHARGES


@<TRIPOS>ATOM
  1 O       -2.0420     1.3570    -1.6060 O.2   1 <1>  -0.5700 
  2 C       -2.2020     1.3190    -0.4000 C.2   1 <1>   0.6900 
  3 N       -3.3930     0.8970     0.1270 N.am  1 <1>  -0.6600 
  4 N       -1.2170     1.6990     0.4530 N.am  1 <1>  -0.7300 
  5 C       -4.6110     0.8010    -0.7210 C.3   1 <1>   0.1400 
  6 C       -3.4990     0.1450     1.4060 C.3   1 <1>   0.1400 
  7 C        0.1310     2.2070     0.1440 C.3   1 <1>   0.2200 
  8 C       -4.8630    -0.6660    -1.0670 C.3   1 <1>  -0.1600 
  9 C       -3.7310    -1.3330     1.0880 C.3   1 <1>  -0.1600 
 10 C        0.0340     3.5340    -0.6060 C.3   1 <1>  -0.2400 
 11 C        0.9310     1.1620    -0.6310 C.3   1 <1>  -0.2400 
 12 C       -4.9590    -1.5340     0.1940 C.3   1 <1>   0.4600 
 13 O       -6.0720    -1.1210     0.9600 O.3   1 <1>  -0.5600 
 14 C       -5.1120    -3.0070    -0.1640 C.2   1 <1>  -0.3320 
 15 C       -7.3420    -1.6100     0.6010 C.3   1 <1>   0.1200 
 16 N       -4.1810    -3.7890    -0.7910 N.pl3 1 <1>   0.0330 
 17 C       -6.2100    -3.7440     0.0950 C.2   1 <1>  -0.1810 
 18 C       -7.4160    -3.1380     0.7680 C.3   1 <1>   0.0210 
 19 C       -4.7070    -5.0520    -0.9200 C.ar  1 <1>  -0.1520 
 20 C       -5.9850    -5.0570    -0.3670 C.ar  1 <1>   0.0000 
 21 C       -4.1650    -6.2100    -1.4810 C.ar  1 <1>  -0.1500 
 22 C       -6.7360    -6.2360    -0.3720 C.ar  1 <1>  -0.1500 
 23 C       -4.9150    -7.3640    -1.4800 C.ar  1 <1>  -0.1500 
 24 C       -6.2010    -7.3770    -0.9250 C.ar  1 <1>  -0.1500 
 25 H       -1.5260     1.8710     1.4050 H     1 <1>   0.3700 
 26 H       -4.4870     1.3780    -1.6220 H     1 <1>   0.0800 
 27 H       -5.4500     1.2030    -0.1800 H     1 <1>   0.0800 
 28 H       -4.3250     0.5340     1.9780 H     1 <1>   0.0800 
 29 H       -2.6040     0.2480     1.9920 H     1 <1>   0.0800 
 30 H        0.6360     2.3860     1.0790 H     1 <1>   0.0800 
 31 H       -4.0460    -1.0100    -1.6750 H     1 <1>   0.0800 
 32 H       -5.7560    -0.7610    -1.6540 H     1 <1>   0.0800 
 33 H       -3.8640    -1.8890     1.9980 H     1 <1>   0.0800 
 34 H       -2.8570    -1.7150     0.5950 H     1 <1>   0.0800 
 35 H       -0.4240     3.3930    -1.5690 H     1 <1>   0.0800 
 36 H        1.0170     3.9410    -0.7580 H     1 <1>   0.0800 
 37 H       -0.5450     4.2400    -0.0400 H     1 <1>   0.0800 
 38 H        0.4990     0.9930    -1.6010 H     1 <1>   0.0800 
 39 H        0.9530     0.2360    -0.0870 H     1 <1>   0.0800 
 40 H        1.9400     1.5030    -0.7680 H     1 <1>   0.0800 
 41 H       -7.5390    -1.3360    -0.4200 H     1 <1>   0.0800 
 42 H       -8.0690    -1.1320     1.2340 H     1 <1>   0.0800 
 43 H       -3.2550    -3.4970    -1.1150 H     1 <1>   0.2700 
 44 H       -8.3180    -3.5080     0.3170 H     1 <1>   0.0800 
 45 H       -7.4190    -3.3950     1.8110 H     1 <1>   0.0800 
 46 H       -3.1770    -6.1910    -1.9050 H     1 <1>   0.1500 
 47 H       -7.7200    -6.2310     0.0580 H     1 <1>   0.1500 
 48 H       -4.5210    -8.2700    -1.9060 H     1 <1>   0.1500 
 49 H       -6.7660    -8.2920    -0.9350 H     1 <1>   0.1500 
@<TRIPOS>BOND
  1   1   2  2   
  2   2   3  am  
  3   2   4  am  
  4   3   5  1   
  5   3   6  1   
  6   4   7  1   
  7   4  25  1   
  8   5   8  1   
  9   5  26  1   
 10   5  27  1   
 11   6   9  1   
 12   6  28  1   
 13   6  29  1   
 14   7  10  1   
 15   7  11  1   
 16   7  30  1   
 17   8  12  1   
 18   8  31  1   
 19   8  32  1   
 20   9  12  1   
 21   9  33  1   
 22   9  34  1   
 23  10  35  1   
 24  10  36  1   
 25  10  37  1   
 26  11  38  1   
 27  11  39  1   
 28  11  40  1   
 29  12  13  1   
 30  12  14  1   
 31  13  15  1   
 32  14  16  1   
 33  14  17  2   
 34  15  18  1   
 35  15  41  1   
 36  15  42  1   
 37  16  19  1   
 38  16  43  1   
 39  17  18  1   
 40  17  20  1   
 41  18  44  1   
 42  18  45  1   
 43  19  20  ar  
 44  19  21  ar  
 45  20  22  ar  
 46  21  23  ar  
 47  21  46  1   
 48  22  24  ar  
 49  22  47  1   
 50  23  24  ar  
 51  23  48  1   
 52  24  49  1   
@<TRIPOS>SUBSTRUCTURE
  1 ****  12 GROUP 4 **** **** 0

# MOE 2024.06 (io_trps.svl 2023.06)
