@<TRIPOS>MOLECULE
NONAME
41 42 1 0 0 
SMALL
USER_CHARGES


@<TRIPOS>ATOM
  1 O        0.3600     0.7430    -0.4770 O.3   1 <1>  -0.0190 
  2 N        1.4750     1.3940    -0.6780 N.2   1 <1>  -0.4100 
  3 C        0.7560    -0.4610    -0.1490 C.2   1 <1>   0.3930 
  4 C        2.4310     0.5710    -0.4640 C.2   1 <1>   0.5990 
  5 N        2.0120    -0.6400    -0.1220 N.2   1 <1>  -0.5650 
  6 C       -0.3040    -1.5050     0.1640 C.3   1 <1>  -0.0150 
  7 N        3.7980     0.8610    -0.5510 N.pl3 1 <1>  -0.8210 
  8 C       -0.0610    -2.9660    -0.0690 C.3   1 <1>  -0.2000 
  9 C       -1.0200    -2.2160    -0.9440 C.3   1 <1>  -0.2000 
 10 C        4.2060     2.0870    -1.3080 C.3   1 <1>   0.2090 
 11 C        4.7230    -0.3010    -0.6820 C.3   1 <1>   0.1290 
 12 C        4.8410     3.2200    -0.4460 C.3   1 <1>   0.0000 
 13 C        5.2960     4.3240    -1.4370 C.3   1 <1>   0.1200 
 14 C        6.1040     2.6710     0.2780 C.3   1 <1>  -0.1600 
 15 C        3.8160     3.8490     0.5490 C.3   1 <1>  -0.1600 
 16 O        4.2270     4.8980    -2.1190 O.3   1 <1>  -0.6800 
 17 C        6.9370     3.6990     1.0660 C.3   1 <1>  -0.2400 
 18 C        3.5260     3.0900     1.8570 C.3   1 <1>  -0.2400 
 19 H       -0.8780    -1.2370     1.0330 H     1 <1>   0.1000 
 20 H       -0.4460    -3.6700     0.6470 H     1 <1>   0.1000 
 21 H        0.8890    -3.2680    -0.4770 H     1 <1>   0.1000 
 22 H       -0.7340    -2.0100    -1.9610 H     1 <1>   0.1000 
 23 H       -2.0750    -2.4030    -0.8410 H     1 <1>   0.1000 
 24 H        3.3540     2.4830    -1.8290 H     1 <1>   0.0800 
 25 H        4.9120     1.7960    -2.0670 H     1 <1>   0.0800 
 26 H        4.6250    -0.9400     0.1790 H     1 <1>   0.0800 
 27 H        5.7440     0.0300    -0.7450 H     1 <1>   0.0800 
 28 H        4.4780    -0.8660    -1.5650 H     1 <1>   0.0800 
 29 H        5.9770     3.9230    -2.1680 H     1 <1>   0.0800 
 30 H        5.7910     5.1260    -0.9180 H     1 <1>   0.0800 
 31 H        6.7520     2.2110    -0.4480 H     1 <1>   0.0800 
 32 H        5.8070     1.8910     0.9580 H     1 <1>   0.0800 
 33 H        2.8800     3.9890     0.0350 H     1 <1>   0.0800 
 34 H        4.1600     4.8310     0.8240 H     1 <1>   0.0800 
 35 H        3.6080     4.2220    -2.4540 H     1 <1>   0.4000 
 36 H        7.4080     4.4070     0.4090 H     1 <1>   0.0800 
 37 H        7.7120     3.1900     1.6110 H     1 <1>   0.0800 
 38 H        6.3290     4.2330     1.7740 H     1 <1>   0.0800 
 39 H        3.1740     2.0950     1.6650 H     1 <1>   0.0800 
 40 H        2.7620     3.6080     2.4100 H     1 <1>   0.0800 
 41 H        4.4000     3.0300     2.4770 H     1 <1>   0.0800 
@<TRIPOS>BOND
  1   1   2  1   
  2   1   3  1   
  3   2   4  2   
  4   3   5  2   
  5   3   6  1   
  6   4   5  1   
  7   4   7  1   
  8   6   8  1   
  9   6   9  1   
 10   6  19  1   
 11   7  10  1   
 12   7  11  1   
 13   8   9  1   
 14   8  20  1   
 15   8  21  1   
 16   9  22  1   
 17   9  23  1   
 18  10  12  1   
 19  10  24  1   
 20  10  25  1   
 21  11  26  1   
 22  11  27  1   
 23  11  28  1   
 24  12  13  1   
 25  12  14  1   
 26  12  15  1   
 27  13  16  1   
 28  13  29  1   
 29  13  30  1   
 30  14  17  1   
 31  14  31  1   
 32  14  32  1   
 33  15  18  1   
 34  15  33  1   
 35  15  34  1   
 36  16  35  1   
 37  17  36  1   
 38  17  37  1   
 39  17  38  1   
 40  18  39  1   
 41  18  40  1   
 42  18  41  1   
@<TRIPOS>SUBSTRUCTURE
  1 ****   4 GROUP 4 **** **** 0

# MOE 2024.06 (io_trps.svl 2023.06)
