@<TRIPOS>MOLECULE
NONAME
44 45 1 0 0 
SMALL
USER_CHARGES


@<TRIPOS>ATOM
  1 S       -0.1570     0.5440    -1.2430 S.o2  1 <1>   1.5010 
  2 O       -0.7860     1.8480    -1.2700 O.2   1 <1>  -0.6500 
  3 O        0.3910     0.0180    -2.4730 O.2   1 <1>  -0.6500 
  4 N       -1.3190    -0.5470    -0.6700 N.am  1 <1>  -0.8490 
  5 C        1.0920     0.5150     0.0500 C.2   1 <1>  -0.0630 
  6 C       -0.7630    -1.8940    -0.4030 C.3   1 <1>   0.1960 
  7 C       -2.4480    -0.6670    -1.5900 C.3   1 <1>   0.1960 
  8 C        2.2390    -0.1750     0.1770 C.2   1 <1>  -0.0400 
  9 C        1.0430     1.2010     1.2470 C.2   1 <1>   0.1080 
 10 C       -1.8310    -2.9800    -0.0710 C.3   1 <1>  -0.1060 
 11 C       -3.6220    -1.3410    -0.8710 C.3   1 <1>  -0.1600 
 12 O        2.8430     0.0820     1.3180 O.3   1 <1>  -0.0190 
 13 C        2.9060    -1.1770    -0.7490 C.3   1 <1>  -0.0600 
 14 N        2.0730     0.9320     1.9580 N.2   1 <1>  -0.4100 
 15 C       -0.0610     2.1340     1.7010 C.3   1 <1>  -0.0590 
 16 C       -2.0560    -3.9060    -1.2810 C.2   1 <1>   0.9060 
 17 C       -3.1520    -2.2500     0.2730 C.3   1 <1>   0.2000 
 18 C       -1.3600    -3.8160     1.1560 C.3   1 <1>  -0.1600 
 19 O       -3.0940    -4.5820    -1.3390 O.co2 1 <1>  -0.9000 
 20 O       -1.2060    -3.9770    -2.1760 O.co2 1 <1>  -0.9000 
 21 O       -4.1610    -3.1520     0.5450 O.3   1 <1>  -0.6800 
 22 C       -0.0410    -4.5790     0.9360 C.3   1 <1>  -0.1600 
 23 C        0.3570    -5.3560     2.1940 C.3   1 <1>  -0.2400 
 24 H       -0.1420    -2.2000    -1.2270 H     1 <1>   0.0800 
 25 H       -0.1120    -1.8010     0.4480 H     1 <1>   0.0800 
 26 H       -2.7580     0.3030    -1.9390 H     1 <1>   0.0800 
 27 H       -2.1520    -1.2540    -2.4470 H     1 <1>   0.0800 
 28 H       -4.1770    -1.9110    -1.5970 H     1 <1>   0.0800 
 29 H       -4.2720    -0.5870    -0.4680 H     1 <1>   0.0800 
 30 H        2.3180    -1.3560    -1.6300 H     1 <1>   0.0800 
 31 H        3.0380    -2.1120    -0.2360 H     1 <1>   0.0800 
 32 H        3.8690    -0.8070    -1.0500 H     1 <1>   0.0800 
 33 H       -1.0160     1.6490     1.6090 H     1 <1>   0.0800 
 34 H       -0.0590     3.0240     1.0990 H     1 <1>   0.0800 
 35 H        0.0890     2.4100     2.7290 H     1 <1>   0.0800 
 36 H       -3.0100    -1.6530     1.1570 H     1 <1>   0.0800 
 37 H       -1.2590    -3.1670     2.0090 H     1 <1>   0.0800 
 38 H       -2.1250    -4.5370     1.3920 H     1 <1>   0.0800 
 39 H       -4.0480    -3.8810    -0.1380 H     1 <1>   0.4000 
 40 H       -0.1580    -5.2720     0.1190 H     1 <1>   0.0800 
 41 H        0.7540    -3.9020     0.6790 H     1 <1>   0.0800 
 42 H       -0.4110    -6.0630     2.4520 H     1 <1>   0.0800 
 43 H        0.5040    -4.6830     3.0210 H     1 <1>   0.0800 
 44 H        1.2720    -5.8930     2.0190 H     1 <1>   0.0800 
@<TRIPOS>BOND
  1   1   2  2   
  2   1   3  2   
  3   1   4  am  
  4   1   5  1   
  5   4   6  1   
  6   4   7  1   
  7   5   8  2   
  8   5   9  1   
  9   6  10  1   
 10   6  24  1   
 11   6  25  1   
 12   7  11  1   
 13   7  26  1   
 14   7  27  1   
 15   8  12  1   
 16   8  13  1   
 17   9  14  2   
 18   9  15  1   
 19  10  16  1   
 20  10  17  1   
 21  10  18  1   
 22  11  17  1   
 23  11  28  1   
 24  11  29  1   
 25  12  14  1   
 26  13  30  1   
 27  13  31  1   
 28  13  32  1   
 29  15  33  1   
 30  15  34  1   
 31  15  35  1   
 32  16  19  ar  
 33  16  20  ar  
 34  17  21  1   
 35  17  36  1   
 36  18  22  1   
 37  18  37  1   
 38  18  38  1   
 39  21  39  1   
 40  22  23  1   
 41  22  40  1   
 42  22  41  1   
 43  23  42  1   
 44  23  43  1   
 45  23  44  1   
@<TRIPOS>SUBSTRUCTURE
  1 ****   6 GROUP 4 **** **** 0

# MOE 2024.06 (io_trps.svl 2023.06)
