@<TRIPOS>MOLECULE
NONAME
52 54 1 0 0 
SMALL
USER_CHARGES


@<TRIPOS>ATOM
  1 F        0.8400     3.0440    -1.3400 F     1 <1>  -0.1900 
  2 C        2.1240     3.0170    -1.1170 C.ar  1 <1>   0.1900 
  3 C        2.5840     3.2520     0.1640 C.ar  1 <1>  -0.1500 
  4 C        2.9790     2.7560    -2.1690 C.ar  1 <1>  -0.1500 
  5 C        3.9490     3.2230     0.3970 C.ar  1 <1>  -0.1500 
  6 C        4.3430     2.7280    -1.9290 C.ar  1 <1>  -0.1500 
  7 C        4.8350     2.9610    -0.6470 C.ar  1 <1>  -0.1430 
  8 C        6.3430     2.9260    -0.4010 C.3   1 <1>   0.6280 
  9 N        6.7010     1.6900     0.4060 N.4   1 <1>  -0.9590 
 10 C        6.7970     4.2700     0.2340 C.2   1 <1>   0.5690 
 11 C        8.1790     1.4580     0.4230 C.3   1 <1>   0.3430 
 12 C        5.9490     0.4580     0.0100 C.3   1 <1>   0.3430 
 13 O        7.4860     4.2220     1.2290 O.2   1 <1>  -0.5700 
 14 N        6.4020     5.4570    -0.3250 N.am  1 <1>  -0.4930 
 15 C        8.5170     0.3450     1.4150 C.3   1 <1>  -0.1600 
 16 C        6.2530    -0.6740     0.9920 C.3   1 <1>  -0.1600 
 17 C        6.7290     6.7730     0.0870 C.2   1 <1>   0.0630 
 18 C        7.7580    -0.9490     1.1000 C.3   1 <1>  -0.1600 
 19 C        7.5610     7.2110     1.1190 C.2   1 <1>   0.1390 
 20 C        6.2710     7.9070    -0.4820 C.2   1 <1>  -0.3020 
 21 N        7.6220     8.5070     1.1860 N.2   1 <1>  -0.7070 
 22 N        6.8180     8.9410     0.1950 N.pl3 1 <1>   0.3140 
 23 C        6.6310    10.3740    -0.0760 C.3   1 <1>   0.1570 
 24 C        7.7800    10.8890    -0.9100 C.2   1 <1>   0.5690 
 25 O        7.5270    11.5610    -1.8800 O.2   1 <1>  -0.5700 
 26 N        9.0580    10.5930    -0.5440 N.am  1 <1>  -0.7300 
 27 C       10.2890    11.0280    -1.2460 C.3   1 <1>   0.0600 
 28 H        1.8820     3.4550     0.9550 H     1 <1>   0.1500 
 29 H        2.5760     2.5790    -3.1520 H     1 <1>   0.1500 
 30 H        4.3010     3.4120     1.3990 H     1 <1>   0.1500 
 31 H        5.0040     2.5230    -2.7560 H     1 <1>   0.1500 
 32 H        6.8290     2.8520    -1.3580 H     1 <1>   0.0800 
 33 H        6.4460     1.9170     1.3760 H     1 <1>   0.4500 
 34 H        8.7010     2.3560     0.7160 H     1 <1>   0.0800 
 35 H        8.5180     1.1740    -0.5610 H     1 <1>   0.0800 
 36 H        6.2350     0.1580    -0.9850 H     1 <1>   0.0800 
 37 H        4.8870     0.6450     0.0150 H     1 <1>   0.0800 
 38 H        5.7300     5.4340    -1.0950 H     1 <1>   0.3700 
 39 H        8.2840     0.6760     2.4130 H     1 <1>   0.0800 
 40 H        9.5760     0.1550     1.3810 H     1 <1>   0.0800 
 41 H        5.7510    -1.5680     0.6640 H     1 <1>   0.0800 
 42 H        5.8560    -0.4220     1.9610 H     1 <1>   0.0800 
 43 H        7.9420    -1.6790     1.8720 H     1 <1>   0.0800 
 44 H        8.1170    -1.3610     0.1710 H     1 <1>   0.0800 
 45 H        8.0980     6.5610     1.7900 H     1 <1>   0.1500 
 46 H        5.6060     8.0450    -1.3140 H     1 <1>   0.1500 
 47 H        6.5990    10.9030     0.8560 H     1 <1>   0.0800 
 48 H        5.7060    10.5180    -0.6000 H     1 <1>   0.0800 
 49 H        9.1850     9.9410     0.2450 H     1 <1>   0.3700 
 50 H       10.0410    11.6800    -2.0670 H     1 <1>   0.0800 
 51 H       10.8120    10.1690    -1.6300 H     1 <1>   0.0800 
 52 H       10.9300    11.5580    -0.5630 H     1 <1>   0.0800 
@<TRIPOS>BOND
  1   1   2  1   
  2   2   3  ar  
  3   2   4  ar  
  4   3   5  ar  
  5   3  28  1   
  6   4   6  ar  
  7   4  29  1   
  8   5   7  ar  
  9   5  30  1   
 10   6   7  ar  
 11   6  31  1   
 12   7   8  1   
 13   8   9  1   
 14   8  10  1   
 15   8  32  1   
 16   9  11  1   
 17   9  12  1   
 18   9  33  1   
 19  10  13  2   
 20  10  14  am  
 21  11  15  1   
 22  11  34  1   
 23  11  35  1   
 24  12  16  1   
 25  12  36  1   
 26  12  37  1   
 27  14  17  1   
 28  14  38  1   
 29  15  18  1   
 30  15  39  1   
 31  15  40  1   
 32  16  18  1   
 33  16  41  1   
 34  16  42  1   
 35  17  19  1   
 36  17  20  2   
 37  18  43  1   
 38  18  44  1   
 39  19  21  2   
 40  19  45  1   
 41  20  22  1   
 42  20  46  1   
 43  21  22  1   
 44  22  23  1   
 45  23  24  1   
 46  23  47  1   
 47  23  48  1   
 48  24  25  2   
 49  24  26  am  
 50  26  27  1   
 51  26  49  1   
 52  27  50  1   
 53  27  51  1   
 54  27  52  1   
@<TRIPOS>SUBSTRUCTURE
  1 ****  14 GROUP 4 **** **** 0

# MOE 2024.06 (io_trps.svl 2023.06)
