@<TRIPOS>MOLECULE
NONAME
45 47 1 0 0 
SMALL
USER_CHARGES


@<TRIPOS>ATOM
  1 S        0.5060     0.1180    -0.8640 S.o2  1 <1>   1.3330 
  2 O       -0.2600     0.3570    -2.0660 O.2   1 <1>  -0.6500 
  3 O        1.7530    -0.6090    -0.9480 O.2   1 <1>  -0.6500 
  4 N       -0.5150    -0.7200     0.2070 N.am  1 <1>  -0.8490 
  5 C        0.7930     1.6880    -0.0300 C.3   1 <1>  -0.0550 
  6 C       -1.9300    -0.3570     0.0700 C.3   1 <1>   0.1160 
  7 C       -0.3660    -2.1750     0.0900 C.3   1 <1>   0.1160 
  8 C        1.8620     1.7210     1.0870 C.3   1 <1>  -0.0800 
  9 C        3.2910     1.5310     0.5710 C.3   1 <1>   0.2200 
 10 C        1.7300     0.6770     2.2020 C.3   1 <1>   0.1200 
 11 N        4.0680     2.7680     0.8030 N.am  1 <1>  -0.7300 
 12 C        3.8230     0.3830     1.4270 C.3   1 <1>   0.1200 
 13 O        3.0360     0.3850     2.5740 O.3   1 <1>  -0.5600 
 14 C        4.1030     3.8560    -0.0180 C.2   1 <1>   0.7160 
 15 O        3.4270     3.8330    -1.0340 O.2   1 <1>  -0.5700 
 16 C        4.9160     5.0080     0.3430 C.2   1 <1>   0.2030 
 17 N        5.6430     5.1280     1.4430 N.2   1 <1>  -0.7070 
 18 C        5.0330     6.1650    -0.4390 C.2   1 <1>  -0.1500 
 19 N        6.2140     6.3400     1.3560 N.pl3 1 <1>   0.3000 
 20 C        5.8620     6.9880     0.2300 C.2   1 <1>  -0.2370 
 21 C        6.3590     8.3740    -0.1220 C.3   1 <1>  -0.0150 
 22 C        6.5550     8.7600    -1.5530 C.3   1 <1>  -0.2000 
 23 C        7.7420     8.5450    -0.6610 C.3   1 <1>  -0.2000 
 24 H        1.0900     2.4070    -0.7700 H     1 <1>   0.0800 
 25 H       -0.1360     2.0350     0.3770 H     1 <1>   0.0800 
 26 H       -2.5120    -0.8440     0.8330 H     1 <1>   0.0800 
 27 H       -2.3040    -0.6530    -0.8970 H     1 <1>   0.0800 
 28 H       -2.0550     0.7070     0.1750 H     1 <1>   0.0800 
 29 H       -1.0190    -2.6740     0.7850 H     1 <1>   0.0800 
 30 H        0.6470    -2.4620     0.3170 H     1 <1>   0.0800 
 31 H       -0.6010    -2.4960    -0.9110 H     1 <1>   0.0800 
 32 H        1.7880     2.6850     1.5600 H     1 <1>   0.0800 
 33 H        3.3360     1.2730    -0.4740 H     1 <1>   0.0800 
 34 H        1.2860    -0.2420     1.8690 H     1 <1>   0.0800 
 35 H        1.1970     1.0520     3.0580 H     1 <1>   0.0800 
 36 H        4.5540     2.8530     1.7010 H     1 <1>   0.3700 
 37 H        4.8580     0.5010     1.6950 H     1 <1>   0.0800 
 38 H        3.6750    -0.5590     0.9270 H     1 <1>   0.0800 
 39 H        4.5400     6.3220    -1.3820 H     1 <1>   0.1500 
 40 H        6.8470     6.7080     2.0760 H     1 <1>   0.2700 
 41 H        5.9800     9.1350     0.5400 H     1 <1>   0.1000 
 42 H        6.3520     8.0340    -2.3210 H     1 <1>   0.1000 
 43 H        6.3030     9.7610    -1.8540 H     1 <1>   0.1000 
 44 H        8.3180     9.4000    -0.3530 H     1 <1>   0.1000 
 45 H        8.3500     7.6720    -0.8250 H     1 <1>   0.1000 
@<TRIPOS>BOND
  1   1   2  2   
  2   1   3  2   
  3   1   4  am  
  4   1   5  1   
  5   4   6  1   
  6   4   7  1   
  7   5   8  1   
  8   5  24  1   
  9   5  25  1   
 10   6  26  1   
 11   6  27  1   
 12   6  28  1   
 13   7  29  1   
 14   7  30  1   
 15   7  31  1   
 16   8   9  1   
 17   8  10  1   
 18   8  32  1   
 19   9  11  1   
 20   9  12  1   
 21   9  33  1   
 22  10  13  1   
 23  10  34  1   
 24  10  35  1   
 25  11  14  am  
 26  11  36  1   
 27  12  13  1   
 28  12  37  1   
 29  12  38  1   
 30  14  15  2   
 31  14  16  1   
 32  16  17  2   
 33  16  18  1   
 34  17  19  1   
 35  18  20  2   
 36  18  39  1   
 37  19  20  1   
 38  19  40  1   
 39  20  21  1   
 40  21  22  1   
 41  21  23  1   
 42  21  41  1   
 43  22  23  1   
 44  22  42  1   
 45  22  43  1   
 46  23  44  1   
 47  23  45  1   
@<TRIPOS>SUBSTRUCTURE
  1 ****  11 GROUP 4 **** **** 0

# MOE 2024.06 (io_trps.svl 2023.06)
