@<TRIPOS>MOLECULE
NONAME
40 42 1 0 0 
SMALL
USER_CHARGES


@<TRIPOS>ATOM
  1 F        1.3810     1.6750    -2.5520 F     1 <1>  -0.1900 
  2 C        2.1340     1.9210    -1.5150 C.ar  1 <1>   0.1900 
  3 C        2.6270     3.1980    -1.3390 C.ar  1 <1>  -0.1500 
  4 C        2.4090     0.8930    -0.6330 C.ar  1 <1>  -0.1500 
  5 C        3.4270     3.4610    -0.2390 C.ar  1 <1>   0.0830 
  6 C        3.2080     1.1590     0.4660 C.ar  1 <1>  -0.1500 
  7 O        3.8870     4.7300    -0.1100 O.3   1 <1>  -0.3630 
  8 C        3.7160     2.4350     0.6640 C.ar  1 <1>  -0.1500 
  9 C        4.7420     5.0970     0.9670 C.3   1 <1>   0.1810 
 10 C        5.1380     6.5650     0.8820 C.2   1 <1>   0.5690 
 11 O        5.8730     7.0040     1.7330 O.2   1 <1>  -0.5700 
 12 N        4.6380     7.3170    -0.1450 N.am  1 <1>  -0.4940 
 13 C        4.7620     8.6990    -0.4300 C.2   1 <1>  -0.0880 
 14 N        5.8830     9.4830    -0.3820 N.pl3 1 <1>   0.3140 
 15 C        3.7480     9.5000    -0.8330 C.2   1 <1>  -0.1500 
 16 N        5.5800    10.7640    -0.7370 N.2   1 <1>  -0.7070 
 17 C        7.2870     9.0600    -0.0650 C.3   1 <1>   0.1760 
 18 C        4.3130    10.7550    -1.0000 C.2   1 <1>   0.1390 
 19 C        8.3400    10.1630    -0.2360 C.3   1 <1>  -0.1600 
 20 C        7.7890     7.9150    -0.9610 C.3   1 <1>  -0.1600 
 21 C        9.6520     9.4030    -0.4000 C.3   1 <1>  -0.1600 
 22 C        9.2790     8.1740    -1.2270 C.3   1 <1>  -0.1600 
 23 H        2.3930     3.9720    -2.0460 H     1 <1>   0.1500 
 24 H        2.0050    -0.0890    -0.8070 H     1 <1>   0.1500 
 25 H        3.4350     0.3730     1.1660 H     1 <1>   0.1500 
 26 H        4.3310     2.6040     1.5270 H     1 <1>   0.1500 
 27 H        5.6270     4.4890     0.9240 H     1 <1>   0.0800 
 28 H        4.2200     4.9250     1.8910 H     1 <1>   0.0800 
 29 H        3.9670     6.8070    -0.7250 H     1 <1>   0.3700 
 30 H        2.7160     9.2480    -0.9920 H     1 <1>   0.1500 
 31 H        7.3180     8.7470     0.9610 H     1 <1>   0.0800 
 32 H        3.7700    11.6310    -1.3120 H     1 <1>   0.1500 
 33 H        8.3600    10.8290     0.6080 H     1 <1>   0.0800 
 34 H        8.1520    10.7230    -1.1360 H     1 <1>   0.0800 
 35 H        7.2550     7.9040    -1.8960 H     1 <1>   0.0800 
 36 H        7.6570     6.9710    -0.4630 H     1 <1>   0.0800 
 37 H       10.0080     9.0910     0.5680 H     1 <1>   0.0800 
 38 H       10.4080    10.0010    -0.8790 H     1 <1>   0.0800 
 39 H        9.4220     8.3900    -2.2730 H     1 <1>   0.0800 
 40 H        9.8860     7.3260    -0.9610 H     1 <1>   0.0800 
@<TRIPOS>BOND
  1   1   2  1   
  2   2   3  ar  
  3   2   4  ar  
  4   3   5  ar  
  5   3  23  1   
  6   4   6  ar  
  7   4  24  1   
  8   5   7  1   
  9   5   8  ar  
 10   6   8  ar  
 11   6  25  1   
 12   7   9  1   
 13   8  26  1   
 14   9  10  1   
 15   9  27  1   
 16   9  28  1   
 17  10  11  2   
 18  10  12  am  
 19  12  13  1   
 20  12  29  1   
 21  13  14  1   
 22  13  15  2   
 23  14  16  1   
 24  14  17  1   
 25  15  18  1   
 26  15  30  1   
 27  16  18  2   
 28  17  19  1   
 29  17  20  1   
 30  17  31  1   
 31  18  32  1   
 32  19  21  1   
 33  19  33  1   
 34  19  34  1   
 35  20  22  1   
 36  20  35  1   
 37  20  36  1   
 38  21  22  1   
 39  21  37  1   
 40  21  38  1   
 41  22  39  1   
 42  22  40  1   
@<TRIPOS>SUBSTRUCTURE
  1 ****  12 GROUP 4 **** **** 0

# MOE 2024.06 (io_trps.svl 2023.06)
