@<TRIPOS>MOLECULE
NONAME
45 46 1 0 0 
SMALL
USER_CHARGES


@<TRIPOS>ATOM
  1 O       -0.3010     0.5710     0.8060 O.2   1 <1>  -0.5700 
  2 C       -1.3610     1.0030     0.4110 C.2   1 <1>   0.5690 
  3 N       -2.4330     0.1890     0.1740 N.am  1 <1>  -0.6600 
  4 C       -1.4430     2.5190     0.1660 C.3   1 <1>   0.4040 
  5 C       -2.3720    -1.2750     0.4030 C.3   1 <1>   0.1400 
  6 C       -3.7900     0.5970    -0.2660 C.3   1 <1>   0.1400 
  7 N       -0.0930     3.1450    -0.1090 N.4   1 <1>  -0.9590 
  8 C       -3.6870    -1.8130    -0.1490 C.3   1 <1>  -0.1600 
  9 C       -4.6550    -0.6380    -0.0490 C.3   1 <1>  -0.1600 
 10 C       -0.1180     4.6210     0.0930 C.3   1 <1>   0.3430 
 11 C        0.4120     2.7450    -1.4600 C.3   1 <1>   0.2630 
 12 C        1.2980     5.1870     0.1790 C.3   1 <1>  -0.1600 
 13 C        1.2420     6.6990     0.3990 C.3   1 <1>   0.2000 
 14 O        0.3580     7.2150    -0.5470 O.3   1 <1>  -0.5600 
 15 C        2.6200     7.3580     0.2320 C.3   1 <1>  -0.1600 
 16 C        0.1150     8.5890    -0.4430 C.3   1 <1>   0.1200 
 17 C        2.5070     8.8850     0.3050 C.3   1 <1>  -0.1600 
 18 C        1.4190     9.3630    -0.6630 C.3   1 <1>  -0.1600 
 19 H       -1.8690     2.9620     1.0500 H     1 <1>   0.0800 
 20 H       -2.1080     2.7060    -0.6580 H     1 <1>   0.0800 
 21 H       -2.3010    -1.4640     1.4610 H     1 <1>   0.0800 
 22 H       -1.5230    -1.7110    -0.0970 H     1 <1>   0.0800 
 23 H       -3.7660     0.8470    -1.3130 H     1 <1>   0.0800 
 24 H       -4.1590     1.4310     0.3070 H     1 <1>   0.0800 
 25 H        0.5380     2.7100     0.5880 H     1 <1>   0.4500 
 26 H       -4.0270    -2.6740     0.3990 H     1 <1>   0.0800 
 27 H       -3.5480    -2.0890    -1.1800 H     1 <1>   0.0800 
 28 H       -5.4520    -0.7040    -0.7700 H     1 <1>   0.0800 
 29 H       -5.0820    -0.6020     0.9390 H     1 <1>   0.0800 
 30 H       -0.6390     4.8570     1.0070 H     1 <1>   0.0800 
 31 H       -0.6440     5.0950    -0.7210 H     1 <1>   0.0800 
 32 H       -0.2180     3.1530    -2.2340 H     1 <1>   0.0800 
 33 H        0.4230     1.6700    -1.5500 H     1 <1>   0.0800 
 34 H        1.4160     3.1050    -1.6080 H     1 <1>   0.0800 
 35 H        1.8320     5.0000    -0.7350 H     1 <1>   0.0800 
 36 H        1.8340     4.7350     0.9940 H     1 <1>   0.0800 
 37 H        0.8440     6.9160     1.3780 H     1 <1>   0.0800 
 38 H        3.0370     7.0790    -0.7190 H     1 <1>   0.0800 
 39 H        3.2870     7.0100     1.0010 H     1 <1>   0.0800 
 40 H       -0.2980     8.7940     0.5300 H     1 <1>   0.0800 
 41 H       -0.6090     8.8550    -1.1940 H     1 <1>   0.0800 
 42 H        3.4510     9.3400     0.0550 H     1 <1>   0.0800 
 43 H        2.2490     9.1790     1.3080 H     1 <1>   0.0800 
 44 H        1.2420    10.4150    -0.5220 H     1 <1>   0.0800 
 45 H        1.7420     9.2180    -1.6790 H     1 <1>   0.0800 
@<TRIPOS>BOND
  1   1   2  2   
  2   2   3  am  
  3   2   4  1   
  4   3   5  1   
  5   3   6  1   
  6   4   7  1   
  7   4  19  1   
  8   4  20  1   
  9   5   8  1   
 10   5  21  1   
 11   5  22  1   
 12   6   9  1   
 13   6  23  1   
 14   6  24  1   
 15   7  10  1   
 16   7  11  1   
 17   7  25  1   
 18   8   9  1   
 19   8  26  1   
 20   8  27  1   
 21   9  28  1   
 22   9  29  1   
 23  10  12  1   
 24  10  30  1   
 25  10  31  1   
 26  11  32  1   
 27  11  33  1   
 28  11  34  1   
 29  12  13  1   
 30  12  35  1   
 31  12  36  1   
 32  13  14  1   
 33  13  15  1   
 34  13  37  1   
 35  14  16  1   
 36  15  17  1   
 37  15  38  1   
 38  15  39  1   
 39  16  18  1   
 40  16  40  1   
 41  16  41  1   
 42  17  18  1   
 43  17  42  1   
 44  17  43  1   
 45  18  44  1   
 46  18  45  1   
@<TRIPOS>SUBSTRUCTURE
  1 ****   7 GROUP 4 **** **** 0

# MOE 2024.06 (io_trps.svl 2023.06)
