@<TRIPOS>MOLECULE
NONAME
38 39 1 0 0 
SMALL
USER_CHARGES


@<TRIPOS>ATOM
  1 F       -0.8380    -1.1090    -0.7560 F     1 <1>  -0.3400 
  2 C       -0.2540    -1.6850     0.2860 C.3   1 <1>   1.0200 
  3 F        0.9570    -1.1570     0.3850 F     1 <1>  -0.3400 
  4 F       -0.9310    -1.2930     1.3560 F     1 <1>  -0.3400 
  5 C       -0.2150    -3.2060     0.1550 C.3   1 <1>  -0.1600 
  6 C       -1.6140    -3.8560     0.0390 C.3   1 <1>  -0.0990 
  7 C       -1.5780    -5.3720    -0.0950 C.2   1 <1>   0.5690 
  8 O       -0.5110    -5.9360    -0.0560 O.2   1 <1>  -0.5700 
  9 N       -2.7480    -6.0580    -0.2540 N.am  1 <1>  -0.6600 
 10 C       -4.1160    -5.4840    -0.2680 C.3   1 <1>   0.1400 
 11 C       -2.8000    -7.5350    -0.3760 C.3   1 <1>   0.1400 
 12 C       -5.0530    -6.6860    -0.4090 C.3   1 <1>   0.2000 
 13 C       -4.2340    -7.9090     0.0000 C.3   1 <1>  -0.0800 
 14 O       -6.1620    -6.5620     0.4150 O.3   1 <1>  -0.6800 
 15 C       -4.7400    -9.2060    -0.6540 C.3   1 <1>  -0.0170 
 16 C       -3.9220   -10.4110    -0.2230 C.ar  1 <1>   0.1670 
 17 N       -2.8030   -10.6320    -0.8940 N.ar  1 <1>  -0.6200 
 18 C       -4.3670   -11.2030     0.8260 C.ar  1 <1>  -0.1500 
 19 C       -2.0960   -11.6800    -0.5040 C.ar  1 <1>   0.1600 
 20 C       -3.6210   -12.2930     1.2210 C.ar  1 <1>  -0.1500 
 21 C       -2.4530   -12.5290     0.5300 C.ar  1 <1>  -0.1500 
 22 H        0.3670    -3.4540    -0.7140 H     1 <1>   0.0800 
 23 H        0.2930    -3.6030     1.0150 H     1 <1>   0.0800 
 24 H       -2.1190    -3.4570    -0.8230 H     1 <1>   0.0800 
 25 H       -2.1920    -3.6130     0.9120 H     1 <1>   0.0800 
 26 H       -4.2970    -4.9620     0.6560 H     1 <1>   0.0800 
 27 H       -4.2330    -4.8170    -1.1040 H     1 <1>   0.0800 
 28 H       -2.5840    -7.8120    -1.3950 H     1 <1>   0.0800 
 29 H       -2.0830    -8.0070     0.2750 H     1 <1>   0.0800 
 30 H       -5.3940    -6.7630    -1.4270 H     1 <1>   0.0800 
 31 H       -4.2590    -8.0190     1.0700 H     1 <1>   0.0800 
 32 H       -5.8890    -6.5520     1.3520 H     1 <1>   0.4000 
 33 H       -4.6960    -9.1200    -1.7260 H     1 <1>   0.0800 
 34 H       -5.7700    -9.3580    -0.3860 H     1 <1>   0.0800 
 35 H       -5.2860   -10.9710     1.3310 H     1 <1>   0.1500 
 36 H       -1.1810   -11.8730    -1.0370 H     1 <1>   0.1500 
 37 H       -3.9360   -12.9290     2.0310 H     1 <1>   0.1500 
 38 H       -1.8230   -13.3610     0.7870 H     1 <1>   0.1500 
@<TRIPOS>BOND
  1   1   2  1   
  2   2   3  1   
  3   2   4  1   
  4   2   5  1   
  5   5   6  1   
  6   5  22  1   
  7   5  23  1   
  8   6   7  1   
  9   6  24  1   
 10   6  25  1   
 11   7   8  2   
 12   7   9  am  
 13   9  10  1   
 14   9  11  1   
 15  10  12  1   
 16  10  26  1   
 17  10  27  1   
 18  11  13  1   
 19  11  28  1   
 20  11  29  1   
 21  12  13  1   
 22  12  14  1   
 23  12  30  1   
 24  13  15  1   
 25  13  31  1   
 26  14  32  1   
 27  15  16  1   
 28  15  33  1   
 29  15  34  1   
 30  16  17  ar  
 31  16  18  ar  
 32  17  19  ar  
 33  18  20  ar  
 34  18  35  1   
 35  19  21  ar  
 36  19  36  1   
 37  20  21  ar  
 38  20  37  1   
 39  21  38  1   
@<TRIPOS>SUBSTRUCTURE
  1 ****   9 GROUP 4 **** **** 0

# MOE 2024.06 (io_trps.svl 2023.06)
