@<TRIPOS>MOLECULE
NONAME
38 40 1 0 0 
SMALL
USER_CHARGES


@<TRIPOS>ATOM
  1 CL       0.2150    -0.0150     0.4610 Cl    1 <1>  -0.1770 
  2 C        1.3060    -1.3890     0.3570 C.ar  1 <1>   0.1770 
  3 C        0.9180    -2.6340    -0.1410 C.ar  1 <1>   0.4100 
  4 C        2.6040    -1.2270     0.7570 C.ar  1 <1>   0.1600 
  5 N        1.8130    -3.6050    -0.2380 N.ar  1 <1>  -0.6200 
  6 N       -0.3670    -2.9460    -0.5570 N.pl3 1 <1>  -0.8380 
  7 N        3.4930    -2.2020     0.6800 N.ar  1 <1>  -0.6200 
  8 C        3.0350    -3.3370     0.1800 C.ar  1 <1>   0.4770 
  9 C       -0.6030    -3.7860    -1.7830 C.3   1 <1>   0.3900 
 10 C       -1.5840    -2.5730     0.2190 C.3   1 <1>   0.1290 
 11 C        4.0350    -4.4630     0.0690 C.3   1 <1>  -0.0960 
 12 C       -1.5490    -4.9660    -1.5530 C.2   1 <1>   0.1080 
 13 N       -2.6750    -5.1110    -2.1960 N.2   1 <1>  -0.7070 
 14 C       -1.3330    -6.0150    -0.6600 C.2   1 <1>  -0.1810 
 15 N       -3.1960    -6.2640    -1.7280 N.pl3 1 <1>   0.3000 
 16 C       -2.3960    -6.8270    -0.8040 C.2   1 <1>  -0.3320 
 17 C       -0.1900    -6.2780     0.3020 C.3   1 <1>   0.0210 
 18 C       -2.6210    -8.1210    -0.0470 C.3   1 <1>   0.0200 
 19 C       -0.5760    -7.3850     1.3020 C.3   1 <1>  -0.1600 
 20 C       -1.3040    -8.5620     0.6200 C.3   1 <1>  -0.1600 
 21 H        2.9260    -0.2780     1.1470 H     1 <1>   0.1500 
 22 H        0.3270    -4.1670    -2.1640 H     1 <1>   0.0800 
 23 H       -1.0280    -3.1600    -2.5460 H     1 <1>   0.0800 
 24 H       -1.3110    -2.1350     1.1620 H     1 <1>   0.0800 
 25 H       -2.1830    -3.4450     0.4200 H     1 <1>   0.0800 
 26 H       -2.1720    -1.8680    -0.3440 H     1 <1>   0.0800 
 27 H        3.5320    -5.4110     0.0970 H     1 <1>   0.0800 
 28 H        4.7340    -4.4150     0.8820 H     1 <1>   0.0800 
 29 H        4.5670    -4.3730    -0.8590 H     1 <1>   0.0800 
 30 H       -4.0920    -6.6360    -2.0630 H     1 <1>   0.2700 
 31 H        0.0500    -5.3790     0.8390 H     1 <1>   0.0800 
 32 H        0.6750    -6.5760    -0.2640 H     1 <1>   0.0800 
 33 H       -2.9630    -8.8920    -0.7150 H     1 <1>   0.0800 
 34 H       -3.3720    -7.9600     0.7060 H     1 <1>   0.0800 
 35 H       -1.2280    -6.9620     2.0470 H     1 <1>   0.0800 
 36 H        0.3090    -7.7380     1.8010 H     1 <1>   0.0800 
 37 H       -0.6560    -8.9760    -0.1340 H     1 <1>   0.0800 
 38 H       -1.5090    -9.3340     1.3410 H     1 <1>   0.0800 
@<TRIPOS>BOND
  1   1   2  1   
  2   2   3  ar  
  3   2   4  ar  
  4   3   5  ar  
  5   3   6  1   
  6   4   7  ar  
  7   4  21  1   
  8   5   8  ar  
  9   6   9  1   
 10   6  10  1   
 11   7   8  ar  
 12   8  11  1   
 13   9  12  1   
 14   9  22  1   
 15   9  23  1   
 16  10  24  1   
 17  10  25  1   
 18  10  26  1   
 19  11  27  1   
 20  11  28  1   
 21  11  29  1   
 22  12  13  2   
 23  12  14  1   
 24  13  15  1   
 25  14  16  2   
 26  14  17  1   
 27  15  16  1   
 28  15  30  1   
 29  16  18  1   
 30  17  19  1   
 31  17  31  1   
 32  17  32  1   
 33  18  20  1   
 34  18  33  1   
 35  18  34  1   
 36  19  20  1   
 37  19  35  1   
 38  19  36  1   
 39  20  37  1   
 40  20  38  1   
@<TRIPOS>SUBSTRUCTURE
  1 ****   6 GROUP 4 **** **** 0

# MOE 2024.06 (io_trps.svl 2023.06)
