@<TRIPOS>MOLECULE
NONAME
54 56 1 0 0 
SMALL
USER_CHARGES


@<TRIPOS>ATOM
  1 O       -0.6070     0.1330    -0.9770 O.2   1 <1>  -0.5700 
  2 C       -1.3690     0.7610    -0.2640 C.2   1 <1>   0.7150 
  3 N       -2.4890     0.1120     0.2170 N.am  1 <1>  -0.6600 
  4 C       -1.0700     2.1440     0.0220 C.2   1 <1>   0.0550 
  5 C       -2.5930    -1.3820     0.2360 C.3   1 <1>   0.1400 
  6 C       -3.7870     0.7900     0.5230 C.3   1 <1>   0.1400 
  7 O       -1.6180     2.7950     1.0240 O.3   1 <1>  -0.0190 
  8 C       -0.2350     3.0230    -0.5770 C.2   1 <1>  -0.1500 
  9 C       -3.7990    -1.8660    -0.5860 C.3   1 <1>   0.3440 
 10 C       -4.9430     0.1860    -0.3100 C.3   1 <1>   0.2000 
 11 N       -1.2210     4.0270     1.1110 N.2   1 <1>  -0.4100 
 12 C       -0.3760     4.1940     0.1530 C.2   1 <1>   0.1080 
 13 O       -4.9610    -1.2100    -0.1550 O.3   1 <1>  -0.5600 
 14 C       -3.9790    -3.3740    -0.4390 C.ar  1 <1>  -0.1440 
 15 C       -6.3550     0.7570     0.0270 C.3   1 <1>   0.0000 
 16 C        0.3670     5.4940    -0.1400 C.3   1 <1>   0.1010 
 17 C       -4.7330    -3.9170     0.5930 C.ar  1 <1>  -0.1500 
 18 C       -3.3670    -4.2290    -1.3460 C.ar  1 <1>  -0.1500 
 19 C       -7.3970     0.1420    -0.9250 C.3   1 <1>  -0.2400 
 20 C       -6.3920     2.2840    -0.1670 C.3   1 <1>  -0.2400 
 21 C       -6.7790     0.4400     1.4740 C.3   1 <1>  -0.2400 
 22 C        1.2440     5.9000     1.0510 C.3   1 <1>  -0.2400 
 23 C       -0.6170     6.6160    -0.4880 C.3   1 <1>  -0.2400 
 24 C       -4.8720    -5.2880     0.7180 C.ar  1 <1>  -0.1500 
 25 C       -3.5050    -5.6010    -1.2220 C.ar  1 <1>  -0.1500 
 26 C       -4.2580    -6.1310    -0.1900 C.ar  1 <1>  -0.1500 
 27 H       -1.6980    -1.8360    -0.1530 H     1 <1>   0.0800 
 28 H       -2.7100    -1.7150     1.2520 H     1 <1>   0.0800 
 29 H       -3.9950     0.6850     1.5720 H     1 <1>   0.0800 
 30 H       -3.7200     1.8380     0.2980 H     1 <1>   0.0800 
 31 H        0.4010     2.8580    -1.4280 H     1 <1>   0.1500 
 32 H       -3.6490    -1.6270    -1.6250 H     1 <1>   0.0800 
 33 H       -4.7480     0.3890    -1.3490 H     1 <1>   0.0800 
 34 H        1.0080     5.3320    -0.9890 H     1 <1>   0.0800 
 35 H       -5.2180    -3.2680     1.3020 H     1 <1>   0.1500 
 36 H       -2.7770    -3.8310    -2.1540 H     1 <1>   0.1500 
 37 H       -8.3760     0.5430    -0.7330 H     1 <1>   0.0800 
 38 H       -7.4440    -0.9260    -0.7970 H     1 <1>   0.0800 
 39 H       -7.1410     0.3450    -1.9500 H     1 <1>   0.0800 
 40 H       -7.3920     2.6550    -0.0300 H     1 <1>   0.0800 
 41 H       -6.0700     2.5470    -1.1590 H     1 <1>   0.0800 
 42 H       -5.7600     2.7850     0.5440 H     1 <1>   0.0800 
 43 H       -7.7810     0.7870     1.6570 H     1 <1>   0.0800 
 44 H       -6.1290     0.9140     2.1860 H     1 <1>   0.0800 
 45 H       -6.7580    -0.6220     1.6470 H     1 <1>   0.0800 
 46 H        0.6340     6.0820     1.9190 H     1 <1>   0.0800 
 47 H        1.7980     6.7930     0.8240 H     1 <1>   0.0800 
 48 H        1.9380     5.1120     1.2820 H     1 <1>   0.0800 
 49 H       -1.2690     6.8120     0.3460 H     1 <1>   0.0800 
 50 H       -1.2200     6.3290    -1.3310 H     1 <1>   0.0800 
 51 H       -0.0880     7.5190    -0.7340 H     1 <1>   0.0800 
 52 H       -5.4600    -5.6970     1.5210 H     1 <1>   0.1500 
 53 H       -3.0270    -6.2560    -1.9300 H     1 <1>   0.1500 
 54 H       -4.3660    -7.1980    -0.0940 H     1 <1>   0.1500 
@<TRIPOS>BOND
  1   1   2  2   
  2   2   3  am  
  3   2   4  1   
  4   3   5  1   
  5   3   6  1   
  6   4   7  1   
  7   4   8  2   
  8   5   9  1   
  9   5  27  1   
 10   5  28  1   
 11   6  10  1   
 12   6  29  1   
 13   6  30  1   
 14   7  11  1   
 15   8  12  1   
 16   8  31  1   
 17   9  13  1   
 18   9  14  1   
 19   9  32  1   
 20  10  13  1   
 21  10  15  1   
 22  10  33  1   
 23  11  12  2   
 24  12  16  1   
 25  14  17  ar  
 26  14  18  ar  
 27  15  19  1   
 28  15  20  1   
 29  15  21  1   
 30  16  22  1   
 31  16  23  1   
 32  16  34  1   
 33  17  24  ar  
 34  17  35  1   
 35  18  25  ar  
 36  18  36  1   
 37  19  37  1   
 38  19  38  1   
 39  19  39  1   
 40  20  40  1   
 41  20  41  1   
 42  20  42  1   
 43  21  43  1   
 44  21  44  1   
 45  21  45  1   
 46  22  46  1   
 47  22  47  1   
 48  22  48  1   
 49  23  49  1   
 50  23  50  1   
 51  23  51  1   
 52  24  26  ar  
 53  24  52  1   
 54  25  26  ar  
 55  25  53  1   
 56  26  54  1   
@<TRIPOS>SUBSTRUCTURE
  1 ****   3 GROUP 4 **** **** 0

# MOE 2024.06 (io_trps.svl 2023.06)
