@<TRIPOS>MOLECULE
NONAME
39 40 1 0 0 
SMALL
USER_CHARGES


@<TRIPOS>ATOM
  1 S        0.2910     0.6460    -0.7610 S.o2  1 <1>   1.3330 
  2 O       -0.8210     1.3590    -1.3470 O.2   1 <1>  -0.6500 
  3 O        1.2240    -0.0570    -1.6140 O.2   1 <1>  -0.6500 
  4 N       -0.3730    -0.4930     0.3130 N.am  1 <1>  -0.8490 
  5 C        1.1930     1.7480     0.3340 C.3   1 <1>  -0.0550 
  6 C       -0.6070    -1.7900    -0.3310 C.3   1 <1>   0.1160 
  7 C       -1.6100    -0.0360     0.9580 C.3   1 <1>   0.1160 
  8 C        2.5450     1.2420     0.8820 C.3   1 <1>  -0.0800 
  9 C        3.6760     1.2870    -0.1360 C.3   1 <1>   0.2200 
 10 C        2.6220    -0.1890     1.4020 C.3   1 <1>   0.1200 
 11 N        4.3670     2.5850    -0.0210 N.am  1 <1>  -0.7300 
 12 C        4.5650     0.1050     0.2600 C.3   1 <1>   0.1200 
 13 O        3.9800    -0.4790     1.3890 O.3   1 <1>  -0.5600 
 14 C        4.0690     3.7060    -0.7460 C.2   1 <1>   0.5440 
 15 O        3.4480     3.5720    -1.7880 O.2   1 <1>  -0.5700 
 16 C        4.4510     5.0140    -0.2320 C.ar  1 <1>   0.3960 
 17 N        4.8710     5.0870     1.0340 N.ar  1 <1>  -0.6200 
 18 C        4.3550     6.1390    -1.0550 C.ar  1 <1>   0.1600 
 19 C        5.1650     6.3320     1.4130 C.ar  1 <1>   0.1390 
 20 N        4.6570     7.3890    -0.7020 N.ar  1 <1>  -0.6200 
 21 O        5.5420     6.4840     2.5930 O.3   1 <1>  -0.8290 
 22 C        5.0590     7.4450     0.5460 C.ar  1 <1>   0.1600 
 23 H        1.3790     2.6670    -0.1900 H     1 <1>   0.0800 
 24 H        0.5630     1.9930     1.1660 H     1 <1>   0.0800 
 25 H       -1.0200    -2.4900     0.3750 H     1 <1>   0.0800 
 26 H        0.3220    -2.1940    -0.6980 H     1 <1>   0.0800 
 27 H       -1.2860    -1.6790    -1.1610 H     1 <1>   0.0800 
 28 H       -1.9320    -0.7550     1.6920 H     1 <1>   0.0800 
 29 H       -2.3920     0.0910     0.2270 H     1 <1>   0.0800 
 30 H       -1.4480     0.9050     1.4540 H     1 <1>   0.0800 
 31 H        2.8110     1.8740     1.7130 H     1 <1>   0.0800 
 32 H        3.3300     1.1450    -1.1460 H     1 <1>   0.0800 
 33 H        2.1400    -0.8960     0.7490 H     1 <1>   0.0800 
 34 H        2.2450    -0.2900     2.4040 H     1 <1>   0.0800 
 35 H        4.8120     2.7860     0.8870 H     1 <1>   0.3700 
 36 H        5.5670     0.4080     0.5060 H     1 <1>   0.0800 
 37 H        4.5790    -0.6320    -0.5230 H     1 <1>   0.0800 
 38 H        4.0070     5.9970    -2.0620 H     1 <1>   0.1500 
 39 H        5.3330     8.3920     0.9690 H     1 <1>   0.1500 
@<TRIPOS>BOND
  1   1   2  2   
  2   1   3  2   
  3   1   4  am  
  4   1   5  1   
  5   4   6  1   
  6   4   7  1   
  7   5   8  1   
  8   5  23  1   
  9   5  24  1   
 10   6  25  1   
 11   6  26  1   
 12   6  27  1   
 13   7  28  1   
 14   7  29  1   
 15   7  30  1   
 16   8   9  1   
 17   8  10  1   
 18   8  31  1   
 19   9  11  1   
 20   9  12  1   
 21   9  32  1   
 22  10  13  1   
 23  10  33  1   
 24  10  34  1   
 25  11  14  am  
 26  11  35  1   
 27  12  13  1   
 28  12  36  1   
 29  12  37  1   
 30  14  15  2   
 31  14  16  1   
 32  16  17  ar  
 33  16  18  ar  
 34  17  19  ar  
 35  18  20  ar  
 36  18  38  1   
 37  19  21  1   
 38  19  22  ar  
 39  20  22  ar  
 40  22  39  1   
@<TRIPOS>SUBSTRUCTURE
  1 ****  11 GROUP 4 **** **** 0

# MOE 2024.06 (io_trps.svl 2023.06)
