@<TRIPOS>MOLECULE
NONAME
48 50 1 0 0 
SMALL
USER_CHARGES


@<TRIPOS>ATOM
  1 O        3.6050    -0.7900    -2.1580 O.2   1 <1>  -0.5700 
  2 C        2.9420    -1.0030    -1.1690 C.2   1 <1>   0.5690 
  3 N        2.6910    -0.0750    -0.2090 N.am  1 <1>  -0.4930 
  4 C        2.3290    -2.3900    -0.9610 C.3   1 <1>   0.1710 
  5 C        3.0460     1.2910    -0.1320 C.2   1 <1>   0.0630 
  6 N        1.1930    -2.4110     0.0100 N.3   1 <1>  -0.8100 
  7 C        2.5880     2.1900     0.7660 C.2   1 <1>  -0.3320 
  8 C        3.9250     2.0110    -0.9410 C.2   1 <1>   0.1390 
  9 C       -0.0270    -1.7740    -0.5150 C.3   1 <1>   0.1100 
 10 C        0.7910    -3.7780     0.3850 C.3   1 <1>   0.1100 
 11 N        3.1920     3.3690     0.4720 N.pl3 1 <1>   0.3140 
 12 C        1.5910     2.0000     1.9020 C.3   1 <1>  -0.0600 
 13 N        4.0170     3.2570    -0.5820 N.2   1 <1>  -0.7070 
 14 C       -1.1290    -2.2890     0.4010 C.3   1 <1>   0.2000 
 15 C       -0.7310    -3.7480     0.6250 C.3   1 <1>  -0.0800 
 16 C        3.0190     4.6520     1.1640 C.3   1 <1>   0.0160 
 17 O       -1.0120    -1.6240     1.6070 O.3   1 <1>  -0.6800 
 18 C       -1.4860    -4.6850    -0.3360 C.3   1 <1>   0.0210 
 19 C       -1.0270    -6.1270    -0.2120 C.2   1 <1>   0.1080 
 20 N       -0.9380    -6.7480     0.9230 N.2   1 <1>  -0.7070 
 21 C       -0.6580    -6.9370    -1.2810 C.2   1 <1>  -0.1500 
 22 N       -0.5110    -7.9840     0.6050 N.pl3 1 <1>   0.3000 
 23 C       -0.3310    -8.1220    -0.7250 C.2   1 <1>  -0.3320 
 24 C        0.1450    -9.4000    -1.3920 C.3   1 <1>  -0.0600 
 25 H        2.0780    -0.4260     0.5300 H     1 <1>   0.3700 
 26 H        3.1120    -3.0310    -0.5960 H     1 <1>   0.0800 
 27 H        2.0080    -2.7720    -1.9130 H     1 <1>   0.0800 
 28 H        4.4650     1.5850    -1.7680 H     1 <1>   0.1500 
 29 H        0.0330    -0.6990    -0.4970 H     1 <1>   0.0800 
 30 H       -0.2130    -2.1030    -1.5230 H     1 <1>   0.0800 
 31 H        1.0370    -4.4730    -0.4020 H     1 <1>   0.0800 
 32 H        1.3090    -4.0800     1.2800 H     1 <1>   0.0800 
 33 H        1.2280     0.9880     1.9250 H     1 <1>   0.0800 
 34 H        0.7500     2.6560     1.7700 H     1 <1>   0.0800 
 35 H        2.0590     2.2150     2.8460 H     1 <1>   0.0800 
 36 H       -2.1250    -2.1450     0.0170 H     1 <1>   0.0800 
 37 H       -0.9560    -4.0560     1.6330 H     1 <1>   0.0800 
 38 H        3.3120     4.5410     2.1910 H     1 <1>   0.0800 
 39 H        1.9890     4.9490     1.1030 H     1 <1>   0.0800 
 40 H        3.6360     5.3920     0.6900 H     1 <1>   0.0800 
 41 H       -0.0880    -1.7510     1.9060 H     1 <1>   0.4000 
 42 H       -1.3500    -4.3610    -1.3520 H     1 <1>   0.0800 
 43 H       -2.5370    -4.6500    -0.1120 H     1 <1>   0.0800 
 44 H       -0.6460    -6.6550    -2.3190 H     1 <1>   0.1500 
 45 H       -0.3580    -8.7090     1.3170 H     1 <1>   0.2700 
 46 H        0.2080    -9.2610    -2.4570 H     1 <1>   0.0800 
 47 H       -0.5430   -10.2020    -1.1920 H     1 <1>   0.0800 
 48 H        1.1180    -9.6730    -1.0240 H     1 <1>   0.0800 
@<TRIPOS>BOND
  1   1   2  2   
  2   2   3  am  
  3   2   4  1   
  4   3   5  1   
  5   3  25  1   
  6   4   6  1   
  7   4  26  1   
  8   4  27  1   
  9   5   7  2   
 10   5   8  1   
 11   6   9  1   
 12   6  10  1   
 13   7  11  1   
 14   7  12  1   
 15   8  13  2   
 16   8  28  1   
 17   9  14  1   
 18   9  29  1   
 19   9  30  1   
 20  10  15  1   
 21  10  31  1   
 22  10  32  1   
 23  11  13  1   
 24  11  16  1   
 25  12  33  1   
 26  12  34  1   
 27  12  35  1   
 28  14  15  1   
 29  14  17  1   
 30  14  36  1   
 31  15  18  1   
 32  15  37  1   
 33  16  38  1   
 34  16  39  1   
 35  16  40  1   
 36  17  41  1   
 37  18  19  1   
 38  18  42  1   
 39  18  43  1   
 40  19  20  2   
 41  19  21  1   
 42  20  22  1   
 43  21  23  2   
 44  21  44  1   
 45  22  23  1   
 46  22  45  1   
 47  23  24  1   
 48  24  46  1   
 49  24  47  1   
 50  24  48  1   
@<TRIPOS>SUBSTRUCTURE
  1 ****   6 GROUP 4 **** **** 0

# MOE 2024.06 (io_trps.svl 2023.06)
