@<TRIPOS>MOLECULE
NONAME
53 54 1 0 0 
SMALL
USER_CHARGES


@<TRIPOS>ATOM
  1 S       -0.1390     0.3360    -0.7500 S.o2  1 <1>   1.3330 
  2 O       -0.8320    -0.8790    -1.1170 O.2   1 <1>  -0.6500 
  3 O        0.3200     1.2360    -1.7830 O.2   1 <1>  -0.6500 
  4 N        1.2000    -0.1170     0.1940 N.am  1 <1>  -0.8490 
  5 C       -1.1600     1.2470     0.4190 C.3   1 <1>  -0.0550 
  6 C        2.4470    -0.1640    -0.5760 C.3   1 <1>   0.1160 
  7 C        1.0110    -1.3780     0.9200 C.3   1 <1>   0.1160 
  8 C       -0.7530     2.7030     0.7390 C.3   1 <1>  -0.0800 
  9 C       -1.0620     3.6970    -0.3840 C.3   1 <1>   0.2000 
 10 C        0.7170     2.9560     1.0750 C.3   1 <1>   0.1400 
 11 O       -2.3840     4.1030    -0.2800 O.3   1 <1>  -0.6800 
 12 C       -0.1020     4.8720    -0.1800 C.3   1 <1>   0.1400 
 13 N        0.9210     4.3910     0.7840 N.am  1 <1>  -0.6600 
 14 C        2.1290     5.0110     1.0090 C.2   1 <1>   0.5440 
 15 O        3.0210     4.3740     1.5370 O.2   1 <1>  -0.5700 
 16 C        2.3580     6.3880     0.6140 C.ar  1 <1>   0.0860 
 17 C        3.4350     6.7260    -0.2020 C.ar  1 <1>  -0.1500 
 18 C        1.5170     7.4200     1.0280 C.ar  1 <1>  -0.1500 
 19 C        3.6530     8.0310    -0.6040 C.ar  1 <1>  -0.1500 
 20 C        1.7300     8.7270     0.6290 C.ar  1 <1>  -0.1500 
 21 C        2.7990     9.0430    -0.1930 C.ar  1 <1>  -0.1430 
 22 C        3.0310    10.4820    -0.6340 C.3   1 <1>  -0.0170 
 23 C        3.6450    11.3510     0.4800 C.3   1 <1>  -0.0800 
 24 C        3.7540    12.8100     0.0190 C.3   1 <1>  -0.2400 
 25 C        5.0290    10.8400     0.9060 C.3   1 <1>  -0.2400 
 26 H       -2.1640     1.2710     0.0390 H     1 <1>   0.0800 
 27 H       -1.1920     0.6950     1.3380 H     1 <1>   0.0800 
 28 H        3.2710    -0.4350     0.0620 H     1 <1>   0.0800 
 29 H        2.6580     0.8050    -0.9990 H     1 <1>   0.0800 
 30 H        2.3660    -0.8800    -1.3770 H     1 <1>   0.0800 
 31 H        1.8450    -1.5550     1.5770 H     1 <1>   0.0800 
 32 H        0.9280    -2.2010     0.2280 H     1 <1>   0.0800 
 33 H        0.1130    -1.3350     1.5120 H     1 <1>   0.0800 
 34 H       -1.3070     3.0070     1.6100 H     1 <1>   0.0800 
 35 H       -0.9180     3.2750    -1.3640 H     1 <1>   0.0800 
 36 H        1.3820     2.3980     0.4420 H     1 <1>   0.0800 
 37 H        0.9410     2.7380     2.1060 H     1 <1>   0.0800 
 38 H       -2.5430     4.5280     0.5840 H     1 <1>   0.4000 
 39 H       -0.6150     5.7240     0.2280 H     1 <1>   0.0800 
 40 H        0.3680     5.1360    -1.1130 H     1 <1>   0.0800 
 41 H        4.1060     5.9470    -0.5200 H     1 <1>   0.1500 
 42 H        0.6900     7.1900     1.6760 H     1 <1>   0.1500 
 43 H        4.4940     8.2580    -1.2360 H     1 <1>   0.1500 
 44 H        1.0620     9.5020     0.9630 H     1 <1>   0.1500 
 45 H        3.6740    10.4990    -1.4970 H     1 <1>   0.0800 
 46 H        2.0870    10.9030    -0.9330 H     1 <1>   0.0800 
 47 H        2.9930    11.3160     1.3380 H     1 <1>   0.0800 
 48 H        4.4030    12.8910    -0.8350 H     1 <1>   0.0800 
 49 H        4.1500    13.4220     0.8100 H     1 <1>   0.0800 
 50 H        2.7850    13.1930    -0.2480 H     1 <1>   0.0800 
 51 H        5.7040    10.8280     0.0690 H     1 <1>   0.0800 
 52 H        4.9570     9.8430     1.3050 H     1 <1>   0.0800 
 53 H        5.4410    11.4730     1.6720 H     1 <1>   0.0800 
@<TRIPOS>BOND
  1   1   2  2   
  2   1   3  2   
  3   1   4  am  
  4   1   5  1   
  5   4   6  1   
  6   4   7  1   
  7   5   8  1   
  8   5  26  1   
  9   5  27  1   
 10   6  28  1   
 11   6  29  1   
 12   6  30  1   
 13   7  31  1   
 14   7  32  1   
 15   7  33  1   
 16   8   9  1   
 17   8  10  1   
 18   8  34  1   
 19   9  11  1   
 20   9  12  1   
 21   9  35  1   
 22  10  13  1   
 23  10  36  1   
 24  10  37  1   
 25  11  38  1   
 26  12  13  1   
 27  12  39  1   
 28  12  40  1   
 29  13  14  am  
 30  14  15  2   
 31  14  16  1   
 32  16  17  ar  
 33  16  18  ar  
 34  17  19  ar  
 35  17  41  1   
 36  18  20  ar  
 37  18  42  1   
 38  19  21  ar  
 39  19  43  1   
 40  20  21  ar  
 41  20  44  1   
 42  21  22  1   
 43  22  23  1   
 44  22  45  1   
 45  22  46  1   
 46  23  24  1   
 47  23  25  1   
 48  23  47  1   
 49  24  48  1   
 50  24  49  1   
 51  24  50  1   
 52  25  51  1   
 53  25  52  1   
 54  25  53  1   
@<TRIPOS>SUBSTRUCTURE
  1 ****  13 GROUP 4 **** **** 0

# MOE 2024.06 (io_trps.svl 2023.06)
