@<TRIPOS>MOLECULE
NONAME
47 50 1 0 0 
SMALL
USER_CHARGES


@<TRIPOS>ATOM
  1 O       -0.0090     0.0350     1.0290 O.2   1 <1>  -0.5700 
  2 C       -0.9040     0.6980     0.5630 C.2   1 <1>   0.5690 
  3 N       -2.0020     0.1220    -0.0080 N.am  1 <1>  -0.6600 
  4 C       -0.7990     2.2100     0.6180 C.3   1 <1>  -0.0990 
  5 C       -3.1860     0.8270    -0.5610 C.3   1 <1>   0.1400 
  6 C       -2.1820    -1.3470    -0.0930 C.3   1 <1>   0.1400 
  7 C        0.5380     2.6820     1.2040 C.3   1 <1>   0.0960 
  8 C       -4.1380    -0.2820    -1.0110 C.3   1 <1>   0.2000 
  9 C       -3.6870    -1.5480    -0.2830 C.3   1 <1>  -0.0800 
 10 N        0.5880     4.1540     1.2170 N.pl3 1 <1>   0.0480 
 11 O       -5.4510     0.0100    -0.6780 O.3   1 <1>  -0.6800 
 12 C       -4.0630    -2.8320    -1.0440 C.3   1 <1>  -0.0160 
 13 C        0.8560     4.9720     0.1650 C.ar  1 <1>  -0.1520 
 14 C        0.2740     4.9830     2.2460 C.2   1 <1>   0.0360 
 15 C       -3.6350    -4.0830    -0.2940 C.ar  1 <1>   0.1670 
 16 C        0.6810     6.2580     0.6430 C.ar  1 <1>   0.2270 
 17 C        1.2330     4.7400    -1.1620 C.ar  1 <1>  -0.1500 
 18 N        0.3150     6.2350     1.9540 N.2   1 <1>  -0.5650 
 19 N       -2.3700    -4.4480    -0.4290 N.ar  1 <1>  -0.6200 
 20 C       -4.5570    -4.7790     0.4860 C.ar  1 <1>   0.1600 
 21 C        0.8780     7.3480    -0.2020 C.ar  1 <1>  -0.1500 
 22 C        1.4260     5.8240    -1.9890 C.ar  1 <1>  -0.1500 
 23 C       -2.0920    -5.5410     0.2620 C.ar  1 <1>   0.1600 
 24 N       -4.2810    -5.8710     1.1780 N.ar  1 <1>  -0.6200 
 25 C        1.2480     7.1280    -1.5110 C.ar  1 <1>  -0.1500 
 26 C       -3.0160    -6.2280     1.0400 C.ar  1 <1>   0.1600 
 27 H       -0.9020     2.5940    -0.3800 H     1 <1>   0.0800 
 28 H       -1.6040     2.5830     1.2230 H     1 <1>   0.0800 
 29 H       -3.6350     1.4330     0.2070 H     1 <1>   0.0800 
 30 H       -2.8990     1.4390    -1.3990 H     1 <1>   0.0800 
 31 H       -1.6330    -1.7200    -0.9420 H     1 <1>   0.0800 
 32 H       -1.8260    -1.8370     0.7980 H     1 <1>   0.0800 
 33 H        1.3560     2.3100     0.6130 H     1 <1>   0.0800 
 34 H        0.6520     2.3170     2.2100 H     1 <1>   0.0800 
 35 H       -4.0780    -0.4010    -2.0800 H     1 <1>   0.0800 
 36 H       -4.1270    -1.5740     0.6990 H     1 <1>   0.0800 
 37 H       -5.5490     0.0970     0.2900 H     1 <1>   0.4000 
 38 H       -3.6000    -2.8330    -2.0160 H     1 <1>   0.0800 
 39 H       -5.1280    -2.8510    -1.1960 H     1 <1>   0.0800 
 40 H        0.0120     4.5990     3.2170 H     1 <1>   0.1500 
 41 H        1.3710     3.7360    -1.5210 H     1 <1>   0.1500 
 42 H       -5.5680    -4.4160     0.5410 H     1 <1>   0.1500 
 43 H        0.7350     8.3360     0.1930 H     1 <1>   0.1500 
 44 H        1.7180     5.6790    -3.0150 H     1 <1>   0.1500 
 45 H       -1.0830    -5.9100     0.2120 H     1 <1>   0.1500 
 46 H        1.4050     7.9590    -2.1770 H     1 <1>   0.1500 
 47 H       -2.6930    -7.1080     1.5670 H     1 <1>   0.1500 
@<TRIPOS>BOND
  1   1   2  2   
  2   2   3  am  
  3   2   4  1   
  4   3   5  1   
  5   3   6  1   
  6   4   7  1   
  7   4  27  1   
  8   4  28  1   
  9   5   8  1   
 10   5  29  1   
 11   5  30  1   
 12   6   9  1   
 13   6  31  1   
 14   6  32  1   
 15   7  10  1   
 16   7  33  1   
 17   7  34  1   
 18   8   9  1   
 19   8  11  1   
 20   8  35  1   
 21   9  12  1   
 22   9  36  1   
 23  10  13  1   
 24  10  14  1   
 25  11  37  1   
 26  12  15  1   
 27  12  38  1   
 28  12  39  1   
 29  13  16  ar  
 30  13  17  ar  
 31  14  18  2   
 32  14  40  1   
 33  15  19  ar  
 34  15  20  ar  
 35  16  18  1   
 36  16  21  ar  
 37  17  22  ar  
 38  17  41  1   
 39  19  23  ar  
 40  20  24  ar  
 41  20  42  1   
 42  21  25  ar  
 43  21  43  1   
 44  22  25  ar  
 45  22  44  1   
 46  23  26  ar  
 47  23  45  1   
 48  24  26  ar  
 49  25  46  1   
 50  26  47  1   
@<TRIPOS>SUBSTRUCTURE
  1 ****   2 GROUP 4 **** **** 0

# MOE 2024.06 (io_trps.svl 2023.06)
