@<TRIPOS>MOLECULE
NONAME
45 47 1 0 0 
SMALL
USER_CHARGES


@<TRIPOS>ATOM
  1 O        2.4790     0.3080    -1.2790 O.2   1 <1>  -0.5700 
  2 C        2.3190    -0.3840    -0.2920 C.2   1 <1>   0.7160 
  3 N        2.8620     0.0640     0.8880 N.am  1 <1>  -0.6600 
  4 C        1.6790    -1.6730    -0.3840 C.2   1 <1>  -0.0860 
  5 C        4.0130    -0.6710     1.4780 C.3   1 <1>   0.1400 
  6 C        2.6770     1.4820     1.2920 C.3   1 <1>   0.1400 
  7 C        1.3740    -2.3830    -1.5030 C.2   1 <1>  -0.0100 
  8 C        1.2180    -2.4870     0.6740 C.2   1 <1>  -0.1500 
  9 C        5.2530    -0.5610     0.5660 C.3   1 <1>   0.3430 
 10 C        3.9830     2.2810     1.2300 C.3   1 <1>  -0.1600 
 11 O        0.8040    -3.5250    -1.2050 O.3   1 <1>  -0.2800 
 12 C        0.7010    -3.5950     0.1050 C.2   1 <1>  -0.0100 
 13 N        5.8500     0.8200     0.4520 N.4   1 <1>  -0.9590 
 14 C        4.8830     1.8980     0.0540 C.3   1 <1>   0.3430 
 15 C        7.0020     0.7890    -0.4930 C.3   1 <1>   0.4860 
 16 C        7.8150     2.0540    -0.3180 C.ar  1 <1>  -0.1430 
 17 C        7.8010     3.0300    -1.3040 C.ar  1 <1>   0.1600 
 18 C        8.5780     2.2620     0.8170 C.ar  1 <1>  -0.1500 
 19 N        8.4470     4.1780    -1.2380 N.ar  1 <1>  -0.6200 
 20 C        9.2660     3.4530     0.8940 C.ar  1 <1>  -0.1500 
 21 C        9.1710     4.3720    -0.1410 C.ar  1 <1>   0.3930 
 22 O        9.8630     5.5210    -0.0030 O.3   1 <1>  -0.3630 
 23 C        9.8520     6.5060    -1.0180 C.3   1 <1>   0.0400 
 24 H        3.7490    -1.7100     1.5750 H     1 <1>   0.0800 
 25 H        4.2320    -0.2990     2.4650 H     1 <1>   0.0800 
 26 H        2.2690     1.5200     2.2880 H     1 <1>   0.0800 
 27 H        1.9550     1.9390     0.6340 H     1 <1>   0.0800 
 28 H        1.5340    -2.1330    -2.5380 H     1 <1>   0.1500 
 29 H        1.2700    -2.2420     1.7190 H     1 <1>   0.1500 
 30 H        4.9740    -0.9110    -0.4150 H     1 <1>   0.0800 
 31 H        6.0050    -1.2340     0.9440 H     1 <1>   0.0800 
 32 H        4.5160     2.2080     2.1600 H     1 <1>   0.0800 
 33 H        3.7100     3.3160     1.1160 H     1 <1>   0.0800 
 34 H        0.2430    -4.4660     0.5430 H     1 <1>   0.1500 
 35 H        6.2330     1.0970     1.3630 H     1 <1>   0.4500 
 36 H        5.4340     2.7800    -0.2340 H     1 <1>   0.0800 
 37 H        4.2900     1.5910    -0.7930 H     1 <1>   0.0800 
 38 H        6.6490     0.7070    -1.5080 H     1 <1>   0.0800 
 39 H        7.6320    -0.0610    -0.2830 H     1 <1>   0.0800 
 40 H        7.2240     2.8710    -2.2000 H     1 <1>   0.1500 
 41 H        8.6530     1.5420     1.6140 H     1 <1>   0.1500 
 42 H        9.8820     3.6900     1.7420 H     1 <1>   0.1500 
 43 H       10.4700     7.3260    -0.7010 H     1 <1>   0.0800 
 44 H        8.8400     6.8410    -1.1680 H     1 <1>   0.0800 
 45 H       10.2430     6.0760    -1.9240 H     1 <1>   0.0800 
@<TRIPOS>BOND
  1   1   2  2   
  2   2   3  am  
  3   2   4  1   
  4   3   5  1   
  5   3   6  1   
  6   4   7  2   
  7   4   8  1   
  8   5   9  1   
  9   5  24  1   
 10   5  25  1   
 11   6  10  1   
 12   6  26  1   
 13   6  27  1   
 14   7  11  1   
 15   7  28  1   
 16   8  12  2   
 17   8  29  1   
 18   9  13  1   
 19   9  30  1   
 20   9  31  1   
 21  10  14  1   
 22  10  32  1   
 23  10  33  1   
 24  11  12  1   
 25  12  34  1   
 26  13  14  1   
 27  13  15  1   
 28  13  35  1   
 29  14  36  1   
 30  14  37  1   
 31  15  16  1   
 32  15  38  1   
 33  15  39  1   
 34  16  17  ar  
 35  16  18  ar  
 36  17  19  ar  
 37  17  40  1   
 38  18  20  ar  
 39  18  41  1   
 40  19  21  ar  
 41  20  21  ar  
 42  20  42  1   
 43  21  22  1   
 44  22  23  1   
 45  23  43  1   
 46  23  44  1   
 47  23  45  1   
@<TRIPOS>SUBSTRUCTURE
  1 ****  13 GROUP 4 **** **** 0

# MOE 2024.06 (io_trps.svl 2023.06)
