@<TRIPOS>MOLECULE
NONAME
54 57 1 0 0 
SMALL
USER_CHARGES


@<TRIPOS>ATOM
  1 S        0.5410     0.4360    -0.5270 S.3   1 <1>  -0.0800 
  2 C        1.7550    -0.6580     0.1410 C.ar  1 <1>   0.0400 
  3 C       -0.2800    -0.8850    -1.3560 C.2   1 <1>  -0.1400 
  4 C        1.5160    -1.9570    -0.2840 C.ar  1 <1>   0.0000 
  5 C        2.8070    -0.3010     0.9630 C.ar  1 <1>  -0.1500 
  6 C        0.3390    -2.0570    -1.1130 C.2   1 <1>  -0.1810 
  7 C       -1.5020    -0.4790    -2.1590 C.3   1 <1>  -0.0600 
  8 C        2.4180    -2.9410     0.1260 C.ar  1 <1>  -0.1500 
  9 C        3.6740    -1.2960     1.3720 C.ar  1 <1>  -0.1500 
 10 C       -0.1180    -3.4060    -1.6150 C.3   1 <1>   0.5240 
 11 C        3.4800    -2.6080     0.9500 C.ar  1 <1>  -0.1500 
 12 N       -0.6560    -4.1530    -0.4400 N.4   1 <1>  -0.9590 
 13 C       -0.8630    -5.6150    -0.7530 C.3   1 <1>   0.3430 
 14 C       -1.9050    -3.4930     0.0470 C.3   1 <1>   0.3430 
 15 C       -1.4980    -6.4290     0.4220 C.3   1 <1>   0.4230 
 16 C       -2.4440    -4.2400     1.2710 C.3   1 <1>  -0.1600 
 17 N       -1.6910    -7.9240     0.1620 N.4   1 <1>  -0.9590 
 18 C       -2.7640    -5.7370     1.0100 C.3   1 <1>   0.0000 
 19 C       -2.6040    -8.5990     1.1490 C.3   1 <1>   0.3430 
 20 C       -2.1410    -8.2780    -1.2280 C.3   1 <1>   0.2630 
 21 C       -3.1000    -6.4050     2.3740 C.3   1 <1>  -0.1600 
 22 C       -4.0200    -5.8430     0.0950 C.3   1 <1>   0.1200 
 23 C       -2.6110    -7.8640     2.4910 C.3   1 <1>  -0.1600 
 24 O       -3.7320    -5.4980    -1.2180 O.3   1 <1>  -0.6800 
 25 H        2.9420     0.7230     1.2660 H     1 <1>   0.1500 
 26 H       -1.9570    -1.3250    -2.6390 H     1 <1>   0.0800 
 27 H       -1.2170     0.2300    -2.9160 H     1 <1>   0.0800 
 28 H       -2.2260    -0.0110    -1.5150 H     1 <1>   0.0800 
 29 H        2.3150    -3.9580    -0.1980 H     1 <1>   0.1500 
 30 H        4.5070    -1.0550     2.0120 H     1 <1>   0.1500 
 31 H        0.7200    -3.9250    -2.0510 H     1 <1>   0.0800 
 32 H       -0.8820    -3.2850    -2.3660 H     1 <1>   0.0800 
 33 H        4.1770    -3.3650     1.2690 H     1 <1>   0.1500 
 34 H        0.0540    -4.0170     0.2950 H     1 <1>   0.4500 
 35 H       -1.5080    -5.6920    -1.6110 H     1 <1>   0.0800 
 36 H        0.0850    -6.0580    -1.0070 H     1 <1>   0.0800 
 37 H       -1.6990    -2.4690     0.3190 H     1 <1>   0.0800 
 38 H       -2.6490    -3.4850    -0.7330 H     1 <1>   0.0800 
 39 H       -0.7700    -6.3680     1.2140 H     1 <1>   0.0800 
 40 H       -1.7180    -4.1400     2.0600 H     1 <1>   0.0800 
 41 H       -3.3330    -3.7360     1.6090 H     1 <1>   0.0800 
 42 H       -0.7720    -8.3720     0.3020 H     1 <1>   0.4500 
 43 H       -3.6110    -8.6140     0.7650 H     1 <1>   0.0800 
 44 H       -2.2950    -9.6230     1.2960 H     1 <1>   0.0800 
 45 H       -3.1020    -7.8380    -1.4390 H     1 <1>   0.0800 
 46 H       -2.2300    -9.3490    -1.3300 H     1 <1>   0.0800 
 47 H       -1.4340    -7.9300    -1.9620 H     1 <1>   0.0800 
 48 H       -2.6590    -5.8590     3.1920 H     1 <1>   0.0800 
 49 H       -4.1650    -6.3750     2.5420 H     1 <1>   0.0800 
 50 H       -4.7970    -5.1840     0.4500 H     1 <1>   0.0800 
 51 H       -4.4190    -6.8420     0.0870 H     1 <1>   0.0800 
 52 H       -3.2490    -8.3940     3.1780 H     1 <1>   0.0800 
 53 H       -1.6190    -7.8910     2.9090 H     1 <1>   0.0800 
 54 H       -4.5670    -5.4220    -1.7370 H     1 <1>   0.4000 
@<TRIPOS>BOND
  1   1   2  1   
  2   1   3  1   
  3   2   4  ar  
  4   2   5  ar  
  5   3   6  2   
  6   3   7  1   
  7   4   6  1   
  8   4   8  ar  
  9   5   9  ar  
 10   5  25  1   
 11   6  10  1   
 12   7  26  1   
 13   7  27  1   
 14   7  28  1   
 15   8  11  ar  
 16   8  29  1   
 17   9  11  ar  
 18   9  30  1   
 19  10  12  1   
 20  10  31  1   
 21  10  32  1   
 22  11  33  1   
 23  12  13  1   
 24  12  14  1   
 25  12  34  1   
 26  13  15  1   
 27  13  35  1   
 28  13  36  1   
 29  14  16  1   
 30  14  37  1   
 31  14  38  1   
 32  15  17  1   
 33  15  18  1   
 34  15  39  1   
 35  16  18  1   
 36  16  40  1   
 37  16  41  1   
 38  17  19  1   
 39  17  20  1   
 40  17  42  1   
 41  18  21  1   
 42  18  22  1   
 43  19  23  1   
 44  19  43  1   
 45  19  44  1   
 46  20  45  1   
 47  20  46  1   
 48  20  47  1   
 49  21  23  1   
 50  21  48  1   
 51  21  49  1   
 52  22  24  1   
 53  22  50  1   
 54  22  51  1   
 55  23  52  1   
 56  23  53  1   
 57  24  54  1   
@<TRIPOS>SUBSTRUCTURE
  1 ****  12 GROUP 4 **** **** 0

# MOE 2024.06 (io_trps.svl 2023.06)
