@<TRIPOS>MOLECULE
NONAME
48 50 1 0 0 
SMALL
USER_CHARGES


@<TRIPOS>ATOM
  1 CL       0.2130    -2.4740     2.9010 Cl    1 <1>  -0.1770 
  2 C       -0.5760    -2.0910     1.3880 C.ar  1 <1>   0.1770 
  3 C       -0.0180    -1.1720     0.5140 C.ar  1 <1>   0.1770 
  4 C       -1.7670    -2.7230     1.0840 C.ar  1 <1>  -0.1500 
  5 CL       1.4890    -0.3700     0.8970 Cl    1 <1>  -0.1770 
  6 C       -0.6480    -0.8740    -0.6810 C.ar  1 <1>  -0.1500 
  7 C       -2.4070    -2.4250    -0.1180 C.ar  1 <1>   0.0830 
  8 C       -1.8420    -1.5040    -0.9910 C.ar  1 <1>  -0.1500 
  9 O       -3.5760    -2.9890    -0.5060 O.3   1 <1>  -0.3630 
 10 C       -4.2380    -3.9540     0.3020 C.3   1 <1>   0.1810 
 11 C       -5.5190    -4.4600    -0.3580 C.2   1 <1>   0.5690 
 12 O       -5.5700    -5.6440    -0.6040 O.2   1 <1>  -0.5700 
 13 N       -6.5800    -3.6230    -0.6220 N.am  1 <1>  -0.6600 
 14 C       -7.8150    -4.1200    -1.2910 C.3   1 <1>   0.1400 
 15 C       -6.6060    -2.1580    -0.3590 C.3   1 <1>   0.1400 
 16 C       -9.0320    -3.7960    -0.4190 C.3   1 <1>  -0.1600 
 17 C       -7.8100    -1.8270     0.5270 C.3   1 <1>  -0.1600 
 18 C       -9.1380    -2.2930    -0.1010 C.3   1 <1>   0.2800 
 19 O       -9.3160    -1.6480    -1.3390 O.3   1 <1>  -0.5600 
 20 C      -10.3440    -2.0150     0.8330 C.3   1 <1>  -0.1600 
 21 C       -9.7690    -0.3240    -1.3250 C.3   1 <1>   0.1200 
 22 C      -11.5680    -1.4750     0.0880 C.3   1 <1>   0.2800 
 23 C      -11.1750    -0.2280    -0.7080 C.3   1 <1>  -0.1600 
 24 O      -11.9620    -2.4230    -0.8190 O.3   1 <1>  -0.6800 
 25 C      -12.7570    -1.2270     1.0110 C.3   1 <1>  -0.2400 
 26 H       -2.1640    -3.4300     1.7870 H     1 <1>   0.1500 
 27 H       -0.2080    -0.1600    -1.3560 H     1 <1>   0.1500 
 28 H       -2.3460    -1.2870    -1.9180 H     1 <1>   0.1500 
 29 H       -4.4760    -3.5070     1.2480 H     1 <1>   0.0800 
 30 H       -3.5690    -4.7830     0.4480 H     1 <1>   0.0800 
 31 H       -7.7610    -5.1830    -1.4530 H     1 <1>   0.0800 
 32 H       -7.9120    -3.6420    -2.2510 H     1 <1>   0.0800 
 33 H       -6.6870    -1.6360    -1.2980 H     1 <1>   0.0800 
 34 H       -5.7060    -1.8300     0.1270 H     1 <1>   0.0800 
 35 H       -8.9460    -4.3560     0.4940 H     1 <1>   0.0800 
 36 H       -9.9220    -4.1320    -0.9170 H     1 <1>   0.0800 
 37 H       -7.8340    -0.7720     0.7210 H     1 <1>   0.0800 
 38 H       -7.6780    -2.3180     1.4750 H     1 <1>   0.0800 
 39 H      -10.0580    -1.2840     1.5670 H     1 <1>   0.0800 
 40 H      -10.6110    -2.8990     1.3830 H     1 <1>   0.0800 
 41 H       -9.7870     0.0250    -2.3440 H     1 <1>   0.0800 
 42 H       -9.0660     0.2750    -0.7750 H     1 <1>   0.0800 
 43 H      -11.9040    -0.0380    -1.4760 H     1 <1>   0.0800 
 44 H      -11.1840     0.6270    -0.0570 H     1 <1>   0.0800 
 45 H      -11.2200    -2.5240    -1.4520 H     1 <1>   0.4000 
 46 H      -12.5080    -0.4920     1.7540 H     1 <1>   0.0800 
 47 H      -13.0350    -2.1370     1.5110 H     1 <1>   0.0800 
 48 H      -13.5980    -0.8680     0.4440 H     1 <1>   0.0800 
@<TRIPOS>BOND
  1   1   2  1   
  2   2   3  ar  
  3   2   4  ar  
  4   3   5  1   
  5   3   6  ar  
  6   4   7  ar  
  7   4  26  1   
  8   6   8  ar  
  9   6  27  1   
 10   7   8  ar  
 11   7   9  1   
 12   8  28  1   
 13   9  10  1   
 14  10  11  1   
 15  10  29  1   
 16  10  30  1   
 17  11  12  2   
 18  11  13  am  
 19  13  14  1   
 20  13  15  1   
 21  14  16  1   
 22  14  31  1   
 23  14  32  1   
 24  15  17  1   
 25  15  33  1   
 26  15  34  1   
 27  16  18  1   
 28  16  35  1   
 29  16  36  1   
 30  17  18  1   
 31  17  37  1   
 32  17  38  1   
 33  18  19  1   
 34  18  20  1   
 35  19  21  1   
 36  20  22  1   
 37  20  39  1   
 38  20  40  1   
 39  21  23  1   
 40  21  41  1   
 41  21  42  1   
 42  22  23  1   
 43  22  24  1   
 44  22  25  1   
 45  23  43  1   
 46  23  44  1   
 47  24  45  1   
 48  25  46  1   
 49  25  47  1   
 50  25  48  1   
@<TRIPOS>SUBSTRUCTURE
  1 ****  15 GROUP 4 **** **** 0

# MOE 2024.06 (io_trps.svl 2023.06)
