@<TRIPOS>MOLECULE
NONAME
50 52 1 0 0 
SMALL
USER_CHARGES


@<TRIPOS>ATOM
  1 S        0.9220     0.2500    -1.5590 S.o2  1 <1>   1.4470 
  2 O        0.7180    -0.6280    -2.6940 O.2   1 <1>  -0.6500 
  3 O        1.8940     1.3150    -1.7010 O.2   1 <1>  -0.6500 
  4 N       -0.5870     0.9730    -1.2820 N.am  1 <1>  -0.8490 
  5 C        1.1660    -0.6980    -0.0350 C.ar  1 <1>  -0.0090 
  6 C       -1.7110     0.0230    -1.3520 C.3   1 <1>   0.1960 
  7 C       -0.8390     2.0910    -2.1680 C.3   1 <1>   0.1960 
  8 C        1.3770    -0.0600     1.1840 C.ar  1 <1>   0.0820 
  9 C        1.0680    -2.0840    -0.0320 C.ar  1 <1>  -0.1500 
 10 C       -2.9650     0.5570    -0.5060 C.3   1 <1>   0.0000 
 11 C       -2.2040     2.6820    -1.8300 C.3   1 <1>  -0.1600 
 12 O        1.4580     1.2830     1.2500 O.3   1 <1>  -0.3630 
 13 C        1.5070    -0.7920     2.3540 C.ar  1 <1>  -0.1500 
 14 C        1.1660    -2.8510     1.1320 C.ar  1 <1>  -0.1790 
 15 C       -4.2450     1.0310     0.3280 C.3   1 <1>   0.2000 
 16 C       -3.2970     1.6000    -1.6880 C.3   1 <1>  -0.1600 
 17 C       -2.5560    -0.4520     0.6650 C.3   1 <1>  -0.1600 
 18 C        0.3620     1.9660     1.8180 C.3   1 <1>   0.0400 
 19 C        1.3990    -2.1670     2.3250 C.ar  1 <1>  -0.1500 
 20 C        1.0160    -4.3000     1.1040 C.2   1 <1>   0.9790 
 21 O       -3.9750     2.2910     0.8970 O.3   1 <1>  -0.5600 
 22 C       -4.6360     0.1010     1.4670 C.3   1 <1>  -0.1600 
 23 C       -3.3030    -0.3050     1.9750 C.3   1 <1>  -0.1600 
 24 O        1.1650    -4.9730     2.1400 O.co2 1 <1>  -0.9000 
 25 O        0.7200    -4.8840     0.0470 O.co2 1 <1>  -0.9000 
 26 C       -5.0710     3.1380     1.0510 C.3   1 <1>   0.0400 
 27 H       -1.9470    -0.1600    -2.3880 H     1 <1>   0.0800 
 28 H       -1.3400    -0.9520    -1.0720 H     1 <1>   0.0800 
 29 H       -0.0760     2.8420    -2.0400 H     1 <1>   0.0800 
 30 H       -0.8200     1.7540    -3.1920 H     1 <1>   0.0800 
 31 H        0.8970    -2.6040    -0.9620 H     1 <1>   0.1500 
 32 H       -2.1220     3.2230    -0.9030 H     1 <1>   0.0800 
 33 H       -2.4780     3.3870    -2.5940 H     1 <1>   0.0800 
 34 H        1.6920    -0.2860     3.2820 H     1 <1>   0.1500 
 35 H       -5.1320     1.0960    -0.2820 H     1 <1>   0.0800 
 36 H       -3.4480     1.1050    -2.6320 H     1 <1>   0.0800 
 37 H       -4.1970     2.1860    -1.6100 H     1 <1>   0.0800 
 38 H       -2.7410    -1.4660     0.3420 H     1 <1>   0.0800 
 39 H       -1.5160    -0.3730     0.9420 H     1 <1>   0.0800 
 40 H        0.5740     3.0190     1.7910 H     1 <1>   0.0800 
 41 H        0.2270     1.6400     2.8330 H     1 <1>   0.0800 
 42 H       -0.5210     1.7600     1.2390 H     1 <1>   0.0800 
 43 H        1.4930    -2.7380     3.2340 H     1 <1>   0.1500 
 44 H       -5.2400     0.5690     2.2230 H     1 <1>   0.0800 
 45 H       -5.1550    -0.7560     1.0740 H     1 <1>   0.0800 
 46 H       -2.8700     0.4840     2.5670 H     1 <1>   0.0800 
 47 H       -3.3300    -1.2190     2.5430 H     1 <1>   0.0800 
 48 H       -4.7240     4.0510     1.5000 H     1 <1>   0.0800 
 49 H       -5.8010     2.6760     1.6910 H     1 <1>   0.0800 
 50 H       -5.4950     3.3490     0.0850 H     1 <1>   0.0800 
@<TRIPOS>BOND
  1   1   2  2   
  2   1   3  2   
  3   1   4  am  
  4   1   5  1   
  5   4   6  1   
  6   4   7  1   
  7   5   8  ar  
  8   5   9  ar  
  9   6  10  1   
 10   6  27  1   
 11   6  28  1   
 12   7  11  1   
 13   7  29  1   
 14   7  30  1   
 15   8  12  1   
 16   8  13  ar  
 17   9  14  ar  
 18   9  31  1   
 19  10  15  1   
 20  10  16  1   
 21  10  17  1   
 22  11  16  1   
 23  11  32  1   
 24  11  33  1   
 25  12  18  1   
 26  13  19  ar  
 27  13  34  1   
 28  14  19  ar  
 29  14  20  1   
 30  15  21  1   
 31  15  22  1   
 32  15  35  1   
 33  16  36  1   
 34  16  37  1   
 35  17  23  1   
 36  17  38  1   
 37  17  39  1   
 38  18  40  1   
 39  18  41  1   
 40  18  42  1   
 41  19  43  1   
 42  20  24  ar  
 43  20  25  ar  
 44  21  26  1   
 45  22  23  1   
 46  22  44  1   
 47  22  45  1   
 48  23  46  1   
 49  23  47  1   
 50  26  48  1   
 51  26  49  1   
 52  26  50  1   
@<TRIPOS>SUBSTRUCTURE
  1 ****   6 GROUP 4 **** **** 0

# MOE 2024.06 (io_trps.svl 2023.06)
