@<TRIPOS>MOLECULE
NONAME
54 57 1 0 0 
SMALL
USER_CHARGES


@<TRIPOS>ATOM
  1 O        0.8850     1.1940     1.7790 O.2   1 <1>  -0.5700 
  2 C        1.8920     1.5730     1.1960 C.2   1 <1>   0.4690 
  3 C        3.1970     1.0630     1.5100 C.ar  1 <1>   0.0860 
  4 C        1.7920     2.5620     0.1940 C.2   1 <1>  -0.1360 
  5 C        4.3140     1.5380     0.7930 C.ar  1 <1>   0.1000 
  6 C        3.3850     0.1190     2.5270 C.ar  1 <1>  -0.1500 
  7 C        2.8670     2.9990    -0.5040 C.2   1 <1>  -0.0380 
  8 N        4.1270     2.4690    -0.2550 N.pl3 1 <1>  -0.5690 
  9 C        5.5820     1.0670     1.1670 C.ar  1 <1>  -0.1500 
 10 C        4.6380    -0.3400     2.8580 C.ar  1 <1>  -0.1500 
 11 C        2.6800     4.0800    -1.5620 C.3   1 <1>  -0.1020 
 12 C        5.2980     2.8480    -1.1420 C.3   1 <1>   0.2700 
 13 C        5.7430     0.1440     2.1760 C.ar  1 <1>  -0.1500 
 14 C        6.0960     4.0340    -0.5960 C.2   1 <1>   0.5690 
 15 O        7.0450     4.4360    -1.2300 O.2   1 <1>  -0.5700 
 16 N        5.6810     4.5880     0.5870 N.am  1 <1>  -0.4940 
 17 C        6.0160     5.7620     1.3090 C.2   1 <1>  -0.0880 
 18 N        7.2010     6.4400     1.3800 N.pl3 1 <1>   0.3140 
 19 C        5.1510     6.4390     2.0990 C.2   1 <1>  -0.1500 
 20 N        7.0890     7.5360     2.1740 N.2   1 <1>  -0.7070 
 21 C        8.5050     6.1180     0.7450 C.3   1 <1>   0.1760 
 22 C        5.8650     7.5180     2.5980 C.2   1 <1>   0.1390 
 23 C        9.6810     6.2910     1.7220 C.3   1 <1>  -0.1600 
 24 C        8.7100     7.0090    -0.4890 C.3   1 <1>  -0.1600 
 25 C       11.0070     6.0120     1.0230 C.3   1 <1>   0.3430 
 26 C       10.0440     6.7020    -1.1540 C.3   1 <1>   0.3430 
 27 N       11.1460     6.9030    -0.1670 N.4   1 <1>  -0.9590 
 28 C       12.4810     6.7280    -0.8160 C.3   1 <1>   0.2630 
 29 H        0.8030     2.9430     0.0210 H     1 <1>   0.1500 
 30 H        2.5240    -0.2490     3.0590 H     1 <1>   0.1500 
 31 H        6.4710     1.4140     0.6810 H     1 <1>   0.1500 
 32 H        4.7650    -1.0660     3.6430 H     1 <1>   0.1500 
 33 H        3.3400     4.9090    -1.3800 H     1 <1>   0.0800 
 34 H        1.6720     4.4550    -1.5460 H     1 <1>   0.0800 
 35 H        2.8630     3.6820    -2.5430 H     1 <1>   0.0800 
 36 H        4.9560     3.0970    -2.1270 H     1 <1>   0.0800 
 37 H        5.9520     2.0070    -1.2670 H     1 <1>   0.0800 
 38 H        6.7250    -0.2090     2.4430 H     1 <1>   0.1500 
 39 H        4.8410     4.1060     0.9380 H     1 <1>   0.3700 
 40 H        4.1200     6.2190     2.3120 H     1 <1>   0.1500 
 41 H        8.4860     5.0860     0.4590 H     1 <1>   0.0800 
 42 H        5.4570     8.2630     3.2620 H     1 <1>   0.1500 
 43 H        9.5640     5.6070     2.5450 H     1 <1>   0.0800 
 44 H        9.7000     7.2900     2.1230 H     1 <1>   0.0800 
 45 H        8.6760     8.0470    -0.2070 H     1 <1>   0.0800 
 46 H        7.9200     6.8370    -1.1970 H     1 <1>   0.0800 
 47 H       11.0430     4.9800     0.7120 H     1 <1>   0.0800 
 48 H       11.8190     6.1870     1.7120 H     1 <1>   0.0800 
 49 H       10.1800     7.3550    -2.0010 H     1 <1>   0.0800 
 50 H       10.0430     5.6820    -1.5070 H     1 <1>   0.0800 
 51 H       11.0730     7.8750     0.1720 H     1 <1>   0.4500 
 52 H       12.5890     5.7210    -1.1860 H     1 <1>   0.0800 
 53 H       13.2700     6.9220    -0.1070 H     1 <1>   0.0800 
 54 H       12.5880     7.4130    -1.6420 H     1 <1>   0.0800 
@<TRIPOS>BOND
  1   1   2  2   
  2   2   3  1   
  3   2   4  1   
  4   3   5  ar  
  5   3   6  ar  
  6   4   7  2   
  7   4  29  1   
  8   5   8  1   
  9   5   9  ar  
 10   6  10  ar  
 11   6  30  1   
 12   7   8  1   
 13   7  11  1   
 14   8  12  1   
 15   9  13  ar  
 16   9  31  1   
 17  10  13  ar  
 18  10  32  1   
 19  11  33  1   
 20  11  34  1   
 21  11  35  1   
 22  12  14  1   
 23  12  36  1   
 24  12  37  1   
 25  13  38  1   
 26  14  15  2   
 27  14  16  am  
 28  16  17  1   
 29  16  39  1   
 30  17  18  1   
 31  17  19  2   
 32  18  20  1   
 33  18  21  1   
 34  19  22  1   
 35  19  40  1   
 36  20  22  2   
 37  21  23  1   
 38  21  24  1   
 39  21  41  1   
 40  22  42  1   
 41  23  25  1   
 42  23  43  1   
 43  23  44  1   
 44  24  26  1   
 45  24  45  1   
 46  24  46  1   
 47  25  27  1   
 48  25  47  1   
 49  25  48  1   
 50  26  27  1   
 51  26  49  1   
 52  26  50  1   
 53  27  28  1   
 54  27  51  1   
 55  28  52  1   
 56  28  53  1   
 57  28  54  1   
@<TRIPOS>SUBSTRUCTURE
  1 ****  16 GROUP 4 **** **** 0

# MOE 2024.06 (io_trps.svl 2023.06)
