@<TRIPOS>MOLECULE
NONAME
49 52 1 0 0 
SMALL
USER_CHARGES


@<TRIPOS>ATOM
  1 S        0.6750    -0.6690     1.8180 S.3   1 <1>  -0.0800 
  2 C       -0.4490    -0.9330     0.5330 C.2   1 <1>   0.1980 
  3 C        1.1040     0.8040     1.0180 C.2   1 <1>   0.1980 
  4 N       -0.4430    -0.0040    -0.3360 N.2   1 <1>  -0.3380 
  5 C       -1.3040    -2.1910     0.5480 C.3   1 <1>   0.5230 
  6 N        0.4470     0.9920    -0.0550 N.2   1 <1>  -0.3380 
  7 C        2.1670     1.6770     1.6460 C.3   1 <1>  -0.0600 
  8 N       -2.3720    -2.0910    -0.4990 N.4   1 <1>  -0.9590 
  9 C       -3.4670    -1.1560    -0.0640 C.3   1 <1>   0.3430 
 10 C       -2.9090    -3.4100    -0.9280 C.3   1 <1>   0.3430 
 11 C       -4.4720    -0.8920    -1.1970 C.3   1 <1>   0.1430 
 12 C       -3.8670    -3.2070    -2.1060 C.3   1 <1>  -0.1600 
 13 C       -5.6080    -0.0770    -0.6320 C.ar  1 <1>   0.1670 
 14 C       -5.0030    -2.2240    -1.7690 C.3   1 <1>  -0.1600 
 15 C       -3.8990     0.0400    -2.3000 C.3   1 <1>  -0.1600 
 16 N       -6.2420    -0.3680     0.4740 N.ar  1 <1>  -0.6200 
 17 C       -5.8870     1.0100    -1.4000 C.ar  1 <1>  -0.1430 
 18 C       -4.9870     1.0880    -2.6070 C.3   1 <1>  -0.0170 
 19 C       -7.2130     0.4900     0.8050 C.ar  1 <1>   0.7200 
 20 C       -6.8970     1.8370    -0.9790 C.ar  1 <1>   0.1600 
 21 N       -7.5630     1.5850     0.1240 N.ar  1 <1>  -0.6200 
 22 N       -7.9120     0.2200     1.9630 N.pl3 1 <1>  -0.8380 
 23 C       -8.7640     1.2520     2.6170 C.3   1 <1>   0.1290 
 24 C       -8.0480    -1.1560     2.5130 C.3   1 <1>   0.1290 
 25 H       -1.7470    -2.3200     1.5220 H     1 <1>   0.0800 
 26 H       -0.6670    -3.0350     0.3450 H     1 <1>   0.0800 
 27 H        1.8560     1.9860     2.6270 H     1 <1>   0.0800 
 28 H        2.3260     2.5510     1.0400 H     1 <1>   0.0800 
 29 H        3.0920     1.1350     1.7220 H     1 <1>   0.0800 
 30 H       -1.9150    -1.6390    -1.3080 H     1 <1>   0.4500 
 31 H       -3.0520    -0.2130     0.2560 H     1 <1>   0.0800 
 32 H       -4.0010    -1.5820     0.7710 H     1 <1>   0.0800 
 33 H       -3.4390    -3.8740    -0.1110 H     1 <1>   0.0800 
 34 H       -2.1050    -4.0620    -1.2290 H     1 <1>   0.0800 
 35 H       -4.2960    -4.1580    -2.3740 H     1 <1>   0.0800 
 36 H       -3.3130    -2.8600    -2.9610 H     1 <1>   0.0800 
 37 H       -5.6050    -2.0360    -2.6430 H     1 <1>   0.0800 
 38 H       -5.6480    -2.6810    -1.0360 H     1 <1>   0.0800 
 39 H       -3.6140    -0.4900    -3.1920 H     1 <1>   0.0800 
 40 H       -3.0340     0.5620    -1.9250 H     1 <1>   0.0800 
 41 H       -5.5420     0.8190    -3.4900 H     1 <1>   0.0800 
 42 H       -4.5680     2.0730    -2.7270 H     1 <1>   0.0800 
 43 H       -7.1620     2.7120    -1.5470 H     1 <1>   0.1500 
 44 H       -8.3510     2.2350     2.4610 H     1 <1>   0.0800 
 45 H       -8.8190     1.0720     3.6760 H     1 <1>   0.0800 
 46 H       -9.7550     1.2210     2.1980 H     1 <1>   0.0800 
 47 H       -7.7630    -1.8910     1.7800 H     1 <1>   0.0800 
 48 H       -9.0710    -1.3400     2.7930 H     1 <1>   0.0800 
 49 H       -7.4200    -1.2610     3.3790 H     1 <1>   0.0800 
@<TRIPOS>BOND
  1   1   2  1   
  2   1   3  1   
  3   2   4  2   
  4   2   5  1   
  5   3   6  2   
  6   3   7  1   
  7   4   6  1   
  8   5   8  1   
  9   5  25  1   
 10   5  26  1   
 11   7  27  1   
 12   7  28  1   
 13   7  29  1   
 14   8   9  1   
 15   8  10  1   
 16   8  30  1   
 17   9  11  1   
 18   9  31  1   
 19   9  32  1   
 20  10  12  1   
 21  10  33  1   
 22  10  34  1   
 23  11  13  1   
 24  11  14  1   
 25  11  15  1   
 26  12  14  1   
 27  12  35  1   
 28  12  36  1   
 29  13  16  ar  
 30  13  17  ar  
 31  14  37  1   
 32  14  38  1   
 33  15  18  1   
 34  15  39  1   
 35  15  40  1   
 36  16  19  ar  
 37  17  18  1   
 38  17  20  ar  
 39  18  41  1   
 40  18  42  1   
 41  19  21  ar  
 42  19  22  1   
 43  20  21  ar  
 44  20  43  1   
 45  22  23  1   
 46  22  24  1   
 47  23  44  1   
 48  23  45  1   
 49  23  46  1   
 50  24  47  1   
 51  24  48  1   
 52  24  49  1   
@<TRIPOS>SUBSTRUCTURE
  1 ****   9 GROUP 4 **** **** 0

# MOE 2024.06 (io_trps.svl 2023.06)
