@<TRIPOS>MOLECULE
NONAME
52 54 1 0 0 
SMALL
USER_CHARGES


@<TRIPOS>ATOM
  1 O       -1.0890     0.6390    -1.3160 O.2   1 <1>  -0.5700 
  2 C       -1.7960     0.9360    -0.3730 C.2   1 <1>   0.7800 
  3 O       -1.8930     2.2110     0.0050 O.3   1 <1>  -0.4300 
  4 N       -2.5200     0.0020     0.3280 N.am  1 <1>  -0.6600 
  5 C       -1.1680     3.2200    -0.6610 C.3   1 <1>   0.1200 
  6 C       -3.3990     0.3510     1.4730 C.3   1 <1>   0.1400 
  7 C       -2.4170    -1.4450     0.0130 C.3   1 <1>   0.1400 
  8 C       -1.4920     4.5540     0.0050 C.3   1 <1>  -0.2400 
  9 C       -4.8050    -0.1830     1.1950 C.3   1 <1>  -0.1600 
 10 C       -3.8150    -1.9870    -0.2840 C.3   1 <1>  -0.1600 
 11 C       -4.7620    -1.6830     0.8860 C.3   1 <1>   0.4230 
 12 N       -6.1440    -2.1800     0.6340 N.4   1 <1>  -0.9590 
 13 C       -6.8590    -1.6700    -0.5740 C.3   1 <1>   0.3430 
 14 C       -6.2880    -3.6680     0.6010 C.3   1 <1>   0.3430 
 15 C       -8.0400    -2.6290    -0.7190 C.3   1 <1>   0.2000 
 16 C       -7.3950    -3.9850    -0.4180 C.3   1 <1>  -0.0800 
 17 O       -8.9610    -2.3210     0.2790 O.3   1 <1>  -0.6800 
 18 C       -8.3490    -5.1040     0.0440 C.3   1 <1>   0.0200 
 19 C       -7.5950    -6.4070     0.2330 C.2   1 <1>  -0.0400 
 20 O       -6.6810    -6.5010     1.1610 O.3   1 <1>  -0.0190 
 21 C       -7.6600    -7.5870    -0.4010 C.2   1 <1>  -0.1500 
 22 N       -6.1190    -7.6710     1.1730 N.2   1 <1>  -0.4100 
 23 C       -6.6930    -8.3520     0.2470 C.2   1 <1>   0.1080 
 24 C       -6.3560    -9.7890    -0.0860 C.3   1 <1>  -0.0590 
 25 H       -0.1170     2.9940    -0.5830 H     1 <1>   0.0800 
 26 H       -1.4600     3.2240    -1.6980 H     1 <1>   0.0800 
 27 H       -2.9980    -0.0910     2.3710 H     1 <1>   0.0800 
 28 H       -3.4400     1.4170     1.6200 H     1 <1>   0.0800 
 29 H       -1.7760    -1.6060    -0.8390 H     1 <1>   0.0800 
 30 H       -1.9810    -1.9580     0.8540 H     1 <1>   0.0800 
 31 H       -1.2040     4.5310     1.0400 H     1 <1>   0.0800 
 32 H       -2.5440     4.7620    -0.0730 H     1 <1>   0.0800 
 33 H       -0.9500     5.3430    -0.4840 H     1 <1>   0.0800 
 34 H       -5.2110     0.3690     0.3660 H     1 <1>   0.0800 
 35 H       -5.4170    -0.0020     2.0610 H     1 <1>   0.0800 
 36 H       -3.7360    -3.0460    -0.4440 H     1 <1>   0.0800 
 37 H       -4.1570    -1.5240    -1.1920 H     1 <1>   0.0800 
 38 H       -4.3750    -2.1830     1.7590 H     1 <1>   0.0800 
 39 H       -6.7420    -1.8740     1.4170 H     1 <1>   0.4500 
 40 H       -7.1930    -0.6530    -0.4500 H     1 <1>   0.0800 
 41 H       -6.2270    -1.7430    -1.4420 H     1 <1>   0.0800 
 42 H       -5.3710    -4.1490     0.3040 H     1 <1>   0.0800 
 43 H       -6.5640    -4.0290     1.5790 H     1 <1>   0.0800 
 44 H       -8.5180    -2.5670    -1.6830 H     1 <1>   0.0800 
 45 H       -6.9060    -4.3220    -1.3160 H     1 <1>   0.0800 
 46 H       -9.8460    -2.7000     0.0840 H     1 <1>   0.4000 
 47 H       -9.1180    -5.2520    -0.6940 H     1 <1>   0.0800 
 48 H       -8.8240    -4.8460     0.9750 H     1 <1>   0.0800 
 49 H       -8.2860    -7.9090    -1.2130 H     1 <1>   0.1500 
 50 H       -7.2240   -10.4080     0.0490 H     1 <1>   0.0800 
 51 H       -5.5740   -10.1440     0.5610 H     1 <1>   0.0800 
 52 H       -6.0240    -9.8620    -1.1050 H     1 <1>   0.0800 
@<TRIPOS>BOND
  1   1   2  2   
  2   2   3  1   
  3   2   4  am  
  4   3   5  1   
  5   4   6  1   
  6   4   7  1   
  7   5   8  1   
  8   5  25  1   
  9   5  26  1   
 10   6   9  1   
 11   6  27  1   
 12   6  28  1   
 13   7  10  1   
 14   7  29  1   
 15   7  30  1   
 16   8  31  1   
 17   8  32  1   
 18   8  33  1   
 19   9  11  1   
 20   9  34  1   
 21   9  35  1   
 22  10  11  1   
 23  10  36  1   
 24  10  37  1   
 25  11  12  1   
 26  11  38  1   
 27  12  13  1   
 28  12  14  1   
 29  12  39  1   
 30  13  15  1   
 31  13  40  1   
 32  13  41  1   
 33  14  16  1   
 34  14  42  1   
 35  14  43  1   
 36  15  16  1   
 37  15  17  1   
 38  15  44  1   
 39  16  18  1   
 40  16  45  1   
 41  17  46  1   
 42  18  19  1   
 43  18  47  1   
 44  18  48  1   
 45  19  20  1   
 46  19  21  2   
 47  20  22  1   
 48  21  23  1   
 49  21  49  1   
 50  22  23  2   
 51  23  24  1   
 52  24  50  1   
 53  24  51  1   
 54  24  52  1   
@<TRIPOS>SUBSTRUCTURE
  1 ****  11 GROUP 4 **** **** 0

# MOE 2024.06 (io_trps.svl 2023.06)
