@<TRIPOS>MOLECULE
F1913-0047
35 37 1 0 0 
SMALL
USER_CHARGES


@<TRIPOS>ATOM
  1 N       -7.7600     0.9100     0.2460 N.2   1 <1>  -0.5650 
  2 C       -7.1420    -0.0660    -0.3440 C.2   1 <1>   0.0060 
  3 C       -9.0580     0.5810     0.1290 C.2   1 <1>   0.0460 
  4 N       -7.9790    -1.0130    -0.8320 N.pl3 1 <1>   0.0330 
  5 C       -5.6270    -0.1900    -0.4930 C.3   1 <1>   0.1000 
  6 C       -9.2130    -0.5880    -0.5170 C.2   1 <1>  -0.3320 
  7 C      -10.2020     1.4150     0.6620 C.3   1 <1>   0.0210 
  8 C       -5.0500    -1.0360     0.6540 C.3   1 <1>  -0.1600 
  9 C       -4.9360     1.1840    -0.5470 C.3   1 <1>  -0.1600 
 10 C      -10.5380    -1.2590    -0.8190 C.3   1 <1>   0.0200 
 11 C      -11.5380     0.9340     0.0570 C.3   1 <1>  -0.1600 
 12 C       -3.5240    -1.1780     0.5430 C.3   1 <1>  -0.1600 
 13 C       -3.4110     1.0470    -0.6680 C.3   1 <1>  -0.1600 
 14 C      -11.6460    -0.6060     0.0310 C.3   1 <1>  -0.1600 
 15 C       -2.8430     0.1960     0.4750 C.3   1 <1>  -0.1600 
 16 H       -7.7180    -1.8680    -1.3280 H     1 <1>   0.2700 
 17 H       -5.4250    -0.6920    -1.4220 H     1 <1>   0.0800 
 18 H      -10.0360     2.4480     0.4170 H     1 <1>   0.0800 
 19 H      -10.2210     1.3170     1.7320 H     1 <1>   0.0800 
 20 H       -5.5030    -2.0110     0.6490 H     1 <1>   0.0800 
 21 H       -5.2980    -0.5640     1.5900 H     1 <1>   0.0800 
 22 H       -5.1710     1.7330     0.3500 H     1 <1>   0.0800 
 23 H       -5.3210     1.7440    -1.3810 H     1 <1>   0.0800 
 24 H      -10.4840    -2.3100    -0.5980 H     1 <1>   0.0800 
 25 H      -10.7610    -1.1370    -1.8640 H     1 <1>   0.0800 
 26 H      -11.6100     1.3020    -0.9520 H     1 <1>   0.0800 
 27 H      -12.3540     1.3510     0.6210 H     1 <1>   0.0800 
 28 H       -3.2790    -1.7400    -0.3410 H     1 <1>   0.0800 
 29 H       -3.1510    -1.7210     1.3940 H     1 <1>   0.0800 
 30 H       -2.9610     2.0240    -0.6480 H     1 <1>   0.0800 
 31 H       -3.1660     0.5900    -1.6120 H     1 <1>   0.0800 
 32 H      -11.5680    -0.9730     1.0400 H     1 <1>   0.0800 
 33 H      -12.6080    -0.8990    -0.3520 H     1 <1>   0.0800 
 34 H       -1.7830     0.0680     0.3380 H     1 <1>   0.0800 
 35 H       -2.9940     0.7120     1.4080 H     1 <1>   0.0800 
@<TRIPOS>BOND
  1   1   2  2   
  2   1   3  1   
  3   2   4  1   
  4   2   5  1   
  5   3   6  2   
  6   3   7  1   
  7   4   6  1   
  8   4  16  1   
  9   5   8  1   
 10   5   9  1   
 11   5  17  1   
 12   6  10  1   
 13   7  11  1   
 14   7  18  1   
 15   7  19  1   
 16   8  12  1   
 17   8  20  1   
 18   8  21  1   
 19   9  13  1   
 20   9  22  1   
 21   9  23  1   
 22  10  14  1   
 23  10  24  1   
 24  10  25  1   
 25  11  14  1   
 26  11  26  1   
 27  11  27  1   
 28  12  15  1   
 29  12  28  1   
 30  12  29  1   
 31  13  15  1   
 32  13  30  1   
 33  13  31  1   
 34  14  32  1   
 35  14  33  1   
 36  15  34  1   
 37  15  35  1   
@<TRIPOS>SUBSTRUCTURE
  1 ****   2 GROUP 4 **** **** 0

# MOE 2024.06 (io_trps.svl 2023.06)
