@<TRIPOS>MOLECULE
NONAME
45 47 1 0 0 
SMALL
USER_CHARGES


@<TRIPOS>ATOM
  1 S        0.8610     0.2380     0.0960 S.3   1 <1>  -0.0800 
  2 C        1.5940     1.5340    -0.7880 C.2   1 <1>   0.4620 
  3 C       -0.6110     0.5210    -0.7940 C.2   1 <1>   0.3250 
  4 N        0.7730     2.0600    -1.6260 N.2   1 <1>  -0.3380 
  5 N        2.8930     1.9370    -0.5310 N.pl3 1 <1>  -0.8220 
  6 N       -0.4610     1.4970    -1.6220 N.2   1 <1>  -0.3380 
  7 C       -1.7780    -0.2950    -0.5510 C.ar  1 <1>   0.0530 
  8 C        3.5260     3.0050    -1.3870 C.3   1 <1>   0.2090 
  9 C        3.8180     1.1530     0.3360 C.3   1 <1>   0.2090 
 10 C       -2.8920    -0.1860    -1.3870 C.ar  1 <1>  -0.1500 
 11 C       -1.8670    -1.2130     0.5020 C.ar  1 <1>  -0.1500 
 12 C        3.5030     4.3830    -0.6880 C.3   1 <1>   0.3430 
 13 C        3.8230     1.7580     1.7360 C.3   1 <1>  -0.2400 
 14 C       -4.0290    -0.9480    -1.1910 C.ar  1 <1>  -0.1500 
 15 C       -3.0010    -1.9770     0.7030 C.ar  1 <1>  -0.1500 
 16 N        2.2380     4.5540     0.0850 N.4   1 <1>  -0.9590 
 17 C       -4.0870    -1.8470    -0.1430 C.ar  1 <1>  -0.1500 
 18 C        1.0510     5.0040    -0.7130 C.3   1 <1>   0.3430 
 19 C        2.3620     5.3300     1.3610 C.3   1 <1>   0.3430 
 20 C       -0.2440     4.8610     0.1240 C.3   1 <1>   0.1200 
 21 C        0.9830     5.5830     2.0120 C.3   1 <1>   0.1200 
 22 O        0.0230     4.7020     1.4970 O.3   1 <1>  -0.5600 
 23 H        2.9980     3.0810    -2.3220 H     1 <1>   0.0800 
 24 H        4.5410     2.7390    -1.6270 H     1 <1>   0.0800 
 25 H        4.8140     1.1650    -0.0730 H     1 <1>   0.0800 
 26 H        3.5090     0.1220     0.3850 H     1 <1>   0.0800 
 27 H       -2.8670     0.5080    -2.2100 H     1 <1>   0.1500 
 28 H       -1.0460    -1.3410     1.1840 H     1 <1>   0.1500 
 29 H        3.6220     5.1730    -1.4110 H     1 <1>   0.0800 
 30 H        4.3390     4.4210    -0.0120 H     1 <1>   0.0800 
 31 H        4.2220     2.7540     1.7200 H     1 <1>   0.0800 
 32 H        4.4430     1.1590     2.3780 H     1 <1>   0.0800 
 33 H        2.8280     1.7660     2.1440 H     1 <1>   0.0800 
 34 H       -4.8710    -0.8410    -1.8540 H     1 <1>   0.1500 
 35 H       -3.0430    -2.6760     1.5220 H     1 <1>   0.1500 
 36 H        1.9910     3.5820     0.3640 H     1 <1>   0.4500 
 37 H       -4.9710    -2.4410     0.0130 H     1 <1>   0.1500 
 38 H        0.9540     4.4260    -1.6170 H     1 <1>   0.0800 
 39 H        1.1740     6.0350    -0.9970 H     1 <1>   0.0800 
 40 H        2.8400     6.2790     1.1770 H     1 <1>   0.0800 
 41 H        2.9780     4.7830     2.0550 H     1 <1>   0.0800 
 42 H       -0.7930     3.9940    -0.1990 H     1 <1>   0.0800 
 43 H       -0.8740     5.7230    -0.0080 H     1 <1>   0.0800 
 44 H        0.6520     6.5920     1.8320 H     1 <1>   0.0800 
 45 H        1.0380     5.4310     3.0760 H     1 <1>   0.0800 
@<TRIPOS>BOND
  1   1   2  1   
  2   1   3  1   
  3   2   4  2   
  4   2   5  1   
  5   3   6  2   
  6   3   7  1   
  7   4   6  1   
  8   5   8  1   
  9   5   9  1   
 10   7  10  ar  
 11   7  11  ar  
 12   8  12  1   
 13   8  23  1   
 14   8  24  1   
 15   9  13  1   
 16   9  25  1   
 17   9  26  1   
 18  10  14  ar  
 19  10  27  1   
 20  11  15  ar  
 21  11  28  1   
 22  12  16  1   
 23  12  29  1   
 24  12  30  1   
 25  13  31  1   
 26  13  32  1   
 27  13  33  1   
 28  14  17  ar  
 29  14  34  1   
 30  15  17  ar  
 31  15  35  1   
 32  16  18  1   
 33  16  19  1   
 34  16  36  1   
 35  17  37  1   
 36  18  20  1   
 37  18  38  1   
 38  18  39  1   
 39  19  21  1   
 40  19  40  1   
 41  19  41  1   
 42  20  22  1   
 43  20  42  1   
 44  20  43  1   
 45  21  22  1   
 46  21  44  1   
 47  21  45  1   
@<TRIPOS>SUBSTRUCTURE
  1 ****   2 GROUP 4 **** **** 0

# MOE 2024.06 (io_trps.svl 2023.06)
