@<TRIPOS>MOLECULE
NONAME
42 44 1 0 0 
SMALL
USER_CHARGES


@<TRIPOS>ATOM
  1 O        0.3760    -0.5890     1.3670 O.3   1 <1>  -0.5600 
  2 C        0.4110    -1.4390     0.2580 C.3   1 <1>   0.2000 
  3 C       -0.9000    -0.2890     1.8370 C.3   1 <1>   0.0400 
  4 C        1.7940    -1.4440    -0.4170 C.3   1 <1>   0.0000 
  5 C        0.1400    -2.8930     0.6620 C.3   1 <1>  -0.1600 
  6 C        2.9320    -1.4450     0.6380 C.3   1 <1>   0.2090 
  7 C        1.9640    -0.2410    -1.3690 C.3   1 <1>  -0.1600 
  8 C        1.7500    -2.7790    -1.1800 C.3   1 <1>  -0.1600 
  9 C        1.0100    -3.7560    -0.2620 C.3   1 <1>  -0.1600 
 10 N        4.2870    -1.3130     0.0180 N.pl3 1 <1>  -0.8380 
 11 C        3.3620    -0.2320    -2.0110 C.3   1 <1>  -0.1600 
 12 C        5.2760    -2.2630     0.2460 C.ar  1 <1>   0.4100 
 13 C        4.4740    -0.2130    -0.9590 C.3   1 <1>   0.2090 
 14 N        4.9310    -3.5120    -0.0420 N.ar  1 <1>  -0.6200 
 15 C        6.5610    -1.9300     0.7440 C.ar  1 <1>   0.1670 
 16 C        5.9110    -4.3730     0.1510 C.ar  1 <1>   0.1600 
 17 N        7.5380    -2.8010     0.9240 N.ar  1 <1>  -0.6200 
 18 C        6.9090    -0.5030     1.1330 C.3   1 <1>  -0.0970 
 19 C        7.1730    -4.0330     0.6110 C.ar  1 <1>   0.1600 
 20 H       -0.3270    -1.1150    -0.4560 H     1 <1>   0.0800 
 21 H       -0.7980     0.3820     2.6710 H     1 <1>   0.0800 
 22 H       -1.3860    -1.1930     2.1590 H     1 <1>   0.0800 
 23 H       -1.4640     0.1880     1.0550 H     1 <1>   0.0800 
 24 H        0.4320    -3.0560     1.6840 H     1 <1>   0.0800 
 25 H       -0.9010    -3.1300     0.5390 H     1 <1>   0.0800 
 26 H        2.8910    -2.3430     1.2300 H     1 <1>   0.0800 
 27 H        2.8000    -0.6140     1.3080 H     1 <1>   0.0800 
 28 H        1.2140    -0.2650    -2.1390 H     1 <1>   0.0800 
 29 H        1.8300     0.6680    -0.8070 H     1 <1>   0.0800 
 30 H        1.1850    -2.6600    -2.0880 H     1 <1>   0.0800 
 31 H        2.7300    -3.1390    -1.4390 H     1 <1>   0.0800 
 32 H        1.7250    -4.3080     0.3250 H     1 <1>   0.0800 
 33 H        0.4200    -4.4510    -0.8340 H     1 <1>   0.0800 
 34 H        3.4620     0.6330    -2.6410 H     1 <1>   0.0800 
 35 H        3.4890    -1.1020    -2.6300 H     1 <1>   0.0800 
 36 H        4.4580     0.7250    -0.4330 H     1 <1>   0.0800 
 37 H        5.4300    -0.3170    -1.4460 H     1 <1>   0.0800 
 38 H        5.7040    -5.4040    -0.0710 H     1 <1>   0.1500 
 39 H        6.0410     0.0120     1.5010 H     1 <1>   0.0800 
 40 H        7.3010     0.0180     0.2800 H     1 <1>   0.0800 
 41 H        7.6520    -0.5040     1.9100 H     1 <1>   0.0800 
 42 H        7.9090    -4.8070     0.7310 H     1 <1>   0.1500 
@<TRIPOS>BOND
  1   1   2  1   
  2   1   3  1   
  3   2   4  1   
  4   2   5  1   
  5   2  20  1   
  6   3  21  1   
  7   3  22  1   
  8   3  23  1   
  9   4   6  1   
 10   4   7  1   
 11   4   8  1   
 12   5   9  1   
 13   5  24  1   
 14   5  25  1   
 15   6  10  1   
 16   6  26  1   
 17   6  27  1   
 18   7  11  1   
 19   7  28  1   
 20   7  29  1   
 21   8   9  1   
 22   8  30  1   
 23   8  31  1   
 24   9  32  1   
 25   9  33  1   
 26  10  12  1   
 27  10  13  1   
 28  11  13  1   
 29  11  34  1   
 30  11  35  1   
 31  12  14  ar  
 32  12  15  ar  
 33  13  36  1   
 34  13  37  1   
 35  14  16  ar  
 36  15  17  ar  
 37  15  18  1   
 38  16  19  ar  
 39  16  38  1   
 40  17  19  ar  
 41  18  39  1   
 42  18  40  1   
 43  18  41  1   
 44  19  42  1   
@<TRIPOS>SUBSTRUCTURE
  1 ****   6 GROUP 4 **** **** 0

# MOE 2024.06 (io_trps.svl 2023.06)
