@<TRIPOS>MOLECULE
NONAME
40 42 1 0 0 
SMALL
USER_CHARGES


@<TRIPOS>ATOM
  1 O       -0.4090     0.0340     2.2360 O.2   1 <1>  -0.5700 
  2 C       -1.1540     0.7460     1.6040 C.2   1 <1>   0.5690 
  3 N       -2.0880     0.2200     0.7510 N.am  1 <1>  -0.6600 
  4 C       -1.0330     2.2380     1.8080 C.3   1 <1>   0.1570 
  5 C       -2.9870     0.9800    -0.1590 C.3   1 <1>   0.1400 
  6 C       -2.2600    -1.2390     0.5590 C.3   1 <1>   0.1400 
  7 N       -0.3590     2.8510     0.6570 N.pl3 1 <1>   0.3140 
  8 C       -3.6540    -0.0830    -1.0330 C.3   1 <1>   0.2000 
  9 C       -3.5520    -1.3860    -0.2440 C.3   1 <1>  -0.0800 
 10 N       -0.9600     3.7960    -0.0940 N.2   1 <1>  -0.7070 
 11 C        0.8880     2.5960     0.2120 C.2   1 <1>  -0.3020 
 12 O       -4.9830     0.2190    -1.2840 O.3   1 <1>  -0.6800 
 13 C       -3.5840    -2.6380    -1.1330 C.3   1 <1>   0.0210 
 14 C       -0.0800     4.1170    -0.9930 C.2   1 <1>   0.1390 
 15 C        1.1000     3.3970    -0.8540 C.2   1 <1>  -0.1500 
 16 C       -3.3670    -3.8930    -0.3100 C.2   1 <1>   0.1080 
 17 N       -4.2000    -4.2900     0.6000 N.2   1 <1>  -0.7070 
 18 C       -2.2680    -4.7380    -0.4220 C.2   1 <1>  -0.1500 
 19 N       -3.6500    -5.4130     1.0980 N.pl3 1 <1>   0.3000 
 20 C       -2.4770    -5.7040     0.4960 C.2   1 <1>  -0.3320 
 21 C       -1.6160    -6.9040     0.8420 C.3   1 <1>  -0.0600 
 22 H       -0.4550     2.4370     2.6900 H     1 <1>   0.0800 
 23 H       -2.0060     2.6750     1.9200 H     1 <1>   0.0800 
 24 H       -3.7180     1.5150     0.4210 H     1 <1>   0.0800 
 25 H       -2.4230     1.6630    -0.7710 H     1 <1>   0.0800 
 26 H       -1.4160    -1.6200     0.0090 H     1 <1>   0.0800 
 27 H       -2.3250    -1.7500     1.5060 H     1 <1>   0.0800 
 28 H       -3.1380    -0.1500    -1.9760 H     1 <1>   0.0800 
 29 H       -4.3570    -1.4430     0.4680 H     1 <1>   0.0800 
 30 H        1.5380     1.8720     0.6710 H     1 <1>   0.1500 
 31 H       -5.5090     0.1370    -0.4650 H     1 <1>   0.4000 
 32 H       -2.8260    -2.5740    -1.8920 H     1 <1>   0.0800 
 33 H       -4.5400    -2.7070    -1.6210 H     1 <1>   0.0800 
 34 H       -0.2540     4.8580    -1.7550 H     1 <1>   0.1500 
 35 H        1.9740     3.4820    -1.4750 H     1 <1>   0.1500 
 36 H       -1.4420    -4.6210    -1.1010 H     1 <1>   0.1500 
 37 H       -4.0970    -5.9560     1.8460 H     1 <1>   0.2700 
 38 H       -0.7350    -6.9170     0.2250 H     1 <1>   0.0800 
 39 H       -2.1630    -7.8150     0.6760 H     1 <1>   0.0800 
 40 H       -1.3110    -6.8590     1.8720 H     1 <1>   0.0800 
@<TRIPOS>BOND
  1   1   2  2   
  2   2   3  am  
  3   2   4  1   
  4   3   5  1   
  5   3   6  1   
  6   4   7  1   
  7   4  22  1   
  8   4  23  1   
  9   5   8  1   
 10   5  24  1   
 11   5  25  1   
 12   6   9  1   
 13   6  26  1   
 14   6  27  1   
 15   7  10  1   
 16   7  11  1   
 17   8   9  1   
 18   8  12  1   
 19   8  28  1   
 20   9  13  1   
 21   9  29  1   
 22  10  14  2   
 23  11  15  2   
 24  11  30  1   
 25  12  31  1   
 26  13  16  1   
 27  13  32  1   
 28  13  33  1   
 29  14  15  1   
 30  14  34  1   
 31  15  35  1   
 32  16  17  2   
 33  16  18  1   
 34  17  19  1   
 35  18  20  2   
 36  18  36  1   
 37  19  20  1   
 38  19  37  1   
 39  20  21  1   
 40  21  38  1   
 41  21  39  1   
 42  21  40  1   
@<TRIPOS>SUBSTRUCTURE
  1 ****   6 GROUP 4 **** **** 0

# MOE 2024.06 (io_trps.svl 2023.06)
