@<TRIPOS>MOLECULE
NONAME
35 36 1 0 0 
SMALL
USER_CHARGES


@<TRIPOS>ATOM
  1 O        2.1120     1.2450    -2.3790 O.2   1 <1>  -0.5700 
  2 C        2.0220     2.0970    -1.5270 C.2   1 <1>   0.5690 
  3 N        1.6550     3.3450    -1.9080 N.am  1 <1>  -0.8000 
  4 C        2.2620     1.7490    -0.0170 C.3   1 <1>   0.4300 
  5 N        2.5050     2.9330     0.8680 N.pl3 1 <1>  -0.8690 
  6 C        3.3660     0.7130     0.2390 C.3   1 <1>  -0.1600 
  7 C        1.0390     1.0290     0.5640 C.3   1 <1>  -0.1600 
  8 C        3.2530     3.9870     0.4900 C.ar  1 <1>   0.7200 
  9 C        3.0410     0.0660     1.5910 C.3   1 <1>  -0.1600 
 10 C        1.5320     0.2480     1.7900 C.3   1 <1>  -0.1600 
 11 N        2.6420     5.1510     0.6390 N.ar  1 <1>  -0.6200 
 12 N        4.4550     3.7640    -0.0180 N.ar  1 <1>  -0.6200 
 13 C        3.3310     6.2030     0.2710 C.ar  1 <1>   0.1670 
 14 C        5.1240     4.8260    -0.3860 C.ar  1 <1>   0.1670 
 15 C        4.5970     6.0900    -0.2570 C.ar  1 <1>  -0.1500 
 16 C        2.6720     7.5540     0.4500 C.3   1 <1>  -0.0970 
 17 C        6.5050     4.6000    -0.9620 C.3   1 <1>  -0.0970 
 18 H        1.5540     3.5640    -2.8980 H     1 <1>   0.3700 
 19 H        1.7000     4.1340    -1.2550 H     1 <1>   0.3700 
 20 H        1.6600     3.2430     1.3360 H     1 <1>   0.4000 
 21 H        4.3490     1.1470     0.2190 H     1 <1>   0.0800 
 22 H        3.3200    -0.0460    -0.5230 H     1 <1>   0.0800 
 23 H        0.6820     0.3220    -0.1660 H     1 <1>   0.0800 
 24 H        0.2370     1.7050     0.7960 H     1 <1>   0.0800 
 25 H        3.5720     0.5850     2.3710 H     1 <1>   0.0800 
 26 H        3.3250    -0.9720     1.6030 H     1 <1>   0.0800 
 27 H        1.0270    -0.6990     1.8730 H     1 <1>   0.0800 
 28 H        1.3560     0.8190     2.6860 H     1 <1>   0.0800 
 29 H        5.1540     6.9570    -0.5570 H     1 <1>   0.1500 
 30 H        1.7600     7.5900    -0.1180 H     1 <1>   0.0800 
 31 H        3.3190     8.3470     0.1210 H     1 <1>   0.0800 
 32 H        2.4390     7.7050     1.4880 H     1 <1>   0.0800 
 33 H        6.4310     3.9750    -1.8340 H     1 <1>   0.0800 
 34 H        7.1200     4.1040    -0.2340 H     1 <1>   0.0800 
 35 H        6.9680     5.5290    -1.2360 H     1 <1>   0.0800 
@<TRIPOS>BOND
  1   1   2  2   
  2   2   3  am  
  3   2   4  1   
  4   3  18  1   
  5   3  19  1   
  6   4   5  1   
  7   4   6  1   
  8   4   7  1   
  9   5   8  1   
 10   5  20  1   
 11   6   9  1   
 12   6  21  1   
 13   6  22  1   
 14   7  10  1   
 15   7  23  1   
 16   7  24  1   
 17   8  11  ar  
 18   8  12  ar  
 19   9  10  1   
 20   9  25  1   
 21   9  26  1   
 22  10  27  1   
 23  10  28  1   
 24  11  13  ar  
 25  12  14  ar  
 26  13  15  ar  
 27  13  16  1   
 28  14  15  ar  
 29  14  17  1   
 30  15  29  1   
 31  16  30  1   
 32  16  31  1   
 33  16  32  1   
 34  17  33  1   
 35  17  34  1   
 36  17  35  1   
@<TRIPOS>SUBSTRUCTURE
  1 ****   8 GROUP 4 **** **** 0

# MOE 2024.06 (io_trps.svl 2023.06)
