@<TRIPOS>MOLECULE
NONAME
61 64 1 0 0 
SMALL
USER_CHARGES


@<TRIPOS>ATOM
  1 O        0.0400     0.4560    -1.2510 O.3   1 <1>  -0.5600 
  2 C        1.4050     0.1260    -1.3580 C.3   1 <1>   0.2000 
  3 C       -0.2390     1.8160    -1.0940 C.3   1 <1>   0.1200 
  4 C        2.2100     0.6560    -0.1400 C.3   1 <1>   0.5660 
  5 C        1.5320    -1.4030    -1.4610 C.3   1 <1>   0.1200 
  6 C        0.4090     2.3410     0.1980 C.3   1 <1>   0.3430 
  7 N        1.8820     2.0730     0.2170 N.4   1 <1>  -0.9590 
  8 C        3.7080     0.5970    -0.4000 C.ar  1 <1>  -0.1440 
  9 O        1.3120    -1.9910    -0.2170 O.3   1 <1>  -0.6800 
 10 C        2.5080     2.4770     1.4990 C.3   1 <1>   0.4870 
 11 C        4.4990    -0.2290     0.3860 C.ar  1 <1>  -0.1500 
 12 C        4.3070     1.3680    -1.3900 C.ar  1 <1>  -0.1500 
 13 C        2.6410     3.9840     1.4640 C.ar  1 <1>  -0.1440 
 14 C        5.8710    -0.2730     0.2090 C.ar  1 <1>   0.0820 
 15 C        5.6790     1.3390    -1.5620 C.ar  1 <1>  -0.1500 
 16 C        3.5890     4.5560     0.6300 C.ar  1 <1>  -0.1500 
 17 C        1.8340     4.8000     2.2410 C.ar  1 <1>  -0.1500 
 18 O        6.5660    -1.1260     0.9990 O.3   1 <1>  -0.3620 
 19 C        6.4730     0.5460    -0.7530 C.ar  1 <1>   0.0820 
 20 C        3.7360     5.9330     0.5530 C.ar  1 <1>  -0.1440 
 21 C        1.9730     6.1750     2.1710 C.ar  1 <1>  -0.1500 
 22 C        7.2330    -2.1880     0.3500 C.3   1 <1>   0.0400 
 23 O        7.8140     0.6210    -0.9370 O.3   1 <1>  -0.3630 
 24 C        2.9170     6.7380     1.3300 C.ar  1 <1>  -0.1500 
 25 C        4.7720     6.5710    -0.3760 C.3   1 <1>   0.2390 
 26 C        8.5780     1.0870     0.1550 C.3   1 <1>   0.0400 
 27 N        6.0140     5.7690    -0.4760 N.pl3 1 <1>   0.3140 
 28 N        6.2040     4.8550    -1.4520 N.2   1 <1>  -0.7070 
 29 C        7.0810     5.8310     0.3460 C.2   1 <1>  -0.3020 
 30 C        7.3900     4.3720    -1.2280 C.2   1 <1>   0.1390 
 31 C        7.9880     4.9430    -0.1130 C.2   1 <1>  -0.1500 
 32 H        1.7700     0.5640    -2.2700 H     1 <1>   0.0800 
 33 H        0.1190     2.3500    -1.9580 H     1 <1>   0.0800 
 34 H       -1.3080     1.9250    -1.0420 H     1 <1>   0.0800 
 35 H        1.9780     0.0230     0.7010 H     1 <1>   0.0800 
 36 H        2.5210    -1.6800    -1.7850 H     1 <1>   0.0800 
 37 H        0.8100    -1.7880    -2.1620 H     1 <1>   0.0800 
 38 H       -0.0630     1.8530     1.0350 H     1 <1>   0.0800 
 39 H        0.2280     3.4010     0.2850 H     1 <1>   0.0800 
 40 H        2.3290     2.6610    -0.4930 H     1 <1>   0.4500 
 41 H        1.1500    -2.9540    -0.3140 H     1 <1>   0.4000 
 42 H        1.9090     2.1610     2.3370 H     1 <1>   0.0800 
 43 H        3.4930     2.0460     1.5940 H     1 <1>   0.0800 
 44 H        4.0660    -0.8580     1.1460 H     1 <1>   0.1500 
 45 H        3.7340     2.0080    -2.0390 H     1 <1>   0.1500 
 46 H        6.1430     1.9450    -2.3210 H     1 <1>   0.1500 
 47 H        4.2280     3.9210     0.0360 H     1 <1>   0.1500 
 48 H        1.0970     4.3840     2.9070 H     1 <1>   0.1500 
 49 H        1.3480     6.8120     2.7750 H     1 <1>   0.1500 
 50 H        7.6610    -2.8250     1.1030 H     1 <1>   0.0800 
 51 H        8.0110    -1.7930    -0.2780 H     1 <1>   0.0800 
 52 H        6.5210    -2.7390    -0.2380 H     1 <1>   0.0800 
 53 H        3.0080     7.8110     1.2910 H     1 <1>   0.1500 
 54 H        5.0350     7.5500    -0.0230 H     1 <1>   0.0800 
 55 H        4.3580     6.6670    -1.3630 H     1 <1>   0.0800 
 56 H        9.5790     1.2740    -0.1900 H     1 <1>   0.0800 
 57 H        8.5940     0.3380     0.9260 H     1 <1>   0.0800 
 58 H        8.1400     1.9960     0.5270 H     1 <1>   0.0800 
 59 H        7.1360     6.4900     1.1930 H     1 <1>   0.1500 
 60 H        7.8510     3.6140    -1.8410 H     1 <1>   0.1500 
 61 H        8.9640     4.7110     0.2740 H     1 <1>   0.1500 
@<TRIPOS>BOND
  1   1   2  1   
  2   1   3  1   
  3   2   4  1   
  4   2   5  1   
  5   2  32  1   
  6   3   6  1   
  7   3  33  1   
  8   3  34  1   
  9   4   7  1   
 10   4   8  1   
 11   4  35  1   
 12   5   9  1   
 13   5  36  1   
 14   5  37  1   
 15   6   7  1   
 16   6  38  1   
 17   6  39  1   
 18   7  10  1   
 19   7  40  1   
 20   8  11  ar  
 21   8  12  ar  
 22   9  41  1   
 23  10  13  1   
 24  10  42  1   
 25  10  43  1   
 26  11  14  ar  
 27  11  44  1   
 28  12  15  ar  
 29  12  45  1   
 30  13  16  ar  
 31  13  17  ar  
 32  14  18  1   
 33  14  19  ar  
 34  15  19  ar  
 35  15  46  1   
 36  16  20  ar  
 37  16  47  1   
 38  17  21  ar  
 39  17  48  1   
 40  18  22  1   
 41  19  23  1   
 42  20  24  ar  
 43  20  25  1   
 44  21  24  ar  
 45  21  49  1   
 46  22  50  1   
 47  22  51  1   
 48  22  52  1   
 49  23  26  1   
 50  24  53  1   
 51  25  27  1   
 52  25  54  1   
 53  25  55  1   
 54  26  56  1   
 55  26  57  1   
 56  26  58  1   
 57  27  28  1   
 58  27  29  1   
 59  28  30  2   
 60  29  31  2   
 61  29  59  1   
 62  30  31  1   
 63  30  60  1   
 64  31  61  1   
@<TRIPOS>SUBSTRUCTURE
  1 ****  12 GROUP 4 **** **** 0

# MOE 2024.06 (io_trps.svl 2023.06)
