@<TRIPOS>MOLECULE
NONAME
48 49 1 0 0 
SMALL
USER_CHARGES


@<TRIPOS>ATOM
  1 CL       2.2220    -5.4340    -3.9270 Cl    1 <1>  -0.1770 
  2 C        2.1920    -5.1290    -2.2060 C.ar  1 <1>   0.1770 
  3 C        3.2400    -5.5350    -1.3960 C.ar  1 <1>   0.1770 
  4 C        1.0940    -4.4890    -1.6630 C.ar  1 <1>  -0.1500 
  5 CL       4.6220    -6.3670    -2.0710 Cl    1 <1>  -0.1770 
  6 C        3.2040    -5.2980    -0.0340 C.ar  1 <1>  -0.1500 
  7 C        1.0400    -4.2650    -0.2950 C.ar  1 <1>   0.0830 
  8 C        2.1030    -4.6600     0.5180 C.ar  1 <1>  -0.1500 
  9 O       -0.0830    -3.6730     0.1820 O.3   1 <1>  -0.3630 
 10 C       -0.5090    -3.8850     1.5240 C.3   1 <1>   0.1810 
 11 C       -0.6200    -5.3730     1.8750 C.2   1 <1>   0.5690 
 12 O       -0.1190    -5.7300     2.9140 O.2   1 <1>  -0.5700 
 13 N       -1.2450    -6.2900     1.0660 N.am  1 <1>  -0.6600 
 14 C       -0.7690    -7.7160     1.1790 C.3   1 <1>   0.3210 
 15 C       -2.2460    -5.9240     0.0000 C.3   1 <1>   0.1400 
 16 C       -1.1230    -8.6060    -0.0120 C.2   1 <1>   0.0460 
 17 C       -3.7160    -6.0120     0.4710 C.3   1 <1>   0.3430 
 18 N       -2.3430    -9.1790    -0.1240 N.2   1 <1>  -0.5650 
 19 C       -0.3350    -8.9440    -1.0590 C.2   1 <1>  -0.3320 
 20 N       -4.0410    -7.2690     1.2190 N.4   1 <1>  -0.9590 
 21 C       -2.2610    -9.8640    -1.2210 C.2   1 <1>   0.0360 
 22 N       -1.0670    -9.7610    -1.8380 N.pl3 1 <1>   0.0330 
 23 C        1.0960    -8.5600    -1.4020 C.3   1 <1>  -0.0600 
 24 C       -5.4220    -7.7510     0.9360 C.3   1 <1>   0.2630 
 25 C       -3.8050    -7.1400     2.6900 C.3   1 <1>   0.2630 
 26 H        0.2870    -4.1730    -2.2970 H     1 <1>   0.1500 
 27 H        4.0260    -5.6100     0.5860 H     1 <1>   0.1500 
 28 H        2.0920    -4.4790     1.5780 H     1 <1>   0.1500 
 29 H       -1.4650    -3.4120     1.6420 H     1 <1>   0.0800 
 30 H        0.1930    -3.4020     2.1790 H     1 <1>   0.0800 
 31 H       -1.1710    -8.1570     2.0720 H     1 <1>   0.0800 
 32 H        0.3020    -7.7110     1.2900 H     1 <1>   0.0800 
 33 H       -2.1130    -6.5420    -0.8700 H     1 <1>   0.0800 
 34 H       -2.0780    -4.9200    -0.3370 H     1 <1>   0.0800 
 35 H       -4.3410    -5.9470    -0.4040 H     1 <1>   0.0800 
 36 H       -3.9410    -5.1590     1.0880 H     1 <1>   0.0800 
 37 H       -3.3840    -7.9960     0.8490 H     1 <1>   0.4500 
 38 H       -3.0540   -10.4700    -1.6250 H     1 <1>   0.1500 
 39 H       -0.7770   -10.2180    -2.7090 H     1 <1>   0.2700 
 40 H        1.4960    -7.8820    -0.6710 H     1 <1>   0.0800 
 41 H        1.1340    -8.0810    -2.3640 H     1 <1>   0.0800 
 42 H        1.7210    -9.4360    -1.4280 H     1 <1>   0.0800 
 43 H       -6.1490    -7.0340     1.2790 H     1 <1>   0.0800 
 44 H       -5.5950    -8.6900     1.4370 H     1 <1>   0.0800 
 45 H       -5.5520    -7.9030    -0.1230 H     1 <1>   0.0800 
 46 H       -4.4810    -6.4180     3.1170 H     1 <1>   0.0800 
 47 H       -2.7940    -6.8220     2.8850 H     1 <1>   0.0800 
 48 H       -3.9610    -8.0900     3.1750 H     1 <1>   0.0800 
@<TRIPOS>BOND
  1   1   2  1   
  2   2   3  ar  
  3   2   4  ar  
  4   3   5  1   
  5   3   6  ar  
  6   4   7  ar  
  7   4  26  1   
  8   6   8  ar  
  9   6  27  1   
 10   7   8  ar  
 11   7   9  1   
 12   8  28  1   
 13   9  10  1   
 14  10  11  1   
 15  10  29  1   
 16  10  30  1   
 17  11  12  2   
 18  11  13  am  
 19  13  14  1   
 20  13  15  1   
 21  14  16  1   
 22  14  31  1   
 23  14  32  1   
 24  15  17  1   
 25  15  33  1   
 26  15  34  1   
 27  16  18  1   
 28  16  19  2   
 29  17  20  1   
 30  17  35  1   
 31  17  36  1   
 32  18  21  2   
 33  19  22  1   
 34  19  23  1   
 35  20  24  1   
 36  20  25  1   
 37  20  37  1   
 38  21  22  1   
 39  21  38  1   
 40  22  39  1   
 41  23  40  1   
 42  23  41  1   
 43  23  42  1   
 44  24  43  1   
 45  24  44  1   
 46  24  45  1   
 47  25  46  1   
 48  25  47  1   
 49  25  48  1   
@<TRIPOS>SUBSTRUCTURE
  1 ****  13 GROUP 4 **** **** 0

# MOE 2024.06 (io_trps.svl 2023.06)
