@<TRIPOS>MOLECULE
NONAME
56 58 1 0 0 
SMALL
USER_CHARGES


@<TRIPOS>ATOM
  1 O       -1.4820     2.3320     2.3530 O.2   1 <1>  -0.5700 
  2 C       -1.0640     2.2980     1.2210 C.2   1 <1>   0.5690 
  3 N       -1.7440     1.8670     0.1360 N.am  1 <1>  -0.6600 
  4 C        0.3200     2.7440     0.8410 C.3   1 <1>  -0.0990 
  5 C       -0.9590     1.9570    -1.1070 C.3   1 <1>   0.1400 
  6 C       -3.1290     1.3470     0.1490 C.3   1 <1>   0.1400 
  7 C        0.2920     2.7490    -0.6970 C.3   1 <1>  -0.1600 
  8 C       -3.1310    -0.1470    -0.1810 C.3   1 <1>  -0.1600 
  9 C       -4.5290    -0.7630     0.0080 C.3   1 <1>  -0.0990 
 10 C       -4.6000    -2.2510    -0.3210 C.2   1 <1>   0.5690 
 11 O       -3.7550    -2.7190    -1.0470 O.2   1 <1>  -0.5700 
 12 N       -5.6110    -3.0270     0.1860 N.am  1 <1>  -0.6600 
 13 C       -5.6200    -4.5130    -0.0070 C.3   1 <1>   0.1400 
 14 C       -6.8330    -2.5280     0.8900 C.3   1 <1>   0.1400 
 15 C       -6.9610    -4.9920    -0.5850 C.3   1 <1>   0.3430 
 16 C       -8.1200    -3.1200     0.2670 C.3   1 <1>   0.2000 
 17 O       -8.0170    -4.5150     0.2070 O.3   1 <1>  -0.5600 
 18 C       -7.0120    -6.5170    -0.6420 C.ar  1 <1>  -0.1440 
 19 C       -9.4010    -2.7690     1.0620 C.3   1 <1>  -0.0800 
 20 C       -7.4620    -7.2680     0.4360 C.ar  1 <1>  -0.1500 
 21 C       -6.5870    -7.1740    -1.7880 C.ar  1 <1>  -0.1500 
 22 C      -10.6490    -3.4020     0.4230 C.3   1 <1>  -0.2400 
 23 C       -9.6250    -1.2510     1.1740 C.3   1 <1>  -0.2400 
 24 C       -7.4870    -8.6500     0.3690 C.ar  1 <1>  -0.1500 
 25 C       -6.6110    -8.5560    -1.8570 C.ar  1 <1>  -0.1500 
 26 C       -7.0600    -9.2960    -0.7770 C.ar  1 <1>  -0.1500 
 27 H        0.5280     3.7180     1.2440 H     1 <1>   0.0800 
 28 H        1.0280     2.0290     1.2160 H     1 <1>   0.0800 
 29 H       -0.6940     0.9670    -1.4370 H     1 <1>   0.0800 
 30 H       -1.5140     2.4670    -1.8750 H     1 <1>   0.0800 
 31 H       -3.5500     1.5030     1.1290 H     1 <1>   0.0800 
 32 H       -3.7220     1.8920    -0.5640 H     1 <1>   0.0800 
 33 H        1.1830     2.3180    -1.1180 H     1 <1>   0.0800 
 34 H        0.1950     3.7590    -1.0540 H     1 <1>   0.0800 
 35 H       -2.8130    -0.2880    -1.1990 H     1 <1>   0.0800 
 36 H       -2.4370    -0.6540     0.4670 H     1 <1>   0.0800 
 37 H       -5.2340    -0.2510    -0.6200 H     1 <1>   0.0800 
 38 H       -4.8170    -0.6240     1.0330 H     1 <1>   0.0800 
 39 H       -4.8280    -4.8200    -0.6670 H     1 <1>   0.0800 
 40 H       -5.4560    -4.9940     0.9410 H     1 <1>   0.0800 
 41 H       -6.7820    -2.8080     1.9280 H     1 <1>   0.0800 
 42 H       -6.8850    -1.4570     0.8350 H     1 <1>   0.0800 
 43 H       -7.0880    -4.5970    -1.5780 H     1 <1>   0.0800 
 44 H       -8.2270    -2.7530    -0.7390 H     1 <1>   0.0800 
 45 H       -9.2960    -3.1660     2.0580 H     1 <1>   0.0800 
 46 H       -7.7990    -6.7750     1.3320 H     1 <1>   0.1500 
 47 H       -6.2330    -6.6130    -2.6350 H     1 <1>   0.1500 
 48 H      -10.7810    -3.0500    -0.5850 H     1 <1>   0.0800 
 49 H      -11.5290    -3.1600     0.9920 H     1 <1>   0.0800 
 50 H      -10.5570    -4.4750     0.3980 H     1 <1>   0.0800 
 51 H       -9.6660    -0.8010     0.1980 H     1 <1>   0.0800 
 52 H       -8.8420    -0.7840     1.7430 H     1 <1>   0.0800 
 53 H      -10.5550    -1.0510     1.6780 H     1 <1>   0.0800 
 54 H       -7.8390    -9.2220     1.2100 H     1 <1>   0.1500 
 55 H       -6.2790    -9.0560    -2.7500 H     1 <1>   0.1500 
 56 H       -7.0800   -10.3700    -0.8300 H     1 <1>   0.1500 
@<TRIPOS>BOND
  1   1   2  2   
  2   2   3  am  
  3   2   4  1   
  4   3   5  1   
  5   3   6  1   
  6   4   7  1   
  7   4  27  1   
  8   4  28  1   
  9   5   7  1   
 10   5  29  1   
 11   5  30  1   
 12   6   8  1   
 13   6  31  1   
 14   6  32  1   
 15   7  33  1   
 16   7  34  1   
 17   8   9  1   
 18   8  35  1   
 19   8  36  1   
 20   9  10  1   
 21   9  37  1   
 22   9  38  1   
 23  10  11  2   
 24  10  12  am  
 25  12  13  1   
 26  12  14  1   
 27  13  15  1   
 28  13  39  1   
 29  13  40  1   
 30  14  16  1   
 31  14  41  1   
 32  14  42  1   
 33  15  17  1   
 34  15  18  1   
 35  15  43  1   
 36  16  17  1   
 37  16  19  1   
 38  16  44  1   
 39  18  20  ar  
 40  18  21  ar  
 41  19  22  1   
 42  19  23  1   
 43  19  45  1   
 44  20  24  ar  
 45  20  46  1   
 46  21  25  ar  
 47  21  47  1   
 48  22  48  1   
 49  22  49  1   
 50  22  50  1   
 51  23  51  1   
 52  23  52  1   
 53  23  53  1   
 54  24  26  ar  
 55  24  54  1   
 56  25  26  ar  
 57  25  55  1   
 58  26  56  1   
@<TRIPOS>SUBSTRUCTURE
  1 ****  12 GROUP 4 **** **** 0

# MOE 2024.06 (io_trps.svl 2023.06)
