@<TRIPOS>MOLECULE
NONAME
55 58 1 0 0 
SMALL
USER_CHARGES


@<TRIPOS>ATOM
  1 O       -1.9380     0.4790    -1.8430 O.2   1 <1>  -0.5700 
  2 C       -1.9630     0.9350    -0.7160 C.2   1 <1>   0.5440 
  3 N       -2.1710     0.0650     0.3180 N.am  1 <1>  -0.7300 
  4 C       -1.7740     2.3530    -0.4750 C.ar  1 <1>   0.0860 
  5 C       -2.3680    -1.3950     0.1740 C.3   1 <1>   0.2200 
  6 C       -1.1190     3.1590    -1.4100 C.ar  1 <1>  -0.1500 
  7 C       -2.2310     2.9800     0.6880 C.ar  1 <1>  -0.1500 
  8 C       -3.8500    -1.7090     0.2860 C.3   1 <1>  -0.0800 
  9 C       -1.8040    -2.1130     1.3950 C.3   1 <1>   0.1200 
 10 C       -0.9140     4.5100    -1.2060 C.ar  1 <1>  -0.1430 
 11 C       -2.0310     4.3280     0.9030 C.ar  1 <1>  -0.1500 
 12 C       -4.0490    -1.7830     1.8040 C.3   1 <1>   0.1200 
 13 C       -4.2010    -3.0340    -0.4160 C.3   1 <1>  -0.0160 
 14 O       -2.8010    -2.0630     2.3720 O.3   1 <1>  -0.5600 
 15 C       -1.3700     5.1140    -0.0340 C.ar  1 <1>   0.1000 
 16 C       -0.1910     5.3350    -2.2610 C.3   1 <1>  -0.0970 
 17 C       -5.6910    -3.3280    -0.3330 C.ar  1 <1>  -0.1430 
 18 N       -1.1780     6.4670     0.1980 N.pl3 1 <1>  -0.8380 
 19 C       -6.6060    -2.6470    -1.1100 C.ar  1 <1>  -0.1500 
 20 C       -6.2060    -4.2860     0.5170 C.ar  1 <1>  -0.1500 
 21 C       -0.2520     6.8610     1.2970 C.3   1 <1>   0.2090 
 22 C       -2.3710     7.3560     0.1100 C.3   1 <1>   0.2090 
 23 C       -7.9540    -2.9440    -0.9980 C.ar  1 <1>   0.1600 
 24 C       -7.5730    -4.5060     0.5520 C.ar  1 <1>   0.1600 
 25 C        0.0570     8.3680     1.2340 C.3   1 <1>   0.1200 
 26 C       -1.9470     8.8360     0.1120 C.3   1 <1>   0.1200 
 27 N       -8.4600    -3.8560    -0.1840 N.ar  1 <1>  -0.6200 
 28 O       -1.1250     9.1230     1.2110 O.3   1 <1>  -0.5600 
 29 H       -2.1680     0.3990     1.2820 H     1 <1>   0.3700 
 30 H       -1.9260    -1.7450    -0.7440 H     1 <1>   0.0800 
 31 H       -0.7670     2.6980    -2.3170 H     1 <1>   0.1500 
 32 H       -2.7560     2.4100     1.4310 H     1 <1>   0.1500 
 33 H       -4.4450    -0.9230    -0.1440 H     1 <1>   0.0800 
 34 H       -0.9050    -1.6540     1.7680 H     1 <1>   0.0800 
 35 H       -1.6170    -3.1490     1.1730 H     1 <1>   0.0800 
 36 H       -2.3900     4.7900     1.8030 H     1 <1>   0.1500 
 37 H       -4.7480    -2.5430     2.1040 H     1 <1>   0.0800 
 38 H       -4.3720    -0.8310     2.1890 H     1 <1>   0.0800 
 39 H       -3.6470    -3.8480     0.0200 H     1 <1>   0.0800 
 40 H       -3.9210    -2.9710    -1.4540 H     1 <1>   0.0800 
 41 H        0.1060     4.7280    -3.0970 H     1 <1>   0.0800 
 42 H        0.6860     5.7840    -1.8310 H     1 <1>   0.0800 
 43 H       -0.8380     6.1170    -2.6140 H     1 <1>   0.0800 
 44 H       -6.2840    -1.8890    -1.8000 H     1 <1>   0.1500 
 45 H       -5.5590    -4.8640     1.1520 H     1 <1>   0.1500 
 46 H       -0.7000     6.6310     2.2480 H     1 <1>   0.0800 
 47 H        0.6620     6.3010     1.2100 H     1 <1>   0.0800 
 48 H       -2.9120     7.1360    -0.7940 H     1 <1>   0.0800 
 49 H       -3.0220     7.1720     0.9460 H     1 <1>   0.0800 
 50 H       -8.6540    -2.4020    -1.6110 H     1 <1>   0.1500 
 51 H       -7.9570    -5.2570     1.2220 H     1 <1>   0.1500 
 52 H        0.6270     8.5940     0.3500 H     1 <1>   0.0800 
 53 H        0.6220     8.6680     2.0980 H     1 <1>   0.0800 
 54 H       -2.8130     9.4700     0.1750 H     1 <1>   0.0800 
 55 H       -1.4100     9.0710    -0.7900 H     1 <1>   0.0800 
@<TRIPOS>BOND
  1   1   2  2   
  2   2   3  am  
  3   2   4  1   
  4   3   5  1   
  5   3  29  1   
  6   4   6  ar  
  7   4   7  ar  
  8   5   8  1   
  9   5   9  1   
 10   5  30  1   
 11   6  10  ar  
 12   6  31  1   
 13   7  11  ar  
 14   7  32  1   
 15   8  12  1   
 16   8  13  1   
 17   8  33  1   
 18   9  14  1   
 19   9  34  1   
 20   9  35  1   
 21  10  15  ar  
 22  10  16  1   
 23  11  15  ar  
 24  11  36  1   
 25  12  14  1   
 26  12  37  1   
 27  12  38  1   
 28  13  17  1   
 29  13  39  1   
 30  13  40  1   
 31  15  18  1   
 32  16  41  1   
 33  16  42  1   
 34  16  43  1   
 35  17  19  ar  
 36  17  20  ar  
 37  18  21  1   
 38  18  22  1   
 39  19  23  ar  
 40  19  44  1   
 41  20  24  ar  
 42  20  45  1   
 43  21  25  1   
 44  21  46  1   
 45  21  47  1   
 46  22  26  1   
 47  22  48  1   
 48  22  49  1   
 49  23  27  ar  
 50  23  50  1   
 51  24  27  ar  
 52  24  51  1   
 53  25  28  1   
 54  25  52  1   
 55  25  53  1   
 56  26  28  1   
 57  26  54  1   
 58  26  55  1   
@<TRIPOS>SUBSTRUCTURE
  1 ****   2 GROUP 4 **** **** 0

# MOE 2024.06 (io_trps.svl 2023.06)
