@<TRIPOS>MOLECULE
NONAME
63 67 1 0 0 
SMALL
USER_CHARGES


@<TRIPOS>ATOM
  1 O       -0.3370     0.0540    -0.8540 O.3   1 <1>  -0.5600 
  2 C       -0.0040     1.2390    -1.4910 C.3   1 <1>   0.1200 
  3 C       -1.7060     0.0760    -0.5690 C.3   1 <1>   0.1200 
  4 C       -0.7310     2.2740    -0.6370 C.3   1 <1>   0.4230 
  5 C       -2.0850     1.5670    -0.5230 C.3   1 <1>  -0.0800 
  6 N       -0.0660     2.3150     0.7040 N.4   1 <1>  -0.9060 
  7 C       -3.0010     1.9450     0.6610 C.3   1 <1>  -0.0170 
  8 C        0.9870     3.3260     1.0020 C.3   1 <1>   0.4230 
  9 C       -4.3310     1.2060     0.5640 C.ar  1 <1>  -0.1440 
 10 C        0.4140     4.7430     0.9650 C.3   1 <1>  -0.1600 
 11 C        2.1920     3.2200     0.0670 C.3   1 <1>  -0.1600 
 12 C       -5.3560     1.5960    -0.3320 C.ar  1 <1>   0.0000 
 13 C       -4.5660     0.1160     1.3530 C.ar  1 <1>  -0.1500 
 14 C        1.4920     5.7660     1.3360 C.3   1 <1>   0.3430 
 15 C        3.2580     4.2460     0.4580 C.3   1 <1>   0.3430 
 16 C       -6.5320     0.8070    -0.3690 C.ar  1 <1>   0.3100 
 17 C       -5.2910     2.7200    -1.1900 C.ar  1 <1>  -0.1500 
 18 C       -5.7720    -0.5860     1.2470 C.ar  1 <1>   0.1600 
 19 N        2.6790     5.6260     0.4340 N.4   1 <1>  -0.9590 
 20 N       -6.7210    -0.2760     0.4250 N.ar  1 <1>  -0.6200 
 21 C       -7.5580     1.1520    -1.2620 C.ar  1 <1>  -0.1500 
 22 C       -6.3110     3.0310    -2.0480 C.ar  1 <1>  -0.1500 
 23 C        3.7300     6.6420     0.7610 C.3   1 <1>   0.4230 
 24 C       -7.4580     2.2370    -2.0890 C.ar  1 <1>  -0.1500 
 25 C        3.1720     8.0670     0.7270 C.3   1 <1>  -0.1600 
 26 C        4.8720     6.6320    -0.2670 C.3   1 <1>  -0.1600 
 27 C        4.3490     8.9390     0.3040 C.3   1 <1>  -0.1600 
 28 C        5.1010     8.0820    -0.7060 C.3   1 <1>  -0.1600 
 29 H        1.0650     1.3430    -1.5200 H     1 <1>   0.0800 
 30 H       -0.3900     1.2070    -2.4980 H     1 <1>   0.0800 
 31 H       -2.2340    -0.4450    -1.3520 H     1 <1>   0.0800 
 32 H       -1.8630    -0.4300     0.3680 H     1 <1>   0.0800 
 33 H       -0.8020     3.2450    -1.0980 H     1 <1>   0.0800 
 34 H       -2.6280     1.7690    -1.4310 H     1 <1>   0.0800 
 35 H       -0.7980     2.3720     1.4180 H     1 <1>   0.4500 
 36 H        0.3170     1.3560     0.8050 H     1 <1>   0.4500 
 37 H       -3.1860     3.0050     0.6800 H     1 <1>   0.0800 
 38 H       -2.5400     1.6830     1.5960 H     1 <1>   0.0800 
 39 H        1.3410     3.1430     2.0060 H     1 <1>   0.0800 
 40 H        0.0310     4.9840    -0.0110 H     1 <1>   0.0800 
 41 H       -0.3900     4.8310     1.6750 H     1 <1>   0.0800 
 42 H        2.6270     2.2380     0.1420 H     1 <1>   0.0800 
 43 H        1.9130     3.3980    -0.9560 H     1 <1>   0.0800 
 44 H       -3.8490    -0.2420     2.0690 H     1 <1>   0.1500 
 45 H        1.7970     5.6190     2.3600 H     1 <1>   0.0800 
 46 H        1.0790     6.7600     1.2540 H     1 <1>   0.0800 
 47 H        4.0860     4.1770    -0.2300 H     1 <1>   0.0800 
 48 H        3.6330     4.0260     1.4460 H     1 <1>   0.0800 
 49 H       -4.4280     3.3550    -1.1750 H     1 <1>   0.1500 
 50 H       -5.9190    -1.4400     1.8870 H     1 <1>   0.1500 
 51 H        2.3970     5.8560    -0.5290 H     1 <1>   0.4500 
 52 H       -8.4340     0.5290    -1.2730 H     1 <1>   0.1500 
 53 H       -6.2510     3.8870    -2.6980 H     1 <1>   0.1500 
 54 H        4.1440     6.4570     1.7400 H     1 <1>   0.0800 
 55 H       -8.2540     2.4890    -2.7690 H     1 <1>   0.1500 
 56 H        2.4020     8.1620    -0.0190 H     1 <1>   0.0800 
 57 H        2.7970     8.3800     1.6860 H     1 <1>   0.0800 
 58 H        5.7660     6.2610     0.2050 H     1 <1>   0.0800 
 59 H        4.6590     6.0340    -1.1350 H     1 <1>   0.0800 
 60 H        4.0320     9.8770    -0.1200 H     1 <1>   0.0800 
 61 H        4.9830     9.1380     1.1530 H     1 <1>   0.0800 
 62 H        6.1480     8.3360    -0.7390 H     1 <1>   0.0800 
 63 H        4.6810     8.2370    -1.6870 H     1 <1>   0.0800 
@<TRIPOS>BOND
  1   1   2  1   
  2   1   3  1   
  3   2   4  1   
  4   2  29  1   
  5   2  30  1   
  6   3   5  1   
  7   3  31  1   
  8   3  32  1   
  9   4   5  1   
 10   4   6  1   
 11   4  33  1   
 12   5   7  1   
 13   5  34  1   
 14   6   8  1   
 15   6  35  1   
 16   6  36  1   
 17   7   9  1   
 18   7  37  1   
 19   7  38  1   
 20   8  10  1   
 21   8  11  1   
 22   8  39  1   
 23   9  12  ar  
 24   9  13  ar  
 25  10  14  1   
 26  10  40  1   
 27  10  41  1   
 28  11  15  1   
 29  11  42  1   
 30  11  43  1   
 31  12  16  ar  
 32  12  17  ar  
 33  13  18  ar  
 34  13  44  1   
 35  14  19  1   
 36  14  45  1   
 37  14  46  1   
 38  15  19  1   
 39  15  47  1   
 40  15  48  1   
 41  16  20  ar  
 42  16  21  ar  
 43  17  22  ar  
 44  17  49  1   
 45  18  20  ar  
 46  18  50  1   
 47  19  23  1   
 48  19  51  1   
 49  21  24  ar  
 50  21  52  1   
 51  22  24  ar  
 52  22  53  1   
 53  23  25  1   
 54  23  26  1   
 55  23  54  1   
 56  24  55  1   
 57  25  27  1   
 58  25  56  1   
 59  25  57  1   
 60  26  28  1   
 61  26  58  1   
 62  26  59  1   
 63  27  28  1   
 64  27  60  1   
 65  27  61  1   
 66  28  62  1   
 67  28  63  1   
@<TRIPOS>SUBSTRUCTURE
  1 ****   4 GROUP 4 **** **** 0

# MOE 2024.06 (io_trps.svl 2023.06)
