@<TRIPOS>MOLECULE
NONAME
51 53 1 0 0 
SMALL
USER_CHARGES


@<TRIPOS>ATOM
  1 O       -0.5650     0.4610     0.7350 O.2   1 <1>  -0.5700 
  2 C       -1.5890     1.0400     0.4190 C.2   1 <1>   0.7160 
  3 N       -2.7760     0.3420     0.4510 N.am  1 <1>  -0.6600 
  4 C       -1.5520     2.4220    -0.0030 C.2   1 <1>  -0.0860 
  5 C       -3.9690     0.7000    -0.3600 C.3   1 <1>   0.1400 
  6 C       -2.8820    -1.0670     0.8930 C.3   1 <1>   0.1400 
  7 C       -0.5580     3.0390    -0.7720 C.2   1 <1>   0.1080 
  8 C       -2.4290     3.4390     0.2310 C.2   1 <1>  -0.3020 
  9 C       -4.8390    -0.5640    -0.4150 C.3   1 <1>   0.2000 
 10 C       -3.8670    -1.7020    -0.0880 C.3   1 <1>  -0.0800 
 11 N       -0.8010     4.2900    -1.0000 N.2   1 <1>  -0.7070 
 12 C        0.6850     2.3610    -1.3060 C.3   1 <1>  -0.0590 
 13 N       -1.9580     4.5400    -0.3700 N.pl3 1 <1>   0.3140 
 14 O       -5.8170    -0.5070     0.5840 O.3   1 <1>  -0.5600 
 15 C       -4.5310    -2.9830     0.4490 C.3   1 <1>   0.0200 
 16 C       -2.5670     5.8840    -0.3690 C.3   1 <1>   0.0960 
 17 C       -6.9950     0.1450     0.2260 C.3   1 <1>   0.0400 
 18 C       -3.5610    -4.1440     0.5950 C.2   1 <1>  -0.0400 
 19 C       -2.2150     6.6420     0.9190 C.3   1 <1>  -0.1600 
 20 O       -3.9900    -5.2570     1.1280 O.3   1 <1>  -0.0190 
 21 C       -2.2660    -4.3170     0.2800 C.2   1 <1>  -0.1500 
 22 C       -2.8430     8.0410     0.9340 C.3   1 <1>  -0.2400 
 23 N       -3.0560    -6.1610     1.1890 N.2   1 <1>  -0.4100 
 24 C       -2.0050    -5.6220     0.6860 C.2   1 <1>   0.1080 
 25 C       -0.6700    -6.3200     0.5560 C.3   1 <1>  -0.0590 
 26 H       -4.5010     1.5200     0.0880 H     1 <1>   0.0800 
 27 H       -3.6500     0.9720    -1.3510 H     1 <1>   0.0800 
 28 H       -1.9270    -1.5630     0.8800 H     1 <1>   0.0800 
 29 H       -3.2810    -1.0860     1.8930 H     1 <1>   0.0800 
 30 H       -3.3390     3.4240     0.8000 H     1 <1>   0.1500 
 31 H       -5.3130    -0.7030    -1.3720 H     1 <1>   0.0800 
 32 H       -3.3280    -1.9410    -0.9880 H     1 <1>   0.0800 
 33 H        0.4230     1.4440    -1.7990 H     1 <1>   0.0800 
 34 H        1.3530     2.1450    -0.4930 H     1 <1>   0.0800 
 35 H        1.1840     3.0050    -2.0060 H     1 <1>   0.0800 
 36 H       -5.3180    -3.2830    -0.2200 H     1 <1>   0.0800 
 37 H       -4.9770    -2.7870     1.4090 H     1 <1>   0.0800 
 38 H       -2.1970     6.4200    -1.2250 H     1 <1>   0.0800 
 39 H       -3.6310     5.7770    -0.4630 H     1 <1>   0.0800 
 40 H       -7.6510     0.1380     1.0790 H     1 <1>   0.0800 
 41 H       -7.4600    -0.3830    -0.5890 H     1 <1>   0.0800 
 42 H       -6.7780     1.1600    -0.0530 H     1 <1>   0.0800 
 43 H       -2.5670     6.0870     1.7720 H     1 <1>   0.0800 
 44 H       -1.1440     6.7340     0.9910 H     1 <1>   0.0800 
 45 H       -1.5620    -3.6460    -0.1760 H     1 <1>   0.1500 
 46 H       -3.9160     7.9760     0.8800 H     1 <1>   0.0800 
 47 H       -2.4870     8.6220     0.1000 H     1 <1>   0.0800 
 48 H       -2.5770     8.5520     1.8420 H     1 <1>   0.0800 
 49 H        0.0800    -5.7750     1.1000 H     1 <1>   0.0800 
 50 H       -0.3880    -6.3780    -0.4780 H     1 <1>   0.0800 
 51 H       -0.7360    -7.3150     0.9570 H     1 <1>   0.0800 
@<TRIPOS>BOND
  1   1   2  2   
  2   2   3  am  
  3   2   4  1   
  4   3   5  1   
  5   3   6  1   
  6   4   7  1   
  7   4   8  2   
  8   5   9  1   
  9   5  26  1   
 10   5  27  1   
 11   6  10  1   
 12   6  28  1   
 13   6  29  1   
 14   7  11  2   
 15   7  12  1   
 16   8  13  1   
 17   8  30  1   
 18   9  10  1   
 19   9  14  1   
 20   9  31  1   
 21  10  15  1   
 22  10  32  1   
 23  11  13  1   
 24  12  33  1   
 25  12  34  1   
 26  12  35  1   
 27  13  16  1   
 28  14  17  1   
 29  15  18  1   
 30  15  36  1   
 31  15  37  1   
 32  16  19  1   
 33  16  38  1   
 34  16  39  1   
 35  17  40  1   
 36  17  41  1   
 37  17  42  1   
 38  18  20  1   
 39  18  21  2   
 40  19  22  1   
 41  19  43  1   
 42  19  44  1   
 43  20  23  1   
 44  21  24  1   
 45  21  45  1   
 46  22  46  1   
 47  22  47  1   
 48  22  48  1   
 49  23  24  2   
 50  24  25  1   
 51  25  49  1   
 52  25  50  1   
 53  25  51  1   
@<TRIPOS>SUBSTRUCTURE
  1 ****   3 GROUP 4 **** **** 0

# MOE 2024.06 (io_trps.svl 2023.06)
