@<TRIPOS>MOLECULE
NONAME
48 50 1 0 0 
SMALL
USER_CHARGES


@<TRIPOS>ATOM
  1 S        1.3310     0.8940    -0.6660 S.3   1 <1>  -0.0800 
  2 C       -0.3360     1.3940    -0.5590 C.2   1 <1>  -0.1400 
  3 C        0.8080    -0.7710    -0.5880 C.2   1 <1>   0.2280 
  4 C       -1.1070     0.2960    -0.4770 C.2   1 <1>   0.0460 
  5 C       -0.6130     2.8860    -0.5800 C.3   1 <1>   0.0200 
  6 N       -0.4520    -0.9240    -0.4930 N.2   1 <1>  -0.5650 
  7 C       -2.6160     0.2360    -0.3650 C.3   1 <1>  -0.0590 
  8 C       -0.2230     3.5260     0.7560 C.3   1 <1>  -0.0990 
  9 C       -0.4040     5.0260     0.7060 C.2   1 <1>   0.5690 
 10 O       -1.4870     5.4780     0.9790 O.2   1 <1>  -0.5700 
 11 N        0.6800     5.7750     0.3440 N.am  1 <1>  -0.4940 
 12 C        0.9200     7.1630     0.2130 C.2   1 <1>  -0.0880 
 13 N        0.0400     8.1970     0.0960 N.pl3 1 <1>   0.3140 
 14 C        2.1680     7.7050     0.1510 C.2   1 <1>  -0.0540 
 15 N        0.6870     9.3770    -0.0360 N.2   1 <1>  -0.7070 
 16 C       -1.4270     8.1840     0.0380 C.3   1 <1>   0.0160 
 17 C        3.4300     7.0130     0.2180 C.ar  1 <1>   0.0540 
 18 C        1.9420     9.0760     0.0030 C.2   1 <1>   0.1080 
 19 C        4.3160     7.0260    -0.8550 C.ar  1 <1>  -0.1500 
 20 C        3.7860     6.2940     1.3550 C.ar  1 <1>  -0.1500 
 21 C        3.0210    10.1320    -0.1000 C.3   1 <1>  -0.0590 
 22 C        5.5160     6.3390    -0.8030 C.ar  1 <1>  -0.1500 
 23 C        4.9820     5.6030     1.4140 C.ar  1 <1>  -0.1500 
 24 C        5.8550     5.6170     0.3380 C.ar  1 <1>   0.0820 
 25 O        7.0050     4.9110     0.4740 O.3   1 <1>  -0.3630 
 26 C        7.9860     4.9060    -0.5390 C.3   1 <1>   0.0400 
 27 H        1.5710    -1.5280    -0.6240 H     1 <1>   0.1500 
 28 H       -1.6580     3.0620    -0.7640 H     1 <1>   0.0800 
 29 H       -0.0580     3.3350    -1.3850 H     1 <1>   0.0800 
 30 H       -3.0430     1.2200    -0.3350 H     1 <1>   0.0800 
 31 H       -2.8870    -0.2880     0.5330 H     1 <1>   0.0800 
 32 H       -3.0170    -0.2950    -1.2090 H     1 <1>   0.0800 
 33 H        0.7990     3.2950     0.9960 H     1 <1>   0.0800 
 34 H       -0.8430     3.1260     1.5380 H     1 <1>   0.0800 
 35 H        1.5300     5.2250     0.2000 H     1 <1>   0.3700 
 36 H       -1.7490     7.4190    -0.6430 H     1 <1>   0.0800 
 37 H       -1.7780     9.1390    -0.3040 H     1 <1>   0.0800 
 38 H       -1.8150     7.9910     1.0200 H     1 <1>   0.0800 
 39 H        4.0530     7.5780    -1.7400 H     1 <1>   0.1500 
 40 H        3.1170     6.2830     2.1980 H     1 <1>   0.1500 
 41 H        3.8910     9.8340     0.4550 H     1 <1>   0.0800 
 42 H        2.6550    11.0600     0.3000 H     1 <1>   0.0800 
 43 H        3.2860    10.2770    -1.1300 H     1 <1>   0.0800 
 44 H        6.1690     6.3740    -1.6540 H     1 <1>   0.1500 
 45 H        5.2510     5.0500     2.2960 H     1 <1>   0.1500 
 46 H        8.8090     4.3010    -0.2050 H     1 <1>   0.0800 
 47 H        8.3190     5.9150    -0.7080 H     1 <1>   0.0800 
 48 H        7.5630     4.4850    -1.4340 H     1 <1>   0.0800 
@<TRIPOS>BOND
  1   1   2  1   
  2   1   3  1   
  3   2   4  2   
  4   2   5  1   
  5   3   6  2   
  6   3  27  1   
  7   4   6  1   
  8   4   7  1   
  9   5   8  1   
 10   5  28  1   
 11   5  29  1   
 12   7  30  1   
 13   7  31  1   
 14   7  32  1   
 15   8   9  1   
 16   8  33  1   
 17   8  34  1   
 18   9  10  2   
 19   9  11  am  
 20  11  12  1   
 21  11  35  1   
 22  12  13  1   
 23  12  14  2   
 24  13  15  1   
 25  13  16  1   
 26  14  17  1   
 27  14  18  1   
 28  15  18  2   
 29  16  36  1   
 30  16  37  1   
 31  16  38  1   
 32  17  19  ar  
 33  17  20  ar  
 34  18  21  1   
 35  19  22  ar  
 36  19  39  1   
 37  20  23  ar  
 38  20  40  1   
 39  21  41  1   
 40  21  42  1   
 41  21  43  1   
 42  22  24  ar  
 43  22  44  1   
 44  23  24  ar  
 45  23  45  1   
 46  24  25  1   
 47  25  26  1   
 48  26  46  1   
 49  26  47  1   
 50  26  48  1   
@<TRIPOS>SUBSTRUCTURE
  1 ****  11 GROUP 4 **** **** 0

# MOE 2024.06 (io_trps.svl 2023.06)
