@<TRIPOS>MOLECULE
NONAME
51 53 1 0 0 
SMALL
USER_CHARGES


@<TRIPOS>ATOM
  1 CL      -1.5910    -0.8870    -2.1310 Cl    1 <1>  -0.1770 
  2 C       -2.0310     0.1950    -0.8260 C.ar  1 <1>   0.1770 
  3 C       -1.8570     1.5620    -0.9750 C.ar  1 <1>   0.1770 
  4 C       -2.5670    -0.3280     0.3430 C.ar  1 <1>  -0.1440 
  5 CL      -1.1950     2.2180    -2.4520 Cl    1 <1>  -0.1770 
  6 C       -2.2130     2.4270     0.0430 C.ar  1 <1>  -0.1500 
  7 C       -2.9220     0.5460     1.3630 C.ar  1 <1>  -0.1500 
  8 C       -2.7570    -1.8250     0.5100 C.3   1 <1>   0.4870 
  9 C       -2.7470     1.9130     1.2130 C.ar  1 <1>  -0.1500 
 10 N       -3.7910    -2.3150    -0.4440 N.4   1 <1>  -0.9590 
 11 C       -3.9420    -3.8050    -0.3480 C.3   1 <1>   0.5660 
 12 C       -5.1140    -1.6250    -0.2880 C.3   1 <1>   0.3430 
 13 C       -2.6180    -4.4390    -0.7520 C.ar  1 <1>  -0.1430 
 14 C       -5.1230    -4.3600    -1.1900 C.3   1 <1>   0.2000 
 15 C       -6.1740    -2.2320    -1.2230 C.3   1 <1>   0.1200 
 16 C       -1.9200    -5.1850     0.1880 C.ar  1 <1>  -0.1500 
 17 C       -2.0850    -4.2840    -2.0270 C.ar  1 <1>  -0.1500 
 18 O       -6.2920    -3.6030    -0.9860 O.3   1 <1>  -0.5600 
 19 C       -5.4150    -5.8190    -0.8020 C.3   1 <1>   0.1200 
 20 C       -0.7010    -5.7590    -0.1260 C.ar  1 <1>   0.0830 
 21 C       -0.8610    -4.8470    -2.3440 C.ar  1 <1>  -0.1500 
 22 O       -5.4600    -5.9460     0.5850 O.3   1 <1>  -0.6800 
 23 O       -0.0970    -6.4850     0.8460 O.3   1 <1>  -0.3630 
 24 C       -0.1540    -5.5690    -1.3990 C.ar  1 <1>   0.0830 
 25 C        0.1090    -7.8570     0.5850 C.3   1 <1>   0.0400 
 26 O        1.0530    -6.0600    -1.7660 O.3   1 <1>  -0.3630 
 27 C        2.1820    -5.5120    -1.1210 C.3   1 <1>   0.0400 
 28 H       -2.0720     3.4880    -0.0820 H     1 <1>   0.1500 
 29 H       -3.3330     0.1770     2.2900 H     1 <1>   0.1500 
 30 H       -3.0560    -2.0440     1.5220 H     1 <1>   0.0800 
 31 H       -1.8170    -2.3210     0.3230 H     1 <1>   0.0800 
 32 H       -3.0230     2.5840     2.0120 H     1 <1>   0.1500 
 33 H       -3.4230    -2.1240    -1.3830 H     1 <1>   0.4500 
 34 H       -4.1400    -4.0620     0.6790 H     1 <1>   0.0800 
 35 H       -5.4620    -1.7220     0.7280 H     1 <1>   0.0800 
 36 H       -5.0100    -0.5740    -0.5040 H     1 <1>   0.0800 
 37 H       -4.8920    -4.3200    -2.2390 H     1 <1>   0.0800 
 38 H       -5.9240    -2.0740    -2.2580 H     1 <1>   0.0800 
 39 H       -7.1350    -1.7850    -1.0300 H     1 <1>   0.0800 
 40 H       -2.3130    -5.3430     1.1780 H     1 <1>   0.1500 
 41 H       -2.5990    -3.7270    -2.7920 H     1 <1>   0.1500 
 42 H       -4.6400    -6.4720    -1.1670 H     1 <1>   0.0800 
 43 H       -6.3610    -6.1300    -1.2120 H     1 <1>   0.0800 
 44 H       -0.4390    -4.7270    -3.3270 H     1 <1>   0.1500 
 45 H       -5.8690    -6.8010     0.8400 H     1 <1>   0.4000 
 46 H        0.4560    -8.3220     1.4890 H     1 <1>   0.0800 
 47 H        0.8460    -7.9700    -0.1890 H     1 <1>   0.0800 
 48 H       -0.8230    -8.2990     0.2790 H     1 <1>   0.0800 
 49 H        3.0630    -5.9440    -1.5610 H     1 <1>   0.0800 
 50 H        2.1450    -5.7480    -0.0720 H     1 <1>   0.0800 
 51 H        2.1830    -4.4470    -1.2660 H     1 <1>   0.0800 
@<TRIPOS>BOND
  1   1   2  1   
  2   2   3  ar  
  3   2   4  ar  
  4   3   5  1   
  5   3   6  ar  
  6   4   7  ar  
  7   4   8  1   
  8   6   9  ar  
  9   6  28  1   
 10   7   9  ar  
 11   7  29  1   
 12   8  10  1   
 13   8  30  1   
 14   8  31  1   
 15   9  32  1   
 16  10  11  1   
 17  10  12  1   
 18  10  33  1   
 19  11  13  1   
 20  11  14  1   
 21  11  34  1   
 22  12  15  1   
 23  12  35  1   
 24  12  36  1   
 25  13  16  ar  
 26  13  17  ar  
 27  14  18  1   
 28  14  19  1   
 29  14  37  1   
 30  15  18  1   
 31  15  38  1   
 32  15  39  1   
 33  16  20  ar  
 34  16  40  1   
 35  17  21  ar  
 36  17  41  1   
 37  19  22  1   
 38  19  42  1   
 39  19  43  1   
 40  20  23  1   
 41  20  24  ar  
 42  21  24  ar  
 43  21  44  1   
 44  22  45  1   
 45  23  25  1   
 46  24  26  1   
 47  25  46  1   
 48  25  47  1   
 49  25  48  1   
 50  26  27  1   
 51  27  49  1   
 52  27  50  1   
 53  27  51  1   
@<TRIPOS>SUBSTRUCTURE
  1 ****  10 GROUP 4 **** **** 0

# MOE 2024.06 (io_trps.svl 2023.06)
