@<TRIPOS>MOLECULE
NONAME
55 57 1 0 0 
SMALL
USER_CHARGES


@<TRIPOS>ATOM
  1 O       -0.4330     0.5430    -0.5620 O.2   1 <1>  -0.5700 
  2 C       -1.4720     1.1040    -0.8570 C.2   1 <1>   0.5440 
  3 N       -2.6610     0.4610    -0.6010 N.am  1 <1>  -0.6600 
  4 C       -1.4090     2.4380    -1.4310 C.ar  1 <1>   0.0860 
  5 C       -3.9850     1.1080    -0.4660 C.3   1 <1>   0.1400 
  6 C       -2.7160    -0.9400    -0.1230 C.3   1 <1>   0.1400 
  7 C       -0.4540     3.3470    -0.9740 C.ar  1 <1>  -0.1500 
  8 C       -2.2570     2.8650    -2.4520 C.ar  1 <1>  -0.1500 
  9 C       -4.7610     0.2270     0.5190 C.3   1 <1>  -0.0800 
 10 C       -4.1550    -1.1790     0.3470 C.3   1 <1>  -0.0800 
 11 C       -0.3570     4.6310    -1.4860 C.ar  1 <1>  -0.1430 
 12 C       -2.1730     4.1430    -2.9720 C.ar  1 <1>  -0.1500 
 13 C       -6.3160     0.2930     0.4140 C.3   1 <1>   0.2800 
 14 C       -4.9730    -2.0220    -0.6440 C.3   1 <1>  -0.1600 
 15 C       -1.2260     5.0280    -2.4910 C.ar  1 <1>  -0.1500 
 16 C        0.6960     5.5840    -0.9520 C.3   1 <1>   0.4860 
 17 O       -6.6830     0.5640    -0.8900 O.3   1 <1>  -0.6800 
 18 C       -6.9270    -1.0790     0.7550 C.3   1 <1>  -0.1600 
 19 C       -6.9260     1.4430     1.2470 C.3   1 <1>  -0.1600 
 20 C       -6.4240    -2.2190    -0.1610 C.3   1 <1>  -0.1600 
 21 N        0.3200     5.9830     0.4350 N.4   1 <1>  -0.9590 
 22 C       -6.8640     1.2790     2.7770 C.3   1 <1>  -0.2400 
 23 C       -0.9520     6.7730     0.4550 C.3   1 <1>   0.2630 
 24 C        1.4300     6.7190     1.1120 C.3   1 <1>   0.2630 
 25 H       -3.8990     2.1160    -0.1020 H     1 <1>   0.0800 
 26 H       -4.4490     1.1130    -1.4360 H     1 <1>   0.0800 
 27 H       -2.4350    -1.6130    -0.9150 H     1 <1>   0.0800 
 28 H       -2.0310    -1.0600     0.6990 H     1 <1>   0.0800 
 29 H        0.2220     3.0080    -0.2070 H     1 <1>   0.1500 
 30 H       -2.9840     2.1790    -2.8520 H     1 <1>   0.1500 
 31 H       -4.4730     0.5460     1.5030 H     1 <1>   0.0800 
 32 H       -4.1340    -1.6950     1.2910 H     1 <1>   0.0800 
 33 H       -2.8440     4.4440    -3.7610 H     1 <1>   0.1500 
 34 H       -4.9860    -1.5180    -1.5960 H     1 <1>   0.0800 
 35 H       -4.5090    -2.9810    -0.7920 H     1 <1>   0.0800 
 36 H       -1.1740     6.0170    -2.9160 H     1 <1>   0.1500 
 37 H        0.7660     6.4520    -1.5870 H     1 <1>   0.0800 
 38 H        1.6510     5.0840    -0.9480 H     1 <1>   0.0800 
 39 H       -7.6350     0.3910    -0.9960 H     1 <1>   0.4000 
 40 H       -6.6490    -1.3270     1.7630 H     1 <1>   0.0800 
 41 H       -8.0010    -1.0320     0.7300 H     1 <1>   0.0800 
 42 H       -6.4230     2.3570     0.9830 H     1 <1>   0.0800 
 43 H       -7.9620     1.5550     0.9780 H     1 <1>   0.0800 
 44 H       -6.5010    -3.1490     0.3750 H     1 <1>   0.0800 
 45 H       -7.0610    -2.2930    -1.0260 H     1 <1>   0.0800 
 46 H        0.1430     5.1020     0.9410 H     1 <1>   0.4500 
 47 H       -5.8530     1.1730     3.1250 H     1 <1>   0.0800 
 48 H       -7.4330     0.4250     3.0970 H     1 <1>   0.0800 
 49 H       -7.2860     2.1500     3.2480 H     1 <1>   0.0800 
 50 H       -0.8320     7.6940    -0.0930 H     1 <1>   0.0800 
 51 H       -1.2300     7.0090     1.4700 H     1 <1>   0.0800 
 52 H       -1.7520     6.2060     0.0060 H     1 <1>   0.0800 
 53 H        1.6420     7.6400     0.5930 H     1 <1>   0.0800 
 54 H        2.3250     6.1170     1.1280 H     1 <1>   0.0800 
 55 H        1.1580     6.9520     2.1290 H     1 <1>   0.0800 
@<TRIPOS>BOND
  1   1   2  2   
  2   2   3  am  
  3   2   4  1   
  4   3   5  1   
  5   3   6  1   
  6   4   7  ar  
  7   4   8  ar  
  8   5   9  1   
  9   5  25  1   
 10   5  26  1   
 11   6  10  1   
 12   6  27  1   
 13   6  28  1   
 14   7  11  ar  
 15   7  29  1   
 16   8  12  ar  
 17   8  30  1   
 18   9  10  1   
 19   9  13  1   
 20   9  31  1   
 21  10  14  1   
 22  10  32  1   
 23  11  15  ar  
 24  11  16  1   
 25  12  15  ar  
 26  12  33  1   
 27  13  17  1   
 28  13  18  1   
 29  13  19  1   
 30  14  20  1   
 31  14  34  1   
 32  14  35  1   
 33  15  36  1   
 34  16  21  1   
 35  16  37  1   
 36  16  38  1   
 37  17  39  1   
 38  18  20  1   
 39  18  40  1   
 40  18  41  1   
 41  19  22  1   
 42  19  42  1   
 43  19  43  1   
 44  20  44  1   
 45  20  45  1   
 46  21  23  1   
 47  21  24  1   
 48  21  46  1   
 49  22  47  1   
 50  22  48  1   
 51  22  49  1   
 52  23  50  1   
 53  23  51  1   
 54  23  52  1   
 55  24  53  1   
 56  24  54  1   
 57  24  55  1   
@<TRIPOS>SUBSTRUCTURE
  1 ****   5 GROUP 4 **** **** 0

# MOE 2024.06 (io_trps.svl 2023.06)
