@<TRIPOS>MOLECULE
NONAME
54 56 1 0 0 
SMALL
USER_CHARGES


@<TRIPOS>ATOM
  1 F        0.7830     0.3480     2.2660 F     1 <1>  -0.1900 
  2 C        1.7010     0.7250     1.4090 C.ar  1 <1>   0.1900 
  3 C        1.9270     2.0780     1.2200 C.ar  1 <1>   0.1900 
  4 C        2.4230    -0.2310     0.7100 C.ar  1 <1>  -0.1440 
  5 F        1.2300     2.9660     1.8840 F     1 <1>  -0.1900 
  6 C        2.8870     2.5210     0.3310 C.ar  1 <1>  -0.1500 
  7 C        3.4030     0.2110    -0.1810 C.ar  1 <1>   0.0830 
  8 C        2.1610    -1.7200     0.9180 C.3   1 <1>   0.2540 
  9 C        3.6260     1.5790    -0.3670 C.ar  1 <1>  -0.1500 
 10 O        4.1250    -0.7350    -0.8380 O.3   1 <1>  -0.3630 
 11 N        1.2740    -2.2680    -0.1330 N.3   1 <1>  -0.8100 
 12 C        5.0610    -0.4090    -1.8400 C.3   1 <1>   0.0400 
 13 C        1.2030    -3.7520    -0.0790 C.3   1 <1>   0.3330 
 14 C       -0.0840    -1.6900    -0.0540 C.3   1 <1>   0.1100 
 15 C        2.5880    -4.3670    -0.2890 C.ar  1 <1>  -0.1430 
 16 C        0.1960    -4.3050    -1.1280 C.3   1 <1>   0.2000 
 17 C       -1.0280    -2.3140    -1.0940 C.3   1 <1>   0.1200 
 18 C        3.0530    -5.3480     0.5750 C.ar  1 <1>  -0.1500 
 19 C        3.3880    -3.9660    -1.3500 C.ar  1 <1>  -0.1500 
 20 O       -1.0600    -3.7030    -0.9490 O.3   1 <1>  -0.5600 
 21 C       -0.0160    -5.8260    -1.0400 C.3   1 <1>   0.1200 
 22 C        4.2920    -5.9330     0.3790 C.ar  1 <1>   0.0830 
 23 C        4.6370    -4.5320    -1.5440 C.ar  1 <1>  -0.1500 
 24 O        1.0640    -6.5230    -1.5780 O.3   1 <1>  -0.6800 
 25 O        4.6540    -6.9220     1.2330 O.3   1 <1>  -0.3630 
 26 C        5.1040    -5.5040    -0.6760 C.ar  1 <1>   0.0830 
 27 C        4.7700    -8.2120     0.6740 C.3   1 <1>   0.0400 
 28 O        6.3490    -5.9920    -0.8960 O.3   1 <1>  -0.3630 
 29 C        7.3130    -5.7160     0.0960 C.3   1 <1>   0.0400 
 30 H        3.0510     3.5750     0.1950 H     1 <1>   0.1500 
 31 H        1.7290    -1.8970     1.8870 H     1 <1>   0.0800 
 32 H        3.1120    -2.2250     0.8990 H     1 <1>   0.0800 
 33 H        4.3750     1.9310    -1.0520 H     1 <1>   0.1500 
 34 H        5.4580    -1.3280    -2.2330 H     1 <1>   0.0800 
 35 H        5.8520     0.1730    -1.4050 H     1 <1>   0.0800 
 36 H        4.5600     0.1360    -2.6210 H     1 <1>   0.0800 
 37 H        0.8450    -4.0400     0.8950 H     1 <1>   0.0800 
 38 H       -0.4960    -1.8410     0.9290 H     1 <1>   0.0800 
 39 H       -0.0360    -0.6310    -0.2380 H     1 <1>   0.0800 
 40 H        0.5330    -4.0630    -2.1210 H     1 <1>   0.0800 
 41 H       -0.7020    -2.0740    -2.0920 H     1 <1>   0.0800 
 42 H       -2.0280    -1.9450    -0.9560 H     1 <1>   0.0800 
 43 H        2.4570    -5.6790     1.4070 H     1 <1>   0.1500 
 44 H        3.0390    -3.1990    -2.0220 H     1 <1>   0.1500 
 45 H       -0.8860    -6.1070    -1.6070 H     1 <1>   0.0800 
 46 H       -0.1410    -6.1340    -0.0170 H     1 <1>   0.0800 
 47 H        5.2550    -4.2160    -2.3630 H     1 <1>   0.1500 
 48 H        1.9140    -6.1810    -1.2200 H     1 <1>   0.4000 
 49 H        4.9580    -8.9080     1.4710 H     1 <1>   0.0800 
 50 H        5.5880    -8.2270    -0.0240 H     1 <1>   0.0800 
 51 H        3.8500    -8.4600     0.1760 H     1 <1>   0.0800 
 52 H        8.2690    -6.0520    -0.2610 H     1 <1>   0.0800 
 53 H        7.0550    -6.2380     0.9990 H     1 <1>   0.0800 
 54 H        7.3360    -4.6550     0.2710 H     1 <1>   0.0800 
@<TRIPOS>BOND
  1   1   2  1   
  2   2   3  ar  
  3   2   4  ar  
  4   3   5  1   
  5   3   6  ar  
  6   4   7  ar  
  7   4   8  1   
  8   6   9  ar  
  9   6  30  1   
 10   7   9  ar  
 11   7  10  1   
 12   8  11  1   
 13   8  31  1   
 14   8  32  1   
 15   9  33  1   
 16  10  12  1   
 17  11  13  1   
 18  11  14  1   
 19  12  34  1   
 20  12  35  1   
 21  12  36  1   
 22  13  15  1   
 23  13  16  1   
 24  13  37  1   
 25  14  17  1   
 26  14  38  1   
 27  14  39  1   
 28  15  18  ar  
 29  15  19  ar  
 30  16  20  1   
 31  16  21  1   
 32  16  40  1   
 33  17  20  1   
 34  17  41  1   
 35  17  42  1   
 36  18  22  ar  
 37  18  43  1   
 38  19  23  ar  
 39  19  44  1   
 40  21  24  1   
 41  21  45  1   
 42  21  46  1   
 43  22  25  1   
 44  22  26  ar  
 45  23  26  ar  
 46  23  47  1   
 47  24  48  1   
 48  25  27  1   
 49  26  28  1   
 50  27  49  1   
 51  27  50  1   
 52  27  51  1   
 53  28  29  1   
 54  29  52  1   
 55  29  53  1   
 56  29  54  1   
@<TRIPOS>SUBSTRUCTURE
  1 ****  11 GROUP 4 **** **** 0

# MOE 2024.06 (io_trps.svl 2023.06)
