@<TRIPOS>MOLECULE
NONAME
42 43 1 0 0 
SMALL
USER_CHARGES


@<TRIPOS>ATOM
  1 S       -1.2080    -1.6150     2.1350 S.3   1 <1>  -0.0800 
  2 C       -1.7070    -0.7080     0.7140 C.2   1 <1>  -0.1400 
  3 C        0.4380    -1.0260     1.9890 C.2   1 <1>  -0.1100 
  4 C       -0.6650    -0.0240     0.2050 C.2   1 <1>  -0.1500 
  5 C       -3.1590    -0.8080     0.2890 C.3   1 <1>   0.0200 
  6 C        0.5560    -0.2050     0.9300 C.2   1 <1>  -0.1500 
  7 C       -3.4700    -2.1930    -0.2930 C.3   1 <1>  -0.1600 
  8 C       -4.9490    -2.3230    -0.7050 C.3   1 <1>  -0.0990 
  9 C       -5.3250    -3.6860    -1.2820 C.2   1 <1>   0.5690 
 10 O       -4.4360    -4.4580    -1.5620 O.2   1 <1>  -0.5700 
 11 N       -6.6410    -4.0290    -1.4570 N.am  1 <1>  -0.6600 
 12 C       -6.9940    -5.3620    -2.0180 C.3   1 <1>   0.3200 
 13 C       -7.8070    -3.1850    -1.0570 C.3   1 <1>   0.1400 
 14 C       -6.9260    -6.3940    -0.9140 C.2   1 <1>  -0.3320 
 15 C       -8.3450    -3.6120     0.3130 C.3   1 <1>   0.1200 
 16 N       -5.7770    -6.6740    -0.2770 N.pl3 1 <1>   0.0330 
 17 C       -7.8680    -7.1910    -0.3630 C.2   1 <1>   0.0770 
 18 O       -9.3230    -2.7130     0.7170 O.3   1 <1>  -0.6800 
 19 C       -6.0920    -7.6220     0.6300 C.2   1 <1>   0.0060 
 20 N       -7.3400    -7.9590     0.6090 N.2   1 <1>  -0.5650 
 21 C       -5.0720    -8.2200     1.5740 C.3   1 <1>  -0.0600 
 22 H        1.1510    -1.3620     2.7210 H     1 <1>   0.1500 
 23 H       -0.6980     0.6120    -0.6620 H     1 <1>   0.1500 
 24 H       -3.3570    -0.0540    -0.4530 H     1 <1>   0.0800 
 25 H       -3.7850    -0.6120     1.1420 H     1 <1>   0.0800 
 26 H        1.4600     0.2890     0.6190 H     1 <1>   0.1500 
 27 H       -3.2400    -2.9490     0.4380 H     1 <1>   0.0800 
 28 H       -2.8390    -2.3640    -1.1490 H     1 <1>   0.0800 
 29 H       -5.1780    -1.5770    -1.4430 H     1 <1>   0.0800 
 30 H       -5.5550    -2.1420     0.1630 H     1 <1>   0.0800 
 31 H       -6.3010    -5.6230    -2.8010 H     1 <1>   0.0800 
 32 H       -7.9820    -5.3400    -2.4440 H     1 <1>   0.0800 
 33 H       -8.5890    -3.2840    -1.7900 H     1 <1>   0.0800 
 34 H       -7.5200    -2.1500    -1.0250 H     1 <1>   0.0800 
 35 H       -7.5670    -3.6260     1.0560 H     1 <1>   0.0800 
 36 H       -8.8010    -4.5850     0.2520 H     1 <1>   0.0800 
 37 H       -4.8690    -6.2240    -0.4600 H     1 <1>   0.2700 
 38 H       -8.9130    -7.2570    -0.6140 H     1 <1>   0.1500 
 39 H       -8.9270    -1.8990     1.0840 H     1 <1>   0.4000 
 40 H       -4.6420    -7.4490     2.1870 H     1 <1>   0.0800 
 41 H       -4.2940    -8.7060     1.0140 H     1 <1>   0.0800 
 42 H       -5.5460    -8.9450     2.2090 H     1 <1>   0.0800 
@<TRIPOS>BOND
  1   1   2  1   
  2   1   3  1   
  3   2   4  2   
  4   2   5  1   
  5   3   6  2   
  6   3  22  1   
  7   4   6  1   
  8   4  23  1   
  9   5   7  1   
 10   5  24  1   
 11   5  25  1   
 12   6  26  1   
 13   7   8  1   
 14   7  27  1   
 15   7  28  1   
 16   8   9  1   
 17   8  29  1   
 18   8  30  1   
 19   9  10  2   
 20   9  11  am  
 21  11  12  1   
 22  11  13  1   
 23  12  14  1   
 24  12  31  1   
 25  12  32  1   
 26  13  15  1   
 27  13  33  1   
 28  13  34  1   
 29  14  16  1   
 30  14  17  2   
 31  15  18  1   
 32  15  35  1   
 33  15  36  1   
 34  16  19  1   
 35  16  37  1   
 36  17  20  1   
 37  17  38  1   
 38  18  39  1   
 39  19  20  2   
 40  19  21  1   
 41  21  40  1   
 42  21  41  1   
 43  21  42  1   
@<TRIPOS>SUBSTRUCTURE
  1 ****   9 GROUP 4 **** **** 0

# MOE 2024.06 (io_trps.svl 2023.06)
