@<TRIPOS>MOLECULE
NONAME
49 51 1 0 0 
SMALL
USER_CHARGES


@<TRIPOS>ATOM
  1 S       -5.0780    -1.5580    -0.4160 S.3   1 <1>  -0.0800 
  2 C       -3.6620    -1.8580    -1.3990 C.2   1 <1>   0.2280 
  3 C       -4.4340    -2.6380     0.7840 C.2   1 <1>  -0.1100 
  4 N       -2.8190    -2.6630    -0.8860 N.2   1 <1>  -0.5650 
  5 C       -3.2530    -3.1130     0.3580 C.2   1 <1>   0.0460 
  6 C       -2.3820    -4.1010     1.1220 C.3   1 <1>   0.3210 
  7 N       -2.6490    -5.4840     0.6360 N.am  1 <1>  -0.6600 
  8 C       -3.6660    -6.2130     1.2010 C.2   1 <1>   0.5690 
  9 C       -1.9120    -5.8660    -0.6010 C.3   1 <1>   0.0600 
 10 O       -4.1380    -5.8860     2.2700 O.2   1 <1>  -0.5700 
 11 C       -4.2590    -7.4270     0.4650 C.3   1 <1>   0.2610 
 12 O       -3.5330    -8.6050     0.7450 O.3   1 <1>  -0.5600 
 13 C       -5.7630    -7.5960     0.7880 C.3   1 <1>   0.3640 
 14 C       -3.9520    -9.7100    -0.0170 C.3   1 <1>   0.1810 
 15 N       -6.3140    -8.9430     0.4080 N.am  1 <1>  -0.6600 
 16 C       -6.5330    -6.4770     0.0790 C.ar  1 <1>  -0.1430 
 17 C       -5.4620    -9.9600     0.0450 C.2   1 <1>   0.5690 
 18 C       -7.7610    -9.1360     0.7170 C.3   1 <1>   0.2200 
 19 C       -6.7810    -6.5270    -1.2860 C.ar  1 <1>  -0.1500 
 20 C       -6.9790    -5.3810     0.8040 C.ar  1 <1>  -0.1500 
 21 O       -5.8400   -11.0690    -0.2530 O.2   1 <1>  -0.5700 
 22 C       -7.9290   -10.1010     1.8910 C.3   1 <1>  -0.2400 
 23 C       -8.5370    -9.5980    -0.5170 C.3   1 <1>  -0.2400 
 24 C       -7.4600    -5.4980    -1.9160 C.ar  1 <1>  -0.1500 
 25 C       -7.6580    -4.3520     0.1760 C.ar  1 <1>  -0.1500 
 26 C       -7.8980    -4.4090    -1.1840 C.ar  1 <1>  -0.1500 
 27 H       -3.6080    -1.3490    -2.3450 H     1 <1>   0.1500 
 28 H       -5.0080    -2.8130     1.6760 H     1 <1>   0.1500 
 29 H       -2.6030    -4.0330     2.1730 H     1 <1>   0.0800 
 30 H       -1.3450    -3.8520     0.9890 H     1 <1>   0.0800 
 31 H       -0.8940    -5.5220    -0.5420 H     1 <1>   0.0800 
 32 H       -2.3820    -5.4130    -1.4570 H     1 <1>   0.0800 
 33 H       -1.8980    -6.9350    -0.7210 H     1 <1>   0.0800 
 34 H       -4.1710    -7.2430    -0.5890 H     1 <1>   0.0800 
 35 H       -5.8960    -7.4920     1.8510 H     1 <1>   0.0800 
 36 H       -3.6580    -9.5510    -1.0380 H     1 <1>   0.0800 
 37 H       -3.4380   -10.5750     0.3590 H     1 <1>   0.0800 
 38 H       -8.1820    -8.1920     1.0210 H     1 <1>   0.0800 
 39 H       -6.4480    -7.3700    -1.8670 H     1 <1>   0.1500 
 40 H       -6.7920    -5.3180     1.8640 H     1 <1>   0.1500 
 41 H       -7.6060   -11.0910     1.6260 H     1 <1>   0.0800 
 42 H       -8.9650   -10.1520     2.1730 H     1 <1>   0.0800 
 43 H       -7.3630    -9.7570     2.7380 H     1 <1>   0.0800 
 44 H       -8.2370   -10.5830    -0.8210 H     1 <1>   0.0800 
 45 H       -8.3850    -8.9130    -1.3300 H     1 <1>   0.0800 
 46 H       -9.5880    -9.6250    -0.2930 H     1 <1>   0.0800 
 47 H       -7.6480    -5.5460    -2.9740 H     1 <1>   0.1500 
 48 H       -7.9970    -3.5040     0.7460 H     1 <1>   0.1500 
 49 H       -8.4250    -3.6080    -1.6730 H     1 <1>   0.1500 
@<TRIPOS>BOND
  1   1   2  1   
  2   1   3  1   
  3   2   4  2   
  4   2  27  1   
  5   3   5  2   
  6   3  28  1   
  7   4   5  1   
  8   5   6  1   
  9   6   7  1   
 10   6  29  1   
 11   6  30  1   
 12   7   8  am  
 13   7   9  1   
 14   8  10  2   
 15   8  11  1   
 16   9  31  1   
 17   9  32  1   
 18   9  33  1   
 19  11  12  1   
 20  11  13  1   
 21  11  34  1   
 22  12  14  1   
 23  13  15  1   
 24  13  16  1   
 25  13  35  1   
 26  14  17  1   
 27  14  36  1   
 28  14  37  1   
 29  15  17  am  
 30  15  18  1   
 31  16  19  ar  
 32  16  20  ar  
 33  17  21  2   
 34  18  22  1   
 35  18  23  1   
 36  18  38  1   
 37  19  24  ar  
 38  19  39  1   
 39  20  25  ar  
 40  20  40  1   
 41  22  41  1   
 42  22  42  1   
 43  22  43  1   
 44  23  44  1   
 45  23  45  1   
 46  23  46  1   
 47  24  26  ar  
 48  24  47  1   
 49  25  26  ar  
 50  25  48  1   
 51  26  49  1   
@<TRIPOS>SUBSTRUCTURE
  1 ****  16 GROUP 4 **** **** 0

# MOE 2024.06 (io_trps.svl 2023.06)
