@<TRIPOS>MOLECULE
NONAME
63 65 1 0 0 
SMALL
USER_CHARGES


@<TRIPOS>ATOM
  1 F       -0.5740     0.8660    -0.7480 F     1 <1>  -0.1900 
  2 C       -1.8650     0.9350    -0.5430 C.ar  1 <1>   0.1900 
  3 C       -2.6960     1.7620    -1.3060 C.ar  1 <1>   0.0830 
  4 C       -2.3680     0.1470     0.4750 C.ar  1 <1>  -0.1500 
  5 O       -2.3220     2.5820    -2.3300 O.3   1 <1>  -0.3630 
  6 C       -4.0480     1.7650    -1.0070 C.ar  1 <1>  -0.1500 
  7 C       -3.7230     0.1750     0.7470 C.ar  1 <1>  -0.1500 
  8 C       -0.9950     2.6710    -2.8000 C.3   1 <1>   0.0400 
  9 C       -4.5960     0.9810     0.0120 C.ar  1 <1>   0.0530 
 10 C       -6.0120     1.0210     0.2870 C.2   1 <1>   0.0870 
 11 O       -6.6980     2.1080     0.0340 O.3   1 <1>  -0.0190 
 12 C       -6.8910     0.1190     0.8010 C.2   1 <1>  -0.0860 
 13 N       -7.9650     1.9980     0.3340 N.2   1 <1>  -0.4100 
 14 C       -8.1090     0.8060     0.7910 C.2   1 <1>   0.3720 
 15 C       -6.7380    -1.2290     1.2380 C.2   1 <1>   0.7160 
 16 N       -9.3490     0.2770     1.1990 N.pl3 1 <1>  -0.8210 
 17 O       -5.9980    -2.0140     0.6770 O.2   1 <1>  -0.5700 
 18 N       -7.5030    -1.6880     2.2670 N.am  1 <1>  -0.7300 
 19 C       -9.8840     0.9920     2.3970 C.3   1 <1>   0.1290 
 20 C      -10.3560     0.3380     0.0960 C.3   1 <1>   0.1290 
 21 C       -7.8890    -3.1080     2.4110 C.3   1 <1>   0.1400 
 22 C       -8.8360    -3.5010     1.2640 C.3   1 <1>   0.2000 
 23 O       -9.9330    -2.6260     1.2290 O.3   1 <1>  -0.6800 
 24 C       -9.3480    -4.9500     1.3970 C.3   1 <1>   0.3430 
 25 N      -10.5890    -5.1340     0.5850 N.4   1 <1>  -0.9590 
 26 C      -11.4790    -6.1720     1.1670 C.3   1 <1>   0.3430 
 27 C      -10.2850    -5.3040    -0.8640 C.3   1 <1>   0.3430 
 28 C      -12.8780    -6.1420     0.5480 C.3   1 <1>  -0.1600 
 29 C      -11.4080    -4.6880    -1.6970 C.3   1 <1>  -0.1600 
 30 C      -12.9150    -6.6690    -0.8940 C.3   1 <1>  -0.1600 
 31 C      -12.6080    -5.6120    -1.9650 C.3   1 <1>  -0.1600 
 32 H       -1.7050    -0.4800     1.0440 H     1 <1>   0.1500 
 33 H       -4.6940     2.3980    -1.5900 H     1 <1>   0.1500 
 34 H       -4.1030    -0.4380     1.5440 H     1 <1>   0.1500 
 35 H       -0.9780     3.3630    -3.6220 H     1 <1>   0.0800 
 36 H       -0.6760     1.6990    -3.1340 H     1 <1>   0.0800 
 37 H       -0.3660     3.0330    -2.0060 H     1 <1>   0.0800 
 38 H       -8.2100    -1.0130     2.5820 H     1 <1>   0.3700 
 39 H       -9.1350     1.0340     3.1700 H     1 <1>   0.0800 
 40 H      -10.7500     0.4800     2.7790 H     1 <1>   0.0800 
 41 H      -10.1590     2.0020     2.1370 H     1 <1>   0.0800 
 42 H       -9.9600    -0.1320    -0.7890 H     1 <1>   0.0800 
 43 H      -10.5930     1.3630    -0.1400 H     1 <1>   0.0800 
 44 H      -11.2590    -0.1720     0.3860 H     1 <1>   0.0800 
 45 H       -8.3680    -3.2550     3.3640 H     1 <1>   0.0800 
 46 H       -7.0020    -3.7190     2.3800 H     1 <1>   0.0800 
 47 H       -8.3100    -3.4010     0.3290 H     1 <1>   0.0800 
 48 H       -9.6190    -1.6820     1.2010 H     1 <1>   0.4000 
 49 H       -9.5720    -5.1280     2.4360 H     1 <1>   0.0800 
 50 H       -8.5840    -5.6480     1.0970 H     1 <1>   0.0800 
 51 H      -11.0590    -4.2140     0.6780 H     1 <1>   0.4500 
 52 H      -11.5760    -5.9980     2.2270 H     1 <1>   0.0800 
 53 H      -11.0450    -7.1490     1.0290 H     1 <1>   0.0800 
 54 H      -10.1520    -6.3450    -1.1120 H     1 <1>   0.0800 
 55 H       -9.3720    -4.7810    -1.0980 H     1 <1>   0.0800 
 56 H      -13.3080    -5.1580     0.6140 H     1 <1>   0.0800 
 57 H      -13.4950    -6.7920     1.1440 H     1 <1>   0.0800 
 58 H      -10.9970    -4.4080    -2.6520 H     1 <1>   0.0800 
 59 H      -11.7420    -3.7770    -1.2320 H     1 <1>   0.0800 
 60 H      -13.9030    -7.0510    -1.0930 H     1 <1>   0.0800 
 61 H      -12.2390    -7.5010    -0.9960 H     1 <1>   0.0800 
 62 H      -12.4470    -6.1290    -2.8960 H     1 <1>   0.0800 
 63 H      -13.4810    -4.9960    -2.1070 H     1 <1>   0.0800 
@<TRIPOS>BOND
  1   1   2  1   
  2   2   3  ar  
  3   2   4  ar  
  4   3   5  1   
  5   3   6  ar  
  6   4   7  ar  
  7   4  32  1   
  8   5   8  1   
  9   6   9  ar  
 10   6  33  1   
 11   7   9  ar  
 12   7  34  1   
 13   8  35  1   
 14   8  36  1   
 15   8  37  1   
 16   9  10  1   
 17  10  11  1   
 18  10  12  2   
 19  11  13  1   
 20  12  14  1   
 21  12  15  1   
 22  13  14  2   
 23  14  16  1   
 24  15  17  2   
 25  15  18  am  
 26  16  19  1   
 27  16  20  1   
 28  18  21  1   
 29  18  38  1   
 30  19  39  1   
 31  19  40  1   
 32  19  41  1   
 33  20  42  1   
 34  20  43  1   
 35  20  44  1   
 36  21  22  1   
 37  21  45  1   
 38  21  46  1   
 39  22  23  1   
 40  22  24  1   
 41  22  47  1   
 42  23  48  1   
 43  24  25  1   
 44  24  49  1   
 45  24  50  1   
 46  25  26  1   
 47  25  27  1   
 48  25  51  1   
 49  26  28  1   
 50  26  52  1   
 51  26  53  1   
 52  27  29  1   
 53  27  54  1   
 54  27  55  1   
 55  28  30  1   
 56  28  56  1   
 57  28  57  1   
 58  29  31  1   
 59  29  58  1   
 60  29  59  1   
 61  30  31  1   
 62  30  60  1   
 63  30  61  1   
 64  31  62  1   
 65  31  63  1   
@<TRIPOS>SUBSTRUCTURE
  1 ****  15 GROUP 4 **** **** 0

# MOE 2024.06 (io_trps.svl 2023.06)
