@<TRIPOS>MOLECULE
NONAME
44 46 1 0 0 
SMALL
USER_CHARGES


@<TRIPOS>ATOM
  1 O       -1.9420     0.5130    -2.1430 O.2   1 <1>  -0.5700 
  2 C       -1.7090     0.5460    -0.9490 C.2   1 <1>   0.7150 
  3 N       -1.7550    -0.6200    -0.2440 N.am  1 <1>  -0.7300 
  4 C       -1.4150     1.7880    -0.2870 C.2   1 <1>   0.0550 
  5 C       -2.0960    -1.9550    -0.7870 C.3   1 <1>   0.2200 
  6 O       -1.2250     1.8400     1.0120 O.3   1 <1>  -0.0190 
  7 C       -1.2810     3.0560    -0.7370 C.2   1 <1>  -0.1500 
  8 C       -3.5020    -2.3720    -0.3770 C.3   1 <1>  -0.0800 
  9 C       -1.2700    -3.0060    -0.0600 C.3   1 <1>   0.1200 
 10 N       -0.9810     3.0390     1.4420 N.2   1 <1>  -0.4100 
 11 C       -1.0080     3.8010     0.4010 C.2   1 <1>   0.1080 
 12 C       -3.2920    -2.9650     1.0210 C.3   1 <1>   0.1200 
 13 C       -4.5800    -1.2730    -0.4420 C.3   1 <1>  -0.0160 
 14 O       -1.9190    -3.1980     1.1600 O.3   1 <1>  -0.5600 
 15 C       -0.7730     5.3080     0.4160 C.3   1 <1>   0.1010 
 16 C       -5.9440    -1.8260    -0.0630 C.ar  1 <1>  -0.1440 
 17 C        0.6320     5.6350     0.9370 C.3   1 <1>  -0.2400 
 18 C       -1.8370     6.0160     1.2640 C.3   1 <1>  -0.2400 
 19 C       -6.4850    -1.6430     1.1940 C.ar  1 <1>  -0.1500 
 20 C       -6.7130    -2.5420    -0.9590 C.ar  1 <1>  -0.1500 
 21 C       -7.7290    -2.1740     1.4870 C.ar  1 <1>   0.1600 
 22 C       -7.9470    -3.0310    -0.5640 C.ar  1 <1>   0.1600 
 23 N       -8.4730    -2.8660     0.6390 N.ar  1 <1>  -0.6200 
 24 H       -1.5700    -0.6040     0.7620 H     1 <1>   0.3700 
 25 H       -1.9470    -1.9840    -1.8540 H     1 <1>   0.0800 
 26 H       -1.3670     3.4150    -1.7460 H     1 <1>   0.1500 
 27 H       -3.8070    -3.1770    -1.0220 H     1 <1>   0.0800 
 28 H       -0.2540    -2.6960     0.1130 H     1 <1>   0.0800 
 29 H       -1.2840    -3.9410    -0.5920 H     1 <1>   0.0800 
 30 H       -3.8200    -3.8950     1.1440 H     1 <1>   0.0800 
 31 H       -3.5830    -2.2770     1.7950 H     1 <1>   0.0800 
 32 H       -4.6220    -0.8720    -1.4400 H     1 <1>   0.0800 
 33 H       -4.3340    -0.4620     0.2210 H     1 <1>   0.0800 
 34 H       -0.8500     5.6720    -0.5940 H     1 <1>   0.0800 
 35 H        0.7410     5.2950     1.9520 H     1 <1>   0.0800 
 36 H        0.8080     6.6950     0.9060 H     1 <1>   0.0800 
 37 H        1.3720     5.1430     0.3320 H     1 <1>   0.0800 
 38 H       -1.7820     5.6820     2.2860 H     1 <1>   0.0800 
 39 H       -2.8180     5.7910     0.8850 H     1 <1>   0.0800 
 40 H       -1.6920     7.0810     1.2380 H     1 <1>   0.0800 
 41 H       -5.9530    -1.0930     1.9480 H     1 <1>   0.1500 
 42 H       -6.3650    -2.7220    -1.9590 H     1 <1>   0.1500 
 43 H       -8.1350    -2.0220     2.4730 H     1 <1>   0.1500 
 44 H       -8.5330    -3.5870    -1.2760 H     1 <1>   0.1500 
@<TRIPOS>BOND
  1   1   2  2   
  2   2   3  am  
  3   2   4  1   
  4   3   5  1   
  5   3  24  1   
  6   4   6  1   
  7   4   7  2   
  8   5   8  1   
  9   5   9  1   
 10   5  25  1   
 11   6  10  1   
 12   7  11  1   
 13   7  26  1   
 14   8  12  1   
 15   8  13  1   
 16   8  27  1   
 17   9  14  1   
 18   9  28  1   
 19   9  29  1   
 20  10  11  2   
 21  11  15  1   
 22  12  14  1   
 23  12  30  1   
 24  12  31  1   
 25  13  16  1   
 26  13  32  1   
 27  13  33  1   
 28  15  17  1   
 29  15  18  1   
 30  15  34  1   
 31  16  19  ar  
 32  16  20  ar  
 33  17  35  1   
 34  17  36  1   
 35  17  37  1   
 36  18  38  1   
 37  18  39  1   
 38  18  40  1   
 39  19  21  ar  
 40  19  41  1   
 41  20  22  ar  
 42  20  42  1   
 43  21  23  ar  
 44  21  43  1   
 45  22  23  ar  
 46  22  44  1   
@<TRIPOS>SUBSTRUCTURE
  1 ****   3 GROUP 4 **** **** 0

# MOE 2024.06 (io_trps.svl 2023.06)
