@<TRIPOS>MOLECULE
NONAME
45 47 1 0 0 
SMALL
USER_CHARGES


@<TRIPOS>ATOM
  1 O       -0.6940     0.2870     0.1080 O.2   1 <1>  -0.5700 
  2 C       -1.4240     1.2590    -0.0240 C.2   1 <1>   0.7150 
  3 N       -2.7930     1.0330    -0.0650 N.am  1 <1>  -0.6600 
  4 C       -0.7910     2.5660    -0.1270 C.2   1 <1>   0.1010 
  5 C       -3.3830    -0.2620     0.3930 C.3   1 <1>   0.1400 
  6 C       -3.7680     2.0280    -0.5940 C.3   1 <1>   0.1400 
  7 N       -1.3210     3.7720    -0.0680 N.2   1 <1>  -0.5650 
  8 N        0.5560     2.6360    -0.2890 N.pl3 1 <1>   0.0330 
  9 C       -4.3960    -0.0680     1.5320 C.3   1 <1>   0.1400 
 10 C       -4.4390     2.7600     0.5730 C.3   1 <1>  -0.1600 
 11 C       -0.2850     4.6110    -0.2030 C.2   1 <1>   0.0770 
 12 C        0.8750     3.9350    -0.3390 C.2   1 <1>  -0.3020 
 13 N       -5.6560     0.5770     1.0450 N.am  1 <1>  -0.6600 
 14 C       -5.6970     2.0700     1.1220 C.3   1 <1>   0.1400 
 15 C       -6.7490    -0.1240     0.5940 C.2   1 <1>   0.5690 
 16 O       -7.7640     0.4350     0.2510 O.2   1 <1>  -0.5700 
 17 C       -6.7120    -1.6460     0.5200 C.3   1 <1>  -0.0990 
 18 C       -7.8880    -2.2610    -0.2520 C.3   1 <1>  -0.0170 
 19 C       -7.7390    -3.7710    -0.3170 C.ar  1 <1>  -0.1430 
 20 C       -8.2830    -4.6000     0.6430 C.ar  1 <1>  -0.1500 
 21 C       -7.0450    -4.3920    -1.3360 C.ar  1 <1>  -0.1500 
 22 C       -8.1090    -5.9700     0.5430 C.ar  1 <1>   0.1600 
 23 C       -6.9290    -5.7720    -1.3430 C.ar  1 <1>   0.1600 
 24 N       -7.4420    -6.5770    -0.4260 N.ar  1 <1>  -0.6200 
 25 H       -2.6070    -0.9150     0.7510 H     1 <1>   0.0800 
 26 H       -3.8540    -0.7510    -0.4410 H     1 <1>   0.0800 
 27 H       -4.5070     1.5340    -1.2020 H     1 <1>   0.0800 
 28 H       -3.2620     2.7350    -1.2270 H     1 <1>   0.0800 
 29 H        1.1690     1.8140    -0.3400 H     1 <1>   0.2700 
 30 H       -3.9530     0.5310     2.3090 H     1 <1>   0.0800 
 31 H       -4.6230    -1.0250     1.9650 H     1 <1>   0.0800 
 32 H       -4.7290     3.7380     0.2350 H     1 <1>   0.0800 
 33 H       -3.7260     2.9120     1.3630 H     1 <1>   0.0800 
 34 H       -0.4220     5.6800    -0.1940 H     1 <1>   0.1500 
 35 H        1.8780     4.3020    -0.4630 H     1 <1>   0.1500 
 36 H       -6.5400     2.4330     0.5590 H     1 <1>   0.0800 
 37 H       -5.8490     2.3650     2.1450 H     1 <1>   0.0800 
 38 H       -6.7140    -2.0330     1.5210 H     1 <1>   0.0800 
 39 H       -5.8020    -1.9500     0.0390 H     1 <1>   0.0800 
 40 H       -7.9210    -1.8550    -1.2490 H     1 <1>   0.0800 
 41 H       -8.8160    -2.0060     0.2330 H     1 <1>   0.0800 
 42 H       -8.8400    -4.1930     1.4670 H     1 <1>   0.1500 
 43 H       -6.5950    -3.8160    -2.1240 H     1 <1>   0.1500 
 44 H       -8.5420    -6.6010     1.3000 H     1 <1>   0.1500 
 45 H       -6.3840    -6.2380    -2.1460 H     1 <1>   0.1500 
@<TRIPOS>BOND
  1   1   2  2   
  2   2   3  am  
  3   2   4  1   
  4   3   5  1   
  5   3   6  1   
  6   4   7  2   
  7   4   8  1   
  8   5   9  1   
  9   5  25  1   
 10   5  26  1   
 11   6  10  1   
 12   6  27  1   
 13   6  28  1   
 14   7  11  1   
 15   8  12  1   
 16   8  29  1   
 17   9  13  1   
 18   9  30  1   
 19   9  31  1   
 20  10  14  1   
 21  10  32  1   
 22  10  33  1   
 23  11  12  2   
 24  11  34  1   
 25  12  35  1   
 26  13  14  1   
 27  13  15  am  
 28  14  36  1   
 29  14  37  1   
 30  15  16  2   
 31  15  17  1   
 32  17  18  1   
 33  17  38  1   
 34  17  39  1   
 35  18  19  1   
 36  18  40  1   
 37  18  41  1   
 38  19  20  ar  
 39  19  21  ar  
 40  20  22  ar  
 41  20  42  1   
 42  21  23  ar  
 43  21  43  1   
 44  22  24  ar  
 45  22  44  1   
 46  23  24  ar  
 47  23  45  1   
@<TRIPOS>SUBSTRUCTURE
  1 ****   5 GROUP 4 **** **** 0

# MOE 2024.06 (io_trps.svl 2023.06)
