@<TRIPOS>MOLECULE
NONAME
42 44 1 0 0 
SMALL
USER_CHARGES


@<TRIPOS>ATOM
  1 S        0.4490    -0.6800    -2.0860 S.3   1 <1>  -0.0800 
  2 C        1.1510    -1.1690    -0.5560 C.2   1 <1>  -0.0450 
  3 C        1.1300     0.9100    -1.8860 C.2   1 <1>   0.2280 
  4 C        1.8240    -0.0970    -0.0720 C.2   1 <1>   0.0460 
  5 C        0.9700    -2.5180    -0.0770 C.2   1 <1>   0.7150 
  6 N        1.8010     1.0640    -0.8170 N.2   1 <1>  -0.5650 
  7 C        2.6110    -0.0370     1.2210 C.3   1 <1>  -0.0590 
  8 O        1.9110    -3.1040     0.4270 O.2   1 <1>  -0.5700 
  9 N       -0.2400    -3.1710    -0.1440 N.am  1 <1>  -0.6600 
 10 C       -1.5560    -2.5160    -0.3210 C.3   1 <1>   0.1400 
 11 C       -0.4140    -4.5720     0.2980 C.3   1 <1>   0.1400 
 12 C       -2.5480    -3.3990     0.4470 C.3   1 <1>  -0.0800 
 13 C       -1.9260    -4.8070     0.3860 C.3   1 <1>  -0.0800 
 14 C       -4.0380    -3.3150    -0.0070 C.3   1 <1>   0.2800 
 15 C       -2.4700    -5.5960    -0.8150 C.3   1 <1>  -0.1600 
 16 O       -4.1150    -2.9470    -1.3370 O.3   1 <1>  -0.6800 
 17 C       -4.7060    -4.6980     0.1020 C.3   1 <1>  -0.1600 
 18 C       -4.8500    -2.2730     0.7950 C.3   1 <1>  -0.1600 
 19 C       -3.9940    -5.7950    -0.7200 C.3   1 <1>  -0.1600 
 20 C       -4.3430    -0.8220     0.7080 C.3   1 <1>  -0.2400 
 21 H        0.9370     1.6300    -2.6610 H     1 <1>   0.1500 
 22 H        2.5490    -0.9640     1.7600 H     1 <1>   0.0800 
 23 H        2.2250     0.7510     1.8420 H     1 <1>   0.0800 
 24 H        3.6430     0.1670     1.0030 H     1 <1>   0.0800 
 25 H       -1.5470    -1.5100     0.0580 H     1 <1>   0.0800 
 26 H       -1.7770    -2.5000    -1.3740 H     1 <1>   0.0800 
 27 H        0.0570    -5.2440    -0.3990 H     1 <1>   0.0800 
 28 H        0.0390    -4.6960     1.2670 H     1 <1>   0.0800 
 29 H       -2.5000    -3.1000     1.4790 H     1 <1>   0.0800 
 30 H       -2.1460    -5.3580     1.2830 H     1 <1>   0.0800 
 31 H       -2.2460    -5.0500    -1.7170 H     1 <1>   0.0800 
 32 H       -1.9850    -6.5540    -0.8870 H     1 <1>   0.0800 
 33 H       -5.0440    -2.9750    -1.6250 H     1 <1>   0.4000 
 34 H       -4.6880    -4.9920     1.1380 H     1 <1>   0.0800 
 35 H       -5.7400    -4.6440    -0.1860 H     1 <1>   0.0800 
 36 H       -5.8730    -2.2980     0.4630 H     1 <1>   0.0800 
 37 H       -4.8560    -2.5650     1.8310 H     1 <1>   0.0800 
 38 H       -4.2050    -6.7510    -0.2730 H     1 <1>   0.0800 
 39 H       -4.3960    -5.8110    -1.7190 H     1 <1>   0.0800 
 40 H       -4.2680    -0.5050    -0.3170 H     1 <1>   0.0800 
 41 H       -3.3800    -0.7230     1.1750 H     1 <1>   0.0800 
 42 H       -5.0280    -0.1660     1.2160 H     1 <1>   0.0800 
@<TRIPOS>BOND
  1   1   2  1   
  2   1   3  1   
  3   2   4  2   
  4   2   5  1   
  5   3   6  2   
  6   3  21  1   
  7   4   6  1   
  8   4   7  1   
  9   5   8  2   
 10   5   9  am  
 11   7  22  1   
 12   7  23  1   
 13   7  24  1   
 14   9  10  1   
 15   9  11  1   
 16  10  12  1   
 17  10  25  1   
 18  10  26  1   
 19  11  13  1   
 20  11  27  1   
 21  11  28  1   
 22  12  13  1   
 23  12  14  1   
 24  12  29  1   
 25  13  15  1   
 26  13  30  1   
 27  14  16  1   
 28  14  17  1   
 29  14  18  1   
 30  15  19  1   
 31  15  31  1   
 32  15  32  1   
 33  16  33  1   
 34  17  19  1   
 35  17  34  1   
 36  17  35  1   
 37  18  20  1   
 38  18  36  1   
 39  18  37  1   
 40  19  38  1   
 41  19  39  1   
 42  20  40  1   
 43  20  41  1   
 44  20  42  1   
@<TRIPOS>SUBSTRUCTURE
  1 ****  10 GROUP 4 **** **** 0

# MOE 2024.06 (io_trps.svl 2023.06)
