@<TRIPOS>MOLECULE
NONAME
47 49 1 0 0 
SMALL
USER_CHARGES


@<TRIPOS>ATOM
  1 O        0.4750     2.8030    -2.5930 O.co2 1 <1>  -0.9000 
  2 C       -0.2920     2.2800    -1.7760 C.2   1 <1>   0.9060 
  3 O       -1.1620     1.4730    -2.1390 O.co2 1 <1>  -0.9000 
  4 C       -0.2300     2.6300    -0.2910 C.3   1 <1>  -0.1060 
  5 C       -1.6420     3.1580     0.0490 C.3   1 <1>   0.2000 
  6 C        0.8320     3.7170     0.0370 C.3   1 <1>   0.1100 
  7 C        0.1220     1.3410     0.5140 C.3   1 <1>  -0.0170 
  8 O       -2.5240     2.1110     0.2320 O.3   1 <1>  -0.6800 
  9 C       -1.6430     4.0570     1.2790 C.3   1 <1>  -0.1600 
 10 N        0.3180     5.1060     0.0710 N.3   1 <1>  -0.8100 
 11 C        1.5970     0.9420     0.4820 C.ar  1 <1>  -0.1440 
 12 C       -0.7990     5.3160     1.0210 C.3   1 <1>   0.1100 
 13 C        0.0460     5.6290    -1.3110 C.3   1 <1>   0.1710 
 14 C        2.3690     1.0210     1.6330 C.ar  1 <1>  -0.1500 
 15 C        2.1810     0.4900    -0.6910 C.ar  1 <1>  -0.1500 
 16 C        0.0910     7.1570    -1.3910 C.2   1 <1>   0.5690 
 17 C        3.7050     0.6560     1.6100 C.ar  1 <1>  -0.1500 
 18 C        3.5170     0.1270    -0.7170 C.ar  1 <1>  -0.1500 
 19 O       -0.5800     7.7550    -2.2020 O.2   1 <1>  -0.5700 
 20 N        0.9010     7.7870    -0.5010 N.am  1 <1>  -0.5790 
 21 C        4.2800     0.2090     0.4340 C.ar  1 <1>  -0.1500 
 22 C        1.1180     9.2290    -0.3580 C.3   1 <1>   0.0490 
 23 C        2.4660     9.6930     0.0810 C.3   1 <1>  -0.2000 
 24 C        1.2980     9.7770     1.0180 C.3   1 <1>  -0.2000 
 25 H       -2.0230     3.7250    -0.7830 H     1 <1>   0.0800 
 26 H        1.6620     3.6450    -0.6460 H     1 <1>   0.0800 
 27 H        1.2320     3.5200     1.0160 H     1 <1>   0.0800 
 28 H       -0.1730     1.4810     1.5380 H     1 <1>   0.0800 
 29 H       -0.4550     0.5110     0.1440 H     1 <1>   0.0800 
 30 H       -2.4300     1.5520    -0.5840 H     1 <1>   0.4000 
 31 H       -2.6490     4.3490     1.5190 H     1 <1>   0.0800 
 32 H       -1.2370     3.5240     2.1180 H     1 <1>   0.0800 
 33 H       -0.3930     5.6540     1.9580 H     1 <1>   0.0800 
 34 H       -1.4390     6.0990     0.6500 H     1 <1>   0.0800 
 35 H        0.7950     5.2560    -1.9880 H     1 <1>   0.0800 
 36 H       -0.9060     5.2860    -1.6700 H     1 <1>   0.0800 
 37 H        1.9320     1.3680     2.5510 H     1 <1>   0.1500 
 38 H        1.5980     0.4240    -1.5950 H     1 <1>   0.1500 
 39 H        4.2950     0.7220     2.5070 H     1 <1>   0.1500 
 40 H        3.9540    -0.2150    -1.6380 H     1 <1>   0.1500 
 41 H        1.3500     7.1650     0.1790 H     1 <1>   0.3700 
 42 H        5.3180    -0.0730     0.4120 H     1 <1>   0.1500 
 43 H        0.5770     9.8140    -1.0860 H     1 <1>   0.1000 
 44 H        3.2310     8.9570     0.2550 H     1 <1>   0.1000 
 45 H        2.8550    10.6060    -0.3340 H     1 <1>   0.1000 
 46 H        0.8940    10.7490     1.2420 H     1 <1>   0.1000 
 47 H        1.2450     9.1020     1.8540 H     1 <1>   0.1000 
@<TRIPOS>BOND
  1   1   2  ar  
  2   2   3  ar  
  3   2   4  1   
  4   4   5  1   
  5   4   6  1   
  6   4   7  1   
  7   5   8  1   
  8   5   9  1   
  9   5  25  1   
 10   6  10  1   
 11   6  26  1   
 12   6  27  1   
 13   7  11  1   
 14   7  28  1   
 15   7  29  1   
 16   8  30  1   
 17   9  12  1   
 18   9  31  1   
 19   9  32  1   
 20  10  12  1   
 21  10  13  1   
 22  11  14  ar  
 23  11  15  ar  
 24  12  33  1   
 25  12  34  1   
 26  13  16  1   
 27  13  35  1   
 28  13  36  1   
 29  14  17  ar  
 30  14  37  1   
 31  15  18  ar  
 32  15  38  1   
 33  16  19  2   
 34  16  20  am  
 35  17  21  ar  
 36  17  39  1   
 37  18  21  ar  
 38  18  40  1   
 39  20  22  1   
 40  20  41  1   
 41  21  42  1   
 42  22  23  1   
 43  22  24  1   
 44  22  43  1   
 45  23  24  1   
 46  23  44  1   
 47  23  45  1   
 48  24  46  1   
 49  24  47  1   
@<TRIPOS>SUBSTRUCTURE
  1 ****   6 GROUP 4 **** **** 0

# MOE 2024.06 (io_trps.svl 2023.06)
