@<TRIPOS>MOLECULE
NONAME
47 48 1 0 0 
SMALL
USER_CHARGES


@<TRIPOS>ATOM
  1 CL       0.0100     0.8110    -1.0790 Cl    1 <1>  -0.1770 
  2 C       -1.6450     1.0490    -0.5860 C.ar  1 <1>   0.1770 
  3 C       -2.2340     2.2870    -0.7540 C.ar  1 <1>  -0.1500 
  4 C       -2.3490    -0.0020    -0.0300 C.ar  1 <1>  -0.1500 
  5 C       -3.5470     2.4700    -0.3600 C.ar  1 <1>  -0.1500 
  6 C       -3.6610     0.1940     0.3620 C.ar  1 <1>  -0.1500 
  7 C       -4.2920     1.4310     0.2040 C.ar  1 <1>   0.0530 
  8 C       -5.6550     1.6540     0.6180 C.2   1 <1>   0.0870 
  9 O       -5.9630     2.7820     1.2090 O.3   1 <1>  -0.0190 
 10 C       -6.7980     0.9160     0.5540 C.2   1 <1>  -0.0860 
 11 N       -7.2200     2.8560     1.5510 N.2   1 <1>  -0.4100 
 12 C       -7.7430     1.7550     1.1600 C.2   1 <1>   0.3720 
 13 C       -7.0470    -0.3930     0.0290 C.2   1 <1>   0.7160 
 14 N       -9.0980     1.5190     1.3420 N.pl3 1 <1>  -0.8520 
 15 O       -6.2580    -0.9470    -0.7100 O.2   1 <1>  -0.5700 
 16 N       -8.1830    -1.0620     0.3690 N.am  1 <1>  -0.7300 
 17 C       -9.9110     1.8530     0.1400 C.3   1 <1>   0.2090 
 18 C       -8.4760    -2.4990     0.0890 C.3   1 <1>   0.1400 
 19 C      -11.3200     1.2750     0.2620 C.3   1 <1>   0.1200 
 20 C       -9.9920    -2.7890     0.0220 C.3   1 <1>   0.2800 
 21 O      -11.9840     1.4970    -0.9410 O.3   1 <1>  -0.5600 
 22 O      -10.5640    -1.8920    -0.8460 O.3   1 <1>  -0.6800 
 23 C      -10.6780    -2.5950     1.3760 C.3   1 <1>  -0.2400 
 24 C      -10.2760    -4.1820    -0.5340 C.3   1 <1>  -0.2400 
 25 C      -13.1520     0.7530    -1.0830 C.3   1 <1>   0.0400 
 26 H       -1.6680     3.0920    -1.1880 H     1 <1>   0.1500 
 27 H       -1.8730    -0.9580     0.0920 H     1 <1>   0.1500 
 28 H       -4.0080     3.4340    -0.4900 H     1 <1>   0.1500 
 29 H       -4.2050    -0.6250     0.7970 H     1 <1>   0.1500 
 30 H       -9.4000     2.1450     2.1000 H     1 <1>   0.4000 
 31 H       -8.8230    -0.5630     1.0030 H     1 <1>   0.3700 
 32 H       -9.4420     1.4420    -0.7390 H     1 <1>   0.0800 
 33 H       -9.9700     2.9230     0.0310 H     1 <1>   0.0800 
 34 H       -8.0330    -3.1040     0.8610 H     1 <1>   0.0800 
 35 H       -8.0180    -2.7810    -0.8440 H     1 <1>   0.0800 
 36 H      -11.8690     1.7620     1.0490 H     1 <1>   0.0800 
 37 H      -11.2700     0.2170     0.4430 H     1 <1>   0.0800 
 38 H       -9.9200    -1.1730    -1.0070 H     1 <1>   0.4000 
 39 H      -10.5120    -1.6050     1.7570 H     1 <1>   0.0800 
 40 H      -10.2880    -3.2980     2.0890 H     1 <1>   0.0800 
 41 H      -11.7360    -2.7620     1.2820 H     1 <1>   0.0800 
 42 H       -9.8380    -4.2930    -1.5100 H     1 <1>   0.0800 
 43 H      -11.3370    -4.3450    -0.6080 H     1 <1>   0.0800 
 44 H       -9.8610    -4.9330     0.1130 H     1 <1>   0.0800 
 45 H      -13.6020     1.0130    -2.0250 H     1 <1>   0.0800 
 46 H      -13.8270     0.9900    -0.2790 H     1 <1>   0.0800 
 47 H      -12.9080    -0.2960    -1.0780 H     1 <1>   0.0800 
@<TRIPOS>BOND
  1   1   2  1   
  2   2   3  ar  
  3   2   4  ar  
  4   3   5  ar  
  5   3  26  1   
  6   4   6  ar  
  7   4  27  1   
  8   5   7  ar  
  9   5  28  1   
 10   6   7  ar  
 11   6  29  1   
 12   7   8  1   
 13   8   9  1   
 14   8  10  2   
 15   9  11  1   
 16  10  12  1   
 17  10  13  1   
 18  11  12  2   
 19  12  14  1   
 20  13  15  2   
 21  13  16  am  
 22  14  17  1   
 23  14  30  1   
 24  16  18  1   
 25  16  31  1   
 26  17  19  1   
 27  17  32  1   
 28  17  33  1   
 29  18  20  1   
 30  18  34  1   
 31  18  35  1   
 32  19  21  1   
 33  19  36  1   
 34  19  37  1   
 35  20  22  1   
 36  20  23  1   
 37  20  24  1   
 38  21  25  1   
 39  22  38  1   
 40  23  39  1   
 41  23  40  1   
 42  23  41  1   
 43  24  42  1   
 44  24  43  1   
 45  24  44  1   
 46  25  45  1   
 47  25  46  1   
 48  25  47  1   
@<TRIPOS>SUBSTRUCTURE
  1 ****  13 GROUP 4 **** **** 0

# MOE 2024.06 (io_trps.svl 2023.06)
