@<TRIPOS>MOLECULE
NONAME
54 57 1 0 0 
SMALL
USER_CHARGES


@<TRIPOS>ATOM
  1 O        0.5550    -0.2290    -0.1880 O.3   1 <1>  -0.6800 
  2 C        1.6380    -0.2260    -1.0620 C.3   1 <1>   0.2000 
  3 C        2.5720    -1.3990    -0.7520 C.3   1 <1>  -0.0800 
  4 C        2.4950     1.0210    -0.7930 C.3   1 <1>   0.2090 
  5 C        3.4520    -0.8620     0.3730 C.3   1 <1>   0.2090 
  6 C        1.9070    -2.7460    -0.4200 C.3   1 <1>  -0.0170 
  7 N        3.6530     0.5740     0.0390 N.pl3 1 <1>  -0.8380 
  8 C        2.9640    -3.8200    -0.2150 C.ar  1 <1>  -0.1440 
  9 C        4.8820     1.1430    -0.0480 C.ar  1 <1>   0.4100 
 10 C        3.5620    -4.4620    -1.2810 C.ar  1 <1>  -0.1500 
 11 C        3.3890    -4.2010     1.0420 C.ar  1 <1>  -0.1500 
 12 N        5.8640     0.3600    -0.4480 N.ar  1 <1>  -0.6200 
 13 C        5.1000     2.5070     0.2700 C.ar  1 <1>  -0.1430 
 14 C        4.5350    -5.4190    -1.0450 C.ar  1 <1>   0.1600 
 15 C        4.3710    -5.1700     1.1680 C.ar  1 <1>   0.1600 
 16 C        7.0780     0.8680    -0.5630 C.ar  1 <1>   0.7710 
 17 C        6.3550     3.0090     0.1150 C.ar  1 <1>   0.2180 
 18 C        3.9600     3.3820     0.7980 C.3   1 <1>  -0.0160 
 19 N        4.9580    -5.7850     0.1540 N.ar  1 <1>  -0.6200 
 20 N        7.3210     2.1630    -0.3100 N.ar  1 <1>  -0.1790 
 21 N        8.1070     0.0620    -0.9510 N.pl3 1 <1>  -0.8380 
 22 C        6.7420     4.4550     0.4130 C.3   1 <1>  -0.0170 
 23 C        4.4650     4.6610     1.4780 C.3   1 <1>  -0.1600 
 24 C        7.8580    -1.3670    -1.3450 C.3   1 <1>   0.1290 
 25 C        9.5660     0.3980    -0.9600 C.3   1 <1>   0.1290 
 26 C        5.5170     5.3580     0.6110 C.3   1 <1>  -0.1600 
 27 H       -0.0370    -0.9820    -0.3720 H     1 <1>   0.4000 
 28 H        1.2600    -0.2430    -2.0700 H     1 <1>   0.0800 
 29 H        3.2120    -1.5380    -1.6050 H     1 <1>   0.0800 
 30 H        1.9160     1.7690    -0.2810 H     1 <1>   0.0800 
 31 H        2.8620     1.4190    -1.7230 H     1 <1>   0.0800 
 32 H        4.3770    -1.4080     0.4430 H     1 <1>   0.0800 
 33 H        2.9340    -0.9280     1.3150 H     1 <1>   0.0800 
 34 H        1.2580    -3.0390    -1.2270 H     1 <1>   0.0800 
 35 H        1.3090    -2.6600     0.4710 H     1 <1>   0.0800 
 36 H        3.2840    -4.2270    -2.2920 H     1 <1>   0.1500 
 37 H        2.9700    -3.7550     1.9250 H     1 <1>   0.1500 
 38 H        4.9910    -5.9100    -1.8890 H     1 <1>   0.1500 
 39 H        4.6910    -5.4540     2.1560 H     1 <1>   0.1500 
 40 H        3.3220     3.6530    -0.0240 H     1 <1>   0.0800 
 41 H        3.3690     2.8250     1.5060 H     1 <1>   0.0800 
 42 H        8.2740     2.4580    -0.4590 H     1 <1>   0.4570 
 43 H        7.3340     4.4730     1.3120 H     1 <1>   0.0800 
 44 H        7.3380     4.8550    -0.3880 H     1 <1>   0.0800 
 45 H        3.6340     5.3250     1.6490 H     1 <1>   0.0800 
 46 H        4.8890     4.4160     2.4380 H     1 <1>   0.0800 
 47 H        8.5460    -1.6680    -2.1160 H     1 <1>   0.0800 
 48 H        6.8600    -1.5030    -1.7250 H     1 <1>   0.0800 
 49 H        7.9890    -2.0090    -0.4900 H     1 <1>   0.0800 
 50 H       10.1290    -0.4200    -0.5390 H     1 <1>   0.0800 
 51 H        9.7840     1.2750    -0.3790 H     1 <1>   0.0800 
 52 H        9.8990     0.5510    -1.9740 H     1 <1>   0.0800 
 53 H        5.8190     6.2830     1.0740 H     1 <1>   0.0800 
 54 H        5.0840     5.5970    -0.3460 H     1 <1>   0.0800 
@<TRIPOS>BOND
  1   1   2  1   
  2   1  27  1   
  3   2   3  1   
  4   2   4  1   
  5   2  28  1   
  6   3   5  1   
  7   3   6  1   
  8   3  29  1   
  9   4   7  1   
 10   4  30  1   
 11   4  31  1   
 12   5   7  1   
 13   5  32  1   
 14   5  33  1   
 15   6   8  1   
 16   6  34  1   
 17   6  35  1   
 18   7   9  1   
 19   8  10  ar  
 20   8  11  ar  
 21   9  12  ar  
 22   9  13  ar  
 23  10  14  ar  
 24  10  36  1   
 25  11  15  ar  
 26  11  37  1   
 27  12  16  ar  
 28  13  17  ar  
 29  13  18  1   
 30  14  19  ar  
 31  14  38  1   
 32  15  19  ar  
 33  15  39  1   
 34  16  20  ar  
 35  16  21  1   
 36  17  20  ar  
 37  17  22  1   
 38  18  23  1   
 39  18  40  1   
 40  18  41  1   
 41  20  42  1   
 42  21  24  1   
 43  21  25  1   
 44  22  26  1   
 45  22  43  1   
 46  22  44  1   
 47  23  26  1   
 48  23  45  1   
 49  23  46  1   
 50  24  47  1   
 51  24  48  1   
 52  24  49  1   
 53  25  50  1   
 54  25  51  1   
 55  25  52  1   
 56  26  53  1   
 57  26  54  1   
@<TRIPOS>SUBSTRUCTURE
  1 ****  12 GROUP 4 **** **** 0

# MOE 2024.06 (io_trps.svl 2023.06)
