@<TRIPOS>MOLECULE
NONAME
46 48 1 0 0 
SMALL
USER_CHARGES


@<TRIPOS>ATOM
  1 S        0.2430     0.0690     0.4910 S.3   1 <1>  -0.0800 
  2 C        1.8210     0.8520     0.4260 C.ar  1 <1>   0.2970 
  3 C       -0.5790     1.6180     0.7160 C.2   1 <1>  -0.1400 
  4 N        2.9550     0.2040     0.2620 N.ar  1 <1>  -0.5670 
  5 C        1.6810     2.2120     0.5700 C.ar  1 <1>   0.0000 
  6 C        0.3100     2.6270     0.7340 C.2   1 <1>  -0.1500 
  7 C       -2.0870     1.5790     0.8480 C.3   1 <1>  -0.0600 
  8 C        4.0080     0.9990     0.2450 C.ar  1 <1>   0.4700 
  9 C        2.8800     2.9000     0.5280 C.ar  1 <1>   0.4120 
 10 N        4.0500     2.3250     0.3660 N.ar  1 <1>  -0.6200 
 11 S        2.8680     4.6790     0.6960 S.3   1 <1>  -0.3320 
 12 C        4.6690     5.1430     0.6780 C.3   1 <1>   0.1310 
 13 C        4.8490     6.6530     0.7440 C.2   1 <1>   0.5690 
 14 O        5.3700     7.1060     1.7380 O.2   1 <1>  -0.5700 
 15 N        4.4740     7.4760    -0.2950 N.am  1 <1>  -0.6600 
 16 C        4.5730     8.9570    -0.1420 C.3   1 <1>   0.1400 
 17 C        3.8700     7.0200    -1.5800 C.3   1 <1>   0.0600 
 18 C        6.0070     9.4180    -0.3870 C.3   1 <1>   0.0960 
 19 N        6.1050    10.8550    -0.0980 N.pl3 1 <1>   0.3140 
 20 N        5.8660    11.7740    -1.0500 N.2   1 <1>  -0.7070 
 21 C        6.3910    11.4360     1.0900 C.2   1 <1>  -0.3320 
 22 C        6.0130    12.9150    -0.4550 C.2   1 <1>   0.1080 
 23 C        6.3420    12.7700     0.8880 C.2   1 <1>  -0.1500 
 24 C        6.6960    10.6820     2.3750 C.3   1 <1>  -0.0600 
 25 C        5.8370    14.2310    -1.1740 C.3   1 <1>  -0.0590 
 26 H        0.0710     3.6690     0.8590 H     1 <1>   0.1500 
 27 H       -2.3650     0.9820     1.6980 H     1 <1>   0.0800 
 28 H       -2.5220     1.1500    -0.0370 H     1 <1>   0.0800 
 29 H       -2.4740     2.5730     0.9800 H     1 <1>   0.0800 
 30 H        4.9610     0.5120     0.1140 H     1 <1>   0.1500 
 31 H        5.1030     4.7440    -0.2180 H     1 <1>   0.0800 
 32 H        5.1190     4.6770     1.5360 H     1 <1>   0.0800 
 33 H        4.2760     9.2260     0.8570 H     1 <1>   0.0800 
 34 H        3.9100     9.4480    -0.8350 H     1 <1>   0.0800 
 35 H        4.0120     5.9650    -1.7290 H     1 <1>   0.0800 
 36 H        4.3270     7.5420    -2.4030 H     1 <1>   0.0800 
 37 H        2.8140     7.2290    -1.5740 H     1 <1>   0.0800 
 38 H        6.2810     9.2580    -1.4130 H     1 <1>   0.0800 
 39 H        6.6880     8.8900     0.2530 H     1 <1>   0.0800 
 40 H        6.5120    13.5660     1.5890 H     1 <1>   0.1500 
 41 H        5.8770    10.0340     2.6330 H     1 <1>   0.0800 
 42 H        6.8530    11.3740     3.1830 H     1 <1>   0.0800 
 43 H        7.5840    10.0880     2.2560 H     1 <1>   0.0800 
 44 H        4.8390    14.2920    -1.5670 H     1 <1>   0.0800 
 45 H        6.5370    14.2900    -1.9860 H     1 <1>   0.0800 
 46 H        6.0040    15.0510    -0.5020 H     1 <1>   0.0800 
@<TRIPOS>BOND
  1   1   2  1   
  2   1   3  1   
  3   2   4  ar  
  4   2   5  ar  
  5   3   6  2   
  6   3   7  1   
  7   4   8  ar  
  8   5   6  1   
  9   5   9  ar  
 10   6  26  1   
 11   7  27  1   
 12   7  28  1   
 13   7  29  1   
 14   8  10  ar  
 15   8  30  1   
 16   9  10  ar  
 17   9  11  1   
 18  11  12  1   
 19  12  13  1   
 20  12  31  1   
 21  12  32  1   
 22  13  14  2   
 23  13  15  am  
 24  15  16  1   
 25  15  17  1   
 26  16  18  1   
 27  16  33  1   
 28  16  34  1   
 29  17  35  1   
 30  17  36  1   
 31  17  37  1   
 32  18  19  1   
 33  18  38  1   
 34  18  39  1   
 35  19  20  1   
 36  19  21  1   
 37  20  22  2   
 38  21  23  2   
 39  21  24  1   
 40  22  23  1   
 41  22  25  1   
 42  23  40  1   
 43  24  41  1   
 44  24  42  1   
 45  24  43  1   
 46  25  44  1   
 47  25  45  1   
 48  25  46  1   
@<TRIPOS>SUBSTRUCTURE
  1 ****  13 GROUP 4 **** **** 0

# MOE 2024.06 (io_trps.svl 2023.06)
