@<TRIPOS>MOLECULE
NONAME
50 53 1 0 0 
SMALL
USER_CHARGES


@<TRIPOS>ATOM
  1 O        0.2930     0.3450    -0.7860 O.2   1 <1>  -0.5700 
  2 C       -0.2570     1.3940    -1.0670 C.2   1 <1>   0.5440 
  3 N       -1.6360     1.4400    -1.1120 N.am  1 <1>  -0.6600 
  4 C        0.5470     2.5710    -1.3400 C.ar  1 <1>   0.0860 
  5 C       -2.4300     2.6740    -1.4090 C.3   1 <1>   0.1400 
  6 C       -2.4810     0.2500    -0.8150 C.3   1 <1>   0.1400 
  7 C        1.2150     3.2870    -0.3370 C.ar  1 <1>  -0.1440 
  8 C        0.6560     3.0280    -2.6540 C.ar  1 <1>  -0.1500 
  9 C       -3.3320     3.0450    -0.2160 C.3   1 <1>   0.1440 
 10 C       -3.3880     0.5500     0.3850 C.3   1 <1>  -0.1600 
 11 C        1.9400     4.4240    -0.6590 C.ar  1 <1>  -0.1500 
 12 C        1.1760     2.8440     1.1230 C.3   1 <1>  -0.0160 
 13 C        1.3810     4.1620    -2.9690 C.ar  1 <1>  -0.1500 
 14 C       -4.2150     4.2310    -0.5600 C.ar  1 <1>   0.1660 
 15 C       -4.2100     1.8380     0.1830 C.3   1 <1>  -0.1600 
 16 C       -2.5110     3.5880     0.9850 C.3   1 <1>  -0.1600 
 17 C        2.0230     4.8640    -1.9680 C.ar  1 <1>  -0.1500 
 18 C        2.3880     1.9710     1.4510 C.3   1 <1>  -0.2400 
 19 N       -4.9280     4.3580    -1.6580 N.ar  1 <1>  -0.6200 
 20 C       -4.1920     5.1770     0.4200 C.ar  1 <1>  -0.1430 
 21 C       -3.2980     4.7760     1.5660 C.3   1 <1>  -0.0170 
 22 C       -5.6230     5.4850    -1.7320 C.ar  1 <1>   0.4770 
 23 C       -4.9500     6.3060     0.2390 C.ar  1 <1>   0.1600 
 24 N       -5.6770     6.4710    -0.8470 N.ar  1 <1>  -0.6200 
 25 C       -6.4600     5.6740    -2.9730 C.3   1 <1>  -0.0970 
 26 H       -3.0460     2.4850    -2.2710 H     1 <1>   0.0800 
 27 H       -1.7930     3.5070    -1.6470 H     1 <1>   0.0800 
 28 H       -1.8720    -0.6110    -0.6010 H     1 <1>   0.0800 
 29 H       -3.0800     0.0240    -1.6800 H     1 <1>   0.0800 
 30 H        0.1600     2.4790    -3.4350 H     1 <1>   0.1500 
 31 H       -2.7750     0.6300     1.2640 H     1 <1>   0.0800 
 32 H       -4.0550    -0.2800     0.5350 H     1 <1>   0.0800 
 33 H        2.4530     4.9730     0.1110 H     1 <1>   0.1500 
 34 H        0.2760     2.2930     1.3340 H     1 <1>   0.0800 
 35 H        1.1770     3.7090     1.7630 H     1 <1>   0.0800 
 36 H        1.4480     4.4960    -3.9900 H     1 <1>   0.1500 
 37 H       -4.9260     1.6640    -0.6030 H     1 <1>   0.0800 
 38 H       -4.7640     2.0640     1.0770 H     1 <1>   0.0800 
 39 H       -1.5690     3.9620     0.6270 H     1 <1>   0.0800 
 40 H       -2.3140     2.8400     1.7300 H     1 <1>   0.0800 
 41 H        2.5900     5.7480    -2.2050 H     1 <1>   0.1500 
 42 H        2.3850     1.0900     0.8320 H     1 <1>   0.0800 
 43 H        2.3590     1.6660     2.4820 H     1 <1>   0.0800 
 44 H        3.3000     2.5130     1.2740 H     1 <1>   0.0800 
 45 H       -2.6430     5.5770     1.8630 H     1 <1>   0.0800 
 46 H       -3.8990     4.4620     2.4010 H     1 <1>   0.0800 
 47 H       -4.9640     7.0810     0.9860 H     1 <1>   0.1500 
 48 H       -6.2170     4.9300    -3.7090 H     1 <1>   0.0800 
 49 H       -6.2760     6.6480    -3.3860 H     1 <1>   0.0800 
 50 H       -7.4990     5.5900    -2.7160 H     1 <1>   0.0800 
@<TRIPOS>BOND
  1   1   2  2   
  2   2   3  am  
  3   2   4  1   
  4   3   5  1   
  5   3   6  1   
  6   4   7  ar  
  7   4   8  ar  
  8   5   9  1   
  9   5  26  1   
 10   5  27  1   
 11   6  10  1   
 12   6  28  1   
 13   6  29  1   
 14   7  11  ar  
 15   7  12  1   
 16   8  13  ar  
 17   8  30  1   
 18   9  14  1   
 19   9  15  1   
 20   9  16  1   
 21  10  15  1   
 22  10  31  1   
 23  10  32  1   
 24  11  17  ar  
 25  11  33  1   
 26  12  18  1   
 27  12  34  1   
 28  12  35  1   
 29  13  17  ar  
 30  13  36  1   
 31  14  19  ar  
 32  14  20  ar  
 33  15  37  1   
 34  15  38  1   
 35  16  21  1   
 36  16  39  1   
 37  16  40  1   
 38  17  41  1   
 39  18  42  1   
 40  18  43  1   
 41  18  44  1   
 42  19  22  ar  
 43  20  21  1   
 44  20  23  ar  
 45  21  45  1   
 46  21  46  1   
 47  22  24  ar  
 48  22  25  1   
 49  23  24  ar  
 50  23  47  1   
 51  25  48  1   
 52  25  49  1   
 53  25  50  1   
@<TRIPOS>SUBSTRUCTURE
  1 ****   5 GROUP 4 **** **** 0

# MOE 2024.06 (io_trps.svl 2023.06)
