@<TRIPOS>MOLECULE
NONAME
40 42 1 0 0 
SMALL
USER_CHARGES


@<TRIPOS>ATOM
  1 S       -0.1560     0.1960    -0.5550 S.3   1 <1>  -0.0800 
  2 C        0.9020    -1.1050    -0.0520 C.2   1 <1>  -0.1400 
  3 C        1.2280     1.2170    -0.9100 C.2   1 <1>  -0.1100 
  4 C        2.1940    -0.7580    -0.1680 C.2   1 <1>  -0.1810 
  5 C        0.3270    -2.4170     0.4310 C.3   1 <1>   0.0200 
  6 C        2.3900     0.5810    -0.6510 C.2   1 <1>  -0.1810 
  7 C        3.3070    -1.7290     0.1970 C.3   1 <1>   0.0210 
  8 C        1.4430    -3.2390     1.1040 C.3   1 <1>  -0.1600 
  9 C        3.7900     1.1530    -0.8330 C.3   1 <1>   0.3900 
 10 C        2.7670    -3.1700     0.3150 C.3   1 <1>  -0.1600 
 11 N        3.7280     2.6140    -1.0140 N.pl3 1 <1>  -0.8690 
 12 C        4.8500     3.3740    -0.7270 C.ar  1 <1>   0.4100 
 13 N        6.0170     2.8390    -1.0370 N.ar  1 <1>  -0.6200 
 14 C        4.7030     4.6630    -0.1170 C.ar  1 <1>   0.4100 
 15 C        7.0300     3.6380    -0.7250 C.ar  1 <1>   0.1600 
 16 N        5.7320     5.4360     0.1900 N.ar  1 <1>  -0.6200 
 17 N        3.4300     5.1760     0.1790 N.pl3 1 <1>  -0.8380 
 18 C        6.8930     4.8820    -0.1360 C.ar  1 <1>   0.1600 
 19 C        2.6970     5.7510    -0.9780 C.3   1 <1>   0.1290 
 20 C        3.2810     5.9730     1.4280 C.3   1 <1>   0.1290 
 21 H        1.0220     2.2030    -1.2840 H     1 <1>   0.1500 
 22 H       -0.0700    -2.9520    -0.4130 H     1 <1>   0.0800 
 23 H       -0.4690    -2.2360     1.1310 H     1 <1>   0.0800 
 24 H        3.7340    -1.4250     1.1360 H     1 <1>   0.0800 
 25 H        4.0790    -1.7050    -0.5520 H     1 <1>   0.0800 
 26 H        1.1240    -4.2620     1.2020 H     1 <1>   0.0800 
 27 H        1.6100    -2.8480     2.0930 H     1 <1>   0.0800 
 28 H        4.2590     0.7080    -1.6940 H     1 <1>   0.0800 
 29 H        4.3850     0.9300     0.0360 H     1 <1>   0.0800 
 30 H        3.5070    -3.7900     0.7890 H     1 <1>   0.0800 
 31 H        2.5980    -3.5580    -0.6750 H     1 <1>   0.0800 
 32 H        2.9260     3.0090    -0.5120 H     1 <1>   0.4000 
 33 H        8.0170     3.2770    -0.9520 H     1 <1>   0.1500 
 34 H        7.7770     5.4550     0.0790 H     1 <1>   0.1500 
 35 H        2.8890     5.1700    -1.8650 H     1 <1>   0.0800 
 36 H        3.0230     6.7620    -1.1510 H     1 <1>   0.0800 
 37 H        1.6400     5.7440    -0.7820 H     1 <1>   0.0800 
 38 H        3.8530     5.5200     2.2190 H     1 <1>   0.0800 
 39 H        2.2470     6.0050     1.7220 H     1 <1>   0.0800 
 40 H        3.6410     6.9750     1.2700 H     1 <1>   0.0800 
@<TRIPOS>BOND
  1   1   2  1   
  2   1   3  1   
  3   2   4  2   
  4   2   5  1   
  5   3   6  2   
  6   3  21  1   
  7   4   6  1   
  8   4   7  1   
  9   5   8  1   
 10   5  22  1   
 11   5  23  1   
 12   6   9  1   
 13   7  10  1   
 14   7  24  1   
 15   7  25  1   
 16   8  10  1   
 17   8  26  1   
 18   8  27  1   
 19   9  11  1   
 20   9  28  1   
 21   9  29  1   
 22  10  30  1   
 23  10  31  1   
 24  11  12  1   
 25  11  32  1   
 26  12  13  ar  
 27  12  14  ar  
 28  13  15  ar  
 29  14  16  ar  
 30  14  17  1   
 31  15  18  ar  
 32  15  33  1   
 33  16  18  ar  
 34  17  19  1   
 35  17  20  1   
 36  18  34  1   
 37  19  35  1   
 38  19  36  1   
 39  19  37  1   
 40  20  38  1   
 41  20  39  1   
 42  20  40  1   
@<TRIPOS>SUBSTRUCTURE
  1 ****   9 GROUP 4 **** **** 0

# MOE 2024.06 (io_trps.svl 2023.06)
