@<TRIPOS>MOLECULE
NONAME
51 52 1 0 0 
SMALL
USER_CHARGES


@<TRIPOS>ATOM
  1 O        3.8710     3.4650     2.3810 O.co2 1 <1>  -0.9000 
  2 C        4.7680     3.1610     1.5880 C.2   1 <1>   0.9790 
  3 O        5.7170     3.9610     1.4190 O.co2 1 <1>  -0.9000 
  4 C        4.8080     1.8870     0.8920 C.ar  1 <1>  -0.1790 
  5 C        5.6330     1.7490    -0.2150 C.ar  1 <1>  -0.1500 
  6 C        4.1190     0.7510     1.3040 C.ar  1 <1>  -0.1500 
  7 C        5.9100     0.5280    -0.8020 C.ar  1 <1>  -0.1440 
  8 C        4.3150    -0.4680     0.6770 C.ar  1 <1>  -0.1500 
  9 C        5.2230    -0.5990    -0.3660 C.ar  1 <1>  -0.1440 
 10 C        7.0300     0.5270    -1.8330 C.3   1 <1>   0.2840 
 11 C        5.4470    -1.9690    -0.9890 C.3   1 <1>  -0.0960 
 12 N        8.2000     1.0670    -1.1000 N.am  1 <1>  -0.7300 
 13 C        8.6190     2.3540    -1.2490 C.2   1 <1>   0.5690 
 14 O        8.6100     2.8960    -2.3290 O.2   1 <1>  -0.5700 
 15 C        9.0430     3.1690    -0.0050 C.3   1 <1>   0.4040 
 16 N        8.1590     4.3470     0.3760 N.4   1 <1>  -0.9590 
 17 C        8.0110     5.3300    -0.7530 C.3   1 <1>   0.4230 
 18 C        8.5500     5.0160     1.6430 C.3   1 <1>   0.5610 
 19 C        9.3790     5.9810    -1.0780 C.3   1 <1>  -0.0220 
 20 C        6.9240     6.3840    -0.4570 C.3   1 <1>  -0.0220 
 21 C        9.7920     5.8590     1.3900 C.2   1 <1>  -0.2880 
 22 C        8.7850     4.0040     2.7610 C.3   1 <1>  -0.2400 
 23 C       10.1780     6.2880     0.1830 C.2   1 <1>  -0.2880 
 24 C        6.5860     7.1990    -1.6980 C.2   1 <1>  -0.2880 
 25 C        6.7900     8.5130    -1.8280 C.2   1 <1>  -0.3000 
 26 H        6.0920     2.6380    -0.6020 H     1 <1>   0.1500 
 27 H        3.4360     0.8370     2.1340 H     1 <1>   0.1500 
 28 H        3.7600    -1.3220     1.0240 H     1 <1>   0.1500 
 29 H        6.7740     1.1580    -2.6680 H     1 <1>   0.0800 
 30 H        7.2510    -0.4610    -2.1940 H     1 <1>   0.0800 
 31 H        4.7650    -2.6920    -0.5800 H     1 <1>   0.0800 
 32 H        6.4500    -2.3040    -0.7960 H     1 <1>   0.0800 
 33 H        5.2860    -1.9220    -2.0510 H     1 <1>   0.0800 
 34 H        8.2480     0.6320    -0.1760 H     1 <1>   0.3700 
 35 H       10.0430     3.5270    -0.1760 H     1 <1>   0.0800 
 36 H        9.0810     2.4820     0.8200 H     1 <1>   0.0800 
 37 H        7.1890     4.0160     0.6120 H     1 <1>   0.4500 
 38 H        7.6780     4.8020    -1.6300 H     1 <1>   0.0800 
 39 H        7.7430     5.6600     1.9550 H     1 <1>   0.0800 
 40 H        9.9460     5.3170    -1.7060 H     1 <1>   0.0800 
 41 H        9.2310     6.8840    -1.6410 H     1 <1>   0.0800 
 42 H        6.0230     5.8970    -0.1310 H     1 <1>   0.0800 
 43 H        7.2490     7.0490     0.3230 H     1 <1>   0.0800 
 44 H       10.3300     6.0950     2.2920 H     1 <1>   0.1500 
 45 H        9.6840     3.4360     2.6090 H     1 <1>   0.0800 
 46 H        7.9360     3.3480     2.8510 H     1 <1>   0.0800 
 47 H        8.8840     4.5330     3.6910 H     1 <1>   0.0800 
 48 H       11.0630     6.8800     0.0090 H     1 <1>   0.1500 
 49 H        6.1470     6.6050    -2.4840 H     1 <1>   0.1500 
 50 H        6.5390     9.0730    -2.7130 H     1 <1>   0.1500 
 51 H        7.2180     9.1430    -1.0670 H     1 <1>   0.1500 
@<TRIPOS>BOND
  1   1   2  ar  
  2   2   3  ar  
  3   2   4  1   
  4   4   5  ar  
  5   4   6  ar  
  6   5   7  ar  
  7   5  26  1   
  8   6   8  ar  
  9   6  27  1   
 10   7   9  ar  
 11   7  10  1   
 12   8   9  ar  
 13   8  28  1   
 14   9  11  1   
 15  10  12  1   
 16  10  29  1   
 17  10  30  1   
 18  11  31  1   
 19  11  32  1   
 20  11  33  1   
 21  12  13  am  
 22  12  34  1   
 23  13  14  2   
 24  13  15  1   
 25  15  16  1   
 26  15  35  1   
 27  15  36  1   
 28  16  17  1   
 29  16  18  1   
 30  16  37  1   
 31  17  19  1   
 32  17  20  1   
 33  17  38  1   
 34  18  21  1   
 35  18  22  1   
 36  18  39  1   
 37  19  23  1   
 38  19  40  1   
 39  19  41  1   
 40  20  24  1   
 41  20  42  1   
 42  20  43  1   
 43  21  23  2   
 44  21  44  1   
 45  22  45  1   
 46  22  46  1   
 47  22  47  1   
 48  23  48  1   
 49  24  25  2   
 50  24  49  1   
 51  25  50  1   
 52  25  51  1   
@<TRIPOS>SUBSTRUCTURE
  1 ****  16 GROUP 4 **** **** 0

# MOE 2024.06 (io_trps.svl 2023.06)
