@<TRIPOS>MOLECULE
NONAME
52 55 1 0 0 
SMALL
USER_CHARGES


@<TRIPOS>ATOM
  1 O       -3.0190     1.6370    -2.1430 O.2   1 <1>  -0.5700 
  2 C       -2.8110     1.5330    -0.9470 C.2   1 <1>   0.7160 
  3 N       -3.1210     0.3410    -0.3350 N.am  1 <1>  -0.6600 
  4 C       -2.2750     2.6250    -0.1990 C.2   1 <1>  -0.0860 
  5 C       -3.6540    -0.8320    -1.0700 C.3   1 <1>   0.1400 
  6 C       -2.8770    -0.0060     1.0770 C.3   1 <1>   0.1400 
  7 C       -2.9350     3.8350     0.0380 C.2   1 <1>   0.3720 
  8 C       -1.0900     2.7750     0.4540 C.2   1 <1>   0.0870 
  9 C       -3.9400    -1.9060    -0.0060 C.3   1 <1>   0.2200 
 10 C       -3.8080    -1.1850     1.3360 C.3   1 <1>  -0.1600 
 11 N       -2.2140     4.6210     0.7580 N.2   1 <1>  -0.4100 
 12 N       -4.2160     4.1700    -0.4180 N.pl3 1 <1>  -0.8210 
 13 O       -1.1100     3.9670     0.9950 O.3   1 <1>  -0.0190 
 14 C        0.0640     1.9240     0.6370 C.ar  1 <1>   0.0530 
 15 N       -3.0210    -3.0800    -0.0440 N.am  1 <1>  -0.7300 
 16 C       -4.5400     5.6280    -0.4560 C.3   1 <1>   0.2090 
 17 C       -5.3430     3.3870     0.1670 C.3   1 <1>   0.2090 
 18 C        0.9890     2.1840     1.6510 C.ar  1 <1>  -0.1500 
 19 C        0.3080     0.8130    -0.1720 C.ar  1 <1>  -0.1500 
 20 C       -1.6840    -3.1170    -0.2750 C.2   1 <1>   0.5690 
 21 C       -5.9090     5.8700    -1.1180 C.3   1 <1>   0.1200 
 22 C       -6.6690     3.7350    -0.5330 C.3   1 <1>   0.1200 
 23 C        2.0910     1.3750     1.8550 C.ar  1 <1>  -0.1500 
 24 C        1.4040    -0.0040     0.0310 C.ar  1 <1>  -0.1500 
 25 O       -1.0160    -2.1440    -0.5080 O.2   1 <1>  -0.5700 
 26 C       -1.0090    -4.4620    -0.2280 C.3   1 <1>  -0.1790 
 27 O       -6.9100     5.1140    -0.4930 O.3   1 <1>  -0.5600 
 28 C        2.3010     0.2750     1.0450 C.ar  1 <1>  -0.1500 
 29 H       -4.5650    -0.5460    -1.5650 H     1 <1>   0.0800 
 30 H       -2.9450    -1.1690    -1.8060 H     1 <1>   0.0800 
 31 H       -1.8500    -0.3140     1.1920 H     1 <1>   0.0800 
 32 H       -3.0850     0.8220     1.7320 H     1 <1>   0.0800 
 33 H       -4.9450    -2.2690    -0.1350 H     1 <1>   0.0800 
 34 H       -4.7680    -0.7980     1.6260 H     1 <1>   0.0800 
 35 H       -3.4390    -1.8210     2.1210 H     1 <1>   0.0800 
 36 H       -3.4790    -3.9650     0.1750 H     1 <1>   0.3700 
 37 H       -4.5540     6.0240     0.5450 H     1 <1>   0.0800 
 38 H       -3.7780     6.1460    -1.0110 H     1 <1>   0.0800 
 39 H       -5.1560     2.3350     0.0570 H     1 <1>   0.0800 
 40 H       -5.4260     3.6070     1.2180 H     1 <1>   0.0800 
 41 H        0.8430     3.0330     2.2950 H     1 <1>   0.1500 
 42 H       -0.3640     0.5650    -0.9740 H     1 <1>   0.1500 
 43 H       -5.8710     5.6000    -2.1590 H     1 <1>   0.0800 
 44 H       -6.1810     6.9070    -1.0380 H     1 <1>   0.0800 
 45 H       -7.4890     3.2430    -0.0410 H     1 <1>   0.0800 
 46 H       -6.6400     3.4190    -1.5620 H     1 <1>   0.0800 
 47 H        2.7870     1.6000     2.6450 H     1 <1>   0.1500 
 48 H        1.5500    -0.8610    -0.6040 H     1 <1>   0.1500 
 49 H       -1.4380    -5.1110    -0.9680 H     1 <1>   0.0800 
 50 H       -1.1260    -4.8950     0.7470 H     1 <1>   0.0800 
 51 H        0.0400    -4.3490    -0.4340 H     1 <1>   0.0800 
 52 H        3.1550    -0.3610     1.2000 H     1 <1>   0.1500 
@<TRIPOS>BOND
  1   1   2  2   
  2   2   3  am  
  3   2   4  1   
  4   3   5  1   
  5   3   6  1   
  6   4   7  1   
  7   4   8  2   
  8   5   9  1   
  9   5  29  1   
 10   5  30  1   
 11   6  10  1   
 12   6  31  1   
 13   6  32  1   
 14   7  11  2   
 15   7  12  1   
 16   8  13  1   
 17   8  14  1   
 18   9  10  1   
 19   9  15  1   
 20   9  33  1   
 21  10  34  1   
 22  10  35  1   
 23  11  13  1   
 24  12  16  1   
 25  12  17  1   
 26  14  18  ar  
 27  14  19  ar  
 28  15  20  am  
 29  15  36  1   
 30  16  21  1   
 31  16  37  1   
 32  16  38  1   
 33  17  22  1   
 34  17  39  1   
 35  17  40  1   
 36  18  23  ar  
 37  18  41  1   
 38  19  24  ar  
 39  19  42  1   
 40  20  25  2   
 41  20  26  1   
 42  21  27  1   
 43  21  43  1   
 44  21  44  1   
 45  22  27  1   
 46  22  45  1   
 47  22  46  1   
 48  23  28  ar  
 49  23  47  1   
 50  24  28  ar  
 51  24  48  1   
 52  26  49  1   
 53  26  50  1   
 54  26  51  1   
 55  28  52  1   
@<TRIPOS>SUBSTRUCTURE
  1 ****   2 GROUP 4 **** **** 0

# MOE 2024.06 (io_trps.svl 2023.06)
