@<TRIPOS>MOLECULE
NONAME
47 48 1 0 0 
SMALL
USER_CHARGES


@<TRIPOS>ATOM
  1 S        1.1650    -0.2700     0.0310 S.o2  1 <1>   1.3330 
  2 O       -0.2530    -0.4530    -0.1810 O.2   1 <1>  -0.6500 
  3 O        1.9990    -1.4210     0.2960 O.2   1 <1>  -0.6500 
  4 N        1.3520     0.8200     1.3220 N.am  1 <1>  -0.8490 
  5 C        1.8610     0.6070    -1.3690 C.3   1 <1>  -0.0550 
  6 C        0.3970     1.9340     1.2790 C.3   1 <1>   0.1160 
  7 C        1.2750     0.1440     2.6190 C.3   1 <1>   0.1160 
  8 C        3.3500     0.9550    -1.1970 C.3   1 <1>  -0.0800 
  9 C        3.8090     2.0180    -2.1890 C.3   1 <1>   0.2200 
 10 C        4.3010    -0.2160    -1.4390 C.3   1 <1>   0.1200 
 11 N        4.1490     3.2490    -1.4480 N.am  1 <1>  -0.7300 
 12 C        5.0350     1.3960    -2.8550 C.3   1 <1>   0.1200 
 13 O        5.4260     0.3440    -2.0340 O.3   1 <1>  -0.5600 
 14 C        3.2350     4.1410    -0.9860 C.2   1 <1>   0.5690 
 15 O        2.0620     4.0430    -1.2580 O.2   1 <1>  -0.5700 
 16 C        3.6930     5.2680    -0.0760 C.3   1 <1>   0.0820 
 17 C        4.9770     4.9250     0.6740 C.2   1 <1>  -0.1810 
 18 C        5.1140     3.9580     1.6700 C.2   1 <1>   0.1080 
 19 C        6.2150     5.4510     0.5300 C.2   1 <1>  -0.3320 
 20 N        6.3280     3.8840     2.1120 N.2   1 <1>  -0.7070 
 21 C        4.0310     3.0550     2.2210 C.3   1 <1>  -0.0590 
 22 N        7.0070     4.8080     1.4140 N.pl3 1 <1>   0.3000 
 23 C        6.7370     6.5390    -0.3940 C.3   1 <1>  -0.0600 
 24 H        1.7300     0.0220    -2.2580 H     1 <1>   0.0800 
 25 H        1.3090     1.5170    -1.5020 H     1 <1>   0.0800 
 26 H        0.5860     2.6150     2.0920 H     1 <1>   0.0800 
 27 H       -0.6140     1.5700     1.3580 H     1 <1>   0.0800 
 28 H        0.4980     2.4800     0.3570 H     1 <1>   0.0800 
 29 H        1.4190     0.8510     3.4180 H     1 <1>   0.0800 
 30 H        2.0450    -0.6060     2.6900 H     1 <1>   0.0800 
 31 H        0.3160    -0.3340     2.7350 H     1 <1>   0.0800 
 32 H        3.5170     1.3010    -0.1920 H     1 <1>   0.0800 
 33 H        3.0600     2.2420    -2.9310 H     1 <1>   0.0800 
 34 H        3.8870    -0.9370    -2.1240 H     1 <1>   0.0800 
 35 H        4.5900    -0.7060    -0.5250 H     1 <1>   0.0800 
 36 H        5.0850     3.2660    -1.0250 H     1 <1>   0.3700 
 37 H        5.8510     2.0880    -2.9620 H     1 <1>   0.0800 
 38 H        4.7750     0.9810    -3.8130 H     1 <1>   0.0800 
 39 H        3.8310     6.1470    -0.6750 H     1 <1>   0.0800 
 40 H        2.9150     5.4780     0.6340 H     1 <1>   0.0800 
 41 H        3.0950     3.2130     1.7230 H     1 <1>   0.0800 
 42 H        3.9070     3.2490     3.2700 H     1 <1>   0.0800 
 43 H        4.3220     2.0290     2.0940 H     1 <1>   0.0800 
 44 H        8.0090     4.9740     1.5640 H     1 <1>   0.2700 
 45 H        5.9610     6.9040    -1.0410 H     1 <1>   0.0800 
 46 H        7.5320     6.1520    -1.0070 H     1 <1>   0.0800 
 47 H        7.1130     7.3640     0.1840 H     1 <1>   0.0800 
@<TRIPOS>BOND
  1   1   2  2   
  2   1   3  2   
  3   1   4  am  
  4   1   5  1   
  5   4   6  1   
  6   4   7  1   
  7   5   8  1   
  8   5  24  1   
  9   5  25  1   
 10   6  26  1   
 11   6  27  1   
 12   6  28  1   
 13   7  29  1   
 14   7  30  1   
 15   7  31  1   
 16   8   9  1   
 17   8  10  1   
 18   8  32  1   
 19   9  11  1   
 20   9  12  1   
 21   9  33  1   
 22  10  13  1   
 23  10  34  1   
 24  10  35  1   
 25  11  14  am  
 26  11  36  1   
 27  12  13  1   
 28  12  37  1   
 29  12  38  1   
 30  14  15  2   
 31  14  16  1   
 32  16  17  1   
 33  16  39  1   
 34  16  40  1   
 35  17  18  1   
 36  17  19  2   
 37  18  20  2   
 38  18  21  1   
 39  19  22  1   
 40  19  23  1   
 41  20  22  1   
 42  21  41  1   
 43  21  42  1   
 44  21  43  1   
 45  22  44  1   
 46  23  45  1   
 47  23  46  1   
 48  23  47  1   
@<TRIPOS>SUBSTRUCTURE
  1 ****  11 GROUP 4 **** **** 0

# MOE 2024.06 (io_trps.svl 2023.06)
