@<TRIPOS>MOLECULE
NONAME
64 67 1 0 0 
SMALL
USER_CHARGES


@<TRIPOS>ATOM
  1 O        1.0580    -1.5500     3.0650 O.2   1 <1>  -0.5700 
  2 C        1.3400    -2.2320     2.1090 C.2   1 <1>   0.5690 
  3 N        2.2330    -1.8110     1.1700 N.am  1 <1>  -0.6600 
  4 C        0.6720    -3.5810     1.9810 C.3   1 <1>  -0.0990 
  5 C        2.4930    -2.5630    -0.0970 C.3   1 <1>   0.1400 
  6 C        2.8630    -0.4600     1.2690 C.3   1 <1>   0.2840 
  7 C        1.6960    -4.7120     1.9270 C.3   1 <1>   0.1200 
  8 C        3.1430    -3.9600     0.0990 C.3   1 <1>   0.2800 
  9 C        2.2400     0.5010     0.2700 C.ar  1 <1>   0.1660 
 10 O        2.2120    -4.8650     0.6350 O.3   1 <1>  -0.5600 
 11 C        3.4960    -4.5630    -1.2710 C.3   1 <1>  -0.1600 
 12 C        4.4170    -3.9310     0.9700 C.3   1 <1>  -0.1600 
 13 N        2.9180     0.7520    -0.8430 N.ar  1 <1>  -0.6200 
 14 C        1.0000     1.0610     0.5620 C.ar  1 <1>   0.1600 
 15 C        4.6710    -3.8620    -1.9590 C.3   1 <1>   0.1400 
 16 C        5.5720    -3.2020     0.2790 C.3   1 <1>   0.1400 
 17 C        2.2740     1.6020    -1.6270 C.ar  1 <1>   0.1600 
 18 N        0.3610     1.9100    -0.2260 N.ar  1 <1>  -0.6200 
 19 N        5.8440    -3.8300    -1.0440 N.am  1 <1>  -0.6600 
 20 C        1.0350     2.1670    -1.3320 C.ar  1 <1>   0.1660 
 21 C        7.0600    -4.3370    -1.4400 C.2   1 <1>   0.5690 
 22 C        0.3770     3.1340    -2.2950 C.3   1 <1>  -0.0970 
 23 O        7.2090    -4.8440    -2.5280 O.2   1 <1>  -0.5700 
 24 C        8.2550    -4.2800    -0.5010 C.3   1 <1>  -0.0990 
 25 C        9.5730    -4.7390    -1.1390 C.3   1 <1>   0.0210 
 26 C       10.6910    -4.7000    -0.1130 C.2   1 <1>   0.1080 
 27 N       11.1230    -3.5830     0.3850 N.2   1 <1>  -0.7070 
 28 C       11.3620    -5.8050     0.4120 C.2   1 <1>  -0.1810 
 29 N       12.0930    -3.9460     1.2410 N.pl3 1 <1>   0.3000 
 30 C       12.2580    -5.2850     1.2800 C.2   1 <1>  -0.3320 
 31 C       11.1060    -7.2590     0.0550 C.3   1 <1>  -0.0590 
 32 C       13.2910    -5.9560     2.1700 C.3   1 <1>  -0.0600 
 33 H        0.0350    -3.6060     1.1170 H     1 <1>   0.0800 
 34 H        0.0530    -3.7260     2.8470 H     1 <1>   0.0800 
 35 H        3.1360    -1.9660    -0.7180 H     1 <1>   0.0800 
 36 H        1.5680    -2.6800    -0.6340 H     1 <1>   0.0800 
 37 H        3.9180    -0.5420     1.0780 H     1 <1>   0.0800 
 38 H        2.7480    -0.0610     2.2620 H     1 <1>   0.0800 
 39 H        1.2040    -5.6380     2.1650 H     1 <1>   0.0800 
 40 H        2.4920    -4.5680     2.6350 H     1 <1>   0.0800 
 41 H        2.6370    -4.5260    -1.9170 H     1 <1>   0.0800 
 42 H        3.7630    -5.5980    -1.1430 H     1 <1>   0.0800 
 43 H        4.7290    -4.9390     1.1780 H     1 <1>   0.0800 
 44 H        4.2280    -3.4380     1.9050 H     1 <1>   0.0800 
 45 H        0.5170     0.7910     1.4870 H     1 <1>   0.1500 
 46 H        4.4110    -2.8550    -2.2330 H     1 <1>   0.0800 
 47 H        4.9100    -4.3910    -2.8670 H     1 <1>   0.0800 
 48 H        6.4350    -3.2390     0.9180 H     1 <1>   0.0800 
 49 H        5.3240    -2.1660     0.1270 H     1 <1>   0.0800 
 50 H        2.7550     1.8660    -2.5520 H     1 <1>   0.1500 
 51 H        0.9840     3.2900    -3.1680 H     1 <1>   0.0800 
 52 H        0.2220     4.0780    -1.8050 H     1 <1>   0.0800 
 53 H       -0.5770     2.7430    -2.5990 H     1 <1>   0.0800 
 54 H        8.0500    -4.8990     0.3510 H     1 <1>   0.0800 
 55 H        8.3850    -3.2680    -0.1670 H     1 <1>   0.0800 
 56 H        9.8270    -4.0850    -1.9540 H     1 <1>   0.0800 
 57 H        9.4650    -5.7320    -1.5320 H     1 <1>   0.0800 
 58 H       12.6260    -3.2570     1.7830 H     1 <1>   0.2700 
 59 H       10.0760    -7.5040     0.2420 H     1 <1>   0.0800 
 60 H       11.7230    -7.9150     0.6390 H     1 <1>   0.0800 
 61 H       11.3210    -7.4210    -0.9850 H     1 <1>   0.0800 
 62 H       13.2710    -7.0230     2.0450 H     1 <1>   0.0800 
 63 H       13.0900    -5.7310     3.2020 H     1 <1>   0.0800 
 64 H       14.2760    -5.6050     1.9200 H     1 <1>   0.0800 
@<TRIPOS>BOND
  1   1   2  2   
  2   2   3  am  
  3   2   4  1   
  4   3   5  1   
  5   3   6  1   
  6   4   7  1   
  7   4  33  1   
  8   4  34  1   
  9   5   8  1   
 10   5  35  1   
 11   5  36  1   
 12   6   9  1   
 13   6  37  1   
 14   6  38  1   
 15   7  10  1   
 16   7  39  1   
 17   7  40  1   
 18   8  10  1   
 19   8  11  1   
 20   8  12  1   
 21   9  13  ar  
 22   9  14  ar  
 23  11  15  1   
 24  11  41  1   
 25  11  42  1   
 26  12  16  1   
 27  12  43  1   
 28  12  44  1   
 29  13  17  ar  
 30  14  18  ar  
 31  14  45  1   
 32  15  19  1   
 33  15  46  1   
 34  15  47  1   
 35  16  19  1   
 36  16  48  1   
 37  16  49  1   
 38  17  20  ar  
 39  17  50  1   
 40  18  20  ar  
 41  19  21  am  
 42  20  22  1   
 43  21  23  2   
 44  21  24  1   
 45  22  51  1   
 46  22  52  1   
 47  22  53  1   
 48  24  25  1   
 49  24  54  1   
 50  24  55  1   
 51  25  26  1   
 52  25  56  1   
 53  25  57  1   
 54  26  27  2   
 55  26  28  1   
 56  27  29  1   
 57  28  30  2   
 58  28  31  1   
 59  29  30  1   
 60  29  58  1   
 61  30  32  1   
 62  31  59  1   
 63  31  60  1   
 64  31  61  1   
 65  32  62  1   
 66  32  63  1   
 67  32  64  1   
@<TRIPOS>SUBSTRUCTURE
  1 ****  16 GROUP 4 **** **** 0

# MOE 2024.06 (io_trps.svl 2023.06)
