@<TRIPOS>MOLECULE
NONAME
62 65 1 0 0 
SMALL
USER_CHARGES


@<TRIPOS>ATOM
  1 O        1.2290     5.6970    -0.8830 O.2   1 <1>  -0.5700 
  2 C        1.1270     4.7790    -0.0880 C.2   1 <1>   0.5440 
  3 N       -0.0770     4.1110     0.0100 N.am  1 <1>  -0.6600 
  4 C        2.2540     4.4460     0.7570 C.ar  1 <1>   0.0860 
  5 C       -0.3710     3.1620     1.1240 C.3   1 <1>   0.1400 
  6 C       -1.1050     4.2250    -1.0640 C.3   1 <1>   0.1400 
  7 C        2.8900     3.2000     0.6910 C.ar  1 <1>   0.0820 
  8 C        2.7310     5.3760     1.6800 C.ar  1 <1>  -0.1500 
  9 C       -1.8820     3.0040     1.3080 C.3   1 <1>  -0.1600 
 10 C       -1.8080     2.8790    -1.2390 C.3   1 <1>  -0.1600 
 11 O        2.4420     2.3120    -0.2280 O.3   1 <1>  -0.3620 
 12 C        3.9490     2.9020     1.5450 C.ar  1 <1>  -0.1500 
 13 C        3.7840     5.0800     2.5250 C.ar  1 <1>  -0.1500 
 14 C       -2.5760     2.4610     0.0360 C.3   1 <1>   0.2800 
 15 C        2.7120     0.9320    -0.1490 C.3   1 <1>   0.1200 
 16 C        4.3920     3.8390     2.4600 C.ar  1 <1>  -0.1500 
 17 O       -3.8130     3.1410    -0.0350 O.3   1 <1>  -0.5600 
 18 C       -2.7890     0.9170     0.1400 C.3   1 <1>   0.2000 
 19 C        1.8350     0.2200    -1.1750 C.3   1 <1>  -0.0170 
 20 C       -5.0080     2.4150    -0.1200 C.3   1 <1>   0.1200 
 21 O       -1.5890     0.1970     0.1640 O.3   1 <1>  -0.6800 
 22 C       -3.7730     0.3540    -0.9260 C.3   1 <1>   0.2800 
 23 C        2.0050    -1.2850    -1.0550 C.ar  1 <1>  -0.1440 
 24 C       -4.8930     1.3660    -1.2290 C.3   1 <1>  -0.1600 
 25 O       -4.3620    -0.7650    -0.3670 O.3   1 <1>  -0.6800 
 26 C       -3.1290    -0.1460    -2.2290 C.3   1 <1>  -0.2400 
 27 C        2.8650    -1.9680    -1.9000 C.ar  1 <1>  -0.1500 
 28 C        1.2980    -1.9870    -0.0900 C.ar  1 <1>  -0.1500 
 29 C        3.0180    -3.3380    -1.7820 C.ar  1 <1>  -0.1500 
 30 C        1.4500    -3.3570     0.0290 C.ar  1 <1>  -0.1500 
 31 C        2.3110    -4.0340    -0.8180 C.ar  1 <1>  -0.1500 
 32 H        0.0660     2.2050     0.8970 H     1 <1>   0.0800 
 33 H        0.0660     3.5290     2.0370 H     1 <1>   0.0800 
 34 H       -1.8180     4.9860    -0.7950 H     1 <1>   0.0800 
 35 H       -0.6350     4.5110    -1.9900 H     1 <1>   0.0800 
 36 H        2.2610     6.3430     1.7250 H     1 <1>   0.1500 
 37 H       -2.2820     3.9700     1.5620 H     1 <1>   0.0800 
 38 H       -2.0630     2.3510     2.1410 H     1 <1>   0.0800 
 39 H       -1.0540     2.1520    -1.4780 H     1 <1>   0.0800 
 40 H       -2.4800     2.9370    -2.0740 H     1 <1>   0.0800 
 41 H        4.4450     1.9510     1.5030 H     1 <1>   0.1500 
 42 H        4.1320     5.8140     3.2320 H     1 <1>   0.1500 
 43 H        3.7540     0.7700    -0.3620 H     1 <1>   0.0800 
 44 H        2.4770     0.5950     0.8450 H     1 <1>   0.0800 
 45 H        5.2120     3.6070     3.1180 H     1 <1>   0.1500 
 46 H       -3.2400     0.7450     1.1020 H     1 <1>   0.0800 
 47 H        0.8050     0.4770    -1.0030 H     1 <1>   0.0800 
 48 H        2.1030     0.5450    -2.1640 H     1 <1>   0.0800 
 49 H       -5.2060     1.9600     0.8360 H     1 <1>   0.0800 
 50 H       -5.7960     3.1140    -0.3390 H     1 <1>   0.0800 
 51 H       -1.8160    -0.7550     0.1760 H     1 <1>   0.4000 
 52 H       -4.6810     1.8930    -2.1420 H     1 <1>   0.0800 
 53 H       -5.8370     0.8670    -1.3600 H     1 <1>   0.0800 
 54 H       -4.9320    -1.2010    -1.0280 H     1 <1>   0.4000 
 55 H       -2.5980     0.6500    -2.7150 H     1 <1>   0.0800 
 56 H       -3.8790    -0.5050    -2.9100 H     1 <1>   0.0800 
 57 H       -2.4270    -0.9370    -2.0330 H     1 <1>   0.0800 
 58 H        3.4200    -1.4360    -2.6540 H     1 <1>   0.1500 
 59 H        0.6290    -1.4660     0.5720 H     1 <1>   0.1500 
 60 H        3.6870    -3.8640    -2.4410 H     1 <1>   0.1500 
 61 H        0.9000    -3.8970     0.7790 H     1 <1>   0.1500 
 62 H        2.4300    -5.1000    -0.7260 H     1 <1>   0.1500 
@<TRIPOS>BOND
  1   1   2  2   
  2   2   3  am  
  3   2   4  1   
  4   3   5  1   
  5   3   6  1   
  6   4   7  ar  
  7   4   8  ar  
  8   5   9  1   
  9   5  32  1   
 10   5  33  1   
 11   6  10  1   
 12   6  34  1   
 13   6  35  1   
 14   7  11  1   
 15   7  12  ar  
 16   8  13  ar  
 17   8  36  1   
 18   9  14  1   
 19   9  37  1   
 20   9  38  1   
 21  10  14  1   
 22  10  39  1   
 23  10  40  1   
 24  11  15  1   
 25  12  16  ar  
 26  12  41  1   
 27  13  16  ar  
 28  13  42  1   
 29  14  17  1   
 30  14  18  1   
 31  15  19  1   
 32  15  43  1   
 33  15  44  1   
 34  16  45  1   
 35  17  20  1   
 36  18  21  1   
 37  18  22  1   
 38  18  46  1   
 39  19  23  1   
 40  19  47  1   
 41  19  48  1   
 42  20  24  1   
 43  20  49  1   
 44  20  50  1   
 45  21  51  1   
 46  22  24  1   
 47  22  25  1   
 48  22  26  1   
 49  23  27  ar  
 50  23  28  ar  
 51  24  52  1   
 52  24  53  1   
 53  25  54  1   
 54  26  55  1   
 55  26  56  1   
 56  26  57  1   
 57  27  29  ar  
 58  27  58  1   
 59  28  30  ar  
 60  28  59  1   
 61  29  31  ar  
 62  29  60  1   
 63  30  31  ar  
 64  30  61  1   
 65  31  62  1   
@<TRIPOS>SUBSTRUCTURE
  1 ****   5 GROUP 4 **** **** 0

# MOE 2024.06 (io_trps.svl 2023.06)
