@<TRIPOS>MOLECULE
NONAME
40 41 1 0 0 
SMALL
USER_CHARGES


@<TRIPOS>ATOM
  1 O        0.0950    -0.0400    -0.2210 O.2   1 <1>  -0.5700 
  2 C        0.0490    -1.2360    -0.4240 C.2   1 <1>   0.5440 
  3 N       -1.0990    -1.6820    -0.9770 N.am  1 <1>  -0.8000 
  4 C        1.1600    -2.1100    -0.0970 C.ar  1 <1>   0.0860 
  5 C        1.0650    -3.5180    -0.0340 C.ar  1 <1>   0.4100 
  6 C        2.4040    -1.5540     0.1750 C.ar  1 <1>  -0.1500 
  7 N        2.0910    -4.3140     0.2550 N.ar  1 <1>  -0.6200 
  8 N       -0.1200    -4.2080    -0.2420 N.pl3 1 <1>  -0.8380 
  9 C        3.4670    -2.3760     0.4770 C.ar  1 <1>  -0.1430 
 10 C        3.2540    -3.7500     0.4980 C.ar  1 <1>   0.1670 
 11 C       -0.1280    -5.1970    -1.3630 C.3   1 <1>   0.2090 
 12 C       -0.9150    -4.4480     0.9920 C.3   1 <1>   0.2090 
 13 C        4.8260    -1.7550     0.7750 C.3   1 <1>  -0.0970 
 14 C        4.3840    -4.7110     0.8190 C.3   1 <1>  -0.0970 
 15 C       -0.2500    -6.6510    -0.9040 C.3   1 <1>  -0.1600 
 16 C       -2.3200    -4.9890     0.7090 C.3   1 <1>  -0.1600 
 17 C       -1.7080    -7.0600    -0.6880 C.3   1 <1>   0.2000 
 18 C       -2.3550    -6.5210     0.5880 C.3   1 <1>  -0.1600 
 19 O       -1.7470    -8.4350    -0.6150 O.3   1 <1>  -0.6800 
 20 H       -1.8830    -1.0490    -1.1220 H     1 <1>   0.3700 
 21 H       -1.2600    -2.6960    -1.0180 H     1 <1>   0.3700 
 22 H        2.5260    -0.4850     0.1450 H     1 <1>   0.1500 
 23 H        0.7930    -5.0970    -1.9150 H     1 <1>   0.0800 
 24 H       -0.9270    -4.9570    -2.0420 H     1 <1>   0.0800 
 25 H       -1.0100    -3.5110     1.5150 H     1 <1>   0.0800 
 26 H       -0.3760    -5.1210     1.6390 H     1 <1>   0.0800 
 27 H        4.7590    -0.6820     0.8120 H     1 <1>   0.0800 
 28 H        5.5300    -2.0230     0.0090 H     1 <1>   0.0800 
 29 H        5.1920    -2.0990     1.7260 H     1 <1>   0.0800 
 30 H        4.0840    -5.7230     0.6130 H     1 <1>   0.0800 
 31 H        4.6390    -4.6360     1.8590 H     1 <1>   0.0800 
 32 H        5.2470    -4.4880     0.2200 H     1 <1>   0.0800 
 33 H        0.3490    -6.8110    -0.0250 H     1 <1>   0.0800 
 34 H        0.1490    -7.2610    -1.6950 H     1 <1>   0.0800 
 35 H       -2.7380    -4.5170    -0.1620 H     1 <1>   0.0800 
 36 H       -2.9400    -4.7200     1.5460 H     1 <1>   0.0800 
 37 H       -2.2980    -6.7760    -1.5440 H     1 <1>   0.0800 
 38 H       -3.3840    -6.8360     0.5970 H     1 <1>   0.0800 
 39 H       -1.8700    -6.9490     1.4490 H     1 <1>   0.0800 
 40 H       -1.1890    -8.7410     0.1230 H     1 <1>   0.4000 
@<TRIPOS>BOND
  1   1   2  2   
  2   2   3  am  
  3   2   4  1   
  4   3  20  1   
  5   3  21  1   
  6   4   5  ar  
  7   4   6  ar  
  8   5   7  ar  
  9   5   8  1   
 10   6   9  ar  
 11   6  22  1   
 12   7  10  ar  
 13   8  11  1   
 14   8  12  1   
 15   9  10  ar  
 16   9  13  1   
 17  10  14  1   
 18  11  15  1   
 19  11  23  1   
 20  11  24  1   
 21  12  16  1   
 22  12  25  1   
 23  12  26  1   
 24  13  27  1   
 25  13  28  1   
 26  13  29  1   
 27  14  30  1   
 28  14  31  1   
 29  14  32  1   
 30  15  17  1   
 31  15  33  1   
 32  15  34  1   
 33  16  18  1   
 34  16  35  1   
 35  16  36  1   
 36  17  18  1   
 37  17  19  1   
 38  17  37  1   
 39  18  38  1   
 40  18  39  1   
 41  19  40  1   
@<TRIPOS>SUBSTRUCTURE
  1 ****   5 GROUP 4 **** **** 0

# MOE 2024.06 (io_trps.svl 2023.06)
