@<TRIPOS>MOLECULE
NONAME
43 44 1 0 0 
SMALL
USER_CHARGES


@<TRIPOS>ATOM
  1 CL       1.3330    -2.0040     0.6260 Cl    1 <1>  -0.1230 
  2 C       -0.1790    -2.8360     0.3090 C.2   1 <1>   0.1230 
  3 C       -0.6700    -3.1820    -0.9400 C.2   1 <1>   0.1390 
  4 C       -1.0850    -3.2610     1.2080 C.2   1 <1>  -0.3020 
  5 N       -1.8180    -3.7920    -0.8380 N.2   1 <1>  -0.7070 
  6 N       -2.0710    -3.8380     0.4910 N.pl3 1 <1>   0.3140 
  7 C       -3.2980    -4.4530     1.0250 C.3   1 <1>   0.0960 
  8 C       -3.9990    -5.2310    -0.0980 C.3   1 <1>   0.3430 
  9 N       -5.2520    -5.9350     0.3430 N.4   1 <1>  -0.9590 
 10 C       -5.6830    -6.8770    -0.7320 C.3   1 <1>   0.3430 
 11 C       -6.3440    -4.9700     0.7020 C.3   1 <1>   0.2630 
 12 C       -6.7020    -7.8680    -0.1780 C.3   1 <1>  -0.1600 
 13 C       -6.9520    -9.0210    -1.1640 C.3   1 <1>   0.0960 
 14 N       -7.7600   -10.0700    -0.5140 N.pl3 1 <1>   0.3140 
 15 N       -7.2680   -10.7340     0.5460 N.2   1 <1>  -0.7070 
 16 C       -9.0100   -10.4850    -0.8210 C.2   1 <1>  -0.3320 
 17 C       -8.2060   -11.5600     0.8870 C.2   1 <1>   0.1080 
 18 C       -9.3230   -11.4500     0.0690 C.2   1 <1>  -0.1500 
 19 C       -9.8700    -9.9540    -1.9560 C.3   1 <1>  -0.0600 
 20 C       -8.0640   -12.5170     2.0460 C.3   1 <1>  -0.0590 
 21 H       -0.1680    -2.9740    -1.8700 H     1 <1>   0.1500 
 22 H       -1.0710    -3.1810     2.2790 H     1 <1>   0.1500 
 23 H       -3.9260    -3.6660     1.3960 H     1 <1>   0.0800 
 24 H       -3.0220    -5.1140     1.8250 H     1 <1>   0.0800 
 25 H       -3.2990    -5.9560    -0.4830 H     1 <1>   0.0800 
 26 H       -4.2320    -4.5470    -0.9000 H     1 <1>   0.0800 
 27 H       -5.0330    -6.5150     1.1690 H     1 <1>   0.4500 
 28 H       -4.8260    -7.4280    -1.0870 H     1 <1>   0.0800 
 29 H       -6.1020    -6.3340    -1.5650 H     1 <1>   0.0800 
 30 H       -6.6080    -4.3670    -0.1520 H     1 <1>   0.0800 
 31 H       -6.0270    -4.3190     1.5000 H     1 <1>   0.0800 
 32 H       -7.2230    -5.5010     1.0320 H     1 <1>   0.0800 
 33 H       -7.6380    -7.3800     0.0220 H     1 <1>   0.0800 
 34 H       -6.3170    -8.2830     0.7380 H     1 <1>   0.0800 
 35 H       -6.0230    -9.4740    -1.4580 H     1 <1>   0.0800 
 36 H       -7.4630    -8.6740    -2.0430 H     1 <1>   0.0800 
 37 H      -10.2270   -12.0260     0.1520 H     1 <1>   0.1500 
 38 H       -9.3840   -10.1190    -2.9010 H     1 <1>   0.0800 
 39 H      -10.0540    -8.9030    -1.8280 H     1 <1>   0.0800 
 40 H      -10.8160   -10.4650    -1.9690 H     1 <1>   0.0800 
 41 H       -7.2240   -13.1650     1.8740 H     1 <1>   0.0800 
 42 H       -8.9520   -13.1120     2.1530 H     1 <1>   0.0800 
 43 H       -7.8980   -11.9640     2.9510 H     1 <1>   0.0800 
@<TRIPOS>BOND
  1   1   2  1   
  2   2   3  1   
  3   2   4  2   
  4   3   5  2   
  5   3  21  1   
  6   4   6  1   
  7   4  22  1   
  8   5   6  1   
  9   6   7  1   
 10   7   8  1   
 11   7  23  1   
 12   7  24  1   
 13   8   9  1   
 14   8  25  1   
 15   8  26  1   
 16   9  10  1   
 17   9  11  1   
 18   9  27  1   
 19  10  12  1   
 20  10  28  1   
 21  10  29  1   
 22  11  30  1   
 23  11  31  1   
 24  11  32  1   
 25  12  13  1   
 26  12  33  1   
 27  12  34  1   
 28  13  14  1   
 29  13  35  1   
 30  13  36  1   
 31  14  15  1   
 32  14  16  1   
 33  15  17  2   
 34  16  18  2   
 35  16  19  1   
 36  17  18  1   
 37  17  20  1   
 38  18  37  1   
 39  19  38  1   
 40  19  39  1   
 41  19  40  1   
 42  20  41  1   
 43  20  42  1   
 44  20  43  1   
@<TRIPOS>SUBSTRUCTURE
  1 ****  10 GROUP 4 **** **** 0

# MOE 2024.06 (io_trps.svl 2023.06)
