@<TRIPOS>MOLECULE
NONAME
31 32 1 0 0 
SMALL
USER_CHARGES


@<TRIPOS>ATOM
  1 N       -0.2900    -1.2410    -0.5720 N.ar  1 <1>  -0.6200 
  2 C        0.3430    -2.3070    -0.1500 C.ar  1 <1>   0.4100 
  3 C        0.1980    -0.0870    -0.1580 C.ar  1 <1>   0.4760 
  4 N       -0.1750    -3.4890    -0.5700 N.pl3 1 <1>  -0.8690 
  5 C        1.4530    -2.2190     0.6650 C.ar  1 <1>  -0.1500 
  6 N        1.2440     0.1200     0.6240 N.ar  1 <1>  -0.6200 
  7 C       -0.5210     1.1520    -0.6350 C.3   1 <1>  -0.0970 
  8 C       -0.6490    -4.4860     0.4010 C.3   1 <1>   0.3900 
  9 C        1.8690    -0.9680     1.0290 C.ar  1 <1>   0.1600 
 10 C       -2.1500    -4.6090     0.2540 C.2   1 <1>  -0.1810 
 11 C       -3.0630    -3.5710     0.3890 C.2   1 <1>   0.1390 
 12 C       -2.9060    -5.6930    -0.0260 C.2   1 <1>  -0.3020 
 13 N       -4.2870    -3.9680     0.2160 N.2   1 <1>  -0.7070 
 14 N       -4.1910    -5.2850    -0.0430 N.pl3 1 <1>   0.3140 
 15 C       -5.3810    -6.1170    -0.3110 C.3   1 <1>   0.0960 
 16 C       -5.7750    -6.9360     0.9250 C.3   1 <1>  -0.2400 
 17 H       -0.8940    -3.3370    -1.2840 H     1 <1>   0.4000 
 18 H        1.9640    -3.1030     0.9860 H     1 <1>   0.1500 
 19 H       -1.4770     0.8950    -1.0520 H     1 <1>   0.0800 
 20 H        0.0720     1.6380    -1.3860 H     1 <1>   0.0800 
 21 H       -0.6690     1.8240     0.1890 H     1 <1>   0.0800 
 22 H       -0.4070    -4.1810     1.4050 H     1 <1>   0.0800 
 23 H       -0.1790    -5.4320     0.2000 H     1 <1>   0.0800 
 24 H        2.7310    -0.8440     1.6620 H     1 <1>   0.1500 
 25 H       -2.7940    -2.5490     0.6080 H     1 <1>   0.1500 
 26 H       -2.6140    -6.7100    -0.2100 H     1 <1>   0.1500 
 27 H       -5.1640    -6.7670    -1.1380 H     1 <1>   0.0800 
 28 H       -6.1890    -5.4640    -0.5910 H     1 <1>   0.0800 
 29 H       -4.9780    -7.6020     1.2050 H     1 <1>   0.0800 
 30 H       -6.6520    -7.5200     0.7110 H     1 <1>   0.0800 
 31 H       -5.9940    -6.2780     1.7470 H     1 <1>   0.0800 
@<TRIPOS>BOND
  1   1   2  ar  
  2   1   3  ar  
  3   2   4  1   
  4   2   5  ar  
  5   3   6  ar  
  6   3   7  1   
  7   4   8  1   
  8   4  17  1   
  9   5   9  ar  
 10   5  18  1   
 11   6   9  ar  
 12   7  19  1   
 13   7  20  1   
 14   7  21  1   
 15   8  10  1   
 16   8  22  1   
 17   8  23  1   
 18   9  24  1   
 19  10  11  1   
 20  10  12  2   
 21  11  13  2   
 22  11  25  1   
 23  12  14  1   
 24  12  26  1   
 25  13  14  1   
 26  14  15  1   
 27  15  16  1   
 28  15  27  1   
 29  15  28  1   
 30  16  29  1   
 31  16  30  1   
 32  16  31  1   
@<TRIPOS>SUBSTRUCTURE
  1 ****   4 GROUP 4 **** **** 0

# MOE 2024.06 (io_trps.svl 2023.06)
