@<TRIPOS>MOLECULE
NONAME
45 47 1 0 0 
SMALL
USER_CHARGES


@<TRIPOS>ATOM
  1 S        0.5900    -0.3260     2.3180 S.3   1 <1>  -0.0800 
  2 C        1.2770    -1.0860     0.8950 C.2   1 <1>  -0.0450 
  3 C        1.2990     1.1930     1.8440 C.2   1 <1>   0.2280 
  4 C        1.9670    -0.1270     0.2310 C.2   1 <1>   0.0460 
  5 C        1.0620    -2.4930     0.6670 C.2   1 <1>   0.7150 
  6 N        1.9660     1.1450     0.7630 N.2   1 <1>  -0.5650 
  7 C        2.7510    -0.3020    -1.0540 C.3   1 <1>  -0.0590 
  8 O        1.9600    -3.1730     0.2040 O.2   1 <1>  -0.5700 
  9 N       -0.1460    -3.1020     0.9280 N.am  1 <1>  -0.6600 
 10 C       -0.2810    -4.5910     1.0060 C.3   1 <1>   0.1400 
 11 C       -1.4590    -2.4160     0.7400 C.3   1 <1>   0.1400 
 12 C       -1.1280    -5.1300    -0.1600 C.3   1 <1>   0.3440 
 13 C       -2.2570    -3.0680    -0.4140 C.3   1 <1>   0.2000 
 14 O       -2.3570    -4.4510    -0.2110 O.3   1 <1>  -0.5600 
 15 C       -1.3750    -6.6260     0.0020 C.ar  1 <1>  -0.1430 
 16 C       -3.6860    -2.5070    -0.5950 C.3   1 <1>  -0.0800 
 17 C       -0.4910    -7.5310    -0.5690 C.ar  1 <1>  -0.1500 
 18 C       -2.4580    -7.1090     0.7240 C.ar  1 <1>  -0.1500 
 19 C       -3.6760    -1.0160    -0.9670 C.3   1 <1>  -0.2400 
 20 C       -4.5960    -2.7280     0.6270 C.3   1 <1>  -0.2400 
 21 C       -0.6860    -8.8940    -0.4230 C.ar  1 <1>  -0.1500 
 22 C       -2.6550    -8.4710     0.8720 C.ar  1 <1>  -0.1500 
 23 C       -1.7690    -9.3650     0.2990 C.ar  1 <1>  -0.1500 
 24 H        1.1260     2.0410     2.4840 H     1 <1>   0.1500 
 25 H        2.6720    -1.3060    -1.4290 H     1 <1>   0.0800 
 26 H        3.7870    -0.0820    -0.8740 H     1 <1>   0.0800 
 27 H        2.3790     0.3760    -1.8000 H     1 <1>   0.0800 
 28 H        0.6860    -5.0640     0.9890 H     1 <1>   0.0800 
 29 H       -0.7550    -4.8560     1.9330 H     1 <1>   0.0800 
 30 H       -2.0200    -2.4820     1.6550 H     1 <1>   0.0800 
 31 H       -1.3090    -1.3770     0.5130 H     1 <1>   0.0800 
 32 H       -0.6140    -4.9540    -1.0900 H     1 <1>   0.0800 
 33 H       -1.7190    -2.9160    -1.3350 H     1 <1>   0.0800 
 34 H       -4.1200    -3.0380    -1.4260 H     1 <1>   0.0800 
 35 H        0.3560    -7.1800    -1.1330 H     1 <1>   0.1500 
 36 H       -3.1560    -6.4210     1.1710 H     1 <1>   0.1500 
 37 H       -3.3210    -0.4120    -0.1510 H     1 <1>   0.0800 
 38 H       -4.6720    -0.6920    -1.2140 H     1 <1>   0.0800 
 39 H       -3.0470    -0.8470    -1.8240 H     1 <1>   0.0800 
 40 H       -4.2570    -2.1640     1.4760 H     1 <1>   0.0800 
 41 H       -4.6180    -3.7710     0.8910 H     1 <1>   0.0800 
 42 H       -5.6010    -2.4220     0.3970 H     1 <1>   0.0800 
 43 H        0.0040    -9.5880    -0.8700 H     1 <1>   0.1500 
 44 H       -3.5000    -8.8330     1.4320 H     1 <1>   0.1500 
 45 H       -1.9220   -10.4240     0.4130 H     1 <1>   0.1500 
@<TRIPOS>BOND
  1   1   2  1   
  2   1   3  1   
  3   2   4  2   
  4   2   5  1   
  5   3   6  2   
  6   3  24  1   
  7   4   6  1   
  8   4   7  1   
  9   5   8  2   
 10   5   9  am  
 11   7  25  1   
 12   7  26  1   
 13   7  27  1   
 14   9  10  1   
 15   9  11  1   
 16  10  12  1   
 17  10  28  1   
 18  10  29  1   
 19  11  13  1   
 20  11  30  1   
 21  11  31  1   
 22  12  14  1   
 23  12  15  1   
 24  12  32  1   
 25  13  14  1   
 26  13  16  1   
 27  13  33  1   
 28  15  17  ar  
 29  15  18  ar  
 30  16  19  1   
 31  16  20  1   
 32  16  34  1   
 33  17  21  ar  
 34  17  35  1   
 35  18  22  ar  
 36  18  36  1   
 37  19  37  1   
 38  19  38  1   
 39  19  39  1   
 40  20  40  1   
 41  20  41  1   
 42  20  42  1   
 43  21  23  ar  
 44  21  43  1   
 45  22  23  ar  
 46  22  44  1   
 47  23  45  1   
@<TRIPOS>SUBSTRUCTURE
  1 ****   9 GROUP 4 **** **** 0

# MOE 2024.06 (io_trps.svl 2023.06)
