@<TRIPOS>MOLECULE
NONAME
41 43 1 0 0 
SMALL
USER_CHARGES


@<TRIPOS>ATOM
  1 O        1.1710    -0.0410     2.1720 O.2   1 <1>  -0.5700 
  2 C        1.6890    -0.5000     1.1820 C.2   1 <1>   0.5690 
  3 N        1.1180    -1.5800     0.5840 N.am  1 <1>  -0.7300 
  4 C        2.9850     0.1270     0.6100 C.3   1 <1>   0.3500 
  5 C        1.5290    -2.1870    -0.7000 C.3   1 <1>   0.1400 
  6 N        2.9980     1.6210     0.6670 N.pl3 1 <1>  -0.8690 
  7 C        3.2130    -0.2910    -0.8530 C.3   1 <1>  -0.1600 
  8 C        2.9720    -1.7970    -1.0440 C.3   1 <1>  -0.1600 
  9 C        4.1350     2.3720     0.8590 C.ar  1 <1>   0.4100 
 10 N        5.2930     1.7280     0.7160 N.ar  1 <1>  -0.6200 
 11 C        4.0410     3.7400     1.1740 C.ar  1 <1>   0.0860 
 12 C        6.3910     2.4300     0.9140 C.ar  1 <1>   0.1600 
 13 C        2.7610     4.3970     1.2690 C.2   1 <1>   0.5440 
 14 C        5.2190     4.4440     1.3810 C.ar  1 <1>  -0.1500 
 15 C        6.4120     3.7720     1.2470 C.ar  1 <1>  -0.1500 
 16 O        1.9200     3.9960     2.0550 O.2   1 <1>  -0.5700 
 17 N        2.4630     5.4930     0.4910 N.am  1 <1>  -0.6600 
 18 C        3.1870     5.8680    -0.7430 C.3   1 <1>   0.1400 
 19 C        1.1550     6.1810     0.5680 C.3   1 <1>   0.1400 
 20 C        2.1640     6.6270    -1.5790 C.3   1 <1>  -0.1600 
 21 C        1.1860     7.2060    -0.5600 C.3   1 <1>  -0.1600 
 22 H        0.2490    -1.9140     1.0070 H     1 <1>   0.3700 
 23 H        3.7930    -0.2540     1.2090 H     1 <1>   0.0800 
 24 H        0.8650    -1.8390    -1.4740 H     1 <1>   0.0800 
 25 H        1.4460    -3.2590    -0.6360 H     1 <1>   0.0800 
 26 H        2.1740     1.9760     1.1810 H     1 <1>   0.4000 
 27 H        4.2210    -0.0450    -1.1360 H     1 <1>   0.0800 
 28 H        2.5380     0.2590    -1.4850 H     1 <1>   0.0800 
 29 H        3.1760    -2.0700    -2.0640 H     1 <1>   0.0800 
 30 H        3.6480    -2.3540    -0.4180 H     1 <1>   0.0800 
 31 H        7.3280     1.9100     0.8070 H     1 <1>   0.1500 
 32 H        5.1890     5.4880     1.6410 H     1 <1>   0.1500 
 33 H        7.3490     4.2760     1.3990 H     1 <1>   0.1500 
 34 H        3.5500     4.9970    -1.2630 H     1 <1>   0.0800 
 35 H        4.0110     6.5110    -0.4860 H     1 <1>   0.0800 
 36 H        1.0250     6.6440     1.5310 H     1 <1>   0.0800 
 37 H        0.3710     5.4600     0.4070 H     1 <1>   0.0800 
 38 H        1.6520     5.9300    -2.2200 H     1 <1>   0.0800 
 39 H        2.6240     7.3870    -2.1860 H     1 <1>   0.0800 
 40 H        1.5640     8.1370    -0.1750 H     1 <1>   0.0800 
 41 H        0.2070     7.3700    -0.9760 H     1 <1>   0.0800 
@<TRIPOS>BOND
  1   1   2  2   
  2   2   3  am  
  3   2   4  1   
  4   3   5  1   
  5   3  22  1   
  6   4   6  1   
  7   4   7  1   
  8   4  23  1   
  9   5   8  1   
 10   5  24  1   
 11   5  25  1   
 12   6   9  1   
 13   6  26  1   
 14   7   8  1   
 15   7  27  1   
 16   7  28  1   
 17   8  29  1   
 18   8  30  1   
 19   9  10  ar  
 20   9  11  ar  
 21  10  12  ar  
 22  11  13  1   
 23  11  14  ar  
 24  12  15  ar  
 25  12  31  1   
 26  13  16  2   
 27  13  17  am  
 28  14  15  ar  
 29  14  32  1   
 30  15  33  1   
 31  17  18  1   
 32  17  19  1   
 33  18  20  1   
 34  18  34  1   
 35  18  35  1   
 36  19  21  1   
 37  19  36  1   
 38  19  37  1   
 39  20  21  1   
 40  20  38  1   
 41  20  39  1   
 42  21  40  1   
 43  21  41  1   
@<TRIPOS>SUBSTRUCTURE
  1 ****   6 GROUP 4 **** **** 0

# MOE 2024.06 (io_trps.svl 2023.06)
