@<TRIPOS>MOLECULE
NONAME
49 52 1 0 0 
SMALL
USER_CHARGES


@<TRIPOS>ATOM
  1 O       -0.8160    -0.8010    -0.5430 O.co2 1 <1>  -0.9000 
  2 C       -1.7530    -0.8890     0.2630 C.2   1 <1>   0.9790 
  3 O       -1.6770    -1.6860     1.2090 O.co2 1 <1>  -0.9000 
  4 C       -2.9680    -0.1220     0.0870 C.ar  1 <1>  -0.1790 
  5 C       -2.9730     1.2480    -0.3480 C.ar  1 <1>   0.0000 
  6 C       -4.1730    -0.7220     0.3480 C.ar  1 <1>  -0.1500 
  7 C       -4.2140     1.8830    -0.5290 C.ar  1 <1>   0.3610 
  8 C       -1.8190     2.0130    -0.5910 C.ar  1 <1>  -0.1500 
  9 C       -5.4130    -0.0770     0.1690 C.ar  1 <1>   0.4610 
 10 N       -5.3740     1.1810    -0.2650 N.ar  1 <1>  -0.1790 
 11 C       -4.2770     3.2130    -0.9600 C.ar  1 <1>  -0.1500 
 12 C       -1.8920     3.3200    -1.0090 C.ar  1 <1>  -0.1500 
 13 N       -6.6050    -0.6620     0.4020 N.pl3 1 <1>  -0.8380 
 14 C       -3.1280     3.9280    -1.1990 C.ar  1 <1>  -0.1500 
 15 C       -7.9530    -0.0340     0.2880 C.3   1 <1>   0.2090 
 16 C       -6.7610    -2.1070     0.7270 C.3   1 <1>   0.2090 
 17 C       -8.9720    -1.1090     0.6940 C.3   1 <1>  -0.0800 
 18 C       -8.2320    -2.4390     0.4800 C.3   1 <1>  -0.0800 
 19 C      -10.3720    -1.0160     0.0120 C.3   1 <1>   0.2800 
 20 C       -8.4860    -2.9870    -0.9340 C.3   1 <1>  -0.1600 
 21 O      -10.2650    -0.3730    -1.2070 O.3   1 <1>  -0.6800 
 22 C      -10.9170    -2.4260    -0.2850 C.3   1 <1>  -0.1600 
 23 C      -11.3950    -0.2210     0.8530 C.3   1 <1>  -0.1600 
 24 C       -9.9800    -3.2780    -1.1690 C.3   1 <1>  -0.1600 
 25 C      -11.0220     1.2420     1.1490 C.3   1 <1>  -0.2400 
 26 H       -4.1670    -1.7360     0.7060 H     1 <1>   0.1500 
 27 H       -0.8470     1.5690    -0.4510 H     1 <1>   0.1500 
 28 H       -6.2660     1.6280    -0.4220 H     1 <1>   0.4570 
 29 H       -5.2290     3.6900    -1.1060 H     1 <1>   0.1500 
 30 H       -0.9880     3.8770    -1.1930 H     1 <1>   0.1500 
 31 H       -3.1660     4.9530    -1.5310 H     1 <1>   0.1500 
 32 H       -8.0350     0.8220     0.9360 H     1 <1>   0.0800 
 33 H       -8.0870     0.2750    -0.7330 H     1 <1>   0.0800 
 34 H       -6.1180    -2.7200     0.1180 H     1 <1>   0.0800 
 35 H       -6.5190    -2.2610     1.7650 H     1 <1>   0.0800 
 36 H       -9.1160    -1.0220     1.7570 H     1 <1>   0.0800 
 37 H       -8.5540    -3.1770     1.1950 H     1 <1>   0.0800 
 38 H       -8.1560    -2.2580    -1.6550 H     1 <1>   0.0800 
 39 H       -7.9160    -3.8860    -1.0980 H     1 <1>   0.0800 
 40 H      -11.1180    -0.4370    -1.6760 H     1 <1>   0.4000 
 41 H      -11.0470    -2.9350     0.6540 H     1 <1>   0.0800 
 42 H      -11.8900    -2.3680    -0.7410 H     1 <1>   0.0800 
 43 H      -12.3450    -0.2350     0.3480 H     1 <1>   0.0800 
 44 H      -11.5390    -0.7290     1.7910 H     1 <1>   0.0800 
 45 H      -10.1800    -4.3180    -0.9760 H     1 <1>   0.0800 
 46 H      -10.2030    -3.0970    -2.2060 H     1 <1>   0.0800 
 47 H      -10.8330     1.7810     0.2370 H     1 <1>   0.0800 
 48 H      -10.1540     1.2990     1.7800 H     1 <1>   0.0800 
 49 H      -11.8360     1.7250     1.6620 H     1 <1>   0.0800 
@<TRIPOS>BOND
  1   1   2  ar  
  2   2   3  ar  
  3   2   4  1   
  4   4   5  ar  
  5   4   6  ar  
  6   5   7  ar  
  7   5   8  ar  
  8   6   9  ar  
  9   6  26  1   
 10   7  10  ar  
 11   7  11  ar  
 12   8  12  ar  
 13   8  27  1   
 14   9  10  ar  
 15   9  13  1   
 16  10  28  1   
 17  11  14  ar  
 18  11  29  1   
 19  12  14  ar  
 20  12  30  1   
 21  13  15  1   
 22  13  16  1   
 23  14  31  1   
 24  15  17  1   
 25  15  32  1   
 26  15  33  1   
 27  16  18  1   
 28  16  34  1   
 29  16  35  1   
 30  17  18  1   
 31  17  19  1   
 32  17  36  1   
 33  18  20  1   
 34  18  37  1   
 35  19  21  1   
 36  19  22  1   
 37  19  23  1   
 38  20  24  1   
 39  20  38  1   
 40  20  39  1   
 41  21  40  1   
 42  22  24  1   
 43  22  41  1   
 44  22  42  1   
 45  23  25  1   
 46  23  43  1   
 47  23  44  1   
 48  24  45  1   
 49  24  46  1   
 50  25  47  1   
 51  25  48  1   
 52  25  49  1   
@<TRIPOS>SUBSTRUCTURE
  1 ****   9 GROUP 4 **** **** 0

# MOE 2024.06 (io_trps.svl 2023.06)
