@<TRIPOS>MOLECULE
NONAME
51 54 1 0 0 
SMALL
USER_CHARGES


@<TRIPOS>ATOM
  1 O        0.0120    -1.2420     1.7800 O.3   1 <1>  -0.0190 
  2 N        0.0930    -2.4860     2.1400 N.2   1 <1>  -0.4100 
  3 C        0.3450    -1.2520     0.5130 C.2   1 <1>   0.2980 
  4 C        0.4520    -3.1530     1.1140 C.2   1 <1>   0.3350 
  5 N        0.6370    -2.3960     0.0370 N.2   1 <1>  -0.5650 
  6 C        0.3360     0.0750    -0.2390 C.3   1 <1>   0.1000 
  7 C        0.6580    -4.6690     1.0990 C.3   1 <1>   0.2910 
  8 C        0.6400    -0.0220    -1.7350 C.3   1 <1>  -0.1600 
  9 C        1.3890     1.0630     0.2670 C.3   1 <1>  -0.1600 
 10 N       -0.3870    -5.4620     0.3870 N.3   1 <1>  -0.8100 
 11 C        1.0480     1.3940    -2.1440 C.3   1 <1>  -0.1600 
 12 C        1.5970     2.0620    -0.8770 C.3   1 <1>  -0.1600 
 13 C       -0.1410    -6.9240     0.4770 C.3   1 <1>   0.2530 
 14 C       -1.7780    -5.1410     0.7980 C.3   1 <1>   0.1100 
 15 C        1.2830    -7.3620     0.1220 C.ar  1 <1>   0.1670 
 16 C       -2.3970    -3.9840    -0.0080 C.3   1 <1>   0.2000 
 17 N        1.5890    -7.4660    -1.1650 N.ar  1 <1>  -0.6200 
 18 C        2.1790    -7.6400     1.1470 C.ar  1 <1>  -0.1500 
 19 O       -3.7740    -3.9720     0.1880 O.3   1 <1>  -0.5600 
 20 C       -2.2400    -4.1010    -1.5170 C.3   1 <1>  -0.1600 
 21 C        2.8270    -7.8440    -1.4380 C.ar  1 <1>   0.1600 
 22 C        3.4650    -8.0360     0.8480 C.ar  1 <1>  -0.1500 
 23 C       -4.3990    -3.2880    -0.8510 C.3   1 <1>   0.1200 
 24 C       -3.4460    -3.3430    -2.0440 C.3   1 <1>  -0.1600 
 25 C        3.7880    -8.1370    -0.4870 C.ar  1 <1>  -0.1500 
 26 H       -0.6360     0.5210    -0.1220 H     1 <1>   0.0800 
 27 H        0.7200    -5.0050     2.1180 H     1 <1>   0.0800 
 28 H        1.6090    -4.8480     0.6310 H     1 <1>   0.0800 
 29 H       -0.2050    -0.3840    -2.2940 H     1 <1>   0.0800 
 30 H        1.4730    -0.6870    -1.8910 H     1 <1>   0.0800 
 31 H        2.3100     0.5340     0.4470 H     1 <1>   0.0800 
 32 H        1.0790     1.5470     1.1760 H     1 <1>   0.0800 
 33 H        0.1830     1.9350    -2.4900 H     1 <1>   0.0800 
 34 H        1.7820     1.3730    -2.9320 H     1 <1>   0.0800 
 35 H        2.6410     2.2990    -0.9840 H     1 <1>   0.0800 
 36 H        1.0530     2.9700    -0.6810 H     1 <1>   0.0800 
 37 H       -0.8140    -7.4260    -0.1970 H     1 <1>   0.0800 
 38 H       -0.3700    -7.2590     1.4730 H     1 <1>   0.0800 
 39 H       -1.8120    -4.9060     1.8480 H     1 <1>   0.0800 
 40 H       -2.4030    -6.0000     0.6270 H     1 <1>   0.0800 
 41 H       -2.0260    -3.0350     0.3340 H     1 <1>   0.0800 
 42 H        1.8750    -7.5460     2.1740 H     1 <1>   0.1500 
 43 H       -2.2870    -5.1360    -1.8060 H     1 <1>   0.0800 
 44 H       -1.3020    -3.6880    -1.8460 H     1 <1>   0.0800 
 45 H        3.0880    -7.9250    -2.4800 H     1 <1>   0.1500 
 46 H        4.1820    -8.2570     1.6200 H     1 <1>   0.1500 
 47 H       -4.5680    -2.2740    -0.5320 H     1 <1>   0.0800 
 48 H       -5.3370    -3.7720    -1.0600 H     1 <1>   0.0800 
 49 H       -3.8940    -3.8450    -2.8830 H     1 <1>   0.0800 
 50 H       -3.1730    -2.3440    -2.3350 H     1 <1>   0.0800 
 51 H        4.7740    -8.4390    -0.7920 H     1 <1>   0.1500 
@<TRIPOS>BOND
  1   1   2  1   
  2   1   3  1   
  3   2   4  2   
  4   3   5  2   
  5   3   6  1   
  6   4   5  1   
  7   4   7  1   
  8   6   8  1   
  9   6   9  1   
 10   6  26  1   
 11   7  10  1   
 12   7  27  1   
 13   7  28  1   
 14   8  11  1   
 15   8  29  1   
 16   8  30  1   
 17   9  12  1   
 18   9  31  1   
 19   9  32  1   
 20  10  13  1   
 21  10  14  1   
 22  11  12  1   
 23  11  33  1   
 24  11  34  1   
 25  12  35  1   
 26  12  36  1   
 27  13  15  1   
 28  13  37  1   
 29  13  38  1   
 30  14  16  1   
 31  14  39  1   
 32  14  40  1   
 33  15  17  ar  
 34  15  18  ar  
 35  16  19  1   
 36  16  20  1   
 37  16  41  1   
 38  17  21  ar  
 39  18  22  ar  
 40  18  42  1   
 41  19  23  1   
 42  20  24  1   
 43  20  43  1   
 44  20  44  1   
 45  21  25  ar  
 46  21  45  1   
 47  22  25  ar  
 48  22  46  1   
 49  23  24  1   
 50  23  47  1   
 51  23  48  1   
 52  24  49  1   
 53  24  50  1   
 54  25  51  1   
@<TRIPOS>SUBSTRUCTURE
  1 ****   4 GROUP 4 **** **** 0

# MOE 2024.06 (io_trps.svl 2023.06)
