@<TRIPOS>MOLECULE
NONAME
48 51 1 0 0 
SMALL
USER_CHARGES


@<TRIPOS>ATOM
  1 S       -1.4050    -0.0370     1.7090 S.o2  1 <1>   1.0900 
  2 O       -0.0640    -0.4020     2.1000 O.2   1 <1>  -0.6500 
  3 O       -2.1320     1.0200     2.3700 O.2   1 <1>  -0.6500 
  4 C       -2.3690    -1.5210     1.6540 C.3   1 <1>  -0.0550 
  5 C       -1.4100     0.2100    -0.0610 C.3   1 <1>  -0.0550 
  6 C       -1.9630    -2.1830     0.3400 C.3   1 <1>   0.1760 
  7 C       -1.9240    -1.0760    -0.7330 C.3   1 <1>  -0.1600 
  8 N       -2.8970    -3.2770    -0.0300 N.pl3 1 <1>   0.3140 
  9 N       -4.2300    -3.0770    -0.0560 N.2   1 <1>  -0.7070 
 10 C       -2.5770    -4.5510    -0.3720 C.2   1 <1>  -0.3320 
 11 C       -4.7290    -4.2240    -0.3920 C.2   1 <1>   0.1080 
 12 C       -3.7460    -5.1930    -0.5960 C.2   1 <1>   0.0630 
 13 C       -1.1550    -5.0850    -0.4730 C.3   1 <1>  -0.0600 
 14 C       -6.2170    -4.4560    -0.5340 C.3   1 <1>  -0.0590 
 15 N       -3.9900    -6.5380    -0.9700 N.am  1 <1>  -0.4930 
 16 C       -3.4860    -7.6850    -0.4320 C.2   1 <1>   0.5690 
 17 O       -2.6420    -7.7070     0.4350 O.2   1 <1>  -0.5700 
 18 C       -4.0090    -9.0200    -0.9540 C.3   1 <1>   0.2010 
 19 N       -5.4620    -9.2180    -0.6910 N.am  1 <1>  -0.4770 
 20 C       -6.4850    -8.5380    -1.2840 C.2   1 <1>   0.7800 
 21 C       -6.0490   -10.1020     0.1910 C.ar  1 <1>   0.1170 
 22 O       -6.3620    -7.6350    -2.0910 O.2   1 <1>  -0.5700 
 23 O       -7.6660    -8.9660    -0.8390 O.3   1 <1>  -0.2320 
 24 C       -7.4110    -9.9270     0.0720 C.ar  1 <1>   0.0820 
 25 C       -5.5400   -11.0340     1.0840 C.ar  1 <1>  -0.1500 
 26 C       -8.3140   -10.6650     0.8140 C.ar  1 <1>  -0.1500 
 27 C       -6.4330   -11.7830     1.8370 C.ar  1 <1>  -0.1500 
 28 C       -7.8080   -11.6020     1.7030 C.ar  1 <1>  -0.1500 
 29 H       -3.4140    -1.2710     1.6300 H     1 <1>   0.0800 
 30 H       -2.1670    -2.1560     2.4940 H     1 <1>   0.0800 
 31 H       -0.4160     0.4360    -0.3980 H     1 <1>   0.0800 
 32 H       -2.0510     1.0320    -0.3210 H     1 <1>   0.0800 
 33 H       -0.9760    -2.5920     0.4600 H     1 <1>   0.0800 
 34 H       -1.2940    -1.3620    -1.5580 H     1 <1>   0.0800 
 35 H       -2.9210    -0.8970    -1.1010 H     1 <1>   0.0800 
 36 H       -0.5460    -4.4330    -1.0730 H     1 <1>   0.0800 
 37 H       -1.1490    -6.0570    -0.9310 H     1 <1>   0.0800 
 38 H       -0.7230    -5.1740     0.5090 H     1 <1>   0.0800 
 39 H       -6.7560    -3.5840    -0.2120 H     1 <1>   0.0800 
 40 H       -6.5160    -5.2920     0.0700 H     1 <1>   0.0800 
 41 H       -6.4580    -4.6560    -1.5620 H     1 <1>   0.0800 
 42 H       -4.7940    -6.6580    -1.6000 H     1 <1>   0.3700 
 43 H       -3.4520    -9.8130    -0.4910 H     1 <1>   0.0800 
 44 H       -3.8360    -9.0660    -2.0130 H     1 <1>   0.0800 
 45 H       -4.4790   -11.1690     1.1910 H     1 <1>   0.1500 
 46 H       -9.3720   -10.5100     0.6990 H     1 <1>   0.1500 
 47 H       -6.0610   -12.5130     2.5360 H     1 <1>   0.1500 
 48 H       -8.4830   -12.1950     2.2970 H     1 <1>   0.1500 
@<TRIPOS>BOND
  1   1   2  2   
  2   1   3  2   
  3   1   4  1   
  4   1   5  1   
  5   4   6  1   
  6   4  29  1   
  7   4  30  1   
  8   5   7  1   
  9   5  31  1   
 10   5  32  1   
 11   6   7  1   
 12   6   8  1   
 13   6  33  1   
 14   7  34  1   
 15   7  35  1   
 16   8   9  1   
 17   8  10  1   
 18   9  11  2   
 19  10  12  2   
 20  10  13  1   
 21  11  12  1   
 22  11  14  1   
 23  12  15  1   
 24  13  36  1   
 25  13  37  1   
 26  13  38  1   
 27  14  39  1   
 28  14  40  1   
 29  14  41  1   
 30  15  16  am  
 31  15  42  1   
 32  16  17  2   
 33  16  18  1   
 34  18  19  1   
 35  18  43  1   
 36  18  44  1   
 37  19  20  am  
 38  19  21  1   
 39  20  22  2   
 40  20  23  1   
 41  21  24  ar  
 42  21  25  ar  
 43  23  24  1   
 44  24  26  ar  
 45  25  27  ar  
 46  25  45  1   
 47  26  28  ar  
 48  26  46  1   
 49  27  28  ar  
 50  27  47  1   
 51  28  48  1   
@<TRIPOS>SUBSTRUCTURE
  1 ****  12 GROUP 4 **** **** 0

# MOE 2024.06 (io_trps.svl 2023.06)
