@<TRIPOS>MOLECULE
NONAME
48 51 1 0 0 
SMALL
USER_CHARGES


@<TRIPOS>ATOM
  1 O       -0.3500     0.2110     0.0090 O.2   1 <1>  -0.5700 
  2 C       -1.3840     0.8460     0.1410 C.2   1 <1>   0.7150 
  3 N       -2.5660     0.1350     0.0660 N.am  1 <1>  -0.6600 
  4 C       -1.3390     2.2830     0.3510 C.2   1 <1>   0.1020 
  5 C       -3.9340     0.7130     0.0830 C.3   1 <1>   0.1400 
  6 C       -2.6190    -1.3400    -0.0670 C.3   1 <1>   0.1400 
  7 N       -2.2300     2.9870     1.0030 N.2   1 <1>  -0.3380 
  8 N       -0.3560     3.1020    -0.0860 N.pl3 1 <1>   0.0480 
  9 C       -4.8590    -0.4640    -0.2280 C.3   1 <1>   0.2000 
 10 C       -4.0810    -1.7120     0.1830 C.3   1 <1>  -0.0800 
 11 N       -1.8360     4.2500     1.0080 N.2   1 <1>  -0.3380 
 12 C       -0.7220     4.2990     0.3650 C.2   1 <1>   0.0070 
 13 C        0.8470     2.8250    -0.9100 C.3   1 <1>   0.0960 
 14 O       -6.0460    -0.3870     0.4820 O.3   1 <1>  -0.6800 
 15 C       -4.5350    -2.9750    -0.5640 C.3   1 <1>  -0.0170 
 16 C        0.0750     5.5740     0.1620 C.3   1 <1>   0.0200 
 17 C        2.1370     3.1330    -0.1390 C.3   1 <1>  -0.1600 
 18 C       -3.7140    -4.1840    -0.1430 C.ar  1 <1>  -0.1430 
 19 C        1.4820     5.4720     0.7720 C.3   1 <1>  -0.1600 
 20 C        2.4690     4.6330    -0.0560 C.3   1 <1>  -0.1600 
 21 C       -3.9810    -4.8670     1.0260 C.ar  1 <1>  -0.1500 
 22 C       -2.6620    -4.6580    -0.9000 C.ar  1 <1>  -0.1500 
 23 C       -3.2020    -5.9580     1.3740 C.ar  1 <1>   0.1600 
 24 C       -1.9450    -5.7590    -0.4610 C.ar  1 <1>   0.1600 
 25 N       -2.1890    -6.4200     0.6590 N.ar  1 <1>  -0.6200 
 26 H       -4.1370     1.1110     1.0620 H     1 <1>   0.0800 
 27 H       -4.0290     1.4880    -0.6580 H     1 <1>   0.0800 
 28 H       -2.3160    -1.6090    -1.0650 H     1 <1>   0.0800 
 29 H       -1.9640    -1.8150     0.6440 H     1 <1>   0.0800 
 30 H       -5.0920    -0.4760    -1.2800 H     1 <1>   0.0800 
 31 H       -4.1900    -1.8660     1.2430 H     1 <1>   0.0800 
 32 H        0.8530     1.7970    -1.2160 H     1 <1>   0.0800 
 33 H        0.7990     3.4230    -1.8020 H     1 <1>   0.0800 
 34 H       -5.8660    -0.2980     1.4380 H     1 <1>   0.4000 
 35 H       -4.4460    -2.8270    -1.6260 H     1 <1>   0.0800 
 36 H       -5.5740    -3.1600    -0.3510 H     1 <1>   0.0800 
 37 H        0.1320     5.8090    -0.8850 H     1 <1>   0.0800 
 38 H       -0.4520     6.3780     0.6460 H     1 <1>   0.0800 
 39 H        2.0850     2.7020     0.8470 H     1 <1>   0.0800 
 40 H        2.9490     2.6480    -0.6530 H     1 <1>   0.0800 
 41 H        1.8800     6.4690     0.8540 H     1 <1>   0.0800 
 42 H        1.4090     5.0750     1.7700 H     1 <1>   0.0800 
 43 H        3.4430     4.7310     0.3940 H     1 <1>   0.0800 
 44 H        2.5420     5.0420    -1.0500 H     1 <1>   0.0800 
 45 H       -4.7850    -4.5610     1.6690 H     1 <1>   0.1500 
 46 H       -2.3900    -4.1860    -1.8260 H     1 <1>   0.1500 
 47 H       -3.4240    -6.4790     2.2900 H     1 <1>   0.1500 
 48 H       -1.1270    -6.1150    -1.0630 H     1 <1>   0.1500 
@<TRIPOS>BOND
  1   1   2  2   
  2   2   3  am  
  3   2   4  1   
  4   3   5  1   
  5   3   6  1   
  6   4   7  2   
  7   4   8  1   
  8   5   9  1   
  9   5  26  1   
 10   5  27  1   
 11   6  10  1   
 12   6  28  1   
 13   6  29  1   
 14   7  11  1   
 15   8  12  1   
 16   8  13  1   
 17   9  10  1   
 18   9  14  1   
 19   9  30  1   
 20  10  15  1   
 21  10  31  1   
 22  11  12  2   
 23  12  16  1   
 24  13  17  1   
 25  13  32  1   
 26  13  33  1   
 27  14  34  1   
 28  15  18  1   
 29  15  35  1   
 30  15  36  1   
 31  16  19  1   
 32  16  37  1   
 33  16  38  1   
 34  17  20  1   
 35  17  39  1   
 36  17  40  1   
 37  18  21  ar  
 38  18  22  ar  
 39  19  20  1   
 40  19  41  1   
 41  19  42  1   
 42  20  43  1   
 43  20  44  1   
 44  21  23  ar  
 45  21  45  1   
 46  22  24  ar  
 47  22  46  1   
 48  23  25  ar  
 49  23  47  1   
 50  24  25  ar  
 51  24  48  1   
@<TRIPOS>SUBSTRUCTURE
  1 ****   3 GROUP 4 **** **** 0

# MOE 2024.06 (io_trps.svl 2023.06)
