@<TRIPOS>MOLECULE
NONAME
49 51 1 0 0 
SMALL
USER_CHARGES


@<TRIPOS>ATOM
  1 O       -0.5250    -1.0620    -0.0200 O.2   1 <1>  -0.5700 
  2 C        0.5970    -1.3100     0.3780 C.2   1 <1>   0.5440 
  3 N        0.7270    -2.0150     1.5400 N.am  1 <1>  -0.7300 
  4 C        1.7670    -0.8730    -0.3650 C.ar  1 <1>   0.0860 
  5 C       -0.4030    -2.5390     2.3720 C.3   1 <1>   0.2010 
  6 C        1.7130     0.2590    -1.1790 C.ar  1 <1>  -0.1500 
  7 C        2.9830    -1.5590    -0.3050 C.ar  1 <1>  -0.1500 
  8 C       -0.5580    -4.0600     2.2940 C.2   1 <1>   0.5690 
  9 C        2.8170     0.6960    -1.8890 C.ar  1 <1>  -0.1500 
 10 C        4.0910    -1.1270    -1.0110 C.ar  1 <1>  -0.1500 
 11 O       -0.0770    -4.7260     3.1820 O.2   1 <1>  -0.5700 
 12 N       -1.2160    -4.6420     1.2440 N.am  1 <1>  -0.6600 
 13 C        4.0100     0.0030    -1.8050 C.ar  1 <1>  -0.1500 
 14 C       -1.7310    -3.9470     0.0370 C.3   1 <1>   0.1400 
 15 C       -1.4780    -6.0930     1.1460 C.3   1 <1>   0.1400 
 16 C       -2.4810    -5.0160    -0.7670 C.3   1 <1>   0.2000 
 17 C       -1.8240    -6.3290    -0.3270 C.3   1 <1>  -0.0800 
 18 O       -3.8320    -5.0400    -0.3960 O.3   1 <1>  -0.5600 
 19 C       -2.6830    -7.5840    -0.5640 C.3   1 <1>   0.0200 
 20 C       -4.6400    -4.1070    -1.0420 C.3   1 <1>   0.0400 
 21 C       -1.9420    -8.8810    -0.2820 C.2   1 <1>  -0.0400 
 22 O       -2.5970   -10.0090    -0.3690 O.3   1 <1>  -0.0190 
 23 C       -0.6750    -9.1710     0.0570 C.2   1 <1>  -0.1500 
 24 N       -1.8400   -11.0340    -0.1040 N.2   1 <1>  -0.4100 
 25 C       -0.6760   -10.5590     0.1570 C.2   1 <1>   0.1080 
 26 C        0.5240   -11.4030     0.5240 C.3   1 <1>  -0.0590 
 27 H        1.6580    -2.2440     1.8920 H     1 <1>   0.3700 
 28 H       -0.2290    -2.2700     3.3980 H     1 <1>   0.0800 
 29 H       -1.3270    -2.0780     2.0740 H     1 <1>   0.0800 
 30 H        0.7870     0.8040    -1.2520 H     1 <1>   0.1500 
 31 H        3.0660    -2.4460     0.2950 H     1 <1>   0.1500 
 32 H        2.7470     1.5750    -2.5070 H     1 <1>   0.1500 
 33 H        5.0190    -1.6700    -0.9480 H     1 <1>   0.1500 
 34 H        4.8710     0.3410    -2.3560 H     1 <1>   0.1500 
 35 H       -2.3660    -3.1190     0.2990 H     1 <1>   0.0800 
 36 H       -0.8950    -3.5890    -0.5380 H     1 <1>   0.0800 
 37 H       -0.6190    -6.6600     1.4600 H     1 <1>   0.0800 
 38 H       -2.3180    -6.3340     1.7760 H     1 <1>   0.0800 
 39 H       -2.4080    -4.8640    -1.8310 H     1 <1>   0.0800 
 40 H       -0.9020    -6.4300    -0.8700 H     1 <1>   0.0800 
 41 H       -3.0150    -7.6000    -1.5870 H     1 <1>   0.0800 
 42 H       -3.5600    -7.5490     0.0600 H     1 <1>   0.0800 
 43 H       -5.6420    -4.2190    -0.6670 H     1 <1>   0.0800 
 44 H       -4.6280    -4.2990    -2.1010 H     1 <1>   0.0800 
 45 H       -4.2870    -3.1120    -0.8330 H     1 <1>   0.0800 
 46 H        0.1680    -8.5280     0.2210 H     1 <1>   0.1500 
 47 H        1.3090   -11.2520    -0.1940 H     1 <1>   0.0800 
 48 H        0.2530   -12.4430     0.5310 H     1 <1>   0.0800 
 49 H        0.8770   -11.1280     1.5010 H     1 <1>   0.0800 
@<TRIPOS>BOND
  1   1   2  2   
  2   2   3  am  
  3   2   4  1   
  4   3   5  1   
  5   3  27  1   
  6   4   6  ar  
  7   4   7  ar  
  8   5   8  1   
  9   5  28  1   
 10   5  29  1   
 11   6   9  ar  
 12   6  30  1   
 13   7  10  ar  
 14   7  31  1   
 15   8  11  2   
 16   8  12  am  
 17   9  13  ar  
 18   9  32  1   
 19  10  13  ar  
 20  10  33  1   
 21  12  14  1   
 22  12  15  1   
 23  13  34  1   
 24  14  16  1   
 25  14  35  1   
 26  14  36  1   
 27  15  17  1   
 28  15  37  1   
 29  15  38  1   
 30  16  17  1   
 31  16  18  1   
 32  16  39  1   
 33  17  19  1   
 34  17  40  1   
 35  18  20  1   
 36  19  21  1   
 37  19  41  1   
 38  19  42  1   
 39  20  43  1   
 40  20  44  1   
 41  20  45  1   
 42  21  22  1   
 43  21  23  2   
 44  22  24  1   
 45  23  25  1   
 46  23  46  1   
 47  24  25  2   
 48  25  26  1   
 49  26  47  1   
 50  26  48  1   
 51  26  49  1   
@<TRIPOS>SUBSTRUCTURE
  1 ****  12 GROUP 4 **** **** 0

# MOE 2024.06 (io_trps.svl 2023.06)
