@<TRIPOS>MOLECULE
NONAME
54 56 1 0 0 
SMALL
USER_CHARGES


@<TRIPOS>ATOM
  1 O        2.6300     2.3220     1.2630 O.co2 1 <1>  -0.9000 
  2 C        2.2560     1.1890     0.9510 C.2   1 <1>   0.9060 
  3 O        1.9470     0.3640     1.8150 O.co2 1 <1>  -0.9000 
  4 C        2.5560     0.6780    -0.4730 C.3   1 <1>  -0.1060 
  5 C        3.5770    -0.4600    -0.2700 C.3   1 <1>   0.4230 
  6 C        3.2410     1.7720    -1.3560 C.3   1 <1>  -0.1600 
  7 C        1.2840     0.1800    -1.2090 C.3   1 <1>  -0.1600 
  8 N        2.9090    -1.6410     0.3910 N.4   1 <1>  -0.9590 
  9 C        4.8210     0.0980     0.5120 C.3   1 <1>   0.3430 
 10 C        4.7060     2.1030    -1.0010 C.3   1 <1>   0.3430 
 11 C        0.7130    -1.1080    -0.6010 C.3   1 <1>  -0.1600 
 12 C        1.7800    -2.1850    -0.4130 C.3   1 <1>   0.3430 
 13 C        3.7960    -2.7290     0.8940 C.3   1 <1>   0.2630 
 14 N        5.0370     1.5850     0.3540 N.4   1 <1>  -0.9590 
 15 C        6.3020     2.0930     0.9240 C.3   1 <1>   0.4810 
 16 C        6.2420     3.6010     0.9170 C.2   1 <1>  -0.2880 
 17 C        7.0760     4.4060     0.2350 C.2   1 <1>  -0.1780 
 18 C        7.0560     5.8510     0.1730 C.ar  1 <1>   0.0280 
 19 C        5.9740     6.6040     0.6260 C.ar  1 <1>  -0.1500 
 20 C        8.1420     6.5410    -0.3610 C.ar  1 <1>  -0.1500 
 21 C        5.9800     7.9840     0.5490 C.ar  1 <1>  -0.1500 
 22 C        8.1550     7.9220    -0.4410 C.ar  1 <1>  -0.1500 
 23 C        7.0670     8.6570     0.0170 C.ar  1 <1>   0.0830 
 24 O        6.9950    10.0090    -0.0220 O.3   1 <1>  -0.3630 
 25 C        8.0510    10.7890    -0.5360 C.3   1 <1>   0.0400 
 26 H        3.9170    -0.7730    -1.2420 H     1 <1>   0.0800 
 27 H        2.6670     2.6820    -1.2880 H     1 <1>   0.0800 
 28 H        3.2240     1.4880    -2.3930 H     1 <1>   0.0800 
 29 H        0.5300     0.9510    -1.1820 H     1 <1>   0.0800 
 30 H        1.5100    -0.0130    -2.2440 H     1 <1>   0.0800 
 31 H        2.4300    -1.1820     1.2180 H     1 <1>   0.4500 
 32 H        5.7000    -0.4300     0.1830 H     1 <1>   0.0800 
 33 H        4.6710    -0.1030     1.5600 H     1 <1>   0.0800 
 34 H        4.8360     3.1740    -1.0320 H     1 <1>   0.0800 
 35 H        5.3690     1.6650    -1.7280 H     1 <1>   0.0800 
 36 H       -0.0640    -1.4900    -1.2400 H     1 <1>   0.0800 
 37 H        0.2550    -0.8950     0.3510 H     1 <1>   0.0800 
 38 H        2.1390    -2.5160    -1.3740 H     1 <1>   0.0800 
 39 H        1.3400    -3.0280     0.0960 H     1 <1>   0.0800 
 40 H        4.3230    -3.1940     0.0770 H     1 <1>   0.0800 
 41 H        3.2060    -3.4810     1.3950 H     1 <1>   0.0800 
 42 H        4.5090    -2.3400     1.6010 H     1 <1>   0.0800 
 43 H        4.2840     2.0410     0.9420 H     1 <1>   0.4500 
 44 H        6.4180     1.7450     1.9380 H     1 <1>   0.0800 
 45 H        7.1400     1.7520     0.3390 H     1 <1>   0.0800 
 46 H        5.4380     3.9740     1.5300 H     1 <1>   0.1500 
 47 H        7.8720     3.9740    -0.3480 H     1 <1>   0.1500 
 48 H        5.1110     6.1170     1.0400 H     1 <1>   0.1500 
 49 H        8.9960     5.9940    -0.7180 H     1 <1>   0.1500 
 50 H        5.1380     8.5530     0.9030 H     1 <1>   0.1500 
 51 H        9.0160     8.4080    -0.8600 H     1 <1>   0.1500 
 52 H        7.7700    11.8230    -0.4600 H     1 <1>   0.0800 
 53 H        8.2090    10.5270    -1.5670 H     1 <1>   0.0800 
 54 H        8.9360    10.6070     0.0490 H     1 <1>   0.0800 
@<TRIPOS>BOND
  1   1   2  ar  
  2   2   3  ar  
  3   2   4  1   
  4   4   5  1   
  5   4   6  1   
  6   4   7  1   
  7   5   8  1   
  8   5   9  1   
  9   5  26  1   
 10   6  10  1   
 11   6  27  1   
 12   6  28  1   
 13   7  11  1   
 14   7  29  1   
 15   7  30  1   
 16   8  12  1   
 17   8  13  1   
 18   8  31  1   
 19   9  14  1   
 20   9  32  1   
 21   9  33  1   
 22  10  14  1   
 23  10  34  1   
 24  10  35  1   
 25  11  12  1   
 26  11  36  1   
 27  11  37  1   
 28  12  38  1   
 29  12  39  1   
 30  13  40  1   
 31  13  41  1   
 32  13  42  1   
 33  14  15  1   
 34  14  43  1   
 35  15  16  1   
 36  15  44  1   
 37  15  45  1   
 38  16  17  2   
 39  16  46  1   
 40  17  18  1   
 41  17  47  1   
 42  18  19  ar  
 43  18  20  ar  
 44  19  21  ar  
 45  19  48  1   
 46  20  22  ar  
 47  20  49  1   
 48  21  23  ar  
 49  21  50  1   
 50  22  23  ar  
 51  22  51  1   
 52  23  24  1   
 53  24  25  1   
 54  25  52  1   
 55  25  53  1   
 56  25  54  1   
@<TRIPOS>SUBSTRUCTURE
  1 ****  10 GROUP 4 **** **** 0

# MOE 2024.06 (io_trps.svl 2023.06)
