@<TRIPOS>MOLECULE
NONAME
57 61 1 0 0 
SMALL
USER_CHARGES


@<TRIPOS>ATOM
  1 O       -1.9570    -6.0510    -0.9560 O.2   1 <1>  -0.5700 
  2 C       -0.7660    -5.9550    -0.7820 C.2   1 <1>   0.5690 
  3 N        0.0960    -7.0140    -0.8710 N.am  1 <1>  -0.6600 
  4 C       -0.1800    -4.6000    -0.4400 C.3   1 <1>  -0.0990 
  5 C        1.5460    -6.8260    -0.6140 C.3   1 <1>   0.1400 
  6 C       -0.3610    -8.3970    -1.1700 C.3   1 <1>   0.0600 
  7 C        1.0970    -4.3410    -1.2600 C.3   1 <1>  -0.0800 
  8 C        2.0550    -5.5540    -1.3200 C.3   1 <1>  -0.0800 
  9 C        1.9200    -3.1540    -0.7410 C.3   1 <1>  -0.1600 
 10 C        3.3970    -5.0610    -0.7620 C.3   1 <1>  -0.1600 
 11 C        3.3690    -3.5520    -0.9970 C.3   1 <1>   0.2200 
 12 N        4.3370    -2.7760    -0.1610 N.am  1 <1>  -0.6600 
 13 C        5.0640    -1.7440    -0.7280 C.2   1 <1>   0.5440 
 14 C        4.4220    -3.0880     1.3000 C.3   1 <1>   0.0600 
 15 O        4.7650    -1.3430    -1.8360 O.2   1 <1>  -0.5700 
 16 C        6.1540    -1.0990    -0.0300 C.ar  1 <1>   0.0860 
 17 C        7.3220    -1.7940     0.3670 C.ar  1 <1>   0.0000 
 18 C        6.0960     0.2330     0.2800 C.ar  1 <1>  -0.1500 
 19 C        8.2900    -1.0800     1.1050 C.ar  1 <1>   0.3100 
 20 C        7.5780    -3.1470     0.0560 C.ar  1 <1>  -0.1500 
 21 C        7.1090     0.8750     1.0080 C.ar  1 <1>   0.3100 
 22 N        8.1690     0.2290     1.4170 N.ar  1 <1>  -0.6200 
 23 C        9.4420    -1.7570     1.5370 C.ar  1 <1>  -0.1500 
 24 C        8.7150    -3.7770     0.4850 C.ar  1 <1>  -0.1500 
 25 C        6.9890     2.2840     1.3210 C.ar  1 <1>   0.0000 
 26 C        9.6580    -3.0760     1.2400 C.ar  1 <1>  -0.1500 
 27 C        8.0990     3.1270     1.2460 C.ar  1 <1>   0.1600 
 28 C        5.7860     2.8630     1.7080 C.ar  1 <1>  -0.1500 
 29 N        8.1070     4.4280     1.4930 N.ar  1 <1>  -0.6200 
 30 C        5.7720     4.2150     1.9730 C.ar  1 <1>  -0.1500 
 31 C        6.9430     4.9430     1.8510 C.ar  1 <1>   0.1600 
 32 H       -0.9070    -3.8330    -0.6360 H     1 <1>   0.0800 
 33 H        0.0380    -4.5960     0.6120 H     1 <1>   0.0800 
 34 H        1.6870    -6.7440     0.4500 H     1 <1>   0.0800 
 35 H        2.1000    -7.6800    -0.9640 H     1 <1>   0.0800 
 36 H       -0.1080    -9.0490    -0.3530 H     1 <1>   0.0800 
 37 H        0.1130    -8.7490    -2.0690 H     1 <1>   0.0800 
 38 H       -1.4280    -8.4200    -1.3130 H     1 <1>   0.0800 
 39 H        0.7940    -4.1250    -2.2730 H     1 <1>   0.0800 
 40 H        2.2000    -5.7980    -2.3590 H     1 <1>   0.0800 
 41 H        1.7510    -3.0160     0.3100 H     1 <1>   0.0800 
 42 H        1.6750    -2.2450    -1.2630 H     1 <1>   0.0800 
 43 H        4.2280    -5.5190    -1.2670 H     1 <1>   0.0800 
 44 H        3.4460    -5.2820     0.2880 H     1 <1>   0.0800 
 45 H        3.5770    -3.3870    -2.0420 H     1 <1>   0.0800 
 46 H        3.4520    -3.3360     1.6910 H     1 <1>   0.0800 
 47 H        4.7950    -2.2430     1.8520 H     1 <1>   0.0800 
 48 H        5.0840    -3.9230     1.4550 H     1 <1>   0.0800 
 49 H        5.2490     0.8100    -0.0460 H     1 <1>   0.1500 
 50 H        6.8650    -3.6950    -0.5350 H     1 <1>   0.1500 
 51 H       10.1590    -1.1980     2.1110 H     1 <1>   0.1500 
 52 H        8.8990    -4.8110     0.2460 H     1 <1>   0.1500 
 53 H       10.5480    -3.5810     1.5760 H     1 <1>   0.1500 
 54 H        9.0400     2.6880     0.9600 H     1 <1>   0.1500 
 55 H        4.8900     2.2780     1.8060 H     1 <1>   0.1500 
 56 H        4.8650     4.7060     2.2740 H     1 <1>   0.1500 
 57 H        6.9220     6.0000     2.0590 H     1 <1>   0.1500 
@<TRIPOS>BOND
  1   1   2  2   
  2   2   3  am  
  3   2   4  1   
  4   3   5  1   
  5   3   6  1   
  6   4   7  1   
  7   4  32  1   
  8   4  33  1   
  9   5   8  1   
 10   5  34  1   
 11   5  35  1   
 12   6  36  1   
 13   6  37  1   
 14   6  38  1   
 15   7   8  1   
 16   7   9  1   
 17   7  39  1   
 18   8  10  1   
 19   8  40  1   
 20   9  11  1   
 21   9  41  1   
 22   9  42  1   
 23  10  11  1   
 24  10  43  1   
 25  10  44  1   
 26  11  12  1   
 27  11  45  1   
 28  12  13  am  
 29  12  14  1   
 30  13  15  2   
 31  13  16  1   
 32  14  46  1   
 33  14  47  1   
 34  14  48  1   
 35  16  17  ar  
 36  16  18  ar  
 37  17  19  ar  
 38  17  20  ar  
 39  18  21  ar  
 40  18  49  1   
 41  19  22  ar  
 42  19  23  ar  
 43  20  24  ar  
 44  20  50  1   
 45  21  22  ar  
 46  21  25  1   
 47  23  26  ar  
 48  23  51  1   
 49  24  26  ar  
 50  24  52  1   
 51  25  27  ar  
 52  25  28  ar  
 53  26  53  1   
 54  27  29  ar  
 55  27  54  1   
 56  28  30  ar  
 57  28  55  1   
 58  29  31  ar  
 59  30  31  ar  
 60  30  56  1   
 61  31  57  1   
@<TRIPOS>SUBSTRUCTURE
  1 ****  12 GROUP 4 **** **** 0

# MOE 2024.06 (io_trps.svl 2023.06)
