@<TRIPOS>MOLECULE
NONAME
43 45 1 0 0 
SMALL
USER_CHARGES


@<TRIPOS>ATOM
  1 O        1.9960     0.5290    -0.5460 O.2   1 <1>  -0.5700 
  2 C        2.0390    -0.6830    -0.5880 C.2   1 <1>   0.9370 
  3 N        3.0590    -1.3510     0.0900 N.pl3 1 <1>  -0.5760 
  4 C        1.0650    -1.4290    -1.3050 C.2   1 <1>  -0.1360 
  5 C        3.0950    -2.6910     0.0070 C.cat 1 <1>   0.7390 
  6 C        4.0170    -0.7220     0.8590 C.2   1 <1>   0.1910 
  7 C        1.1460    -2.7750    -1.3750 C.2   1 <1>   0.2030 
  8 N        2.2100    -3.3550    -0.7360 N.pl3 1 <1>  -0.6450 
  9 C        4.0290    -3.4780     0.7130 C.2   1 <1>  -0.1800 
 10 C        4.9660    -1.4430     1.5440 C.2   1 <1>  -0.1500 
 11 C        0.1280    -3.6650    -2.0970 C.3   1 <1>   0.2480 
 12 O        3.9750    -4.7440     0.6400 O.3   1 <1>  -0.8500 
 13 C        4.9840    -2.8350     1.4830 C.2   1 <1>  -0.1500 
 14 N       -0.6920    -4.4370    -1.1300 N.3   1 <1>  -0.8100 
 15 C       -0.0600    -5.7160    -0.7320 C.3   1 <1>   0.1100 
 16 C       -2.0580    -4.6520    -1.6370 C.3   1 <1>   0.0300 
 17 C       -0.4160    -6.1050     0.7170 C.3   1 <1>   0.3540 
 18 N        0.7520    -6.7640     1.3580 N.pl3 1 <1>  -0.7640 
 19 C        1.0550    -8.0500     1.4930 C.cat 1 <1>   0.6560 
 20 C        1.8260    -6.0500     1.8430 C.2   1 <1>   0.2000 
 21 N        2.2570    -8.1840     2.0260 N.pl3 1 <1>  -0.7000 
 22 C        0.1750    -9.2030     1.0770 C.3   1 <1>  -0.0960 
 23 C        2.7670    -6.9270     2.2360 C.2   1 <1>   0.2000 
 24 H        0.2780    -0.8660    -1.7670 H     1 <1>   0.1500 
 25 H        4.0030     0.3570     0.9120 H     1 <1>   0.1500 
 26 H        2.4580    -4.3570    -0.6710 H     1 <1>   0.4500 
 27 H        5.7080    -0.9390     2.1380 H     1 <1>   0.1500 
 28 H        0.6290    -4.3290    -2.7820 H     1 <1>   0.0800 
 29 H       -0.5150    -3.0260    -2.6780 H     1 <1>   0.0800 
 30 H        5.7170    -3.4170     2.0140 H     1 <1>   0.1500 
 31 H        1.0080    -5.6220    -0.7960 H     1 <1>   0.0800 
 32 H       -0.3520    -6.5040    -1.4050 H     1 <1>   0.0800 
 33 H       -2.5330    -3.7050    -1.8320 H     1 <1>   0.0800 
 34 H       -2.6510    -5.1740    -0.9050 H     1 <1>   0.0800 
 35 H       -2.0400    -5.2270    -2.5480 H     1 <1>   0.0800 
 36 H       -1.2710    -6.7590     0.7250 H     1 <1>   0.0800 
 37 H       -0.6590    -5.2170     1.2760 H     1 <1>   0.0800 
 38 H        1.8800    -4.9730     1.8640 H     1 <1>   0.1500 
 39 H        2.7550    -9.0550     2.2230 H     1 <1>   0.4500 
 40 H        0.0030    -9.1650     0.0180 H     1 <1>   0.0800 
 41 H       -0.7650    -9.1450     1.5930 H     1 <1>   0.0800 
 42 H        0.6460   -10.1380     1.3190 H     1 <1>   0.0800 
 43 H        3.7500    -6.7150     2.6280 H     1 <1>   0.1500 
@<TRIPOS>BOND
  1   1   2  2   
  2   2   3  1   
  3   2   4  1   
  4   3   5  ar  
  5   3   6  1   
  6   4   7  2   
  7   4  24  1   
  8   5   8  ar  
  9   5   9  1   
 10   6  10  2   
 11   6  25  1   
 12   7   8  1   
 13   7  11  1   
 14   8  26  1   
 15   9  12  1   
 16   9  13  2   
 17  10  13  1   
 18  10  27  1   
 19  11  14  1   
 20  11  28  1   
 21  11  29  1   
 22  13  30  1   
 23  14  15  1   
 24  14  16  1   
 25  15  17  1   
 26  15  31  1   
 27  15  32  1   
 28  16  33  1   
 29  16  34  1   
 30  16  35  1   
 31  17  18  1   
 32  17  36  1   
 33  17  37  1   
 34  18  19  ar  
 35  18  20  1   
 36  19  21  ar  
 37  19  22  1   
 38  20  23  2   
 39  20  38  1   
 40  21  23  1   
 41  21  39  1   
 42  22  40  1   
 43  22  41  1   
 44  22  42  1   
 45  23  43  1   
@<TRIPOS>SUBSTRUCTURE
  1 ****   8 GROUP 4 **** **** 0

# MOE 2024.06 (io_trps.svl 2023.06)
