@<TRIPOS>MOLECULE
NONAME
50 53 1 0 0 
SMALL
USER_CHARGES


@<TRIPOS>ATOM
  1 O        0.4490    -0.0720    -0.8480 O.3   1 <1>  -0.0190 
  2 N        1.0130     1.0140    -0.4260 N.2   1 <1>  -0.4100 
  3 C        1.1750    -1.1270    -0.6080 C.2   1 <1>  -0.0400 
  4 C        2.1520     0.6740     0.0970 C.2   1 <1>   0.2350 
  5 C        2.2980    -0.7170    -0.0020 C.2   1 <1>  -0.1500 
  6 C        0.6740    -2.4960    -1.0230 C.3   1 <1>   0.5230 
  7 C        3.1040     1.5970     0.6820 C.ar  1 <1>   0.0540 
  8 N       -0.4540    -2.9370    -0.1340 N.4   1 <1>  -0.9590 
  9 C        3.0200     2.9680     0.4290 C.ar  1 <1>   0.1600 
 10 C        4.1360     1.1780     1.5140 C.ar  1 <1>  -0.1500 
 11 C       -0.7530    -4.4060    -0.2350 C.3   1 <1>   0.5660 
 12 C       -1.6510    -2.0440    -0.3150 C.3   1 <1>   0.3430 
 13 N        3.8340     3.8990     0.9030 N.ar  1 <1>  -0.6200 
 14 C        4.9930     2.1300     2.0190 C.ar  1 <1>  -0.1500 
 15 C        0.5400    -5.2010    -0.3970 C.ar  1 <1>  -0.1430 
 16 C       -1.8200    -4.6610    -1.3070 C.3   1 <1>  -0.1600 
 17 C       -2.9580    -2.7770    -0.0090 C.3   1 <1>  -0.1600 
 18 C        4.8030     3.4600     1.6870 C.ar  1 <1>   0.1600 
 19 C        1.3410    -5.3700     0.7240 C.ar  1 <1>  -0.1500 
 20 C        0.9650    -5.7380    -1.6090 C.ar  1 <1>  -0.1500 
 21 C       -3.1560    -3.9900    -0.9360 C.3   1 <1>  -0.1600 
 22 C        2.5480    -6.0420     0.6480 C.ar  1 <1>   0.0830 
 23 C        2.1680    -6.4180    -1.6900 C.ar  1 <1>  -0.1500 
 24 O        3.2590    -6.1350     1.7960 O.3   1 <1>  -0.3630 
 25 C        2.9630    -6.5700    -0.5690 C.ar  1 <1>  -0.1500 
 26 C        4.4240    -6.9300     1.8740 C.3   1 <1>   0.0400 
 27 H        3.1430    -1.2880     0.3390 H     1 <1>   0.1500 
 28 H        1.5020    -3.1810    -0.9450 H     1 <1>   0.0800 
 29 H        0.3540    -2.4730    -2.0510 H     1 <1>   0.0800 
 30 H       -0.1130    -2.7960     0.8220 H     1 <1>   0.4500 
 31 H        2.2260     3.3150    -0.2110 H     1 <1>   0.1500 
 32 H        4.2710     0.1430     1.7690 H     1 <1>   0.1500 
 33 H       -1.1900    -4.7200     0.7000 H     1 <1>   0.0800 
 34 H       -1.6910    -1.7000    -1.3370 H     1 <1>   0.0800 
 35 H       -1.5600    -1.1740     0.3170 H     1 <1>   0.0800 
 36 H        5.8050     1.8510     2.6660 H     1 <1>   0.1500 
 37 H       -1.9780    -5.7210    -1.4140 H     1 <1>   0.0800 
 38 H       -1.4780    -4.2850    -2.2550 H     1 <1>   0.0800 
 39 H       -3.7850    -2.0990    -0.1330 H     1 <1>   0.0800 
 40 H       -2.9570    -3.0880     1.0220 H     1 <1>   0.0800 
 41 H        5.4790     4.1980     2.0860 H     1 <1>   0.1500 
 42 H        1.0490    -4.9860     1.6860 H     1 <1>   0.1500 
 43 H        0.3800    -5.6460    -2.5070 H     1 <1>   0.1500 
 44 H       -3.8000    -4.7010    -0.4430 H     1 <1>   0.0800 
 45 H       -3.6560    -3.6840    -1.8400 H     1 <1>   0.0800 
 46 H        2.4890    -6.8350    -2.6310 H     1 <1>   0.1500 
 47 H        3.8930    -7.1000    -0.6610 H     1 <1>   0.1500 
 48 H        4.7800    -6.9030     2.8880 H     1 <1>   0.0800 
 49 H        5.1710    -6.5250     1.2150 H     1 <1>   0.0800 
 50 H        4.1770    -7.9410     1.6020 H     1 <1>   0.0800 
@<TRIPOS>BOND
  1   1   2  1   
  2   1   3  1   
  3   2   4  2   
  4   3   5  2   
  5   3   6  1   
  6   4   5  1   
  7   4   7  1   
  8   5  27  1   
  9   6   8  1   
 10   6  28  1   
 11   6  29  1   
 12   7   9  ar  
 13   7  10  ar  
 14   8  11  1   
 15   8  12  1   
 16   8  30  1   
 17   9  13  ar  
 18   9  31  1   
 19  10  14  ar  
 20  10  32  1   
 21  11  15  1   
 22  11  16  1   
 23  11  33  1   
 24  12  17  1   
 25  12  34  1   
 26  12  35  1   
 27  13  18  ar  
 28  14  18  ar  
 29  14  36  1   
 30  15  19  ar  
 31  15  20  ar  
 32  16  21  1   
 33  16  37  1   
 34  16  38  1   
 35  17  21  1   
 36  17  39  1   
 37  17  40  1   
 38  18  41  1   
 39  19  22  ar  
 40  19  42  1   
 41  20  23  ar  
 42  20  43  1   
 43  21  44  1   
 44  21  45  1   
 45  22  24  1   
 46  22  25  ar  
 47  23  25  ar  
 48  23  46  1   
 49  24  26  1   
 50  25  47  1   
 51  26  48  1   
 52  26  49  1   
 53  26  50  1   
@<TRIPOS>SUBSTRUCTURE
  1 ****   3 GROUP 4 **** **** 0

# MOE 2024.06 (io_trps.svl 2023.06)
