@<TRIPOS>MOLECULE
NONAME
44 46 1 0 0 
SMALL
USER_CHARGES


@<TRIPOS>ATOM
  1 F       -1.2960     2.6440     2.5980 F     1 <1>  -0.1900 
  2 C       -0.6300     3.4990     1.8680 C.ar  1 <1>   0.1900 
  3 C        0.3300     3.0250     0.9950 C.ar  1 <1>  -0.1500 
  4 C       -0.9130     4.8460     1.9970 C.ar  1 <1>  -0.1500 
  5 C        1.0380     3.9320     0.2240 C.ar  1 <1>  -0.1500 
  6 C       -0.2010     5.7460     1.2220 C.ar  1 <1>  -0.1500 
  7 C        0.7760     5.2990     0.3410 C.ar  1 <1>   0.0830 
  8 O        1.4310     6.2520    -0.3660 O.3   1 <1>  -0.3630 
  9 C        2.5000     5.9200    -1.2420 C.3   1 <1>   0.1810 
 10 C        3.1300     7.1740    -1.8500 C.2   1 <1>   0.5690 
 11 O        3.3590     7.1480    -3.0350 O.2   1 <1>  -0.5700 
 12 N        3.4540     8.2950    -1.1130 N.am  1 <1>  -0.6600 
 13 C        3.4830     8.3090     0.4010 C.3   1 <1>   0.2200 
 14 C        3.5890     9.5840    -1.8720 C.3   1 <1>   0.1400 
 15 C        2.4060     9.2310     0.9920 C.3   1 <1>   0.1200 
 16 C        4.8850     8.6580     0.9590 C.3   1 <1>   0.3430 
 17 C        3.9710    10.8240    -1.0440 C.3   1 <1>  -0.0800 
 18 O        2.8760    10.5430     1.0850 O.3   1 <1>  -0.5600 
 19 N        5.7720     9.3310    -0.0500 N.4   1 <1>  -0.9590 
 20 C        2.8490    11.2720    -0.0960 C.3   1 <1>   0.1200 
 21 C        5.3380    10.7340    -0.3410 C.3   1 <1>   0.3430 
 22 C        7.2060     9.2800     0.3600 C.3   1 <1>   0.2630 
 23 H        0.5130     1.9670     0.9240 H     1 <1>   0.1500 
 24 H       -1.6710     5.1750     2.6840 H     1 <1>   0.1500 
 25 H        1.7780     3.5530    -0.4560 H     1 <1>   0.1500 
 26 H       -0.4050     6.7990     1.2970 H     1 <1>   0.1500 
 27 H        3.2420     5.3730    -0.6920 H     1 <1>   0.0800 
 28 H        2.1040     5.3050    -2.0300 H     1 <1>   0.0800 
 29 H        3.2580     7.3270     0.7690 H     1 <1>   0.0800 
 30 H        4.3240     9.4480    -2.6490 H     1 <1>   0.0800 
 31 H        2.6520     9.7760    -2.3700 H     1 <1>   0.0800 
 32 H        2.1820     8.9160     1.9960 H     1 <1>   0.0800 
 33 H        1.4940     9.1980     0.4190 H     1 <1>   0.0800 
 34 H        5.3480     7.7390     1.2740 H     1 <1>   0.0800 
 35 H        4.7770     9.2790     1.8330 H     1 <1>   0.0800 
 36 H        4.0590    11.6260    -1.7550 H     1 <1>   0.0800 
 37 H        5.6320     8.7940    -0.9230 H     1 <1>   0.4500 
 38 H        1.8760    11.1810    -0.5520 H     1 <1>   0.0800 
 39 H        2.9930    12.3040     0.1760 H     1 <1>   0.0800 
 40 H        5.3050    11.3050     0.5740 H     1 <1>   0.0800 
 41 H        6.0720    11.1910    -0.9840 H     1 <1>   0.0800 
 42 H        7.3530     9.8280     1.2760 H     1 <1>   0.0800 
 43 H        7.8290     9.7130    -0.4060 H     1 <1>   0.0800 
 44 H        7.5150     8.2580     0.5140 H     1 <1>   0.0800 
@<TRIPOS>BOND
  1   1   2  1   
  2   2   3  ar  
  3   2   4  ar  
  4   3   5  ar  
  5   3  23  1   
  6   4   6  ar  
  7   4  24  1   
  8   5   7  ar  
  9   5  25  1   
 10   6   7  ar  
 11   6  26  1   
 12   7   8  1   
 13   8   9  1   
 14   9  10  1   
 15   9  27  1   
 16   9  28  1   
 17  10  11  2   
 18  10  12  am  
 19  12  13  1   
 20  12  14  1   
 21  13  15  1   
 22  13  16  1   
 23  13  29  1   
 24  14  17  1   
 25  14  30  1   
 26  14  31  1   
 27  15  18  1   
 28  15  32  1   
 29  15  33  1   
 30  16  19  1   
 31  16  34  1   
 32  16  35  1   
 33  17  20  1   
 34  17  21  1   
 35  17  36  1   
 36  18  20  1   
 37  19  21  1   
 38  19  22  1   
 39  19  37  1   
 40  20  38  1   
 41  20  39  1   
 42  21  40  1   
 43  21  41  1   
 44  22  42  1   
 45  22  43  1   
 46  22  44  1   
@<TRIPOS>SUBSTRUCTURE
  1 ****  13 GROUP 4 **** **** 0

# MOE 2024.06 (io_trps.svl 2023.06)
