@<TRIPOS>MOLECULE
NONAME
54 57 1 0 0 
SMALL
USER_CHARGES


@<TRIPOS>ATOM
  1 O       -0.8640    -0.9600    -1.4360 O.2   1 <1>  -0.5700 
  2 C        0.1210    -1.6050    -1.1160 C.2   1 <1>   0.5440 
  3 N        0.4910    -2.7010    -1.8600 N.am  1 <1>  -0.4200 
  4 C        0.8980    -1.2820     0.0470 C.ar  1 <1>   0.0860 
  5 C        1.6040    -3.4220    -1.4990 C.2   1 <1>   0.4500 
  6 C       -0.3570    -3.1970    -2.9910 C.3   1 <1>   0.2010 
  7 C        1.9950    -2.1020     0.3340 C.ar  1 <1>   0.1790 
  8 C        0.6090    -0.2140     0.9020 C.ar  1 <1>  -0.1500 
  9 N        2.3260    -3.1720    -0.4740 N.2   1 <1>  -0.6290 
 10 C       -0.7590    -4.6590    -2.7960 C.2   1 <1>   0.5690 
 11 C        2.7690    -1.8390     1.4590 C.ar  1 <1>  -0.1500 
 12 C        1.3860     0.0350     2.0140 C.ar  1 <1>  -0.1500 
 13 O       -0.2540    -5.4660    -3.5390 O.2   1 <1>  -0.5700 
 14 N       -1.6060    -5.0450    -1.7850 N.am  1 <1>  -0.6600 
 15 C        2.4720    -0.7820     2.2940 C.ar  1 <1>  -0.1500 
 16 C       -2.2300    -4.1370    -0.7760 C.3   1 <1>   0.1400 
 17 C       -1.7300    -6.4760    -1.3730 C.3   1 <1>   0.1400 
 18 C       -1.6070    -4.4040     0.6100 C.3   1 <1>   0.2950 
 19 C       -1.1990    -6.6670     0.0680 C.3   1 <1>   0.2000 
 20 O       -1.8040    -5.7500     0.9400 O.3   1 <1>  -0.5600 
 21 C       -2.1820    -3.5590     1.7590 C.3   1 <1>  -0.1950 
 22 C       -1.4800    -8.0650     0.6330 C.3   1 <1>  -0.1600 
 23 C       -3.6260    -3.1840     1.8870 C.3   1 <1>  -0.2000 
 24 C       -2.5950    -2.1270     1.6010 C.3   1 <1>  -0.2000 
 25 C       -0.7470    -9.1810    -0.1300 C.3   1 <1>  -0.1600 
 26 C       -0.9800   -10.5430     0.5340 C.3   1 <1>  -0.1600 
 27 C       -0.2540   -11.6560    -0.2260 C.3   1 <1>  -0.2400 
 28 H        1.8620    -4.2560    -2.1310 H     1 <1>   0.0600 
 29 H       -1.2480    -2.6070    -3.1000 H     1 <1>   0.0800 
 30 H        0.2030    -3.1120    -3.9050 H     1 <1>   0.0800 
 31 H       -0.2340     0.4180     0.6820 H     1 <1>   0.1500 
 32 H        3.6090    -2.4790     1.6660 H     1 <1>   0.1500 
 33 H        1.1550     0.8600     2.6660 H     1 <1>   0.1500 
 34 H        3.0800    -0.5890     3.1620 H     1 <1>   0.1500 
 35 H       -2.1110    -3.1090    -1.0490 H     1 <1>   0.0800 
 36 H       -3.2860    -4.3370    -0.7320 H     1 <1>   0.0800 
 37 H       -2.7640    -6.7700    -1.4170 H     1 <1>   0.0800 
 38 H       -1.1800    -7.1090    -2.0460 H     1 <1>   0.0800 
 39 H       -0.5460    -4.2250     0.5630 H     1 <1>   0.0800 
 40 H       -0.1370    -6.4870     0.0850 H     1 <1>   0.0800 
 41 H       -1.6680    -3.7930     2.6760 H     1 <1>   0.1000 
 42 H       -1.1580    -8.0790     1.6600 H     1 <1>   0.0800 
 43 H       -2.5400    -8.2480     0.6110 H     1 <1>   0.0800 
 44 H       -4.3210    -3.4570     1.1120 H     1 <1>   0.1000 
 45 H       -4.0750    -3.2240     2.8640 H     1 <1>   0.1000 
 46 H       -2.3380    -1.4320     2.3820 H     1 <1>   0.1000 
 47 H       -2.6120    -1.6560     0.6330 H     1 <1>   0.1000 
 48 H       -1.0970    -9.2240    -1.1470 H     1 <1>   0.0800 
 49 H        0.3090    -8.9700    -0.1460 H     1 <1>   0.0800 
 50 H       -0.6230   -10.5170     1.5490 H     1 <1>   0.0800 
 51 H       -2.0350   -10.7590     0.5570 H     1 <1>   0.0800 
 52 H        0.8050   -11.4700    -0.2440 H     1 <1>   0.0800 
 53 H       -0.6140   -11.7190    -1.2380 H     1 <1>   0.0800 
 54 H       -0.4260   -12.6030     0.2560 H     1 <1>   0.0800 
@<TRIPOS>BOND
  1   1   2  2   
  2   2   3  am  
  3   2   4  1   
  4   3   5  1   
  5   3   6  1   
  6   4   7  ar  
  7   4   8  ar  
  8   5   9  2   
  9   5  28  1   
 10   6  10  1   
 11   6  29  1   
 12   6  30  1   
 13   7   9  1   
 14   7  11  ar  
 15   8  12  ar  
 16   8  31  1   
 17  10  13  2   
 18  10  14  am  
 19  11  15  ar  
 20  11  32  1   
 21  12  15  ar  
 22  12  33  1   
 23  14  16  1   
 24  14  17  1   
 25  15  34  1   
 26  16  18  1   
 27  16  35  1   
 28  16  36  1   
 29  17  19  1   
 30  17  37  1   
 31  17  38  1   
 32  18  20  1   
 33  18  21  1   
 34  18  39  1   
 35  19  20  1   
 36  19  22  1   
 37  19  40  1   
 38  21  23  1   
 39  21  24  1   
 40  21  41  1   
 41  22  25  1   
 42  22  42  1   
 43  22  43  1   
 44  23  24  1   
 45  23  44  1   
 46  23  45  1   
 47  24  46  1   
 48  24  47  1   
 49  25  26  1   
 50  25  48  1   
 51  25  49  1   
 52  26  27  1   
 53  26  50  1   
 54  26  51  1   
 55  27  52  1   
 56  27  53  1   
 57  27  54  1   
@<TRIPOS>SUBSTRUCTURE
  1 ****  18 GROUP 4 **** **** 0

# MOE 2024.06 (io_trps.svl 2023.06)
