@<TRIPOS>MOLECULE
NONAME
48 51 1 0 0 
SMALL
USER_CHARGES


@<TRIPOS>ATOM
  1 O        0.3680     1.3230    -0.9620 O.2   1 <1>  -0.5700 
  2 C       -0.0080     2.4720    -1.0060 C.2   1 <1>   0.5690 
  3 N       -0.9160     3.0080    -0.1320 N.am  1 <1>  -0.5090 
  4 C        0.5690     3.3750    -2.0900 C.3   1 <1>   0.1810 
  5 C       -1.3540     4.4380    -0.2550 C.3   1 <1>   0.3640 
  6 C       -1.2940     2.3130     1.1250 C.3   1 <1>   0.0490 
  7 O        0.7200     4.6880    -1.6190 O.3   1 <1>  -0.5600 
  8 C       -2.8090     4.4970    -0.7220 C.ar  1 <1>  -0.1440 
  9 C       -0.4890     5.3090    -1.2130 C.3   1 <1>   0.2610 
 10 C       -1.9170     0.9550     1.0390 C.3   1 <1>  -0.2000 
 11 C       -2.7340     2.1190     1.4960 C.3   1 <1>  -0.2000 
 12 C       -3.6760     5.4200    -0.1530 C.ar  1 <1>   0.1600 
 13 C       -3.2970     3.6580    -1.7100 C.ar  1 <1>  -0.1500 
 14 C       -0.1990     6.6670    -0.5600 C.2   1 <1>   0.5690 
 15 N       -4.9500     5.5650    -0.4760 N.ar  1 <1>  -0.6200 
 16 C       -4.6220     3.7980    -2.0590 C.ar  1 <1>  -0.1500 
 17 O       -1.0930     7.2650    -0.0080 O.2   1 <1>  -0.5700 
 18 N        1.0530     7.1840    -0.6020 N.am  1 <1>  -0.7300 
 19 C       -5.3940     4.7520    -1.4200 C.ar  1 <1>   0.1600 
 20 C        1.4450     8.4750    -0.0330 C.3   1 <1>   0.2010 
 21 C        2.9290     8.8260    -0.2500 C.2   1 <1>   0.5690 
 22 O        3.6670     8.0450    -0.8470 O.2   1 <1>  -0.5700 
 23 N        3.3840    10.0140     0.2390 N.am  1 <1>  -0.5790 
 24 C        4.7640    10.5070     0.1230 C.3   1 <1>   0.0490 
 25 C        5.3190    11.3100     1.2520 C.3   1 <1>  -0.2000 
 26 C        4.9710    11.9750    -0.0450 C.3   1 <1>  -0.2000 
 27 H       -0.0730     3.3810    -2.9530 H     1 <1>   0.0800 
 28 H        1.5410     3.0150    -2.3760 H     1 <1>   0.0800 
 29 H       -1.3000     4.8660     0.7320 H     1 <1>   0.0800 
 30 H       -0.5790     2.4820     1.9140 H     1 <1>   0.1000 
 31 H       -1.0490     5.5070    -2.1090 H     1 <1>   0.0800 
 32 H       -2.0990     0.5370     0.0640 H     1 <1>   0.1000 
 33 H       -1.6280     0.2110     1.7590 H     1 <1>   0.1000 
 34 H       -3.0120     2.1610     2.5340 H     1 <1>   0.1000 
 35 H       -3.5280     2.4420     0.8480 H     1 <1>   0.1000 
 36 H       -3.3060     6.0830     0.6130 H     1 <1>   0.1500 
 37 H       -2.6820     2.9150    -2.1880 H     1 <1>   0.1500 
 38 H       -5.0590     3.1720    -2.8160 H     1 <1>   0.1500 
 39 H        1.7840     6.6420    -1.0540 H     1 <1>   0.3700 
 40 H       -6.4290     4.8520    -1.6990 H     1 <1>   0.1500 
 41 H        0.8400     9.2630    -0.4830 H     1 <1>   0.0800 
 42 H        1.2480     8.4690     1.0390 H     1 <1>   0.0800 
 43 H        2.7520    10.6470     0.7290 H     1 <1>   0.3700 
 44 H        5.4200     9.8290    -0.4010 H     1 <1>   0.1000 
 45 H        4.7040    11.4900     2.1160 H     1 <1>   0.1000 
 46 H        6.3590    11.1940     1.5020 H     1 <1>   0.1000 
 47 H        5.7760    12.3120    -0.6750 H     1 <1>   0.1000 
 48 H        4.1130    12.6230    -0.0900 H     1 <1>   0.1000 
@<TRIPOS>BOND
  1   1   2  2   
  2   2   3  am  
  3   2   4  1   
  4   3   5  1   
  5   3   6  1   
  6   4   7  1   
  7   4  27  1   
  8   4  28  1   
  9   5   8  1   
 10   5   9  1   
 11   5  29  1   
 12   6  10  1   
 13   6  11  1   
 14   6  30  1   
 15   7   9  1   
 16   8  12  ar  
 17   8  13  ar  
 18   9  14  1   
 19   9  31  1   
 20  10  11  1   
 21  10  32  1   
 22  10  33  1   
 23  11  34  1   
 24  11  35  1   
 25  12  15  ar  
 26  12  36  1   
 27  13  16  ar  
 28  13  37  1   
 29  14  17  2   
 30  14  18  am  
 31  15  19  ar  
 32  16  19  ar  
 33  16  38  1   
 34  18  20  1   
 35  18  39  1   
 36  19  40  1   
 37  20  21  1   
 38  20  41  1   
 39  20  42  1   
 40  21  22  2   
 41  21  23  am  
 42  23  24  1   
 43  23  43  1   
 44  24  25  1   
 45  24  26  1   
 46  24  44  1   
 47  25  26  1   
 48  25  45  1   
 49  25  46  1   
 50  26  47  1   
 51  26  48  1   
@<TRIPOS>SUBSTRUCTURE
  1 ****   9 GROUP 4 **** **** 0

# MOE 2024.06 (io_trps.svl 2023.06)
