@<TRIPOS>MOLECULE
NONAME
55 59 1 0 0 
SMALL
USER_CHARGES


@<TRIPOS>ATOM
  1 O       -0.0410     0.3020    -1.0710 O.2   1 <1>  -0.5700 
  2 C       -0.9730     0.9040    -0.5780 C.2   1 <1>   0.5440 
  3 N       -2.0150     0.1930    -0.0270 N.am  1 <1>  -0.6600 
  4 C       -0.9270     2.3490    -0.5620 C.ar  1 <1>   0.0860 
  5 C       -2.0950    -1.3050    -0.1150 C.3   1 <1>   0.1400 
  6 C       -3.2300     0.7880     0.6190 C.3   1 <1>   0.1400 
  7 C        0.0370     3.0270     0.2010 C.ar  1 <1>   0.0170 
  8 C       -1.8320     3.0920    -1.3190 C.ar  1 <1>  -0.1500 
  9 C       -3.4550    -1.7700    -0.6720 C.3   1 <1>   0.3440 
 10 C       -4.5190     0.2230    -0.0080 C.3   1 <1>   0.2950 
 11 C        1.0120     2.3060     0.9820 C.cat 1 <1>   0.7830 
 12 C        0.0410     4.4230     0.1970 C.ar  1 <1>  -0.1500 
 13 C       -1.8120     4.4720    -1.3120 C.ar  1 <1>  -0.1500 
 14 O       -4.5040    -1.1710     0.0440 O.3   1 <1>  -0.5600 
 15 C       -3.5770    -3.2880    -0.5830 C.ar  1 <1>  -0.1440 
 16 C       -5.7630     0.7020     0.7440 C.3   1 <1>  -0.1950 
 17 N        0.9200     2.0880     2.2930 N.pl3 1 <1>  -0.7000 
 18 N        2.1590     1.7670     0.5470 N.pl3 1 <1>  -0.7640 
 19 C       -0.8740     5.1400    -0.5480 C.ar  1 <1>  -0.1500 
 20 C       -3.1730    -4.0730    -1.6540 C.ar  1 <1>  -0.1500 
 21 C       -4.0700    -3.9090     0.5570 C.ar  1 <1>  -0.1500 
 22 C       -7.1060     0.7200     0.0850 C.3   1 <1>  -0.2000 
 23 C       -6.4110     2.0110     0.4160 C.3   1 <1>  -0.2000 
 24 C        2.0150     1.3760     2.7010 C.2   1 <1>   0.2000 
 25 C        2.7860     1.1740     1.6140 C.2   1 <1>   0.2000 
 26 C        2.6450     1.7010    -0.8600 C.3   1 <1>   0.2740 
 27 C       -3.2590    -5.4530    -1.5870 C.ar  1 <1>  -0.1500 
 28 C       -4.1560    -5.2890     0.6260 C.ar  1 <1>  -0.1500 
 29 C       -3.7500    -6.0620    -0.4460 C.ar  1 <1>  -0.1500 
 30 H       -1.3150    -1.6950    -0.7460 H     1 <1>   0.0800 
 31 H       -1.9590    -1.7260     0.8650 H     1 <1>   0.0800 
 32 H       -3.2230     0.5460     1.6680 H     1 <1>   0.0800 
 33 H       -3.2380     1.8590     0.5310 H     1 <1>   0.0800 
 34 H       -2.5590     2.5770    -1.9250 H     1 <1>   0.1500 
 35 H       -3.5460    -1.4710    -1.7020 H     1 <1>   0.0800 
 36 H       -4.5880     0.5210    -1.0410 H     1 <1>   0.0800 
 37 H        0.7720     4.9600     0.7810 H     1 <1>   0.1500 
 38 H       -2.5220     5.0310    -1.9010 H     1 <1>   0.1500 
 39 H       -5.7400     0.4140     1.7810 H     1 <1>   0.1000 
 40 H        0.1440     2.3970     2.8830 H     1 <1>   0.4500 
 41 H       -0.8580     6.2180    -0.5410 H     1 <1>   0.1500 
 42 H       -2.7880    -3.6160    -2.5490 H     1 <1>   0.1500 
 43 H       -4.3940    -3.3170     1.3960 H     1 <1>   0.1500 
 44 H       -7.1800     0.4100    -0.9440 H     1 <1>   0.1000 
 45 H       -7.9620     0.4210     0.6640 H     1 <1>   0.1000 
 46 H       -6.8080     2.6120     1.2170 H     1 <1>   0.1000 
 47 H       -6.0420     2.6070    -0.4010 H     1 <1>   0.1000 
 48 H        2.1790     1.0580     3.7190 H     1 <1>   0.1500 
 49 H        3.7250     0.6480     1.5370 H     1 <1>   0.1500 
 50 H        3.6490     2.0840    -0.9220 H     1 <1>   0.0800 
 51 H        2.0120     2.2790    -1.5110 H     1 <1>   0.0800 
 52 H        2.6370     0.6780    -1.1990 H     1 <1>   0.0800 
 53 H       -2.9440    -6.0540    -2.4230 H     1 <1>   0.1500 
 54 H       -4.5420    -5.7590     1.5140 H     1 <1>   0.1500 
 55 H       -3.8170    -7.1350    -0.3930 H     1 <1>   0.1500 
@<TRIPOS>BOND
  1   1   2  2   
  2   2   3  am  
  3   2   4  1   
  4   3   5  1   
  5   3   6  1   
  6   4   7  ar  
  7   4   8  ar  
  8   5   9  1   
  9   5  30  1   
 10   5  31  1   
 11   6  10  1   
 12   6  32  1   
 13   6  33  1   
 14   7  11  1   
 15   7  12  ar  
 16   8  13  ar  
 17   8  34  1   
 18   9  14  1   
 19   9  15  1   
 20   9  35  1   
 21  10  14  1   
 22  10  16  1   
 23  10  36  1   
 24  11  17  ar  
 25  11  18  ar  
 26  12  19  ar  
 27  12  37  1   
 28  13  19  ar  
 29  13  38  1   
 30  15  20  ar  
 31  15  21  ar  
 32  16  22  1   
 33  16  23  1   
 34  16  39  1   
 35  17  24  1   
 36  17  40  1   
 37  18  25  1   
 38  18  26  1   
 39  19  41  1   
 40  20  27  ar  
 41  20  42  1   
 42  21  28  ar  
 43  21  43  1   
 44  22  23  1   
 45  22  44  1   
 46  22  45  1   
 47  23  46  1   
 48  23  47  1   
 49  24  25  2   
 50  24  48  1   
 51  25  49  1   
 52  26  50  1   
 53  26  51  1   
 54  26  52  1   
 55  27  29  ar  
 56  27  53  1   
 57  28  29  ar  
 58  28  54  1   
 59  29  55  1   
@<TRIPOS>SUBSTRUCTURE
  1 ****   3 GROUP 4 **** **** 0

# MOE 2024.06 (io_trps.svl 2023.06)
