@<TRIPOS>MOLECULE
NONAME
47 50 1 0 0 
SMALL
USER_CHARGES


@<TRIPOS>ATOM
  1 O       -0.3640     0.8930    -1.1380 O.2   1 <1>  -0.5700 
  2 C       -0.4590     2.0960    -1.0710 C.2   1 <1>   0.5690 
  3 N       -1.4590     2.7370    -0.3880 N.am  1 <1>  -0.5090 
  4 C        0.5740     2.9370    -1.8140 C.3   1 <1>   0.1810 
  5 C       -1.6550     4.2180    -0.5010 C.3   1 <1>   0.3640 
  6 C       -2.4810     2.0130     0.4050 C.3   1 <1>   0.0490 
  7 O        0.7160     4.2120    -1.2420 O.3   1 <1>  -0.5600 
  8 C       -2.9680     4.5020    -1.2310 C.ar  1 <1>  -0.1440 
  9 C       -0.4850     4.9700    -1.1970 C.3   1 <1>   0.2610 
 10 C       -2.6280     2.3450     1.8580 C.3   1 <1>  -0.2000 
 11 C       -2.0480     1.0300     1.4460 C.3   1 <1>  -0.2000 
 12 C       -3.3310     3.7930    -2.3710 C.ar  1 <1>   0.1600 
 13 C       -3.8230     5.4860    -0.7720 C.ar  1 <1>  -0.1500 
 14 C       -0.2390     6.3070    -0.4850 C.2   1 <1>   0.5690 
 15 N       -4.4360     3.9890    -3.0700 N.ar  1 <1>  -0.6200 
 16 C       -4.9820     5.6990    -1.4850 C.ar  1 <1>  -0.1500 
 17 O       -1.1580     7.0760    -0.3320 O.2   1 <1>  -0.5700 
 18 N        1.0100     6.6010    -0.0340 N.am  1 <1>  -0.7300 
 19 C       -5.2370     4.9360    -2.6100 C.ar  1 <1>   0.1600 
 20 C        1.4050     7.8340     0.6880 C.3   1 <1>   0.1400 
 21 C        2.0310     8.8350    -0.2840 C.3   1 <1>   0.0210 
 22 C        2.4640    10.0870     0.4550 C.2   1 <1>  -0.1810 
 23 C        3.6200    10.2550     1.2120 C.2   1 <1>   0.1390 
 24 C        1.8290    11.2750     0.5320 C.2   1 <1>  -0.3020 
 25 N        3.7040    11.4440     1.7240 N.2   1 <1>  -0.7070 
 26 N        2.5930    12.0760     1.3010 N.pl3 1 <1>   0.3000 
 27 H        0.2870     3.0470    -2.8450 H     1 <1>   0.0800 
 28 H        1.5290     2.4470    -1.7680 H     1 <1>   0.0800 
 29 H       -1.7400     4.6030     0.5000 H     1 <1>   0.0800 
 30 H       -3.3670     1.7860    -0.1670 H     1 <1>   0.1000 
 31 H       -0.7580     5.1930    -2.2120 H     1 <1>   0.0800 
 32 H       -1.9670     3.0550     2.3210 H     1 <1>   0.1000 
 33 H       -3.6130     2.3480     2.2920 H     1 <1>   0.1000 
 34 H       -2.6360     0.1400     1.5830 H     1 <1>   0.1000 
 35 H       -0.9950     0.8520     1.5750 H     1 <1>   0.1000 
 36 H       -2.6800     3.0170    -2.7340 H     1 <1>   0.1500 
 37 H       -3.5990     6.0750     0.1020 H     1 <1>   0.1500 
 38 H       -5.6830     6.4530    -1.1750 H     1 <1>   0.1500 
 39 H        1.7420     5.9020    -0.2070 H     1 <1>   0.3700 
 40 H       -6.1450     5.1130    -3.1610 H     1 <1>   0.1500 
 41 H        0.5380     8.2810     1.1460 H     1 <1>   0.0800 
 42 H        2.1060     7.5850     1.4660 H     1 <1>   0.0800 
 43 H        2.8830     8.3960    -0.7690 H     1 <1>   0.0800 
 44 H        1.3050     9.1010    -1.0320 H     1 <1>   0.0800 
 45 H        4.3690     9.4960     1.3650 H     1 <1>   0.1500 
 46 H        0.8980    11.5880     0.0960 H     1 <1>   0.1500 
 47 H        2.3870    13.0500     1.5540 H     1 <1>   0.2700 
@<TRIPOS>BOND
  1   1   2  2   
  2   2   3  am  
  3   2   4  1   
  4   3   5  1   
  5   3   6  1   
  6   4   7  1   
  7   4  27  1   
  8   4  28  1   
  9   5   8  1   
 10   5   9  1   
 11   5  29  1   
 12   6  10  1   
 13   6  11  1   
 14   6  30  1   
 15   7   9  1   
 16   8  12  ar  
 17   8  13  ar  
 18   9  14  1   
 19   9  31  1   
 20  10  11  1   
 21  10  32  1   
 22  10  33  1   
 23  11  34  1   
 24  11  35  1   
 25  12  15  ar  
 26  12  36  1   
 27  13  16  ar  
 28  13  37  1   
 29  14  17  2   
 30  14  18  am  
 31  15  19  ar  
 32  16  19  ar  
 33  16  38  1   
 34  18  20  1   
 35  18  39  1   
 36  19  40  1   
 37  20  21  1   
 38  20  41  1   
 39  20  42  1   
 40  21  22  1   
 41  21  43  1   
 42  21  44  1   
 43  22  23  1   
 44  22  24  2   
 45  23  25  2   
 46  23  45  1   
 47  24  26  1   
 48  24  46  1   
 49  25  26  1   
 50  26  47  1   
@<TRIPOS>SUBSTRUCTURE
  1 ****  14 GROUP 4 **** **** 0

# MOE 2024.06 (io_trps.svl 2023.06)
