@<TRIPOS>MOLECULE
NONAME
44 47 1 0 0 
SMALL
USER_CHARGES


@<TRIPOS>ATOM
  1 O       -0.3080     0.6310    -0.1600 O.2   1 <1>  -0.5700 
  2 C       -1.3550     1.1230     0.2260 C.2   1 <1>   0.5440 
  3 N       -2.5350     0.4550    -0.0450 N.am  1 <1>  -0.6600 
  4 C       -1.3310     2.4030     0.9100 C.ar  1 <1>   0.0860 
  5 C       -3.8150     1.2020    -0.2350 C.3   1 <1>   0.2200 
  6 C       -2.4880    -0.9860    -0.4380 C.3   1 <1>   0.0600 
  7 C       -0.5480     3.4610     0.4170 C.ar  1 <1>  -0.1520 
  8 C       -2.0690     2.6670     2.0560 C.ar  1 <1>  -0.1500 
  9 C       -4.9190     0.7750     0.7280 C.3   1 <1>  -0.1600 
 10 C       -4.4390     1.0320    -1.6180 C.3   1 <1>  -0.1600 
 11 N        0.3120     3.4760    -0.6480 N.pl3 1 <1>   0.0330 
 12 C       -0.5470     4.7230     1.0000 C.ar  1 <1>   0.0000 
 13 C       -2.0720     3.9270     2.6610 C.ar  1 <1>  -0.1500 
 14 C       -6.2090     1.2850     0.0730 C.3   1 <1>  -0.0800 
 15 C       -5.9020     1.4530    -1.4270 C.3   1 <1>  -0.0800 
 16 C        0.8340     4.7340    -0.7560 C.2   1 <1>  -0.3020 
 17 C       -1.3230     4.9560     2.1370 C.ar  1 <1>  -0.1500 
 18 C        0.3300     5.5160     0.2290 C.2   1 <1>  -0.1500 
 19 C       -6.6420     2.6680     0.5830 C.3   1 <1>  -0.1600 
 20 C       -6.1600     2.9290    -1.7610 C.3   1 <1>  -0.1600 
 21 C       -7.0910     3.4150    -0.6620 C.3   1 <1>   0.2000 
 22 O       -6.9450     4.7720    -0.4810 O.3   1 <1>  -0.6800 
 23 H       -3.6460     2.2560    -0.0980 H     1 <1>   0.0800 
 24 H       -3.3960    -1.4900    -0.1640 H     1 <1>   0.0800 
 25 H       -1.6660    -1.4740     0.0580 H     1 <1>   0.0800 
 26 H       -2.3400    -1.0660    -1.5000 H     1 <1>   0.0800 
 27 H       -2.6540     1.8790     2.4930 H     1 <1>   0.1500 
 28 H       -4.9660    -0.2960     0.7900 H     1 <1>   0.0800 
 29 H       -4.7750     1.1780     1.7140 H     1 <1>   0.0800 
 30 H       -3.9310     1.6220    -2.3600 H     1 <1>   0.0800 
 31 H       -4.4260     0.0000    -1.9180 H     1 <1>   0.0800 
 32 H        0.5450     2.6420    -1.2050 H     1 <1>   0.2700 
 33 H       -2.6650     4.0860     3.5450 H     1 <1>   0.1500 
 34 H       -7.0110     0.5800     0.2130 H     1 <1>   0.0800 
 35 H       -6.5570     0.8290    -2.0120 H     1 <1>   0.0800 
 36 H        1.5390     4.9930    -1.5270 H     1 <1>   0.1500 
 37 H       -1.3160     5.9320     2.5880 H     1 <1>   0.1500 
 38 H        0.5380     6.5530     0.4270 H     1 <1>   0.1500 
 39 H       -5.8070     3.1790     1.0300 H     1 <1>   0.0800 
 40 H       -7.4410     2.5900     1.2990 H     1 <1>   0.0800 
 41 H       -6.6130     3.0380    -2.7310 H     1 <1>   0.0800 
 42 H       -5.2390     3.4850    -1.7300 H     1 <1>   0.0800 
 43 H       -8.1200     3.1980    -0.8970 H     1 <1>   0.0800 
 44 H       -6.0130     4.9830    -0.2880 H     1 <1>   0.4000 
@<TRIPOS>BOND
  1   1   2  2   
  2   2   3  am  
  3   2   4  1   
  4   3   5  1   
  5   3   6  1   
  6   4   7  ar  
  7   4   8  ar  
  8   5   9  1   
  9   5  10  1   
 10   5  23  1   
 11   6  24  1   
 12   6  25  1   
 13   6  26  1   
 14   7  11  1   
 15   7  12  ar  
 16   8  13  ar  
 17   8  27  1   
 18   9  14  1   
 19   9  28  1   
 20   9  29  1   
 21  10  15  1   
 22  10  30  1   
 23  10  31  1   
 24  11  16  1   
 25  11  32  1   
 26  12  17  ar  
 27  12  18  1   
 28  13  17  ar  
 29  13  33  1   
 30  14  15  1   
 31  14  19  1   
 32  14  34  1   
 33  15  20  1   
 34  15  35  1   
 35  16  18  2   
 36  16  36  1   
 37  17  37  1   
 38  18  38  1   
 39  19  21  1   
 40  19  39  1   
 41  19  40  1   
 42  20  21  1   
 43  20  41  1   
 44  20  42  1   
 45  21  22  1   
 46  21  43  1   
 47  22  44  1   
@<TRIPOS>SUBSTRUCTURE
  1 ****   5 GROUP 4 **** **** 0

# MOE 2024.06 (io_trps.svl 2023.06)
