@<TRIPOS>MOLECULE
NONAME
46 48 1 0 0 
SMALL
USER_CHARGES


@<TRIPOS>ATOM
  1 F        0.3110    -0.9350     0.0230 F     1 <1>  -0.1900 
  2 C        0.1870    -2.2190     0.2150 C.ar  1 <1>   0.1900 
  3 C        0.9040    -3.0860    -0.5840 C.ar  1 <1>  -0.1500 
  4 C       -0.6560    -2.6650     1.2120 C.ar  1 <1>  -0.1500 
  5 C        0.7760    -4.4540    -0.3910 C.ar  1 <1>  -0.1440 
  6 C       -0.7870    -4.0280     1.4030 C.ar  1 <1>  -0.1500 
  7 C       -0.0860    -4.9260     0.6020 C.ar  1 <1>  -0.1430 
  8 C        1.6030    -5.3780    -1.2780 C.3   1 <1>  -0.0960 
  9 C       -0.2870    -6.4120     0.8380 C.3   1 <1>   0.4870 
 10 N       -1.2450    -6.9270    -0.1750 N.4   1 <1>  -0.9590 
 11 C       -1.2790    -8.4260    -0.1630 C.3   1 <1>   0.5660 
 12 C       -2.6150    -6.3350    -0.0140 C.3   1 <1>   0.3430 
 13 C        0.0780    -8.9180    -0.6480 C.ar  1 <1>  -0.1430 
 14 C       -2.4350    -9.0350    -1.0040 C.3   1 <1>   0.2000 
 15 C       -3.6310    -6.9890    -0.9640 C.3   1 <1>   0.1200 
 16 C        0.5310    -8.6570    -1.9370 C.ar  1 <1>  -0.1500 
 17 C        0.8870    -9.6340     0.2230 C.ar  1 <1>  -0.1500 
 18 O       -3.6510    -8.3690    -0.7610 O.3   1 <1>  -0.5600 
 19 C       -2.6160   -10.5230    -0.6620 C.3   1 <1>   0.1200 
 20 C        1.7800    -9.0950    -2.3390 C.ar  1 <1>  -0.1500 
 21 C        2.1350   -10.0710    -0.1820 C.ar  1 <1>  -0.1500 
 22 O       -2.6290   -10.7010     0.7200 O.3   1 <1>  -0.6800 
 23 C        2.5840    -9.7990    -1.4610 C.ar  1 <1>  -0.1500 
 24 H        1.5530    -2.6800    -1.3400 H     1 <1>   0.1500 
 25 H       -1.1900    -1.9550     1.8200 H     1 <1>   0.1500 
 26 H       -1.4390    -4.3760     2.1870 H     1 <1>   0.1500 
 27 H        2.4390    -4.8440    -1.6970 H     1 <1>   0.0800 
 28 H        1.0080    -5.7470    -2.0930 H     1 <1>   0.0800 
 29 H        2.0030    -6.2070    -0.7220 H     1 <1>   0.0800 
 30 H       -0.6670    -6.5810     1.8320 H     1 <1>   0.0800 
 31 H        0.6610    -6.9180     0.7500 H     1 <1>   0.0800 
 32 H       -0.8710    -6.6420    -1.0830 H     1 <1>   0.4500 
 33 H       -1.4190    -8.7570     0.8520 H     1 <1>   0.0800 
 34 H       -2.9590    -6.4780     0.9980 H     1 <1>   0.0800 
 35 H       -2.5800    -5.2740    -0.2050 H     1 <1>   0.0800 
 36 H       -2.2280    -8.9460    -2.0550 H     1 <1>   0.0800 
 37 H       -3.3940    -6.7870    -1.9950 H     1 <1>   0.0800 
 38 H       -4.6200    -6.6150    -0.7600 H     1 <1>   0.0800 
 39 H       -0.0710    -8.1190    -2.6480 H     1 <1>   0.1500 
 40 H        0.5550    -9.8680     1.2220 H     1 <1>   0.1500 
 41 H       -1.8020   -11.1060    -1.0610 H     1 <1>   0.0800 
 42 H       -3.5440   -10.8870    -1.0700 H     1 <1>   0.0800 
 43 H        2.1330    -8.8950    -3.3380 H     1 <1>   0.1500 
 44 H        2.7610   -10.6270     0.4970 H     1 <1>   0.1500 
 45 H       -2.9780   -11.5890     0.9490 H     1 <1>   0.4000 
 46 H        3.5560   -10.1420    -1.7750 H     1 <1>   0.1500 
@<TRIPOS>BOND
  1   1   2  1   
  2   2   3  ar  
  3   2   4  ar  
  4   3   5  ar  
  5   3  24  1   
  6   4   6  ar  
  7   4  25  1   
  8   5   7  ar  
  9   5   8  1   
 10   6   7  ar  
 11   6  26  1   
 12   7   9  1   
 13   8  27  1   
 14   8  28  1   
 15   8  29  1   
 16   9  10  1   
 17   9  30  1   
 18   9  31  1   
 19  10  11  1   
 20  10  12  1   
 21  10  32  1   
 22  11  13  1   
 23  11  14  1   
 24  11  33  1   
 25  12  15  1   
 26  12  34  1   
 27  12  35  1   
 28  13  16  ar  
 29  13  17  ar  
 30  14  18  1   
 31  14  19  1   
 32  14  36  1   
 33  15  18  1   
 34  15  37  1   
 35  15  38  1   
 36  16  20  ar  
 37  16  39  1   
 38  17  21  ar  
 39  17  40  1   
 40  19  22  1   
 41  19  41  1   
 42  19  42  1   
 43  20  23  ar  
 44  20  43  1   
 45  21  23  ar  
 46  21  44  1   
 47  22  45  1   
 48  23  46  1   
@<TRIPOS>SUBSTRUCTURE
  1 ****  10 GROUP 4 **** **** 0

# MOE 2024.06 (io_trps.svl 2023.06)
