@<TRIPOS>MOLECULE
NONAME
47 49 1 0 0 
SMALL
USER_CHARGES


@<TRIPOS>ATOM
  1 O        0.2190     1.4360    -1.7030 O.2   1 <1>  -0.5700 
  2 C       -0.0360     2.2530    -0.8500 C.2   1 <1>   0.5690 
  3 N       -1.1990     2.9880    -0.8940 N.am  1 <1>  -0.6600 
  4 C        0.9650     2.4690     0.2840 C.3   1 <1>   0.0440 
  5 C       -2.2090     2.7740    -1.9680 C.3   1 <1>   0.1400 
  6 C       -1.6070     4.0480     0.0650 C.3   1 <1>   0.1400 
  7 C        2.1250     1.4750     0.3550 C.ar  1 <1>  -0.1440 
  8 C       -3.5330     2.3490    -1.3280 C.3   1 <1>  -0.1600 
  9 C       -2.9150     3.6280     0.7420 C.3   1 <1>  -0.1600 
 10 C        3.0460     1.3820    -0.6800 C.ar  1 <1>   0.1600 
 11 C        2.2900     0.6630     1.4600 C.ar  1 <1>  -0.1500 
 12 C       -4.0380     3.3610    -0.2850 C.3   1 <1>   0.2800 
 13 N        4.1010     0.5800    -0.6920 N.ar  1 <1>  -0.6200 
 14 C        3.3750    -0.1870     1.4600 C.ar  1 <1>  -0.1500 
 15 O       -4.2700     4.5420    -0.9960 O.3   1 <1>  -0.5600 
 16 C       -5.3410     2.8210     0.3690 C.3   1 <1>  -0.1600 
 17 C        4.2370    -0.1870     0.3770 C.ar  1 <1>   0.1600 
 18 C       -4.9610     5.6240    -0.4150 C.3   1 <1>   0.1200 
 19 C       -6.5520     3.7650     0.3010 C.3   1 <1>   0.2800 
 20 C       -6.0910     5.2190     0.5510 C.3   1 <1>   0.2000 
 21 O       -7.0990     3.6850    -0.9660 O.3   1 <1>  -0.6800 
 22 C       -7.6670     3.3180     1.2530 C.3   1 <1>  -0.2400 
 23 O       -5.6300     5.3650     1.8630 O.3   1 <1>  -0.6800 
 24 H        1.3740     3.4560     0.1790 H     1 <1>   0.0800 
 25 H        0.4280     2.4310     1.2120 H     1 <1>   0.0800 
 26 H       -2.3420     3.6900    -2.5170 H     1 <1>   0.0800 
 27 H       -1.8830     2.0160    -2.6600 H     1 <1>   0.0800 
 28 H       -0.8520     4.2250     0.8070 H     1 <1>   0.0800 
 29 H       -1.7570     4.9680    -0.4760 H     1 <1>   0.0800 
 30 H       -3.3880     1.3890    -0.8670 H     1 <1>   0.0800 
 31 H       -4.2740     2.2340    -2.0980 H     1 <1>   0.0800 
 32 H       -3.2070     4.3900     1.4360 H     1 <1>   0.0800 
 33 H       -2.7280     2.7320     1.3070 H     1 <1>   0.0800 
 34 H        2.9070     2.0010    -1.5510 H     1 <1>   0.1500 
 35 H        1.6080     0.6830     2.2910 H     1 <1>   0.1500 
 36 H        3.5550    -0.8450     2.2900 H     1 <1>   0.1500 
 37 H       -5.6140     1.8710    -0.0540 H     1 <1>   0.0800 
 38 H       -5.1320     2.6170     1.4030 H     1 <1>   0.0800 
 39 H        5.0820    -0.8530     0.3890 H     1 <1>   0.1500 
 40 H       -4.2490     6.2670     0.0720 H     1 <1>   0.0800 
 41 H       -5.3950     6.1670    -1.2360 H     1 <1>   0.0800 
 42 H       -6.9220     5.8930     0.4430 H     1 <1>   0.0800 
 43 H       -7.3580     2.7660    -1.1590 H     1 <1>   0.4000 
 44 H       -7.3260     3.3520     2.2720 H     1 <1>   0.0800 
 45 H       -7.9770     2.3120     1.0360 H     1 <1>   0.0800 
 46 H       -8.5120     3.9780     1.1660 H     1 <1>   0.0800 
 47 H       -4.9010     4.7400     2.0250 H     1 <1>   0.4000 
@<TRIPOS>BOND
  1   1   2  2   
  2   2   3  am  
  3   2   4  1   
  4   3   5  1   
  5   3   6  1   
  6   4   7  1   
  7   4  24  1   
  8   4  25  1   
  9   5   8  1   
 10   5  26  1   
 11   5  27  1   
 12   6   9  1   
 13   6  28  1   
 14   6  29  1   
 15   7  10  ar  
 16   7  11  ar  
 17   8  12  1   
 18   8  30  1   
 19   8  31  1   
 20   9  12  1   
 21   9  32  1   
 22   9  33  1   
 23  10  13  ar  
 24  10  34  1   
 25  11  14  ar  
 26  11  35  1   
 27  12  15  1   
 28  12  16  1   
 29  13  17  ar  
 30  14  17  ar  
 31  14  36  1   
 32  15  18  1   
 33  16  19  1   
 34  16  37  1   
 35  16  38  1   
 36  17  39  1   
 37  18  20  1   
 38  18  40  1   
 39  18  41  1   
 40  19  20  1   
 41  19  21  1   
 42  19  22  1   
 43  20  23  1   
 44  20  42  1   
 45  21  43  1   
 46  22  44  1   
 47  22  45  1   
 48  22  46  1   
 49  23  47  1   
@<TRIPOS>SUBSTRUCTURE
  1 ****   3 GROUP 4 **** **** 0

# MOE 2024.06 (io_trps.svl 2023.06)
