@<TRIPOS>MOLECULE
NONAME
43 44 1 0 0 
SMALL
USER_CHARGES


@<TRIPOS>ATOM
  1 S       -0.4660     1.5630     0.2730 S.o2  1 <1>   1.0900 
  2 O       -1.6260     2.0640    -0.4270 O.2   1 <1>  -0.6500 
  3 O       -0.6270     0.6460     1.3780 O.2   1 <1>  -0.6500 
  4 C        0.6340     0.8160    -0.9100 C.3   1 <1>  -0.0550 
  5 C        0.4890     2.9500     0.8430 C.3   1 <1>  -0.0550 
  6 C        2.0160     0.6100    -0.3010 C.3   1 <1>   0.1100 
  7 C        1.8860     2.5020     1.2510 C.3   1 <1>   0.1100 
  8 N        2.5900     1.9090     0.0930 N.3   1 <1>  -0.8100 
  9 C        4.0460     1.7540     0.4120 C.3   1 <1>   0.1710 
 10 C        4.7970     3.0840     0.4860 C.2   1 <1>   0.5690 
 11 O        5.7080     3.1990     1.2710 O.2   1 <1>  -0.5700 
 12 N        4.3440     4.0690    -0.3360 N.am  1 <1>  -0.4930 
 13 C        4.6350     5.4530    -0.4230 C.2   1 <1>   0.0630 
 14 C        5.8180     6.1600    -0.1830 C.2   1 <1>   0.1080 
 15 C        3.7420     6.3960    -0.7970 C.2   1 <1>  -0.3320 
 16 N        5.6720     7.4340    -0.3760 N.2   1 <1>  -0.7070 
 17 C        7.1540     5.5880     0.2340 C.3   1 <1>  -0.0590 
 18 N        4.3920     7.5860    -0.7510 N.pl3 1 <1>   0.3140 
 19 C        2.2820     6.2390    -1.2020 C.3   1 <1>  -0.0600 
 20 C        3.8520     8.9290    -1.0560 C.3   1 <1>   0.0960 
 21 C        3.1820     9.5510     0.1750 C.3   1 <1>  -0.2400 
 22 H        0.7250     1.4400    -1.7780 H     1 <1>   0.0800 
 23 H        0.2370    -0.1300    -1.2210 H     1 <1>   0.0800 
 24 H        0.0010     3.4010     1.6840 H     1 <1>   0.0800 
 25 H        0.5700     3.6880     0.0700 H     1 <1>   0.0800 
 26 H        2.6460     0.1440    -1.0410 H     1 <1>   0.0800 
 27 H        1.9540    -0.0470     0.5530 H     1 <1>   0.0800 
 28 H        1.8240     1.7860     2.0570 H     1 <1>   0.0800 
 29 H        2.4220     3.3640     1.6140 H     1 <1>   0.0800 
 30 H        4.5240     1.1680    -0.3540 H     1 <1>   0.0800 
 31 H        4.1660     1.2340     1.3470 H     1 <1>   0.0800 
 32 H        3.5060     3.7860    -0.8450 H     1 <1>   0.3700 
 33 H        7.3310     4.6560    -0.2680 H     1 <1>   0.0800 
 34 H        7.1620     5.4280     1.2960 H     1 <1>   0.0800 
 35 H        7.9410     6.2740    -0.0200 H     1 <1>   0.0800 
 36 H        1.9920     5.2050    -1.1920 H     1 <1>   0.0800 
 37 H        2.1310     6.6220    -2.1960 H     1 <1>   0.0800 
 38 H        1.6480     6.7760    -0.5200 H     1 <1>   0.0800 
 39 H        3.1520     8.8460    -1.8660 H     1 <1>   0.0800 
 40 H        4.6690     9.5490    -1.3770 H     1 <1>   0.0800 
 41 H        2.3580     8.9440     0.5060 H     1 <1>   0.0800 
 42 H        2.8130    10.5310    -0.0650 H     1 <1>   0.0800 
 43 H        3.8980     9.6400     0.9730 H     1 <1>   0.0800 
@<TRIPOS>BOND
  1   1   2  2   
  2   1   3  2   
  3   1   4  1   
  4   1   5  1   
  5   4   6  1   
  6   4  22  1   
  7   4  23  1   
  8   5   7  1   
  9   5  24  1   
 10   5  25  1   
 11   6   8  1   
 12   6  26  1   
 13   6  27  1   
 14   7   8  1   
 15   7  28  1   
 16   7  29  1   
 17   8   9  1   
 18   9  10  1   
 19   9  30  1   
 20   9  31  1   
 21  10  11  2   
 22  10  12  am  
 23  12  13  1   
 24  12  32  1   
 25  13  14  1   
 26  13  15  2   
 27  14  16  2   
 28  14  17  1   
 29  15  18  1   
 30  15  19  1   
 31  16  18  1   
 32  17  33  1   
 33  17  34  1   
 34  17  35  1   
 35  18  20  1   
 36  19  36  1   
 37  19  37  1   
 38  19  38  1   
 39  20  21  1   
 40  20  39  1   
 41  20  40  1   
 42  21  41  1   
 43  21  42  1   
 44  21  43  1   
@<TRIPOS>SUBSTRUCTURE
  1 ****  12 GROUP 4 **** **** 0

# MOE 2024.06 (io_trps.svl 2023.06)
