@<TRIPOS>MOLECULE
NONAME
51 53 1 0 0 
SMALL
USER_CHARGES


@<TRIPOS>ATOM
  1 O        0.2830     4.7270    -2.5990 O.3   1 <1>  -0.3630 
  2 C       -0.8510     4.3300    -1.9490 C.ar  1 <1>   0.0830 
  3 C        0.4100     4.6130    -4.0010 C.3   1 <1>   0.0400 
  4 C       -0.7890     4.1840    -0.5360 C.ar  1 <1>   0.3100 
  5 C       -2.0230     4.0670    -2.6280 C.ar  1 <1>  -0.1500 
  6 N        0.3600     4.4830     0.1320 N.ar  1 <1>  -0.6200 
  7 C       -1.9430     3.7250     0.1390 C.ar  1 <1>   0.0000 
  8 C       -3.1600     3.6380    -1.9430 C.ar  1 <1>  -0.1500 
  9 C        0.4160     4.2840     1.4190 C.ar  1 <1>   0.4100 
 10 C       -1.8640     3.5320     1.5280 C.ar  1 <1>  -0.1500 
 11 C       -3.1190     3.4680    -0.5870 C.ar  1 <1>  -0.1500 
 12 N        1.6290     4.5990     2.0260 N.pl3 1 <1>  -0.8380 
 13 C       -0.6900     3.8040     2.1530 C.ar  1 <1>  -0.1500 
 14 C        2.9070     4.4200     1.2430 C.3   1 <1>   0.2090 
 15 C        1.7980     4.5840     3.5090 C.3   1 <1>   0.1290 
 16 C        3.4140     5.7520     0.6440 C.3   1 <1>   0.3430 
 17 N        2.2710     6.6530     0.3130 N.4   1 <1>  -0.9590 
 18 C        2.1210     6.9200    -1.1460 C.3   1 <1>   0.4230 
 19 C        2.1780     7.8130     1.2410 C.3   1 <1>   0.2630 
 20 C        3.2240     7.8310    -1.6870 C.3   1 <1>  -0.1600 
 21 C        0.8320     7.6860    -1.4430 C.3   1 <1>  -0.1600 
 22 C        2.7070     9.2710    -1.5970 C.3   1 <1>  -0.1600 
 23 C        1.1800     9.1800    -1.4980 C.3   1 <1>  -0.1600 
 24 H        1.4200     4.8620    -4.2690 H     1 <1>   0.0800 
 25 H       -0.2720     5.2990    -4.4720 H     1 <1>   0.0800 
 26 H        0.1970     3.5990    -4.2900 H     1 <1>   0.0800 
 27 H       -2.1040     4.1810    -3.6930 H     1 <1>   0.1500 
 28 H       -4.0640     3.4410    -2.4940 H     1 <1>   0.1500 
 29 H       -2.7240     3.1700     2.0640 H     1 <1>   0.1500 
 30 H       -3.9920     3.1300    -0.0560 H     1 <1>   0.1500 
 31 H       -0.6000     3.6490     3.2090 H     1 <1>   0.1500 
 32 H        2.7400     3.7230     0.4390 H     1 <1>   0.0800 
 33 H        3.6710     3.9910     1.8670 H     1 <1>   0.0800 
 34 H        0.9670     5.0760     3.9840 H     1 <1>   0.0800 
 35 H        2.6990     5.1010     3.7890 H     1 <1>   0.0800 
 36 H        1.8540     3.5670     3.8610 H     1 <1>   0.0800 
 37 H        3.9990     5.5440    -0.2350 H     1 <1>   0.0800 
 38 H        4.0560     6.2330     1.3620 H     1 <1>   0.0800 
 39 H        1.4600     6.0280     0.5390 H     1 <1>   0.4500 
 40 H        2.1130     5.9780    -1.6710 H     1 <1>   0.0800 
 41 H        3.0040     8.4860     1.0840 H     1 <1>   0.0800 
 42 H        2.1930     7.4680     2.2620 H     1 <1>   0.0800 
 43 H        1.2570     8.3460     1.0770 H     1 <1>   0.0800 
 44 H        3.3610     7.5920    -2.7270 H     1 <1>   0.0800 
 45 H        4.1680     7.7040    -1.1880 H     1 <1>   0.0800 
 46 H        0.0460     7.4600    -0.7450 H     1 <1>   0.0800 
 47 H        0.4960     7.3900    -2.4210 H     1 <1>   0.0800 
 48 H        3.0050     9.8410    -2.4620 H     1 <1>   0.0800 
 49 H        3.1020     9.7580    -0.7220 H     1 <1>   0.0800 
 50 H        0.8330     9.6850    -0.6130 H     1 <1>   0.0800 
 51 H        0.7130     9.6410    -2.3520 H     1 <1>   0.0800 
@<TRIPOS>BOND
  1   1   2  1   
  2   1   3  1   
  3   2   4  ar  
  4   2   5  ar  
  5   3  24  1   
  6   3  25  1   
  7   3  26  1   
  8   4   6  ar  
  9   4   7  ar  
 10   5   8  ar  
 11   5  27  1   
 12   6   9  ar  
 13   7  10  ar  
 14   7  11  ar  
 15   8  11  ar  
 16   8  28  1   
 17   9  12  1   
 18   9  13  ar  
 19  10  13  ar  
 20  10  29  1   
 21  11  30  1   
 22  12  14  1   
 23  12  15  1   
 24  13  31  1   
 25  14  16  1   
 26  14  32  1   
 27  14  33  1   
 28  15  34  1   
 29  15  35  1   
 30  15  36  1   
 31  16  17  1   
 32  16  37  1   
 33  16  38  1   
 34  17  18  1   
 35  17  19  1   
 36  17  39  1   
 37  18  20  1   
 38  18  21  1   
 39  18  40  1   
 40  19  41  1   
 41  19  42  1   
 42  19  43  1   
 43  20  22  1   
 44  20  44  1   
 45  20  45  1   
 46  21  23  1   
 47  21  46  1   
 48  21  47  1   
 49  22  23  1   
 50  22  48  1   
 51  22  49  1   
 52  23  50  1   
 53  23  51  1   
@<TRIPOS>SUBSTRUCTURE
  1 ****   6 GROUP 4 **** **** 0

# MOE 2024.06 (io_trps.svl 2023.06)
