@<TRIPOS>MOLECULE
NONAME
51 55 1 0 0 
SMALL
USER_CHARGES


@<TRIPOS>ATOM
  1 N        0.5370    -0.2910     0.8980 N.ar  1 <1>  -0.6200 
  2 C       -0.7450    -0.1340     1.2100 C.ar  1 <1>   0.4760 
  3 C        0.9960     0.6120     0.0640 C.ar  1 <1>   0.1660 
  4 N       -1.5730     0.8150     0.7950 N.ar  1 <1>  -0.6200 
  5 C       -1.3370    -1.1510     2.1560 C.3   1 <1>  -0.0960 
  6 C        0.2450     1.6350    -0.4290 C.ar  1 <1>  -0.1440 
  7 C        2.4150     0.6560    -0.4460 C.3   1 <1>   0.1430 
  8 C       -1.0680     1.7050    -0.0340 C.ar  1 <1>   0.1600 
  9 C        1.0490     2.5220    -1.3460 C.3   1 <1>  -0.0160 
 10 C        3.3580     0.4600     0.7540 C.3   1 <1>   0.3430 
 11 C        2.6360    -0.4530    -1.4950 C.3   1 <1>  -0.1600 
 12 C        2.5000     2.0750    -1.0720 C.3   1 <1>  -0.1600 
 13 N        4.7970     0.3320     0.3410 N.4   1 <1>  -0.9590 
 14 C        4.1240    -0.6180    -1.8500 C.3   1 <1>  -0.1600 
 15 C        4.9920    -0.8120    -0.6050 C.3   1 <1>   0.3430 
 16 C        5.6780     0.2300     1.5400 C.3   1 <1>   0.4860 
 17 C        7.1270     0.2530     1.0940 C.ar  1 <1>  -0.1440 
 18 C        7.8720    -0.9380     0.9320 C.ar  1 <1>   0.0000 
 19 C        7.7480     1.4390     0.8230 C.ar  1 <1>  -0.1500 
 20 C        9.1980    -0.8180     0.4510 C.ar  1 <1>   0.3100 
 21 C        7.3840    -2.2370     1.2140 C.ar  1 <1>  -0.1500 
 22 C        9.0730     1.4470     0.3700 C.ar  1 <1>   0.1600 
 23 N        9.7730     0.3770     0.1750 N.ar  1 <1>  -0.6200 
 24 C        9.9560    -1.9810     0.2450 C.ar  1 <1>  -0.1500 
 25 C        8.1510    -3.3500     1.0050 C.ar  1 <1>  -0.1500 
 26 C        9.4510    -3.2240     0.5100 C.ar  1 <1>  -0.1500 
 27 H       -0.7270    -2.0340     2.1920 H     1 <1>   0.0800 
 28 H       -2.3220    -1.4230     1.8260 H     1 <1>   0.0800 
 29 H       -1.4020    -0.7250     3.1400 H     1 <1>   0.0800 
 30 H       -1.7100     2.4910    -0.3940 H     1 <1>   0.1500 
 31 H        0.9020     3.5650    -1.1220 H     1 <1>   0.0800 
 32 H        0.7720     2.3270    -2.3680 H     1 <1>   0.0800 
 33 H        3.0540    -0.4350     1.2730 H     1 <1>   0.0800 
 34 H        3.2340     1.2880     1.4320 H     1 <1>   0.0800 
 35 H        2.0630    -0.2450    -2.3830 H     1 <1>   0.0800 
 36 H        2.2720    -1.3860    -1.0960 H     1 <1>   0.0800 
 37 H        3.0870     2.1060    -1.9730 H     1 <1>   0.0800 
 38 H        2.9270     2.7610    -0.3620 H     1 <1>   0.0800 
 39 H        5.0730     1.1820    -0.1640 H     1 <1>   0.4500 
 40 H        4.4780     0.2330    -2.4050 H     1 <1>   0.0800 
 41 H        4.2390    -1.4780    -2.4880 H     1 <1>   0.0800 
 42 H        4.7210    -1.7360    -0.1210 H     1 <1>   0.0800 
 43 H        6.0280    -0.8780    -0.9030 H     1 <1>   0.0800 
 44 H        5.4640    -0.6690     2.0920 H     1 <1>   0.0800 
 45 H        5.5010     1.0690     2.1930 H     1 <1>   0.0800 
 46 H        7.2590     2.3900     0.9410 H     1 <1>   0.1500 
 47 H        6.3950    -2.3750     1.6090 H     1 <1>   0.1500 
 48 H        9.5380     2.3980     0.1660 H     1 <1>   0.1500 
 49 H       10.9570    -1.8610    -0.1300 H     1 <1>   0.1500 
 50 H        7.7750    -4.3370     1.2210 H     1 <1>   0.1500 
 51 H       10.0460    -4.1080     0.3490 H     1 <1>   0.1500 
@<TRIPOS>BOND
  1   1   2  ar  
  2   1   3  ar  
  3   2   4  ar  
  4   2   5  1   
  5   3   6  ar  
  6   3   7  1   
  7   4   8  ar  
  8   5  27  1   
  9   5  28  1   
 10   5  29  1   
 11   6   8  ar  
 12   6   9  1   
 13   7  10  1   
 14   7  11  1   
 15   7  12  1   
 16   8  30  1   
 17   9  12  1   
 18   9  31  1   
 19   9  32  1   
 20  10  13  1   
 21  10  33  1   
 22  10  34  1   
 23  11  14  1   
 24  11  35  1   
 25  11  36  1   
 26  12  37  1   
 27  12  38  1   
 28  13  15  1   
 29  13  16  1   
 30  13  39  1   
 31  14  15  1   
 32  14  40  1   
 33  14  41  1   
 34  15  42  1   
 35  15  43  1   
 36  16  17  1   
 37  16  44  1   
 38  16  45  1   
 39  17  18  ar  
 40  17  19  ar  
 41  18  20  ar  
 42  18  21  ar  
 43  19  22  ar  
 44  19  46  1   
 45  20  23  ar  
 46  20  24  ar  
 47  21  25  ar  
 48  21  47  1   
 49  22  23  ar  
 50  22  48  1   
 51  24  26  ar  
 52  24  49  1   
 53  25  26  ar  
 54  25  50  1   
 55  26  51  1   
@<TRIPOS>SUBSTRUCTURE
  1 ****  13 GROUP 4 **** **** 0

# MOE 2024.06 (io_trps.svl 2023.06)
