@<TRIPOS>MOLECULE
NONAME
49 51 1 0 0 
SMALL
USER_CHARGES


@<TRIPOS>ATOM
  1 S        1.5270     1.5260    -0.1530 S.o2  1 <1>   1.3330 
  2 O        0.9390     2.0010    -1.3820 O.2   1 <1>  -0.6500 
  3 O        2.4700     2.3900     0.5270 O.2   1 <1>  -0.6500 
  4 N        2.2220     0.0030    -0.3960 N.am  1 <1>  -0.8490 
  5 C        0.1930     1.2270     1.0130 C.3   1 <1>  -0.0550 
  6 C        3.6440     0.0830    -0.7490 C.3   1 <1>   0.1160 
  7 C        1.5130    -0.8110    -1.3920 C.3   1 <1>   0.1160 
  8 C       -0.5960     2.4770     1.4880 C.3   1 <1>  -0.0800 
  9 C       -1.2760     3.2430     0.3460 C.3   1 <1>   0.2000 
 10 C        0.2830     3.5400     2.1590 C.3   1 <1>   0.3430 
 11 O       -2.4720     3.7640     0.8240 O.3   1 <1>  -0.6800 
 12 C       -0.3290     4.3960    -0.0200 C.3   1 <1>   0.3430 
 13 N        0.6990     4.4600     1.0710 N.4   1 <1>  -0.9590 
 14 C        1.0530     5.8380     1.4960 C.3   1 <1>   0.5240 
 15 C        1.4950     6.6090     0.2730 C.2   1 <1>  -0.1810 
 16 C        2.7510     6.2970    -0.3660 C.ar  1 <1>   0.0000 
 17 C        0.7930     7.5950    -0.3190 C.2   1 <1>  -0.1400 
 18 C        2.9750     7.0680    -1.4980 C.ar  1 <1>   0.0400 
 19 C        3.7340     5.3680    -0.0200 C.ar  1 <1>  -0.1500 
 20 S        1.6400     8.1960    -1.7430 S.3   1 <1>  -0.0800 
 21 C       -0.5370     8.2660    -0.0300 C.3   1 <1>  -0.0600 
 22 C        4.0960     6.9490    -2.2970 C.ar  1 <1>  -0.1500 
 23 C        4.8660     5.2300    -0.8050 C.ar  1 <1>  -0.1500 
 24 C        5.0490     6.0130    -1.9400 C.ar  1 <1>  -0.1500 
 25 H       -0.5020     0.5400     0.5680 H     1 <1>   0.0800 
 26 H        0.6050     0.7360     1.8740 H     1 <1>   0.0800 
 27 H        4.0550    -0.9060    -0.8660 H     1 <1>   0.0800 
 28 H        4.1930     0.5820     0.0310 H     1 <1>   0.0800 
 29 H        3.7740     0.6290    -1.6690 H     1 <1>   0.0800 
 30 H        1.9510    -1.7940    -1.4450 H     1 <1>   0.0800 
 31 H        1.5700    -0.3520    -2.3660 H     1 <1>   0.0800 
 32 H        0.4770    -0.9190    -1.1200 H     1 <1>   0.0800 
 33 H       -1.3320     2.1260     2.1920 H     1 <1>   0.0800 
 34 H       -1.5090     2.6280    -0.5080 H     1 <1>   0.0800 
 35 H        1.1370     3.1000     2.6510 H     1 <1>   0.0800 
 36 H       -0.3050     4.0790     2.8850 H     1 <1>   0.0800 
 37 H       -2.3720     4.2870     1.6410 H     1 <1>   0.4000 
 38 H       -0.8800     5.3180    -0.1050 H     1 <1>   0.0800 
 39 H        0.1570     4.1940    -0.9620 H     1 <1>   0.0800 
 40 H        1.5720     4.0660     0.6610 H     1 <1>   0.4500 
 41 H        0.1980     6.3190     1.9400 H     1 <1>   0.0800 
 42 H        1.8540     5.8170     2.2180 H     1 <1>   0.0800 
 43 H        3.6340     4.7530     0.8540 H     1 <1>   0.1500 
 44 H       -1.0020     7.8550     0.8460 H     1 <1>   0.0800 
 45 H       -1.2010     8.1390    -0.8670 H     1 <1>   0.0800 
 46 H       -0.3850     9.3200     0.1250 H     1 <1>   0.0800 
 47 H        4.2160     7.5710    -3.1660 H     1 <1>   0.1500 
 48 H        5.6200     4.5090    -0.5370 H     1 <1>   0.1500 
 49 H        5.9360     5.8920    -2.5390 H     1 <1>   0.1500 
@<TRIPOS>BOND
  1   1   2  2   
  2   1   3  2   
  3   1   4  am  
  4   1   5  1   
  5   4   6  1   
  6   4   7  1   
  7   5   8  1   
  8   5  25  1   
  9   5  26  1   
 10   6  27  1   
 11   6  28  1   
 12   6  29  1   
 13   7  30  1   
 14   7  31  1   
 15   7  32  1   
 16   8   9  1   
 17   8  10  1   
 18   8  33  1   
 19   9  11  1   
 20   9  12  1   
 21   9  34  1   
 22  10  13  1   
 23  10  35  1   
 24  10  36  1   
 25  11  37  1   
 26  12  13  1   
 27  12  38  1   
 28  12  39  1   
 29  13  14  1   
 30  13  40  1   
 31  14  15  1   
 32  14  41  1   
 33  14  42  1   
 34  15  16  1   
 35  15  17  2   
 36  16  18  ar  
 37  16  19  ar  
 38  17  20  1   
 39  17  21  1   
 40  18  20  1   
 41  18  22  ar  
 42  19  23  ar  
 43  19  43  1   
 44  21  44  1   
 45  21  45  1   
 46  21  46  1   
 47  22  24  ar  
 48  22  47  1   
 49  23  24  ar  
 50  23  48  1   
 51  24  49  1   
@<TRIPOS>SUBSTRUCTURE
  1 ****  13 GROUP 4 **** **** 0

# MOE 2024.06 (io_trps.svl 2023.06)
