@<TRIPOS>MOLECULE
NONAME
53 55 1 0 0 
SMALL
USER_CHARGES


@<TRIPOS>ATOM
  1 O       -0.4360     0.6090     1.3320 O.2   1 <1>  -0.5700 
  2 C       -0.3470     1.7350     0.8960 C.2   1 <1>   0.5690 
  3 N       -1.4880     2.4650     0.6320 N.am  1 <1>  -0.6600 
  4 C        1.0880     2.2470     0.6680 C.3   1 <1>  -0.0190 
  5 C       -1.5370     3.8130    -0.0090 C.3   1 <1>   0.1400 
  6 C       -2.8170     1.8600     0.9640 C.3   1 <1>   0.1400 
  7 C        1.4010     3.5410     1.4520 C.3   1 <1>  -0.1600 
  8 C        1.4740     2.2550    -0.8310 C.3   1 <1>  -0.1600 
  9 C       -2.7760     3.9130    -0.8960 C.3   1 <1>  -0.1600 
 10 C       -3.8870     2.9360     1.1720 C.3   1 <1>  -0.1600 
 11 C        2.8540     4.0300     1.3480 C.3   1 <1>  -0.1600 
 12 C        2.9930     2.2250    -1.0620 C.3   1 <1>  -0.1600 
 13 C       -4.0690     3.8620    -0.0540 C.3   1 <1>   0.2800 
 14 C        3.1740     4.6210    -0.0330 C.3   1 <1>  -0.1600 
 15 C        3.6710     3.6030    -1.0700 C.3   1 <1>  -0.1600 
 16 O       -4.2920     5.1400     0.4920 O.3   1 <1>  -0.5600 
 17 C       -5.2810     3.4260    -0.9180 C.3   1 <1>  -0.1600 
 18 C       -4.9090     6.1070    -0.3130 C.3   1 <1>   0.1200 
 19 C       -6.5680     4.1760    -0.5580 C.3   1 <1>   0.2800 
 20 C       -6.3370     5.6840    -0.6890 C.3   1 <1>  -0.1600 
 21 O       -6.8520     3.9280     0.7590 O.3   1 <1>  -0.6800 
 22 C       -7.7730     3.6980    -1.3640 C.3   1 <1>  -0.2400 
 23 H        1.7100     1.4930     1.1200 H     1 <1>   0.0800 
 24 H       -0.6650     3.9840    -0.6070 H     1 <1>   0.0800 
 25 H       -1.5780     4.5700     0.7560 H     1 <1>   0.0800 
 26 H       -2.7320     1.2720     1.8630 H     1 <1>   0.0800 
 27 H       -3.1090     1.2010     0.1650 H     1 <1>   0.0800 
 28 H        1.1880     3.3490     2.4900 H     1 <1>   0.0800 
 29 H        0.7540     4.3390     1.1490 H     1 <1>   0.0800 
 30 H        1.0470     3.0870    -1.3550 H     1 <1>   0.0800 
 31 H        1.0640     1.3600    -1.2710 H     1 <1>   0.0800 
 32 H       -2.7520     3.0880    -1.5850 H     1 <1>   0.0800 
 33 H       -2.7320     4.8120    -1.4790 H     1 <1>   0.0800 
 34 H       -3.5920     3.5160     2.0290 H     1 <1>   0.0800 
 35 H       -4.8110     2.4480     1.4220 H     1 <1>   0.0800 
 36 H        3.5450     3.2420     1.5970 H     1 <1>   0.0800 
 37 H        2.9860     4.8090     2.0790 H     1 <1>   0.0800 
 38 H        3.1850     1.7610    -2.0150 H     1 <1>   0.0800 
 39 H        3.4600     1.6000    -0.3200 H     1 <1>   0.0800 
 40 H        3.9390     5.3700     0.0830 H     1 <1>   0.0800 
 41 H        2.3050     5.1280    -0.4170 H     1 <1>   0.0800 
 42 H        3.5520     4.0420    -2.0460 H     1 <1>   0.0800 
 43 H        4.7270     3.4510    -0.9240 H     1 <1>   0.0800 
 44 H       -5.4340     2.3650    -0.8460 H     1 <1>   0.0800 
 45 H       -5.0660     3.6270    -1.9520 H     1 <1>   0.0800 
 46 H       -4.3120     6.2540    -1.1950 H     1 <1>   0.0800 
 47 H       -4.9270     7.0300     0.2410 H     1 <1>   0.0800 
 48 H       -6.5030     5.9830    -1.7080 H     1 <1>   0.0800 
 49 H       -7.0530     6.2190    -0.0910 H     1 <1>   0.0800 
 50 H       -6.1120     4.3070     1.2790 H     1 <1>   0.4000 
 51 H       -7.6080     3.8590    -2.4140 H     1 <1>   0.0800 
 52 H       -8.6540     4.2390    -1.0700 H     1 <1>   0.0800 
 53 H       -7.9350     2.6480    -1.2020 H     1 <1>   0.0800 
@<TRIPOS>BOND
  1   1   2  2   
  2   2   3  am  
  3   2   4  1   
  4   3   5  1   
  5   3   6  1   
  6   4   7  1   
  7   4   8  1   
  8   4  23  1   
  9   5   9  1   
 10   5  24  1   
 11   5  25  1   
 12   6  10  1   
 13   6  26  1   
 14   6  27  1   
 15   7  11  1   
 16   7  28  1   
 17   7  29  1   
 18   8  12  1   
 19   8  30  1   
 20   8  31  1   
 21   9  13  1   
 22   9  32  1   
 23   9  33  1   
 24  10  13  1   
 25  10  34  1   
 26  10  35  1   
 27  11  14  1   
 28  11  36  1   
 29  11  37  1   
 30  12  15  1   
 31  12  38  1   
 32  12  39  1   
 33  13  16  1   
 34  13  17  1   
 35  14  15  1   
 36  14  40  1   
 37  14  41  1   
 38  15  42  1   
 39  15  43  1   
 40  16  18  1   
 41  17  19  1   
 42  17  44  1   
 43  17  45  1   
 44  18  20  1   
 45  18  46  1   
 46  18  47  1   
 47  19  20  1   
 48  19  21  1   
 49  19  22  1   
 50  20  48  1   
 51  20  49  1   
 52  21  50  1   
 53  22  51  1   
 54  22  52  1   
 55  22  53  1   
@<TRIPOS>SUBSTRUCTURE
  1 ****   5 GROUP 4 **** **** 0

# MOE 2024.06 (io_trps.svl 2023.06)
