@<TRIPOS>MOLECULE
NONAME
47 49 1 0 0 
SMALL
USER_CHARGES


@<TRIPOS>ATOM
  1 O       -0.8260     0.1810     1.9370 O.2   1 <1>  -0.5700 
  2 C       -1.2900     0.6510     0.9270 C.2   1 <1>   0.5690 
  3 N       -1.8710    -0.1210    -0.0280 N.am  1 <1>  -0.7300 
  4 C       -1.2240     2.1630     0.7220 C.3   1 <1>  -0.0190 
  5 C       -2.0040    -1.5970     0.0300 C.3   1 <1>   0.1400 
  6 C       -2.6170     2.7810     0.4910 C.3   1 <1>  -0.1600 
  7 C       -0.2420     2.5490    -0.4110 C.3   1 <1>  -0.1600 
  8 C       -3.4800    -1.9940     0.0770 C.3   1 <1>   0.0210 
  9 C       -2.5620     4.3190     0.4630 C.3   1 <1>   0.2000 
 10 C       -0.5360     3.9220    -1.0470 C.3   1 <1>  -0.1600 
 11 C       -3.6740    -3.5010     0.0380 C.2   1 <1>  -0.1810 
 12 O       -3.6080     4.7400    -0.3770 O.3   1 <1>  -0.5600 
 13 C       -1.2050     4.8740    -0.0510 C.3   1 <1>   0.2000 
 14 C       -4.9440    -4.1140    -0.0670 C.ar  1 <1>   0.0000 
 15 C       -2.7490    -4.4910     0.0930 C.2   1 <1>  -0.3020 
 16 C       -4.4910     5.6510     0.2000 C.3   1 <1>   0.0400 
 17 O       -1.4090     6.0800    -0.6920 O.3   1 <1>  -0.6800 
 18 C       -4.7210    -5.4870    -0.0740 C.ar  1 <1>  -0.1520 
 19 C       -6.2540    -3.6300    -0.1550 C.ar  1 <1>  -0.1500 
 20 N       -3.3720    -5.7040     0.0250 N.pl3 1 <1>   0.0330 
 21 C       -5.7840    -6.3890    -0.1710 C.ar  1 <1>  -0.1500 
 22 C       -7.3010    -4.5180    -0.2500 C.ar  1 <1>  -0.1500 
 23 C       -7.0660    -5.8980    -0.2590 C.ar  1 <1>  -0.1500 
 24 H       -2.2420     0.3270    -0.8670 H     1 <1>   0.3700 
 25 H       -0.8430     2.5780     1.6400 H     1 <1>   0.0800 
 26 H       -1.5390    -2.0280    -0.8400 H     1 <1>   0.0800 
 27 H       -1.5030    -1.9790     0.9040 H     1 <1>   0.0800 
 28 H       -3.2860     2.4690     1.2740 H     1 <1>   0.0800 
 29 H       -3.0060     2.4230    -0.4460 H     1 <1>   0.0800 
 30 H        0.7550     2.5500    -0.0030 H     1 <1>   0.0800 
 31 H       -0.2600     1.8070    -1.1910 H     1 <1>   0.0800 
 32 H       -3.9200    -1.6120     0.9810 H     1 <1>   0.0800 
 33 H       -3.9900    -1.5640    -0.7660 H     1 <1>   0.0800 
 34 H       -2.7220     4.6940     1.4610 H     1 <1>   0.0800 
 35 H       -1.1980     3.7850    -1.8840 H     1 <1>   0.0800 
 36 H        0.3810     4.3550    -1.4090 H     1 <1>   0.0800 
 37 H       -0.5370     5.0480     0.7750 H     1 <1>   0.0800 
 38 H       -1.6790    -4.4160     0.1790 H     1 <1>   0.1500 
 39 H       -5.2260     5.9210    -0.5380 H     1 <1>   0.0800 
 40 H       -3.9480     6.5280     0.5090 H     1 <1>   0.0800 
 41 H       -4.9760     5.1890     1.0430 H     1 <1>   0.0800 
 42 H       -2.2760     6.0020    -1.1480 H     1 <1>   0.4000 
 43 H       -6.4240    -2.5700    -0.1460 H     1 <1>   0.1500 
 44 H       -2.9230    -6.6250     0.0500 H     1 <1>   0.2700 
 45 H       -5.5940    -7.4470    -0.1770 H     1 <1>   0.1500 
 46 H       -8.3130    -4.1600    -0.3190 H     1 <1>   0.1500 
 47 H       -7.9020    -6.5710    -0.3350 H     1 <1>   0.1500 
@<TRIPOS>BOND
  1   1   2  2   
  2   2   3  am  
  3   2   4  1   
  4   3   5  1   
  5   3  24  1   
  6   4   6  1   
  7   4   7  1   
  8   4  25  1   
  9   5   8  1   
 10   5  26  1   
 11   5  27  1   
 12   6   9  1   
 13   6  28  1   
 14   6  29  1   
 15   7  10  1   
 16   7  30  1   
 17   7  31  1   
 18   8  11  1   
 19   8  32  1   
 20   8  33  1   
 21   9  12  1   
 22   9  13  1   
 23   9  34  1   
 24  10  13  1   
 25  10  35  1   
 26  10  36  1   
 27  11  14  1   
 28  11  15  2   
 29  12  16  1   
 30  13  17  1   
 31  13  37  1   
 32  14  18  ar  
 33  14  19  ar  
 34  15  20  1   
 35  15  38  1   
 36  16  39  1   
 37  16  40  1   
 38  16  41  1   
 39  17  42  1   
 40  18  20  1   
 41  18  21  ar  
 42  19  22  ar  
 43  19  43  1   
 44  20  44  1   
 45  21  23  ar  
 46  21  45  1   
 47  22  23  ar  
 48  22  46  1   
 49  23  47  1   
@<TRIPOS>SUBSTRUCTURE
  1 ****   3 GROUP 4 **** **** 0

# MOE 2024.06 (io_trps.svl 2023.06)
