@<TRIPOS>MOLECULE
NONAME
43 46 1 0 0 
SMALL
USER_CHARGES


@<TRIPOS>ATOM
  1 O        2.6900     3.6280    -0.4490 O.3   1 <1>  -0.0190 
  2 N        3.5230     2.6630    -0.2070 N.2   1 <1>  -0.4100 
  3 C        1.5330     3.1820    -0.8610 C.2   1 <1>  -0.0400 
  4 C        2.9010     1.5740    -0.4900 C.2   1 <1>   0.1080 
  5 C        1.6040     1.8450    -0.9220 C.2   1 <1>  -0.1500 
  6 C        0.4270     4.1700    -1.1730 C.3   1 <1>   0.0200 
  7 C        3.5050     0.1920    -0.3680 C.3   1 <1>  -0.0590 
  8 C       -0.2810     4.6900     0.1000 C.3   1 <1>  -0.0800 
  9 C       -0.9800     6.0210    -0.1900 C.3   1 <1>   0.2000 
 10 C        0.6860     5.0640     1.2270 C.3   1 <1>   0.3430 
 11 O       -2.0420     6.1750     0.6920 O.3   1 <1>  -0.6800 
 12 C        0.0820     7.0970     0.0920 C.3   1 <1>   0.3430 
 13 N        1.1710     6.4110     0.8540 N.4   1 <1>  -0.9590 
 14 C        1.7900     7.2180     1.9240 C.3   1 <1>   0.5240 
 15 C        2.7190     8.2060     1.2550 C.2   1 <1>  -0.1810 
 16 C        3.4200     8.0420     0.0990 C.2   1 <1>  -0.0260 
 17 C        3.0630     9.4690     1.7090 C.2   1 <1>   0.1390 
 18 N        3.4640     6.9780    -0.7820 N.2   1 <1>  -0.5760 
 19 N        4.1520     9.1980    -0.0660 N.pl3 1 <1>   0.6010 
 20 N        3.9110    10.0750     0.9270 N.2   1 <1>  -0.7070 
 21 C        4.2850     7.0980    -1.7790 C.2   1 <1>   0.3760 
 22 C        5.0100     9.3050    -1.1390 C.2   1 <1>  -0.1810 
 23 C        5.0860     8.2550    -2.0000 C.2   1 <1>  -0.1360 
 24 H        0.8690     1.1200    -1.2210 H     1 <1>   0.1500 
 25 H        0.8620     4.9790    -1.7340 H     1 <1>   0.0800 
 26 H       -0.2990     3.6930    -1.8090 H     1 <1>   0.0800 
 27 H        3.5110    -0.2900    -1.3290 H     1 <1>   0.0800 
 28 H        2.9310    -0.3990     0.3210 H     1 <1>   0.0800 
 29 H        4.5160     0.2620    -0.0090 H     1 <1>   0.0800 
 30 H       -0.9740     3.9370     0.4340 H     1 <1>   0.0800 
 31 H       -1.3750     6.0940    -1.1900 H     1 <1>   0.0800 
 32 H        1.4950     4.3600     1.3350 H     1 <1>   0.0800 
 33 H        0.1450     5.1170     2.1580 H     1 <1>   0.0800 
 34 H       -1.8290     5.9220     1.6100 H     1 <1>   0.4000 
 35 H       -0.3530     7.9070     0.6540 H     1 <1>   0.0800 
 36 H        0.4810     7.4810    -0.8330 H     1 <1>   0.0800 
 37 H        1.9610     6.2810     0.1840 H     1 <1>   0.4500 
 38 H        1.0370     7.7280     2.5010 H     1 <1>   0.0800 
 39 H        2.3680     6.5840     2.5770 H     1 <1>   0.0800 
 40 H        2.6900     9.9300     2.6110 H     1 <1>   0.1500 
 41 H        4.3730     6.2920    -2.4860 H     1 <1>   0.0600 
 42 H        5.5680    10.2190    -1.2170 H     1 <1>   0.1500 
 43 H        5.7370     8.2620    -2.8560 H     1 <1>   0.1500 
@<TRIPOS>BOND
  1   1   2  1   
  2   1   3  1   
  3   2   4  2   
  4   3   5  2   
  5   3   6  1   
  6   4   5  1   
  7   4   7  1   
  8   5  24  1   
  9   6   8  1   
 10   6  25  1   
 11   6  26  1   
 12   7  27  1   
 13   7  28  1   
 14   7  29  1   
 15   8   9  1   
 16   8  10  1   
 17   8  30  1   
 18   9  11  1   
 19   9  12  1   
 20   9  31  1   
 21  10  13  1   
 22  10  32  1   
 23  10  33  1   
 24  11  34  1   
 25  12  13  1   
 26  12  35  1   
 27  12  36  1   
 28  13  14  1   
 29  13  37  1   
 30  14  15  1   
 31  14  38  1   
 32  14  39  1   
 33  15  16  2   
 34  15  17  1   
 35  16  18  1   
 36  16  19  1   
 37  17  20  2   
 38  17  40  1   
 39  18  21  2   
 40  19  20  1   
 41  19  22  1   
 42  21  23  1   
 43  21  41  1   
 44  22  23  2   
 45  22  42  1   
 46  23  43  1   
@<TRIPOS>SUBSTRUCTURE
  1 ****  13 GROUP 4 **** **** 0

# MOE 2024.06 (io_trps.svl 2023.06)
