@<TRIPOS>MOLECULE
NONAME
43 44 1 0 0 
SMALL
USER_CHARGES


@<TRIPOS>ATOM
  1 S        1.0450     0.1250    -1.8660 S.o2  1 <1>   1.3330 
  2 O        1.4570    -1.2240    -2.1800 O.2   1 <1>  -0.6500 
  3 O        0.4530     0.9510    -2.8940 O.2   1 <1>  -0.6500 
  4 N       -0.0680     0.0440    -0.5840 N.am  1 <1>  -0.8490 
  5 C        2.4540     0.9830    -1.1590 C.3   1 <1>  -0.0550 
  6 C       -0.9850    -1.0920    -0.7210 C.3   1 <1>   0.1160 
  7 C       -0.8370     1.2800    -0.4040 C.3   1 <1>   0.1160 
  8 C        3.2100     0.1770    -0.0790 C.3   1 <1>  -0.0800 
  9 C        4.5160     0.8010     0.3880 C.3   1 <1>   0.2200 
 10 C        2.4450    -0.0330     1.2340 C.3   1 <1>   0.1200 
 11 N        4.3610     2.2610     0.5890 N.am  1 <1>  -0.7300 
 12 C        4.6700     0.1360     1.7480 C.3   1 <1>   0.1200 
 13 O        3.3780     0.0900     2.2690 O.3   1 <1>  -0.5600 
 14 C        4.8150     3.2410    -0.2410 C.2   1 <1>   0.7150 
 15 O        5.3280     2.9000    -1.2890 O.2   1 <1>  -0.5700 
 16 C        4.6600     4.6280     0.1160 C.2   1 <1>  -0.0450 
 17 S        3.8540     5.0200     1.6240 S.3   1 <1>  -0.0800 
 18 C        5.0030     5.8080    -0.4600 C.2   1 <1>   0.0460 
 19 C        4.0730     6.7170     1.3030 C.2   1 <1>   0.1980 
 20 N        4.6690     6.9660     0.2100 N.2   1 <1>  -0.5650 
 21 C        5.7220     6.0170    -1.7790 C.3   1 <1>  -0.0590 
 22 C        3.5480     7.6990     2.3240 C.3   1 <1>  -0.0600 
 23 H        3.1440     1.1990    -1.9520 H     1 <1>   0.0800 
 24 H        2.1310     1.9210    -0.7540 H     1 <1>   0.0800 
 25 H       -1.6680    -1.1240     0.1090 H     1 <1>   0.0800 
 26 H       -0.4290    -2.0160    -0.7340 H     1 <1>   0.0800 
 27 H       -1.5430    -1.0130    -1.6390 H     1 <1>   0.0800 
 28 H       -1.4590     1.2050     0.4720 H     1 <1>   0.0800 
 29 H       -1.4630     1.4640    -1.2630 H     1 <1>   0.0800 
 30 H       -0.1730     2.1180    -0.2770 H     1 <1>   0.0800 
 31 H        3.4380    -0.7960    -0.4810 H     1 <1>   0.0800 
 32 H        5.3430     0.5880    -0.2700 H     1 <1>   0.0800 
 33 H        1.9940    -1.0100     1.2810 H     1 <1>   0.0800 
 34 H        1.6920     0.7210     1.3860 H     1 <1>   0.0800 
 35 H        3.9120     2.5210     1.4710 H     1 <1>   0.3700 
 36 H        5.3140     0.6830     2.4140 H     1 <1>   0.0800 
 37 H        5.0210    -0.8760     1.6430 H     1 <1>   0.0800 
 38 H        5.9810     5.0880    -2.2480 H     1 <1>   0.0800 
 39 H        6.6230     6.5780    -1.6100 H     1 <1>   0.0800 
 40 H        5.0910     6.5750    -2.4460 H     1 <1>   0.0800 
 41 H        3.7510     8.7030     1.9970 H     1 <1>   0.0800 
 42 H        4.0310     7.5350     3.2690 H     1 <1>   0.0800 
 43 H        2.4880     7.5760     2.4380 H     1 <1>   0.0800 
@<TRIPOS>BOND
  1   1   2  2   
  2   1   3  2   
  3   1   4  am  
  4   1   5  1   
  5   4   6  1   
  6   4   7  1   
  7   5   8  1   
  8   5  23  1   
  9   5  24  1   
 10   6  25  1   
 11   6  26  1   
 12   6  27  1   
 13   7  28  1   
 14   7  29  1   
 15   7  30  1   
 16   8   9  1   
 17   8  10  1   
 18   8  31  1   
 19   9  11  1   
 20   9  12  1   
 21   9  32  1   
 22  10  13  1   
 23  10  33  1   
 24  10  34  1   
 25  11  14  am  
 26  11  35  1   
 27  12  13  1   
 28  12  36  1   
 29  12  37  1   
 30  14  15  2   
 31  14  16  1   
 32  16  17  1   
 33  16  18  2   
 34  17  19  1   
 35  18  20  1   
 36  18  21  1   
 37  19  20  2   
 38  19  22  1   
 39  21  38  1   
 40  21  39  1   
 41  21  40  1   
 42  22  41  1   
 43  22  42  1   
 44  22  43  1   
@<TRIPOS>SUBSTRUCTURE
  1 ****  11 GROUP 4 **** **** 0

# MOE 2024.06 (io_trps.svl 2023.06)
