@<TRIPOS>MOLECULE
NONAME
51 53 1 0 0 
SMALL
USER_CHARGES


@<TRIPOS>ATOM
  1 F        1.6850    -0.2060     1.4530 F     1 <1>  -0.1900 
  2 C        2.2670    -1.2050     0.8440 C.ar  1 <1>   0.1900 
  3 C        3.2160    -0.9760    -0.1380 C.ar  1 <1>   0.1900 
  4 C        1.9110    -2.4930     1.1990 C.ar  1 <1>  -0.1500 
  5 F        3.5440     0.2450    -0.4710 F     1 <1>  -0.1900 
  6 C        3.8300    -2.0320    -0.7840 C.ar  1 <1>  -0.1500 
  7 C        2.5160    -3.5640     0.5490 C.ar  1 <1>  -0.1440 
  8 C        3.4760    -3.3280    -0.4340 C.ar  1 <1>  -0.1500 
  9 C        2.1410    -4.9900     0.9020 C.3   1 <1>   0.4870 
 10 N        1.1760    -5.4680    -0.1210 N.4   1 <1>  -0.9590 
 11 C        1.1650    -6.9650    -0.1870 C.3   1 <1>   0.5660 
 12 C       -0.1990    -4.9070     0.0890 C.3   1 <1>   0.3430 
 13 C        2.5290    -7.3980    -0.7070 C.ar  1 <1>  -0.1430 
 14 C        0.0140    -7.5460    -1.0530 C.3   1 <1>   0.2000 
 15 C       -1.2150    -5.5240    -0.8880 C.3   1 <1>   0.1200 
 16 C        3.3500    -8.1560     0.1150 C.ar  1 <1>  -0.1500 
 17 C        2.9800    -7.0410    -1.9740 C.ar  1 <1>  -0.1500 
 18 O       -1.2100    -6.9140    -0.7640 O.3   1 <1>  -0.5600 
 19 C       -0.1420    -9.0530    -0.7920 C.3   1 <1>   0.1200 
 20 C        4.6120    -8.5410    -0.3030 C.ar  1 <1>   0.0830 
 21 C        4.2440    -7.4160    -2.3950 C.ar  1 <1>  -0.1500 
 22 O       -0.1330    -9.3040     0.5780 O.3   1 <1>  -0.6800 
 23 O        5.3390    -9.2930     0.5550 O.3   1 <1>  -0.3630 
 24 C        5.0750    -8.1460    -1.5630 C.ar  1 <1>   0.0830 
 25 C        5.6390   -10.6110     0.1450 C.3   1 <1>   0.0400 
 26 O        6.3120    -8.4420    -2.0290 O.3   1 <1>  -0.3630 
 27 C        7.4130    -7.9110    -1.3230 C.3   1 <1>   0.0400 
 28 H        1.1770    -2.6330     1.9740 H     1 <1>   0.1500 
 29 H        4.5720    -1.8380    -1.5400 H     1 <1>   0.1500 
 30 H        3.9660    -4.1490    -0.9340 H     1 <1>   0.1500 
 31 H        1.7070    -5.0390     1.8880 H     1 <1>   0.0800 
 32 H        3.0350    -5.5940     0.8920 H     1 <1>   0.0800 
 33 H        1.5320    -5.1410    -1.0230 H     1 <1>   0.4500 
 34 H        1.0390    -7.3530     0.8110 H     1 <1>   0.0800 
 35 H       -0.5310    -5.1160     1.0940 H     1 <1>   0.0800 
 36 H       -0.1850    -3.8370    -0.0410 H     1 <1>   0.0800 
 37 H        0.2120    -7.3960    -2.0990 H     1 <1>   0.0800 
 38 H       -0.9930    -5.2600    -1.9080 H     1 <1>   0.0800 
 39 H       -2.2080    -5.1800    -0.6530 H     1 <1>   0.0800 
 40 H        3.0250    -8.4700     1.0940 H     1 <1>   0.1500 
 41 H        2.3680    -6.4730    -2.6530 H     1 <1>   0.1500 
 42 H        0.6730    -9.6020    -1.2320 H     1 <1>   0.0800 
 43 H       -1.0710    -9.4080    -1.2060 H     1 <1>   0.0800 
 44 H        4.6020    -7.1430    -3.3730 H     1 <1>   0.1500 
 45 H       -0.4680   -10.2080     0.7660 H     1 <1>   0.4000 
 46 H        6.1370   -11.1110     0.9560 H     1 <1>   0.0800 
 47 H        6.2820   -10.5820    -0.7160 H     1 <1>   0.0800 
 48 H        4.7210   -11.1190    -0.0930 H     1 <1>   0.0800 
 49 H        8.3060    -8.1310    -1.8810 H     1 <1>   0.0800 
 50 H        7.4710    -8.3670    -0.3510 H     1 <1>   0.0800 
 51 H        7.2890    -6.8470    -1.2320 H     1 <1>   0.0800 
@<TRIPOS>BOND
  1   1   2  1   
  2   2   3  ar  
  3   2   4  ar  
  4   3   5  1   
  5   3   6  ar  
  6   4   7  ar  
  7   4  28  1   
  8   6   8  ar  
  9   6  29  1   
 10   7   8  ar  
 11   7   9  1   
 12   8  30  1   
 13   9  10  1   
 14   9  31  1   
 15   9  32  1   
 16  10  11  1   
 17  10  12  1   
 18  10  33  1   
 19  11  13  1   
 20  11  14  1   
 21  11  34  1   
 22  12  15  1   
 23  12  35  1   
 24  12  36  1   
 25  13  16  ar  
 26  13  17  ar  
 27  14  18  1   
 28  14  19  1   
 29  14  37  1   
 30  15  18  1   
 31  15  38  1   
 32  15  39  1   
 33  16  20  ar  
 34  16  40  1   
 35  17  21  ar  
 36  17  41  1   
 37  19  22  1   
 38  19  42  1   
 39  19  43  1   
 40  20  23  1   
 41  20  24  ar  
 42  21  24  ar  
 43  21  44  1   
 44  22  45  1   
 45  23  25  1   
 46  24  26  1   
 47  25  46  1   
 48  25  47  1   
 49  25  48  1   
 50  26  27  1   
 51  27  49  1   
 52  27  50  1   
 53  27  51  1   
@<TRIPOS>SUBSTRUCTURE
  1 ****  10 GROUP 4 **** **** 0

# MOE 2024.06 (io_trps.svl 2023.06)
