@<TRIPOS>MOLECULE
NONAME
49 51 1 0 0 
SMALL
USER_CHARGES


@<TRIPOS>ATOM
  1 O       -2.0690     0.5770    -2.0150 O.2   1 <1>  -0.5700 
  2 C       -1.9630     0.8220    -0.8280 C.2   1 <1>   0.5440 
  3 N       -2.0910    -0.2140     0.0520 N.am  1 <1>  -0.7300 
  4 C       -1.7050     2.1750    -0.3630 C.ar  1 <1>   0.0860 
  5 C       -2.3570    -1.6220    -0.3210 C.3   1 <1>   0.2200 
  6 C       -2.0150     2.5890     0.9350 C.ar  1 <1>  -0.1500 
  7 C       -1.1300     3.1240    -1.2110 C.ar  1 <1>  -0.1500 
  8 C       -3.8260    -1.9270    -0.0910 C.3   1 <1>  -0.0800 
  9 C       -1.6860    -2.5520     0.6820 C.3   1 <1>   0.1200 
 10 C       -1.7530     3.8760     1.3640 C.ar  1 <1>  -0.1500 
 11 C       -0.8650     4.4150    -0.7910 C.ar  1 <1>  -0.1500 
 12 C       -3.8560    -2.2700     1.4030 C.3   1 <1>   0.1200 
 13 C       -4.3060    -3.0960    -0.9710 C.3   1 <1>  -0.0160 
 14 O       -2.5560    -2.6350     1.7710 O.3   1 <1>  -0.5600 
 15 C       -1.1750     4.8000     0.5100 C.ar  1 <1>   0.0830 
 16 C       -5.7860    -3.3760    -0.7640 C.ar  1 <1>  -0.1430 
 17 O       -0.9490     6.0370     1.0050 O.3   1 <1>  -0.3630 
 18 C       -6.7590    -2.5490    -1.2880 C.ar  1 <1>  -0.1500 
 19 C       -6.2360    -4.4660    -0.0470 C.ar  1 <1>  -0.1500 
 20 C       -0.3770     7.0580     0.2200 C.3   1 <1>   0.1200 
 21 C       -8.0950    -2.8390    -1.0710 C.ar  1 <1>   0.1600 
 22 C       -7.5970    -4.6660     0.1130 C.ar  1 <1>   0.1600 
 23 C       -0.2670     8.3180     1.0790 C.3   1 <1>  -0.1600 
 24 N       -8.5380    -3.8780    -0.3800 N.ar  1 <1>  -0.6200 
 25 C        0.3500     9.4790     0.2920 C.3   1 <1>  -0.2400 
 26 H       -1.9800    -0.0600     1.0550 H     1 <1>   0.3700 
 27 H       -2.0340    -1.8100    -1.3320 H     1 <1>   0.0800 
 28 H       -2.4750     1.9010     1.6210 H     1 <1>   0.1500 
 29 H       -0.8870     2.8360    -2.2200 H     1 <1>   0.1500 
 30 H       -4.4370    -1.0660    -0.3010 H     1 <1>   0.0800 
 31 H       -0.7270    -2.1890     1.0100 H     1 <1>   0.0800 
 32 H       -1.5790    -3.5400     0.2730 H     1 <1>   0.0800 
 33 H       -1.9960     4.1800     2.3670 H     1 <1>   0.1500 
 34 H       -0.4200     5.1020    -1.4850 H     1 <1>   0.1500 
 35 H       -4.5250    -3.0790     1.6380 H     1 <1>   0.0800 
 36 H       -4.1260    -1.4060     1.9850 H     1 <1>   0.0800 
 37 H       -3.7360    -3.9840    -0.7570 H     1 <1>   0.0800 
 38 H       -4.1450    -2.8500    -2.0070 H     1 <1>   0.0800 
 39 H       -6.4900    -1.6810    -1.8640 H     1 <1>   0.1500 
 40 H       -5.5430    -5.1610     0.3910 H     1 <1>   0.1500 
 41 H        0.5970     6.7320    -0.1030 H     1 <1>   0.0800 
 42 H       -1.0150     7.2310    -0.6290 H     1 <1>   0.0800 
 43 H       -8.8390    -2.1820    -1.4870 H     1 <1>   0.1500 
 44 H       -7.9290    -5.5210     0.6770 H     1 <1>   0.1500 
 45 H       -1.2490     8.6010     1.4170 H     1 <1>   0.0800 
 46 H        0.3450     8.1070     1.9390 H     1 <1>   0.0800 
 47 H       -0.2560     9.7190    -0.5650 H     1 <1>   0.0800 
 48 H        1.3400     9.2240    -0.0420 H     1 <1>   0.0800 
 49 H        0.4150    10.3520     0.9170 H     1 <1>   0.0800 
@<TRIPOS>BOND
  1   1   2  2   
  2   2   3  am  
  3   2   4  1   
  4   3   5  1   
  5   3  26  1   
  6   4   6  ar  
  7   4   7  ar  
  8   5   8  1   
  9   5   9  1   
 10   5  27  1   
 11   6  10  ar  
 12   6  28  1   
 13   7  11  ar  
 14   7  29  1   
 15   8  12  1   
 16   8  13  1   
 17   8  30  1   
 18   9  14  1   
 19   9  31  1   
 20   9  32  1   
 21  10  15  ar  
 22  10  33  1   
 23  11  15  ar  
 24  11  34  1   
 25  12  14  1   
 26  12  35  1   
 27  12  36  1   
 28  13  16  1   
 29  13  37  1   
 30  13  38  1   
 31  15  17  1   
 32  16  18  ar  
 33  16  19  ar  
 34  17  20  1   
 35  18  21  ar  
 36  18  39  1   
 37  19  22  ar  
 38  19  40  1   
 39  20  23  1   
 40  20  41  1   
 41  20  42  1   
 42  21  24  ar  
 43  21  43  1   
 44  22  24  ar  
 45  22  44  1   
 46  23  25  1   
 47  23  45  1   
 48  23  46  1   
 49  25  47  1   
 50  25  48  1   
 51  25  49  1   
@<TRIPOS>SUBSTRUCTURE
  1 ****   3 GROUP 4 **** **** 0

# MOE 2024.06 (io_trps.svl 2023.06)
