@<TRIPOS>MOLECULE
NONAME
50 51 1 0 0 
SMALL
USER_CHARGES


@<TRIPOS>ATOM
  1 O        0.2090    -0.2470     1.7490 O.2   1 <1>  -0.5700 
  2 C        1.1440    -0.6630     1.1060 C.2   1 <1>   0.5690 
  3 N        2.1510     0.1230     0.6330 N.am  1 <1>  -0.4930 
  4 C        1.1900    -2.1510     0.7890 C.3   1 <1>  -0.0990 
  5 C        2.3010     1.5310     0.7330 C.2   1 <1>   0.0630 
  6 C       -0.2070    -2.7620     0.5370 C.3   1 <1>  -0.0800 
  7 C        3.3400     2.3050     0.2090 C.2   1 <1>   0.1080 
  8 C        1.4930     2.4260     1.3370 C.2   1 <1>  -0.3020 
  9 C       -0.1190    -4.2740     0.2810 C.3   1 <1>  -0.1600 
 10 C       -0.9090    -2.1100    -0.6660 C.3   1 <1>  -0.1600 
 11 N        3.1910     3.5670     0.4640 N.2   1 <1>  -0.7070 
 12 C        4.5250     1.7810    -0.5710 C.3   1 <1>  -0.0590 
 13 N        2.0470     3.6420     1.1640 N.pl3 1 <1>   0.3140 
 14 C       -1.4880    -4.9290     0.0190 C.3   1 <1>   0.5030 
 15 C       -2.3040    -2.6920    -0.9460 C.3   1 <1>   0.5030 
 16 C        1.5170     4.9180     1.6550 C.3   1 <1>   0.0160 
 17 N       -2.2720    -4.1640    -0.9650 N.4   1 <1>  -0.9060 
 18 C       -1.2810    -6.3070    -0.6060 C.3   1 <1>  -0.2400 
 19 C       -2.2960    -5.1100     1.3070 C.3   1 <1>  -0.2400 
 20 C       -2.7580    -2.2760    -2.3440 C.3   1 <1>  -0.2400 
 21 C       -3.3480    -2.1990     0.0590 C.3   1 <1>  -0.2400 
 22 H        2.9140    -0.3420     0.1490 H     1 <1>   0.3700 
 23 H        1.6460    -2.6430     1.6300 H     1 <1>   0.0800 
 24 H        1.8170    -2.3140    -0.0690 H     1 <1>   0.0800 
 25 H       -0.7910    -2.5930     1.4260 H     1 <1>   0.0800 
 26 H        0.5750     2.2630     1.8700 H     1 <1>   0.1500 
 27 H        0.3430    -4.7540     1.1270 H     1 <1>   0.0800 
 28 H        0.5260    -4.4460    -0.5640 H     1 <1>   0.0800 
 29 H       -0.2900    -2.2260    -1.5380 H     1 <1>   0.0800 
 30 H       -1.0130    -1.0510    -0.5000 H     1 <1>   0.0800 
 31 H        4.1860     1.2550    -1.4440 H     1 <1>   0.0800 
 32 H        5.1080     1.1240     0.0470 H     1 <1>   0.0800 
 33 H        5.1450     2.6030    -0.8820 H     1 <1>   0.0800 
 34 H        0.6270     5.1620     1.1050 H     1 <1>   0.0800 
 35 H        2.2540     5.6850     1.5080 H     1 <1>   0.0800 
 36 H        1.2910     4.8280     2.7000 H     1 <1>   0.0800 
 37 H       -3.2360    -4.4960    -0.9260 H     1 <1>   0.4500 
 38 H       -1.9110    -4.4260    -1.8820 H     1 <1>   0.4500 
 39 H       -0.7390    -6.2410    -1.5330 H     1 <1>   0.0800 
 40 H       -2.2210    -6.8010    -0.7810 H     1 <1>   0.0800 
 41 H       -0.7070    -6.9290     0.0600 H     1 <1>   0.0800 
 42 H       -2.3700    -4.2050     1.8750 H     1 <1>   0.0800 
 43 H       -1.8060    -5.8270     1.9430 H     1 <1>   0.0800 
 44 H       -3.2840    -5.4810     1.1000 H     1 <1>   0.0800 
 45 H       -2.0730    -2.6190    -3.0990 H     1 <1>   0.0800 
 46 H       -2.7990    -1.2020    -2.4090 H     1 <1>   0.0800 
 47 H       -3.7430    -2.6520    -2.5620 H     1 <1>   0.0800 
 48 H       -3.0320    -2.3260     1.0740 H     1 <1>   0.0800 
 49 H       -4.2950    -2.6870    -0.0860 H     1 <1>   0.0800 
 50 H       -3.5030    -1.1420    -0.0750 H     1 <1>   0.0800 
@<TRIPOS>BOND
  1   1   2  2   
  2   2   3  am  
  3   2   4  1   
  4   3   5  1   
  5   3  22  1   
  6   4   6  1   
  7   4  23  1   
  8   4  24  1   
  9   5   7  1   
 10   5   8  2   
 11   6   9  1   
 12   6  10  1   
 13   6  25  1   
 14   7  11  2   
 15   7  12  1   
 16   8  13  1   
 17   8  26  1   
 18   9  14  1   
 19   9  27  1   
 20   9  28  1   
 21  10  15  1   
 22  10  29  1   
 23  10  30  1   
 24  11  13  1   
 25  12  31  1   
 26  12  32  1   
 27  12  33  1   
 28  13  16  1   
 29  14  17  1   
 30  14  18  1   
 31  14  19  1   
 32  15  17  1   
 33  15  20  1   
 34  15  21  1   
 35  16  34  1   
 36  16  35  1   
 37  16  36  1   
 38  17  37  1   
 39  17  38  1   
 40  18  39  1   
 41  18  40  1   
 42  18  41  1   
 43  19  42  1   
 44  19  43  1   
 45  19  44  1   
 46  20  45  1   
 47  20  46  1   
 48  20  47  1   
 49  21  48  1   
 50  21  49  1   
 51  21  50  1   
@<TRIPOS>SUBSTRUCTURE
  1 ****   2 GROUP 4 **** **** 0

# MOE 2024.06 (io_trps.svl 2023.06)
