@<TRIPOS>MOLECULE
NONAME
25 25 1 0 0 
SMALL
USER_CHARGES


@<TRIPOS>ATOM
  1 O       -3.9700     0.7560     1.4450 O.2   1 <1>  -0.5700 
  2 C       -4.0200     1.1110     0.2970 C.2   1 <1>   0.6590 
  3 O       -2.9460     1.4490    -0.3990 O.3   1 <1>  -0.4300 
  4 C       -5.3410     1.2000    -0.4300 C.3   1 <1>  -0.0190 
  5 C       -1.6490     1.4190     0.1660 C.3   1 <1>   0.0400 
  6 C       -5.7860     2.6660    -0.4550 C.3   1 <1>   0.1200 
  7 C       -6.3300     0.2490     0.2600 C.3   1 <1>   0.3430 
  8 O       -7.0130     2.7620    -1.1150 O.3   1 <1>  -0.5600 
  9 N       -7.7220     0.3810    -0.2650 N.4   1 <1>  -0.9060 
 10 C       -8.1460     2.8530    -0.2940 C.3   1 <1>   0.1200 
 11 C       -8.4670     1.5050     0.3820 C.3   1 <1>   0.3430 
 12 H       -5.1760     0.8690    -1.4390 H     1 <1>   0.0800 
 13 H       -0.9430     1.7340    -0.5810 H     1 <1>   0.0800 
 14 H       -1.4280     0.4140     0.4830 H     1 <1>   0.0800 
 15 H       -1.6180     2.0880     1.0090 H     1 <1>   0.0800 
 16 H       -5.0760     3.2530    -1.0150 H     1 <1>   0.0800 
 17 H       -5.8600     3.0820     0.5380 H     1 <1>   0.0800 
 18 H       -6.3250     0.4350     1.3220 H     1 <1>   0.0800 
 19 H       -5.9830    -0.7620     0.1110 H     1 <1>   0.0800 
 20 H       -8.2360    -0.5030    -0.1630 H     1 <1>   0.4500 
 21 H       -7.6650     0.6150    -1.2690 H     1 <1>   0.4500 
 22 H       -8.9700     3.1380    -0.9270 H     1 <1>   0.0800 
 23 H       -8.0060     3.6360     0.4320 H     1 <1>   0.0800 
 24 H       -8.2190     1.5590     1.4290 H     1 <1>   0.0800 
 25 H       -9.5290     1.3340     0.3110 H     1 <1>   0.0800 
@<TRIPOS>BOND
  1   1   2  2   
  2   2   3  1   
  3   2   4  1   
  4   3   5  1   
  5   4   6  1   
  6   4   7  1   
  7   4  12  1   
  8   5  13  1   
  9   5  14  1   
 10   5  15  1   
 11   6   8  1   
 12   6  16  1   
 13   6  17  1   
 14   7   9  1   
 15   7  18  1   
 16   7  19  1   
 17   8  10  1   
 18   9  11  1   
 19   9  20  1   
 20   9  21  1   
 21  10  11  1   
 22  10  22  1   
 23  10  23  1   
 24  11  24  1   
 25  11  25  1   
@<TRIPOS>SUBSTRUCTURE
  1 ****   4 GROUP 4 **** **** 0

# MOE 2024.06 (io_trps.svl 2023.06)
