@<TRIPOS>MOLECULE
NONAME
55 57 1 0 0 
SMALL
USER_CHARGES


@<TRIPOS>ATOM
  1 O        0.2250    -0.5800    -0.1470 O.2   1 <1>  -0.5700 
  2 C        1.3100    -0.8200     0.3270 C.2   1 <1>   0.5690 
  3 N        2.2870     0.1240     0.4820 N.am  1 <1>  -0.4940 
  4 C        1.6430    -2.2450     0.7750 C.3   1 <1>  -0.0190 
  5 C        2.3390     1.4980     0.1390 C.2   1 <1>  -0.0880 
  6 C        2.5130    -2.9650    -0.2730 C.3   1 <1>  -0.1600 
  7 C        0.3890    -3.0920     1.0800 C.3   1 <1>  -0.1600 
  8 N        1.3210     2.4070     0.1250 N.pl3 1 <1>   0.3140 
  9 C        3.4570     2.1770    -0.2140 C.2   1 <1>  -0.1810 
 10 C        2.8560    -4.3940     0.1610 C.3   1 <1>   0.1400 
 11 C        0.7560    -4.5170     1.5010 C.3   1 <1>   0.1400 
 12 N        1.7660     3.6350    -0.2190 N.2   1 <1>  -0.7070 
 13 C       -0.0870     2.2290     0.5010 C.3   1 <1>   0.0160 
 14 C        3.0340     3.4880    -0.4210 C.2   1 <1>   0.1080 
 15 C        4.8710     1.6430    -0.3670 C.3   1 <1>   0.0210 
 16 N        1.6010    -5.1440     0.4470 N.am  1 <1>  -0.6600 
 17 C        3.9110     4.6470    -0.8380 C.3   1 <1>  -0.0590 
 18 C        5.6310     1.7480     0.9570 C.3   1 <1>  -0.2400 
 19 C        1.2940    -6.2910    -0.2540 C.2   1 <1>   0.5690 
 20 O        2.0570    -6.7350    -1.0820 O.2   1 <1>  -0.5700 
 21 C       -0.0260    -7.0410    -0.0130 C.3   1 <1>  -0.0190 
 22 C       -0.0970    -8.4650    -0.5770 C.3   1 <1>  -0.1600 
 23 C       -1.2420    -6.3650    -0.6570 C.3   1 <1>  -0.1600 
 24 C       -1.5880    -8.7960    -0.6070 C.3   1 <1>  -0.1600 
 25 C       -2.3140    -7.4550    -0.7660 C.3   1 <1>  -0.1600 
 26 H        3.1800    -0.2380     0.8090 H     1 <1>   0.3700 
 27 H        2.2080    -2.1700     1.6870 H     1 <1>   0.0800 
 28 H        3.4260    -2.4210    -0.4350 H     1 <1>   0.0800 
 29 H        1.9880    -3.0080    -1.2120 H     1 <1>   0.0800 
 30 H       -0.2400    -3.1420     0.2070 H     1 <1>   0.0800 
 31 H       -0.1810    -2.6240     1.8630 H     1 <1>   0.0800 
 32 H        3.4640    -4.3780     1.0490 H     1 <1>   0.0800 
 33 H        3.4250    -4.8740    -0.6170 H     1 <1>   0.0800 
 34 H       -0.1440    -5.0760     1.6760 H     1 <1>   0.0800 
 35 H        1.3120    -4.4930     2.4230 H     1 <1>   0.0800 
 36 H       -0.1520     1.5520     1.3310 H     1 <1>   0.0800 
 37 H       -0.6240     1.8330    -0.3390 H     1 <1>   0.0800 
 38 H       -0.5010     3.1800     0.7770 H     1 <1>   0.0800 
 39 H        5.3860     2.1980    -1.1300 H     1 <1>   0.0800 
 40 H        4.8330     0.6160    -0.6840 H     1 <1>   0.0800 
 41 H        4.8170     4.6530    -0.2620 H     1 <1>   0.0800 
 42 H        3.3900     5.5730    -0.6740 H     1 <1>   0.0800 
 43 H        4.1490     4.5620    -1.8810 H     1 <1>   0.0800 
 44 H        5.6900     2.7760     1.2680 H     1 <1>   0.0800 
 45 H        6.6280     1.3630     0.8440 H     1 <1>   0.0800 
 46 H        5.1250     1.1890     1.7230 H     1 <1>   0.0800 
 47 H       -0.1880    -7.1230     1.0450 H     1 <1>   0.0800 
 48 H        0.4660    -9.1630     0.0190 H     1 <1>   0.0800 
 49 H        0.2840    -8.4790    -1.5840 H     1 <1>   0.0800 
 50 H       -0.9730    -6.0330    -1.6460 H     1 <1>   0.0800 
 51 H       -1.5890    -5.5190    -0.0910 H     1 <1>   0.0800 
 52 H       -1.8760    -9.2510     0.3250 H     1 <1>   0.0800 
 53 H       -1.8210    -9.4730    -1.4120 H     1 <1>   0.0800 
 54 H       -2.8110    -7.3950    -1.7190 H     1 <1>   0.0800 
 55 H       -3.0450    -7.3410     0.0160 H     1 <1>   0.0800 
@<TRIPOS>BOND
  1   1   2  2   
  2   2   3  am  
  3   2   4  1   
  4   3   5  1   
  5   3  26  1   
  6   4   6  1   
  7   4   7  1   
  8   4  27  1   
  9   5   8  1   
 10   5   9  2   
 11   6  10  1   
 12   6  28  1   
 13   6  29  1   
 14   7  11  1   
 15   7  30  1   
 16   7  31  1   
 17   8  12  1   
 18   8  13  1   
 19   9  14  1   
 20   9  15  1   
 21  10  16  1   
 22  10  32  1   
 23  10  33  1   
 24  11  16  1   
 25  11  34  1   
 26  11  35  1   
 27  12  14  2   
 28  13  36  1   
 29  13  37  1   
 30  13  38  1   
 31  14  17  1   
 32  15  18  1   
 33  15  39  1   
 34  15  40  1   
 35  16  19  am  
 36  17  41  1   
 37  17  42  1   
 38  17  43  1   
 39  18  44  1   
 40  18  45  1   
 41  18  46  1   
 42  19  20  2   
 43  19  21  1   
 44  21  22  1   
 45  21  23  1   
 46  21  47  1   
 47  22  24  1   
 48  22  48  1   
 49  22  49  1   
 50  23  25  1   
 51  23  50  1   
 52  23  51  1   
 53  24  25  1   
 54  24  52  1   
 55  24  53  1   
 56  25  54  1   
 57  25  55  1   
@<TRIPOS>SUBSTRUCTURE
  1 ****   4 GROUP 4 **** **** 0

# MOE 2024.06 (io_trps.svl 2023.06)
