@<TRIPOS>MOLECULE
NONAME
51 54 1 0 0 
SMALL
USER_CHARGES


@<TRIPOS>ATOM
  1 F       -4.2500     1.0040    -1.4750 F     1 <1>  -0.1900 
  2 C       -3.4200     0.9500    -0.4660 C.ar  1 <1>   0.1900 
  3 C       -2.9450    -0.2810    -0.0340 C.ar  1 <1>  -0.1440 
  4 C       -3.0540     2.1420     0.1330 C.ar  1 <1>  -0.1500 
  5 C       -2.0690    -0.2930     1.0420 C.ar  1 <1>  -0.1500 
  6 C       -3.3610    -1.5850    -0.7010 C.3   1 <1>  -0.0160 
  7 C       -2.1800     2.1080     1.2050 C.ar  1 <1>  -0.1500 
  8 C       -1.6910     0.8920     1.6560 C.ar  1 <1>  -0.1500 
  9 C       -4.7140    -2.0610    -0.1590 C.3   1 <1>  -0.0990 
 10 C       -5.0750    -3.4180    -0.7180 C.2   1 <1>   0.5690 
 11 O       -5.5770    -3.4950    -1.8120 O.2   1 <1>  -0.5700 
 12 N       -4.8240    -4.5180     0.0310 N.am  1 <1>  -0.7300 
 13 C       -5.1460    -5.8990    -0.3890 C.3   1 <1>   0.2200 
 14 C       -6.5070    -6.2790     0.1640 C.3   1 <1>  -0.0800 
 15 C       -4.2320    -6.8850     0.3280 C.3   1 <1>   0.1200 
 16 C       -6.1660    -6.7730     1.5750 C.3   1 <1>   0.1200 
 17 C       -7.1790    -7.3690    -0.6940 C.3   1 <1>  -0.0170 
 18 O       -4.8030    -7.0910     1.5850 O.3   1 <1>  -0.5600 
 19 C       -8.5940    -7.6690    -0.2100 C.ar  1 <1>  -0.1430 
 20 C       -9.6800    -6.7980    -0.4640 C.ar  1 <1>   0.0000 
 21 C       -8.8510    -8.8090     0.4940 C.ar  1 <1>  -0.1500 
 22 C      -10.9490    -7.1640     0.0480 C.ar  1 <1>   0.3100 
 23 C       -9.5850    -5.5910    -1.1960 C.ar  1 <1>  -0.1500 
 24 C      -10.1470    -9.0790     0.9500 C.ar  1 <1>   0.1600 
 25 N      -11.1650    -8.3040     0.7510 N.ar  1 <1>  -0.6200 
 26 C      -12.0440    -6.3150    -0.1790 C.ar  1 <1>  -0.1500 
 27 C      -10.6730    -4.7870    -1.4010 C.ar  1 <1>  -0.1500 
 28 C      -11.9200    -5.1500    -0.8850 C.ar  1 <1>  -0.1500 
 29 H       -3.4480     3.0710    -0.2360 H     1 <1>   0.1500 
 30 H       -1.6750    -1.2240     1.4110 H     1 <1>   0.1500 
 31 H       -3.4290    -1.4490    -1.7680 H     1 <1>   0.0800 
 32 H       -2.6150    -2.3380    -0.5200 H     1 <1>   0.0800 
 33 H       -1.8810     3.0230     1.6870 H     1 <1>   0.1500 
 34 H       -1.0100     0.8680     2.4900 H     1 <1>   0.1500 
 35 H       -5.4800    -1.3590    -0.4370 H     1 <1>   0.0800 
 36 H       -4.6810    -2.1100     0.9130 H     1 <1>   0.0800 
 37 H       -4.4740    -4.4360     0.9880 H     1 <1>   0.3700 
 38 H       -5.0810    -5.9840    -1.4610 H     1 <1>   0.0800 
 39 H       -7.1560    -5.4220     0.2130 H     1 <1>   0.0800 
 40 H       -3.2280    -6.5170     0.4400 H     1 <1>   0.0800 
 41 H       -4.2190    -7.8320    -0.1830 H     1 <1>   0.0800 
 42 H       -6.7290    -7.6420     1.8650 H     1 <1>   0.0800 
 43 H       -6.3210    -5.9910     2.2990 H     1 <1>   0.0800 
 44 H       -6.5890    -8.2690    -0.6650 H     1 <1>   0.0800 
 45 H       -7.2190    -7.0560    -1.7220 H     1 <1>   0.0800 
 46 H       -8.0780    -9.5210     0.7190 H     1 <1>   0.1500 
 47 H       -8.6390    -5.2900    -1.6070 H     1 <1>   0.1500 
 48 H      -10.3050    -9.9900     1.5030 H     1 <1>   0.1500 
 49 H      -12.9930    -6.6160     0.2250 H     1 <1>   0.1500 
 50 H      -10.5840    -3.8700    -1.9580 H     1 <1>   0.1500 
 51 H      -12.7680    -4.5090    -1.0520 H     1 <1>   0.1500 
@<TRIPOS>BOND
  1   1   2  1   
  2   2   3  ar  
  3   2   4  ar  
  4   3   5  ar  
  5   3   6  1   
  6   4   7  ar  
  7   4  29  1   
  8   5   8  ar  
  9   5  30  1   
 10   6   9  1   
 11   6  31  1   
 12   6  32  1   
 13   7   8  ar  
 14   7  33  1   
 15   8  34  1   
 16   9  10  1   
 17   9  35  1   
 18   9  36  1   
 19  10  11  2   
 20  10  12  am  
 21  12  13  1   
 22  12  37  1   
 23  13  14  1   
 24  13  15  1   
 25  13  38  1   
 26  14  16  1   
 27  14  17  1   
 28  14  39  1   
 29  15  18  1   
 30  15  40  1   
 31  15  41  1   
 32  16  18  1   
 33  16  42  1   
 34  16  43  1   
 35  17  19  1   
 36  17  44  1   
 37  17  45  1   
 38  19  20  ar  
 39  19  21  ar  
 40  20  22  ar  
 41  20  23  ar  
 42  21  24  ar  
 43  21  46  1   
 44  22  25  ar  
 45  22  26  ar  
 46  23  27  ar  
 47  23  47  1   
 48  24  25  ar  
 49  24  48  1   
 50  26  28  ar  
 51  26  49  1   
 52  27  28  ar  
 53  27  50  1   
 54  28  51  1   
@<TRIPOS>SUBSTRUCTURE
  1 ****  12 GROUP 4 **** **** 0

# MOE 2024.06 (io_trps.svl 2023.06)
