@<TRIPOS>MOLECULE
NONAME
49 51 1 0 0 
SMALL
USER_CHARGES


@<TRIPOS>ATOM
  1 O       -1.1540     0.6250     2.1070 O.2   1 <1>  -0.5700 
  2 C       -1.7590     1.0230     1.1350 C.2   1 <1>   0.5770 
  3 N       -2.6550     0.1950     0.5050 N.am  1 <1>  -0.6600 
  4 C       -1.5250     2.4650     0.6600 C.3   1 <1>   0.0530 
  5 C       -3.4560     0.4500    -0.7200 C.3   1 <1>   0.1400 
  6 C       -2.9350    -1.1700     1.0060 C.3   1 <1>   0.1400 
  7 C       -0.8850     3.4050     1.7330 C.3   1 <1>   0.0000 
  8 C       -2.7960     3.3600     0.7660 C.3   1 <1>   0.0000 
  9 C       -0.8250     2.5760    -0.7110 C.3   1 <1>   0.1200 
 10 C       -4.3620    -0.7770    -0.8920 C.3   1 <1>   0.2000 
 11 C       -3.6060    -1.8920    -0.1630 C.3   1 <1>  -0.0800 
 12 C       -1.8950     4.5000     1.3050 C.3   1 <1>   0.0000 
 13 O        0.3500     1.8320    -0.7070 O.3   1 <1>  -0.5600 
 14 O       -5.5850    -0.5620    -0.2450 O.3   1 <1>  -0.5600 
 15 C       -4.4780    -3.0850     0.2690 C.3   1 <1>   0.0200 
 16 C        1.1010     1.9390    -1.8710 C.3   1 <1>   0.0400 
 17 C       -6.5540     0.0910    -1.0030 C.3   1 <1>   0.0400 
 18 C       -3.6700    -4.2440     0.8280 C.2   1 <1>  -0.0400 
 19 O       -4.3050    -5.2900     1.2860 O.3   1 <1>  -0.0190 
 20 C       -2.3540    -4.4720     0.9720 C.2   1 <1>  -0.1500 
 21 N       -3.4890    -6.2020     1.7300 N.2   1 <1>  -0.4100 
 22 C       -2.3060    -5.7350     1.5550 C.2   1 <1>   0.1080 
 23 C       -1.0370    -6.4640     1.9340 C.3   1 <1>  -0.0590 
 24 H       -4.0300     1.3530    -0.6340 H     1 <1>   0.0800 
 25 H       -2.7890     0.5120    -1.5610 H     1 <1>   0.0800 
 26 H       -2.0280    -1.6570     1.3180 H     1 <1>   0.0800 
 27 H       -3.6080    -1.0970     1.8440 H     1 <1>   0.0800 
 28 H       -1.0580     3.0930     2.7490 H     1 <1>   0.0000 
 29 H        0.1410     3.6680     1.5420 H     1 <1>   0.0000 
 30 H       -3.2590     3.5900    -0.1780 H     1 <1>   0.0000 
 31 H       -3.4950     3.0110     1.5070 H     1 <1>   0.0000 
 32 H       -0.5750     3.6000    -0.9270 H     1 <1>   0.0800 
 33 H       -1.4570     2.2000    -1.4920 H     1 <1>   0.0800 
 34 H       -4.5430    -1.0230    -1.9250 H     1 <1>   0.0800 
 35 H       -2.8320    -2.2460    -0.8200 H     1 <1>   0.0800 
 36 H       -1.5170     5.1400     0.5270 H     1 <1>   0.0000 
 37 H       -2.3260     5.0380     2.1300 H     1 <1>   0.0000 
 38 H       -5.0380    -3.4400    -0.5780 H     1 <1>   0.0800 
 39 H       -5.1860    -2.7680     1.0160 H     1 <1>   0.0800 
 40 H        1.9750     1.3220    -1.7610 H     1 <1>   0.0800 
 41 H        1.3980     2.9640    -2.0100 H     1 <1>   0.0800 
 42 H        0.5160     1.5940    -2.7060 H     1 <1>   0.0800 
 43 H       -7.4330     0.2030    -0.3920 H     1 <1>   0.0800 
 44 H       -6.7900    -0.5030    -1.8680 H     1 <1>   0.0800 
 45 H       -6.1930     1.0620    -1.2940 H     1 <1>   0.0800 
 46 H       -1.5070    -3.8640     0.7170 H     1 <1>   0.1500 
 47 H       -0.4810    -5.8810     2.6450 H     1 <1>   0.0800 
 48 H       -0.4350    -6.6280     1.0600 H     1 <1>   0.0800 
 49 H       -1.2780    -7.4150     2.3750 H     1 <1>   0.0800 
@<TRIPOS>BOND
  1   1   2  2   
  2   2   3  am  
  3   2   4  1   
  4   3   5  1   
  5   3   6  1   
  6   4   7  1   
  7   4   8  1   
  8   4   9  1   
  9   5  10  1   
 10   5  24  1   
 11   5  25  1   
 12   6  11  1   
 13   6  26  1   
 14   6  27  1   
 15   7  12  1   
 16   7  28  1   
 17   7  29  1   
 18   8  12  1   
 19   8  30  1   
 20   8  31  1   
 21   9  13  1   
 22   9  32  1   
 23   9  33  1   
 24  10  11  1   
 25  10  14  1   
 26  10  34  1   
 27  11  15  1   
 28  11  35  1   
 29  12  36  1   
 30  12  37  1   
 31  13  16  1   
 32  14  17  1   
 33  15  18  1   
 34  15  38  1   
 35  15  39  1   
 36  16  40  1   
 37  16  41  1   
 38  16  42  1   
 39  17  43  1   
 40  17  44  1   
 41  17  45  1   
 42  18  19  1   
 43  18  20  2   
 44  19  21  1   
 45  20  22  1   
 46  20  46  1   
 47  21  22  2   
 48  22  23  1   
 49  23  47  1   
 50  23  48  1   
 51  23  49  1   
@<TRIPOS>SUBSTRUCTURE
  1 ****   6 GROUP 4 **** **** 0

# MOE 2024.06 (io_trps.svl 2023.06)
