@<TRIPOS>MOLECULE
NONAME
55 56 1 0 0 
SMALL
USER_CHARGES


@<TRIPOS>ATOM
  1 S        0.3330    -0.0100    -1.0730 S.o2  1 <1>   1.3330 
  2 O       -0.4270    -1.1750    -1.4520 O.2   1 <1>  -0.6500 
  3 O        1.4500     0.4420    -1.8740 O.2   1 <1>  -0.6500 
  4 N        0.9010    -0.2220     0.5110 N.am  1 <1>  -0.8490 
  5 C       -0.7640     1.4030    -0.9180 C.3   1 <1>  -0.0550 
  6 C       -0.0730    -0.9030     1.3780 C.3   1 <1>   0.1160 
  7 C        2.1570    -0.9840     0.5330 C.3   1 <1>   0.1160 
  8 C       -0.0750     2.6500    -0.3210 C.3   1 <1>  -0.0800 
  9 C       -0.9950     3.8590    -0.2590 C.3   1 <1>   0.2000 
 10 C        1.1240     3.1520    -1.1300 C.3   1 <1>   0.3430 
 11 O       -1.7990     3.7870     0.8660 O.3   1 <1>  -0.6800 
 12 C       -0.0590     5.0700    -0.2290 C.3   1 <1>   0.3430 
 13 N        1.2170     4.6200    -0.8810 N.4   1 <1>  -0.9590 
 14 C        2.4230     4.9960    -0.0930 C.3   1 <1>   0.4860 
 15 C        2.4940     6.5080    -0.0390 C.ar  1 <1>  -0.1440 
 16 C        2.1520     7.1870     1.1210 C.ar  1 <1>  -0.1500 
 17 C        2.8960     7.2290    -1.1550 C.ar  1 <1>  -0.1500 
 18 C        2.1960     8.5690     1.1580 C.ar  1 <1>  -0.1500 
 19 C        2.9380     8.6110    -1.1130 C.ar  1 <1>  -0.1500 
 20 C        2.5870     9.2890     0.0420 C.ar  1 <1>  -0.1440 
 21 C        2.6330    10.8120     0.0910 C.3   1 <1>  -0.0170 
 22 C        3.8650    11.3410     0.8500 C.3   1 <1>  -0.0800 
 23 C        3.8020    12.8690     0.9640 C.3   1 <1>  -0.2400 
 24 C        5.1780    10.9290     0.1700 C.3   1 <1>  -0.2400 
 25 H       -1.1580     1.6400    -1.8880 H     1 <1>   0.0800 
 26 H       -1.5960     1.1350    -0.2950 H     1 <1>   0.0800 
 27 H        0.3080    -0.9690     2.3840 H     1 <1>   0.0800 
 28 H       -0.2690    -1.9010     1.0170 H     1 <1>   0.0800 
 29 H       -1.0010    -0.3590     1.4040 H     1 <1>   0.0800 
 30 H        2.5070    -1.1020     1.5440 H     1 <1>   0.0800 
 31 H        2.9180    -0.4670    -0.0280 H     1 <1>   0.0800 
 32 H        2.0130    -1.9590     0.0950 H     1 <1>   0.0800 
 33 H        0.2840     2.4190     0.6670 H     1 <1>   0.0800 
 34 H       -1.6350     3.9190    -1.1240 H     1 <1>   0.0800 
 35 H        0.9480     2.9750    -2.1800 H     1 <1>   0.0800 
 36 H        2.0270     2.6340    -0.8460 H     1 <1>   0.0800 
 37 H       -1.3030     3.5850     1.6850 H     1 <1>   0.4000 
 38 H        0.1270     5.3540     0.7930 H     1 <1>   0.0800 
 39 H       -0.4910     5.9040    -0.7580 H     1 <1>   0.0800 
 40 H        1.3040     5.1140    -1.7800 H     1 <1>   0.4500 
 41 H        2.3650     4.5920     0.9040 H     1 <1>   0.0800 
 42 H        3.3130     4.6140    -0.5670 H     1 <1>   0.0800 
 43 H        1.8510     6.6570     2.0090 H     1 <1>   0.1500 
 44 H        3.1850     6.7320    -2.0660 H     1 <1>   0.1500 
 45 H        1.9290     9.0890     2.0630 H     1 <1>   0.1500 
 46 H        3.2530     9.1620    -1.9830 H     1 <1>   0.1500 
 47 H        2.6300    11.2090    -0.9080 H     1 <1>   0.0800 
 48 H        1.7400    11.1650     0.5760 H     1 <1>   0.0800 
 49 H        3.8560    10.9300     1.8460 H     1 <1>   0.0800 
 50 H        3.8160    13.3250    -0.0110 H     1 <1>   0.0800 
 51 H        4.6450    13.2360     1.5250 H     1 <1>   0.0800 
 52 H        2.9040    13.1720     1.4730 H     1 <1>   0.0800 
 53 H        5.2140    11.2960    -0.8410 H     1 <1>   0.0800 
 54 H        5.2740     9.8580     0.1510 H     1 <1>   0.0800 
 55 H        6.0190    11.3270     0.7090 H     1 <1>   0.0800 
@<TRIPOS>BOND
  1   1   2  2   
  2   1   3  2   
  3   1   4  am  
  4   1   5  1   
  5   4   6  1   
  6   4   7  1   
  7   5   8  1   
  8   5  25  1   
  9   5  26  1   
 10   6  27  1   
 11   6  28  1   
 12   6  29  1   
 13   7  30  1   
 14   7  31  1   
 15   7  32  1   
 16   8   9  1   
 17   8  10  1   
 18   8  33  1   
 19   9  11  1   
 20   9  12  1   
 21   9  34  1   
 22  10  13  1   
 23  10  35  1   
 24  10  36  1   
 25  11  37  1   
 26  12  13  1   
 27  12  38  1   
 28  12  39  1   
 29  13  14  1   
 30  13  40  1   
 31  14  15  1   
 32  14  41  1   
 33  14  42  1   
 34  15  16  ar  
 35  15  17  ar  
 36  16  18  ar  
 37  16  43  1   
 38  17  19  ar  
 39  17  44  1   
 40  18  20  ar  
 41  18  45  1   
 42  19  20  ar  
 43  19  46  1   
 44  20  21  1   
 45  21  22  1   
 46  21  47  1   
 47  21  48  1   
 48  22  23  1   
 49  22  24  1   
 50  22  49  1   
 51  23  50  1   
 52  23  51  1   
 53  23  52  1   
 54  24  53  1   
 55  24  54  1   
 56  24  55  1   
@<TRIPOS>SUBSTRUCTURE
  1 ****  13 GROUP 4 **** **** 0

# MOE 2024.06 (io_trps.svl 2023.06)
