@<TRIPOS>MOLECULE
NONAME
45 48 1 0 0 
SMALL
USER_CHARGES


@<TRIPOS>ATOM
  1 O        0.1510    -1.0580     1.0630 O.2   1 <1>  -0.5700 
  2 C        1.0050    -1.2580     0.2130 C.2   1 <1>   0.5440 
  3 N        0.7600    -2.1400    -0.8160 N.am  1 <1>  -0.4200 
  4 C        2.2780    -0.5940     0.2440 C.ar  1 <1>   0.0860 
  5 C        1.7270    -2.3530    -1.7690 C.2   1 <1>   0.4500 
  6 C       -0.5310    -2.8670    -0.9120 C.3   1 <1>   0.1400 
  7 C        3.1830    -0.8870    -0.7830 C.ar  1 <1>   0.1790 
  8 C        2.6520     0.3200     1.2340 C.ar  1 <1>  -0.1500 
  9 N        2.8710    -1.7820    -1.7870 N.2   1 <1>  -0.6290 
 10 C       -0.4060    -4.2500    -0.2660 C.3   1 <1>  -0.1600 
 11 C        4.4270    -0.2660    -0.7960 C.ar  1 <1>  -0.1500 
 12 C        3.8900     0.9290     1.2080 C.ar  1 <1>  -0.1500 
 13 C       -1.7440    -5.0120    -0.3130 C.3   1 <1>  -0.0990 
 14 C        4.7830     0.6340     0.1880 C.ar  1 <1>  -0.1500 
 15 C       -1.6920    -6.4160     0.2810 C.2   1 <1>   0.5690 
 16 O       -0.6120    -6.9290     0.4670 O.2   1 <1>  -0.5700 
 17 N       -2.8590    -7.0520     0.5720 N.am  1 <1>  -0.6600 
 18 C       -4.2330    -6.5640     0.2630 C.3   1 <1>   0.2350 
 19 C       -2.9330    -8.4430     1.1050 C.3   1 <1>   0.2350 
 20 C       -5.0800    -7.8100     0.1070 C.3   1 <1>  -0.2420 
 21 C       -4.2840    -8.9740     0.6480 C.3   1 <1>  -0.2420 
 22 C       -6.5630    -7.4370     0.1590 C.2   1 <1>   0.9470 
 23 C       -4.6560    -8.9300    -0.8120 C.3   1 <1>  -0.2000 
 24 C       -4.7180   -10.1730     1.4960 C.2   1 <1>   0.9470 
 25 O       -6.9710    -6.7460     1.1010 O.co2 1 <1>  -0.9000 
 26 O       -7.2790    -7.6590    -0.8270 O.co2 1 <1>  -0.9000 
 27 O       -4.6730   -10.0800     2.7310 O.co2 1 <1>  -0.9000 
 28 O       -4.9600   -11.2570     0.9460 O.co2 1 <1>  -0.9000 
 29 H        1.4810    -3.0560    -2.5460 H     1 <1>   0.0600 
 30 H       -1.3060    -2.3020    -0.4210 H     1 <1>   0.0800 
 31 H       -0.8060    -2.9690    -1.9480 H     1 <1>   0.0800 
 32 H        1.9560     0.5450     2.0240 H     1 <1>   0.1500 
 33 H        0.3450    -4.8240    -0.7810 H     1 <1>   0.0800 
 34 H       -0.1050    -4.1410     0.7630 H     1 <1>   0.0800 
 35 H        5.1110    -0.5030    -1.5910 H     1 <1>   0.1500 
 36 H        4.1670     1.6310     1.9760 H     1 <1>   0.1500 
 37 H       -2.0700    -5.1040    -1.3320 H     1 <1>   0.0800 
 38 H       -2.4800    -4.4450     0.2290 H     1 <1>   0.0800 
 39 H        5.7490     1.1080     0.1660 H     1 <1>   0.1500 
 40 H       -4.5950    -5.9760     1.0890 H     1 <1>   0.0800 
 41 H       -4.2620    -5.9850    -0.6420 H     1 <1>   0.0800 
 42 H       -2.1310    -9.0510     0.7260 H     1 <1>   0.0800 
 43 H       -2.8880    -8.4120     2.1810 H     1 <1>   0.0800 
 44 H       -3.8960    -8.7550    -1.5490 H     1 <1>   0.1000 
 45 H       -5.4150    -9.6130    -1.1550 H     1 <1>   0.1000 
@<TRIPOS>BOND
  1   1   2  2   
  2   2   3  am  
  3   2   4  1   
  4   3   5  1   
  5   3   6  1   
  6   4   7  ar  
  7   4   8  ar  
  8   5   9  2   
  9   5  29  1   
 10   6  10  1   
 11   6  30  1   
 12   6  31  1   
 13   7   9  1   
 14   7  11  ar  
 15   8  12  ar  
 16   8  32  1   
 17  10  13  1   
 18  10  33  1   
 19  10  34  1   
 20  11  14  ar  
 21  11  35  1   
 22  12  14  ar  
 23  12  36  1   
 24  13  15  1   
 25  13  37  1   
 26  13  38  1   
 27  14  39  1   
 28  15  16  2   
 29  15  17  am  
 30  17  18  1   
 31  17  19  1   
 32  18  20  1   
 33  18  40  1   
 34  18  41  1   
 35  19  21  1   
 36  19  42  1   
 37  19  43  1   
 38  20  21  1   
 39  20  22  1   
 40  20  23  1   
 41  21  23  1   
 42  21  24  1   
 43  22  25  ar  
 44  22  26  ar  
 45  23  44  1   
 46  23  45  1   
 47  24  27  ar  
 48  24  28  ar  
@<TRIPOS>SUBSTRUCTURE
  1 ****  13 GROUP 4 **** **** 0

# MOE 2024.06 (io_trps.svl 2023.06)
