@<TRIPOS>MOLECULE
NONAME
48 50 1 0 0 
SMALL
USER_CHARGES


@<TRIPOS>ATOM
  1 O       -0.9280     0.0280    -0.9440 O.2   1 <1>  -0.5700 
  2 C       -1.8220     0.7040    -0.4710 C.2   1 <1>   0.6160 
  3 N       -1.8070     2.0490    -0.6560 N.am  1 <1>  -0.5470 
  4 C       -2.8990     0.1340     0.2700 C.2   1 <1>  -0.1240 
  5 C       -2.7860     2.9040    -0.1560 C.ar  1 <1>   0.1170 
  6 C       -3.8740     0.9290     0.7890 C.2   1 <1>  -0.1780 
  7 C       -2.8130    -1.3750     0.4020 C.3   1 <1>   0.4810 
  8 C       -3.8440     2.3470     0.5830 C.ar  1 <1>   0.0280 
  9 C       -2.7360     4.2840    -0.3740 C.ar  1 <1>  -0.1440 
 10 N       -4.1650    -1.9980     0.4820 N.4   1 <1>  -0.9590 
 11 C       -4.8310     3.1930     1.0900 C.ar  1 <1>  -0.1500 
 12 C       -3.7300     5.0910     0.1400 C.ar  1 <1>  -0.1500 
 13 C       -1.5990     4.9110    -1.1710 C.3   1 <1>  -0.0970 
 14 C       -4.0560    -3.4690     0.8190 C.3   1 <1>   0.3430 
 15 C       -4.9360    -1.7780    -0.7770 C.3   1 <1>   0.3430 
 16 C       -4.7800     4.5530     0.8730 C.ar  1 <1>  -0.1440 
 17 C       -5.2490    -4.3230     0.3200 C.3   1 <1>   0.2000 
 18 C       -6.3880    -2.2280    -0.5740 C.3   1 <1>  -0.1600 
 19 C       -5.8540     5.4760     1.4220 C.3   1 <1>  -0.0970 
 20 O       -4.9710    -4.7350    -0.9790 O.3   1 <1>  -0.6800 
 21 C       -6.5410    -3.4850     0.3230 C.3   1 <1>  -0.0800 
 22 C       -7.7860    -4.3070    -0.0410 C.3   1 <1>   0.1200 
 23 O       -8.8940    -3.4950     0.1180 O.3   1 <1>  -0.6800 
 24 H       -1.0210     2.4220    -1.1860 H     1 <1>   0.3700 
 25 H       -4.6970     0.5550     1.3680 H     1 <1>   0.1500 
 26 H       -2.2380    -1.6140     1.2820 H     1 <1>   0.0800 
 27 H       -2.2890    -1.7780    -0.4510 H     1 <1>   0.0800 
 28 H       -4.6850    -1.5310     1.2320 H     1 <1>   0.4500 
 29 H       -5.6420     2.7740     1.6570 H     1 <1>   0.1500 
 30 H       -3.7010     6.1550    -0.0220 H     1 <1>   0.1500 
 31 H       -1.7190     5.9770    -1.2400 H     1 <1>   0.0800 
 32 H       -1.5820     4.5100    -2.1690 H     1 <1>   0.0800 
 33 H       -0.6570     4.7100    -0.6930 H     1 <1>   0.0800 
 34 H       -3.1580    -3.8830     0.3900 H     1 <1>   0.0800 
 35 H       -3.9850    -3.5720     1.8890 H     1 <1>   0.0800 
 36 H       -4.9170    -0.7390    -1.0680 H     1 <1>   0.0800 
 37 H       -4.4930    -2.3590    -1.5710 H     1 <1>   0.0800 
 38 H       -5.3470    -5.2060     0.9300 H     1 <1>   0.0800 
 39 H       -6.9650    -1.4210    -0.1570 H     1 <1>   0.0800 
 40 H       -6.7990    -2.4250    -1.5490 H     1 <1>   0.0800 
 41 H       -5.4150     6.1780     2.1080 H     1 <1>   0.0800 
 42 H       -6.6140     4.9200     1.9420 H     1 <1>   0.0800 
 43 H       -6.3170     6.0190     0.6180 H     1 <1>   0.0800 
 44 H       -5.6130    -5.4070    -1.2890 H     1 <1>   0.4000 
 45 H       -6.6840    -3.1540     1.3370 H     1 <1>   0.0800 
 46 H       -7.8970    -5.1560     0.6130 H     1 <1>   0.0800 
 47 H       -7.7550    -4.6390    -1.0650 H     1 <1>   0.0800 
 48 H       -9.7210    -3.9750    -0.0930 H     1 <1>   0.4000 
@<TRIPOS>BOND
  1   1   2  2   
  2   2   3  am  
  3   2   4  1   
  4   3   5  1   
  5   3  24  1   
  6   4   6  2   
  7   4   7  1   
  8   5   8  ar  
  9   5   9  ar  
 10   6   8  1   
 11   6  25  1   
 12   7  10  1   
 13   7  26  1   
 14   7  27  1   
 15   8  11  ar  
 16   9  12  ar  
 17   9  13  1   
 18  10  14  1   
 19  10  15  1   
 20  10  28  1   
 21  11  16  ar  
 22  11  29  1   
 23  12  16  ar  
 24  12  30  1   
 25  13  31  1   
 26  13  32  1   
 27  13  33  1   
 28  14  17  1   
 29  14  34  1   
 30  14  35  1   
 31  15  18  1   
 32  15  36  1   
 33  15  37  1   
 34  16  19  1   
 35  17  20  1   
 36  17  21  1   
 37  17  38  1   
 38  18  21  1   
 39  18  39  1   
 40  18  40  1   
 41  19  41  1   
 42  19  42  1   
 43  19  43  1   
 44  20  44  1   
 45  21  22  1   
 46  21  45  1   
 47  22  23  1   
 48  22  46  1   
 49  22  47  1   
 50  23  48  1   
@<TRIPOS>SUBSTRUCTURE
  1 ****   6 GROUP 4 **** **** 0

# MOE 2024.06 (io_trps.svl 2023.06)
