@<TRIPOS>MOLECULE
NONAME
37 38 1 0 0 
SMALL
USER_CHARGES


@<TRIPOS>ATOM
  1 O       -0.5060     2.0100    -1.6670 O.3   1 <1>  -0.6800 
  2 C        0.0540     1.8220    -0.4070 C.3   1 <1>   0.2000 
  3 C       -0.8970     2.3810     0.6680 C.3   1 <1>  -0.0800 
  4 C        1.4090     2.5720    -0.3700 C.3   1 <1>   0.3430 
  5 C       -1.1210     3.9050     0.4770 C.3   1 <1>  -0.1600 
  6 C       -2.2230     1.6050     0.7290 C.3   1 <1>   0.1200 
  7 N        1.2990     4.0470    -0.0440 N.4   1 <1>  -0.9590 
  8 C       -0.0480     4.6040    -0.3670 C.3   1 <1>   0.3430 
  9 O       -3.0070     2.1280     1.7420 O.3   1 <1>  -0.6800 
 10 C        2.3790     4.8180    -0.7140 C.3   1 <1>   0.4860 
 11 C        2.4000     6.2310    -0.1550 C.ar  1 <1>  -0.1440 
 12 C        2.9120     6.4810     1.1100 C.ar  1 <1>  -0.1500 
 13 C        1.9090     7.2890    -0.9060 C.ar  1 <1>  -0.1500 
 14 C        2.9200     7.7690     1.6160 C.ar  1 <1>  -0.1500 
 15 C        1.9200     8.5740    -0.3940 C.ar  1 <1>  -0.1500 
 16 C        2.4240     8.8360     0.8750 C.ar  1 <1>   0.0730 
 17 C        2.4330    10.1710     1.4040 C.1   1 <1>   0.4840 
 18 N        2.4340    11.2300     1.8260 N.1   1 <1>  -0.5570 
 19 H       -1.3060     1.4570    -1.7910 H     1 <1>   0.4000 
 20 H        0.2190     0.7650    -0.2780 H     1 <1>   0.0800 
 21 H       -0.4050     2.2330     1.6140 H     1 <1>   0.0800 
 22 H        1.8790     2.4380    -1.3300 H     1 <1>   0.0800 
 23 H        2.0380     2.1040     0.3690 H     1 <1>   0.0800 
 24 H       -1.1920     4.3800     1.4400 H     1 <1>   0.0800 
 25 H       -2.0650     4.0720    -0.0140 H     1 <1>   0.0800 
 26 H       -2.0680     0.5570     0.9270 H     1 <1>   0.0800 
 27 H       -2.7740     1.7130    -0.1900 H     1 <1>   0.0800 
 28 H        1.4210     4.1770     0.9670 H     1 <1>   0.4500 
 29 H       -0.0800     5.6660    -0.1790 H     1 <1>   0.0800 
 30 H       -0.2590     4.4390    -1.4120 H     1 <1>   0.0800 
 31 H       -2.7380     1.7930     2.6200 H     1 <1>   0.4000 
 32 H        3.3350     4.3540    -0.5330 H     1 <1>   0.0800 
 33 H        2.2100     4.8440    -1.7790 H     1 <1>   0.0800 
 34 H        3.3140     5.6850     1.7140 H     1 <1>   0.1500 
 35 H        1.5150     7.1280    -1.8970 H     1 <1>   0.1500 
 36 H        3.3200     7.9530     2.6010 H     1 <1>   0.1500 
 37 H        1.5360     9.3880    -0.9870 H     1 <1>   0.1500 
@<TRIPOS>BOND
  1   1   2  1   
  2   1  19  1   
  3   2   3  1   
  4   2   4  1   
  5   2  20  1   
  6   3   5  1   
  7   3   6  1   
  8   3  21  1   
  9   4   7  1   
 10   4  22  1   
 11   4  23  1   
 12   5   8  1   
 13   5  24  1   
 14   5  25  1   
 15   6   9  1   
 16   6  26  1   
 17   6  27  1   
 18   7   8  1   
 19   7  10  1   
 20   7  28  1   
 21   8  29  1   
 22   8  30  1   
 23   9  31  1   
 24  10  11  1   
 25  10  32  1   
 26  10  33  1   
 27  11  12  ar  
 28  11  13  ar  
 29  12  14  ar  
 30  12  34  1   
 31  13  15  ar  
 32  13  35  1   
 33  14  16  ar  
 34  14  36  1   
 35  15  16  ar  
 36  15  37  1   
 37  16  17  1   
 38  17  18  3   
@<TRIPOS>SUBSTRUCTURE
  1 ****   8 GROUP 4 **** **** 0

# MOE 2024.06 (io_trps.svl 2023.06)
