@<TRIPOS>MOLECULE
NONAME
55 57 1 0 0 
SMALL
USER_CHARGES


@<TRIPOS>ATOM
  1 F        0.8520    -1.1190     0.9130 F     1 <1>  -0.1900 
  2 C        0.5610    -2.3940     0.8640 C.ar  1 <1>   0.1900 
  3 C        1.2130    -3.2660    -0.0150 C.ar  1 <1>   0.0830 
  4 C       -0.4300    -2.8310     1.7220 C.ar  1 <1>  -0.1500 
  5 O        2.1970    -2.9590    -0.9050 O.3   1 <1>  -0.3630 
  6 C        0.8300    -4.5980    -0.0020 C.ar  1 <1>  -0.1500 
  7 C       -0.7980    -4.1660     1.7130 C.ar  1 <1>  -0.1500 
  8 C        2.8190    -1.6920    -0.9520 C.3   1 <1>   0.0400 
  9 C       -0.1740    -5.0530     0.8440 C.ar  1 <1>  -0.1430 
 10 C       -0.5790    -6.5120     0.8030 C.3   1 <1>   0.4870 
 11 N       -1.3380    -6.7340    -0.4550 N.4   1 <1>  -0.9590 
 12 C       -1.4850    -8.1950    -0.7510 C.3   1 <1>   0.5660 
 13 C       -2.6650    -6.0330    -0.4500 C.3   1 <1>   0.3430 
 14 C       -0.0930    -8.7550    -1.0110 C.ar  1 <1>  -0.1430 
 15 C       -2.4450    -8.4940    -1.9350 C.3   1 <1>   0.2000 
 16 C       -3.4820    -6.3710    -1.7090 C.3   1 <1>   0.1200 
 17 C        0.3890    -9.7600    -0.1850 C.ar  1 <1>  -0.1500 
 18 C        0.7100    -8.2810    -2.0430 C.ar  1 <1>  -0.1500 
 19 O       -3.6380    -7.7540    -1.8210 O.3   1 <1>  -0.5600 
 20 C       -2.8010    -9.9890    -1.9710 C.3   1 <1>   0.1200 
 21 C        1.6570   -10.2830    -0.3690 C.ar  1 <1>   0.0830 
 22 C        1.9840    -8.7920    -2.2250 C.ar  1 <1>  -0.1500 
 23 O       -3.1460   -10.4310    -0.6960 O.3   1 <1>  -0.6800 
 24 O        2.0380   -11.2770     0.4680 O.3   1 <1>  -0.3630 
 25 C        2.4730    -9.7760    -1.3850 C.ar  1 <1>   0.0830 
 26 C        2.3090   -12.5350    -0.1150 C.3   1 <1>   0.0400 
 27 O        3.7410   -10.2010    -1.5990 O.3   1 <1>  -0.3630 
 28 C        4.6840    -9.9240    -0.5850 C.3   1 <1>   0.0400 
 29 H       -0.9020    -2.1300     2.3890 H     1 <1>   0.1500 
 30 H        1.3430    -5.2710    -0.6680 H     1 <1>   0.1500 
 31 H       -1.5690    -4.4980     2.3890 H     1 <1>   0.1500 
 32 H        3.6120    -1.7350    -1.6770 H     1 <1>   0.0800 
 33 H        3.2250    -1.4630     0.0180 H     1 <1>   0.0800 
 34 H        2.0950    -0.9550    -1.2500 H     1 <1>   0.0800 
 35 H       -1.1840    -6.7620     1.6600 H     1 <1>   0.0800 
 36 H        0.3100    -7.1240     0.8200 H     1 <1>   0.0800 
 37 H       -0.7660    -6.3370    -1.2050 H     1 <1>   0.4500 
 38 H       -1.8920    -8.6830     0.1200 H     1 <1>   0.0800 
 39 H       -3.2350    -6.3330     0.4140 H     1 <1>   0.0800 
 40 H       -2.5170    -4.9660    -0.3970 H     1 <1>   0.0800 
 41 H       -1.9880    -8.2240    -2.8700 H     1 <1>   0.0800 
 42 H       -3.0070    -5.9970    -2.5990 H     1 <1>   0.0800 
 43 H       -4.4660    -5.9380    -1.6370 H     1 <1>   0.0800 
 44 H       -0.2130   -10.1650     0.6120 H     1 <1>   0.1500 
 45 H        0.3690    -7.5170    -2.7210 H     1 <1>   0.1500 
 46 H       -1.9580   -10.5720    -2.3050 H     1 <1>   0.0800 
 47 H       -3.6320   -10.1570    -2.6360 H     1 <1>   0.0800 
 48 H        2.6140    -8.4280    -3.0200 H     1 <1>   0.1500 
 49 H       -3.5970   -11.3010    -0.7430 H     1 <1>   0.4000 
 50 H        2.4670   -13.2450     0.6770 H     1 <1>   0.0800 
 51 H        3.1920   -12.4670    -0.7230 H     1 <1>   0.0800 
 52 H        1.4650   -12.8320    -0.7120 H     1 <1>   0.0800 
 53 H        5.6500   -10.2460    -0.9290 H     1 <1>   0.0800 
 54 H        4.4170   -10.4570     0.3090 H     1 <1>   0.0800 
 55 H        4.6940    -8.8640    -0.4000 H     1 <1>   0.0800 
@<TRIPOS>BOND
  1   1   2  1   
  2   2   3  ar  
  3   2   4  ar  
  4   3   5  1   
  5   3   6  ar  
  6   4   7  ar  
  7   4  29  1   
  8   5   8  1   
  9   6   9  ar  
 10   6  30  1   
 11   7   9  ar  
 12   7  31  1   
 13   8  32  1   
 14   8  33  1   
 15   8  34  1   
 16   9  10  1   
 17  10  11  1   
 18  10  35  1   
 19  10  36  1   
 20  11  12  1   
 21  11  13  1   
 22  11  37  1   
 23  12  14  1   
 24  12  15  1   
 25  12  38  1   
 26  13  16  1   
 27  13  39  1   
 28  13  40  1   
 29  14  17  ar  
 30  14  18  ar  
 31  15  19  1   
 32  15  20  1   
 33  15  41  1   
 34  16  19  1   
 35  16  42  1   
 36  16  43  1   
 37  17  21  ar  
 38  17  44  1   
 39  18  22  ar  
 40  18  45  1   
 41  20  23  1   
 42  20  46  1   
 43  20  47  1   
 44  21  24  1   
 45  21  25  ar  
 46  22  25  ar  
 47  22  48  1   
 48  23  49  1   
 49  24  26  1   
 50  25  27  1   
 51  26  50  1   
 52  26  51  1   
 53  26  52  1   
 54  27  28  1   
 55  28  53  1   
 56  28  54  1   
 57  28  55  1   
@<TRIPOS>SUBSTRUCTURE
  1 ****  11 GROUP 4 **** **** 0

# MOE 2024.06 (io_trps.svl 2023.06)
