@<TRIPOS>MOLECULE
NONAME
53 55 1 0 0 
SMALL
USER_CHARGES


@<TRIPOS>ATOM
  1 O       -0.6650     0.1610    -0.2460 O.2   1 <1>  -0.5700 
  2 C       -1.6300     0.8850    -0.3180 C.2   1 <1>   0.5690 
  3 N       -2.8670     0.3670    -0.6160 N.am  1 <1>  -0.6600 
  4 C       -1.4520     2.3700    -0.0510 C.3   1 <1>  -0.0990 
  5 C       -3.0170    -1.0660    -0.9960 C.3   1 <1>   0.1400 
  6 C       -4.1610     1.0830    -0.4290 C.3   1 <1>   0.1400 
  7 C        0.0190     2.7850    -0.0070 C.3   1 <1>   0.1200 
  8 C       -3.8150    -1.8120     0.0970 C.3   1 <1>   0.4230 
  9 C       -4.9560     0.3620     0.6670 C.3   1 <1>  -0.1600 
 10 O        0.0770     4.1770     0.2160 O.3   1 <1>  -0.3630 
 11 N       -3.8820    -3.3210    -0.1090 N.4   1 <1>  -0.9590 
 12 C       -5.1980    -1.1480     0.3730 C.3   1 <1>   0.0000 
 13 C        1.2670     4.8240     0.3010 C.ar  1 <1>   0.0820 
 14 C       -4.9650    -3.9990     0.6750 C.3   1 <1>   0.3430 
 15 C       -3.9230    -3.7790    -1.5370 C.3   1 <1>   0.2630 
 16 C       -5.8390    -1.8050     1.6310 C.3   1 <1>  -0.1600 
 17 C       -6.1300    -1.3150    -0.8620 C.3   1 <1>   0.1200 
 18 C        2.5030     4.1930     0.1840 C.ar  1 <1>  -0.1500 
 19 C        1.2190     6.1920     0.5190 C.ar  1 <1>  -0.1500 
 20 C       -5.2980    -3.2140     1.9430 C.3   1 <1>  -0.1600 
 21 O       -7.2840    -0.5600    -0.7380 O.3   1 <1>  -0.6800 
 22 C        3.6700     4.9320     0.2840 C.ar  1 <1>  -0.1500 
 23 C        2.3860     6.9290     0.6190 C.ar  1 <1>  -0.1500 
 24 C        3.6130     6.2990     0.5010 C.ar  1 <1>  -0.1500 
 25 H       -1.9370     2.9220    -0.8330 H     1 <1>   0.0800 
 26 H       -1.9070     2.6070     0.8920 H     1 <1>   0.0800 
 27 H       -3.5170    -1.1120    -1.9460 H     1 <1>   0.0800 
 28 H       -2.0510    -1.5250    -1.1060 H     1 <1>   0.0800 
 29 H       -4.0050     2.1070    -0.1390 H     1 <1>   0.0800 
 30 H       -4.7110     1.0870    -1.3560 H     1 <1>   0.0800 
 31 H        0.5040     2.5680    -0.9430 H     1 <1>   0.0800 
 32 H        0.5320     2.2880     0.7990 H     1 <1>   0.0800 
 33 H       -3.2470    -1.6590     1.0000 H     1 <1>   0.0800 
 34 H       -4.4060     0.4730     1.5860 H     1 <1>   0.0800 
 35 H       -5.8910     0.8750     0.8080 H     1 <1>   0.0800 
 36 H       -2.9930    -3.6680     0.2830 H     1 <1>   0.4500 
 37 H       -5.8580    -4.0730     0.0760 H     1 <1>   0.0800 
 38 H       -4.6580    -5.0000     0.9350 H     1 <1>   0.0800 
 39 H       -4.8110    -3.4150    -2.0270 H     1 <1>   0.0800 
 40 H       -3.9240    -4.8570    -1.5830 H     1 <1>   0.0800 
 41 H       -3.0600    -3.4220    -2.0750 H     1 <1>   0.0800 
 42 H       -5.6690    -1.1970     2.5040 H     1 <1>   0.0800 
 43 H       -6.9080    -1.8600     1.5140 H     1 <1>   0.0800 
 44 H       -6.4300    -2.3390    -0.9970 H     1 <1>   0.0800 
 45 H       -5.6500    -0.9810    -1.7640 H     1 <1>   0.0800 
 46 H        2.5790     3.1360     0.0160 H     1 <1>   0.1500 
 47 H        0.2630     6.6740     0.6090 H     1 <1>   0.1500 
 48 H       -6.0340    -3.7550     2.5120 H     1 <1>   0.0800 
 49 H       -4.4150    -3.1450     2.5570 H     1 <1>   0.0800 
 50 H       -7.8490    -0.8600     0.0020 H     1 <1>   0.4000 
 51 H        4.6240     4.4430     0.1930 H     1 <1>   0.1500 
 52 H        2.3390     7.9910     0.7870 H     1 <1>   0.1500 
 53 H        4.5210     6.8700     0.5790 H     1 <1>   0.1500 
@<TRIPOS>BOND
  1   1   2  2   
  2   2   3  am  
  3   2   4  1   
  4   3   5  1   
  5   3   6  1   
  6   4   7  1   
  7   4  25  1   
  8   4  26  1   
  9   5   8  1   
 10   5  27  1   
 11   5  28  1   
 12   6   9  1   
 13   6  29  1   
 14   6  30  1   
 15   7  10  1   
 16   7  31  1   
 17   7  32  1   
 18   8  11  1   
 19   8  12  1   
 20   8  33  1   
 21   9  12  1   
 22   9  34  1   
 23   9  35  1   
 24  10  13  1   
 25  11  14  1   
 26  11  15  1   
 27  11  36  1   
 28  12  16  1   
 29  12  17  1   
 30  13  18  ar  
 31  13  19  ar  
 32  14  20  1   
 33  14  37  1   
 34  14  38  1   
 35  15  39  1   
 36  15  40  1   
 37  15  41  1   
 38  16  20  1   
 39  16  42  1   
 40  16  43  1   
 41  17  21  1   
 42  17  44  1   
 43  17  45  1   
 44  18  22  ar  
 45  18  46  1   
 46  19  23  ar  
 47  19  47  1   
 48  20  48  1   
 49  20  49  1   
 50  21  50  1   
 51  22  24  ar  
 52  22  51  1   
 53  23  24  ar  
 54  23  52  1   
 55  24  53  1   
@<TRIPOS>SUBSTRUCTURE
  1 ****   2 GROUP 4 **** **** 0

# MOE 2024.06 (io_trps.svl 2023.06)
