@<TRIPOS>MOLECULE
NONAME
46 48 1 0 0 
SMALL
USER_CHARGES


@<TRIPOS>ATOM
  1 O        0.1290    -0.0140     0.1360 O.2   1 <1>  -0.5700 
  2 C        1.1210    -0.6710    -0.1140 C.2   1 <1>   0.5440 
  3 N        0.9380    -1.9320    -0.5980 N.am  1 <1>  -0.7300 
  4 C        2.4560    -0.1270     0.0880 C.ar  1 <1>   0.0860 
  5 C       -0.3810    -2.6100    -0.7560 C.3   1 <1>   0.2010 
  6 C        2.6640     1.2520     0.1440 C.ar  1 <1>  -0.1500 
  7 C        3.5780    -0.9460     0.2360 C.ar  1 <1>  -0.1500 
  8 C       -0.2700    -4.1390    -0.7240 C.2   1 <1>   0.5690 
  9 C        3.9250     1.7910     0.3270 C.ar  1 <1>  -0.1500 
 10 C        4.8430    -0.4150     0.4180 C.ar  1 <1>  -0.1500 
 11 O        0.7970    -4.6480    -0.9900 O.2   1 <1>  -0.5700 
 12 N       -1.3610    -4.9070    -0.4120 N.am  1 <1>  -0.6600 
 13 C        5.0190     0.9560     0.4630 C.ar  1 <1>  -0.1500 
 14 C       -2.7300    -4.4180    -0.1120 C.3   1 <1>   0.1400 
 15 C       -1.2990    -6.3860    -0.3380 C.3   1 <1>   0.1400 
 16 C       -3.5850    -5.6830    -0.0370 C.3   1 <1>   0.2000 
 17 C       -2.6160    -6.8090     0.3150 C.3   1 <1>  -0.0800 
 18 O       -4.5710    -5.5770     0.9300 O.3   1 <1>  -0.6800 
 19 C       -3.1110    -8.1920    -0.1340 C.3   1 <1>   0.0200 
 20 C       -2.0810    -9.2620     0.1670 C.2   1 <1>  -0.0400 
 21 O       -1.7260    -9.4980     1.4020 O.3   1 <1>  -0.0190 
 22 C       -1.3860   -10.0900    -0.6280 C.2   1 <1>  -0.1500 
 23 N       -0.8270   -10.4360     1.4760 N.2   1 <1>  -0.4100 
 24 C       -0.6040   -10.8130     0.2680 C.2   1 <1>   0.1080 
 25 C        0.3800   -11.8960    -0.1160 C.3   1 <1>  -0.0590 
 26 H        1.7330    -2.5340    -0.8340 H     1 <1>   0.3700 
 27 H       -1.0340    -2.2820     0.0320 H     1 <1>   0.0800 
 28 H       -0.8090    -2.3160    -1.6960 H     1 <1>   0.0800 
 29 H        1.8180     1.9100     0.0400 H     1 <1>   0.1500 
 30 H        3.4660    -2.0150     0.2150 H     1 <1>   0.1500 
 31 H        4.0550     2.8590     0.3640 H     1 <1>   0.1500 
 32 H        5.6920    -1.0680     0.5280 H     1 <1>   0.1500 
 33 H        6.0020     1.3720     0.6050 H     1 <1>   0.1500 
 34 H       -2.7240    -3.9040     0.8340 H     1 <1>   0.0800 
 35 H       -3.0820    -3.7660    -0.8920 H     1 <1>   0.0800 
 36 H       -1.2150    -6.7820    -1.3360 H     1 <1>   0.0800 
 37 H       -0.4490    -6.7070     0.2420 H     1 <1>   0.0800 
 38 H       -4.0610    -5.8550    -0.9880 H     1 <1>   0.0800 
 39 H       -2.4500    -6.8200     1.3790 H     1 <1>   0.0800 
 40 H       -4.1750    -5.5200     1.8220 H     1 <1>   0.4000 
 41 H       -3.3160    -8.1850    -1.1900 H     1 <1>   0.0800 
 42 H       -4.0250    -8.4320     0.3810 H     1 <1>   0.0800 
 43 H       -1.3990   -10.1980    -1.6960 H     1 <1>   0.1500 
 44 H        1.1300   -11.4920    -0.7710 H     1 <1>   0.0800 
 45 H       -0.1350   -12.6960    -0.6150 H     1 <1>   0.0800 
 46 H        0.8590   -12.2850     0.7640 H     1 <1>   0.0800 
@<TRIPOS>BOND
  1   1   2  2   
  2   2   3  am  
  3   2   4  1   
  4   3   5  1   
  5   3  26  1   
  6   4   6  ar  
  7   4   7  ar  
  8   5   8  1   
  9   5  27  1   
 10   5  28  1   
 11   6   9  ar  
 12   6  29  1   
 13   7  10  ar  
 14   7  30  1   
 15   8  11  2   
 16   8  12  am  
 17   9  13  ar  
 18   9  31  1   
 19  10  13  ar  
 20  10  32  1   
 21  12  14  1   
 22  12  15  1   
 23  13  33  1   
 24  14  16  1   
 25  14  34  1   
 26  14  35  1   
 27  15  17  1   
 28  15  36  1   
 29  15  37  1   
 30  16  17  1   
 31  16  18  1   
 32  16  38  1   
 33  17  19  1   
 34  17  39  1   
 35  18  40  1   
 36  19  20  1   
 37  19  41  1   
 38  19  42  1   
 39  20  21  1   
 40  20  22  2   
 41  21  23  1   
 42  22  24  1   
 43  22  43  1   
 44  23  24  2   
 45  24  25  1   
 46  25  44  1   
 47  25  45  1   
 48  25  46  1   
@<TRIPOS>SUBSTRUCTURE
  1 ****   8 GROUP 4 **** **** 0

# MOE 2024.06 (io_trps.svl 2023.06)
