@<TRIPOS>MOLECULE
NONAME
48 50 1 0 0 
SMALL
USER_CHARGES


@<TRIPOS>ATOM
  1 O        4.2430    -1.5750    -1.9920 O.2   1 <1>  -0.5700 
  2 C        3.3230    -1.5270    -1.1960 C.2   1 <1>   0.5440 
  3 N        3.0540    -0.2930    -0.6620 N.am  1 <1>  -0.6600 
  4 C        2.6230    -2.7220    -0.7540 C.ar  1 <1>   0.0860 
  5 C        3.5720    -0.0270     0.7250 C.3   1 <1>   0.2200 
  6 C        2.8570     0.8600    -1.5960 C.3   1 <1>   0.1400 
  7 C        3.1400    -3.9930    -0.9920 C.ar  1 <1>  -0.1500 
  8 C        1.4140    -2.6460    -0.0640 C.ar  1 <1>  -0.1500 
  9 C        2.8610     1.1440     1.4220 C.3   1 <1>   0.1200 
 10 C        5.1090     0.1920     0.7070 C.3   1 <1>   0.3430 
 11 C        3.7070     2.1070    -1.2830 C.3   1 <1>  -0.0800 
 12 C        2.4990    -5.1370    -0.5530 C.ar  1 <1>   0.0830 
 13 C        0.7580    -3.7770     0.3860 C.ar  1 <1>   0.0830 
 14 O        3.4850     2.3540     1.1120 O.3   1 <1>  -0.5600 
 15 N        5.6360     0.5260    -0.6640 N.4   1 <1>  -0.9590 
 16 C        3.1370     2.9170    -0.1080 C.3   1 <1>   0.1200 
 17 C        5.2300     1.8780    -1.1590 C.3   1 <1>   0.3430 
 18 O        3.1060    -6.3150    -0.8380 O.3   1 <1>  -0.3630 
 19 C        1.3000    -5.0330     0.1430 C.ar  1 <1>  -0.1500 
 20 O       -0.4040    -3.5700     1.0540 O.3   1 <1>  -0.3630 
 21 C        7.1050     0.3140    -0.7610 C.3   1 <1>   0.2630 
 22 C        2.5210    -7.5530    -0.4970 C.3   1 <1>   0.0400 
 23 C       -1.1960    -4.6460     1.5070 C.3   1 <1>   0.0400 
 24 H        3.3720    -0.8990     1.3230 H     1 <1>   0.0800 
 25 H        3.0760     0.5390    -2.6020 H     1 <1>   0.0800 
 26 H        1.8140     1.1300    -1.5820 H     1 <1>   0.0800 
 27 H        4.0640    -4.1000    -1.5330 H     1 <1>   0.1500 
 28 H        0.9610    -1.6910     0.1290 H     1 <1>   0.1500 
 29 H        2.9470     1.0240     2.4880 H     1 <1>   0.0800 
 30 H        1.8140     1.1860     1.1730 H     1 <1>   0.0800 
 31 H        5.5710    -0.7200     1.0440 H     1 <1>   0.0800 
 32 H        5.3730     0.9670     1.4070 H     1 <1>   0.0800 
 33 H        3.5810     2.7550    -2.1320 H     1 <1>   0.0800 
 34 H        5.1650    -0.1660    -1.2930 H     1 <1>   0.4500 
 35 H        2.0640     3.0020    -0.1630 H     1 <1>   0.0800 
 36 H        3.5490     3.9120    -0.1170 H     1 <1>   0.0800 
 37 H        5.6430     2.6370    -0.5140 H     1 <1>   0.0800 
 38 H        5.6600     2.0170    -2.1380 H     1 <1>   0.0800 
 39 H        0.8000    -5.9140     0.4900 H     1 <1>   0.1500 
 40 H        7.6270     0.9960    -0.1100 H     1 <1>   0.0800 
 41 H        7.4380     0.4740    -1.7740 H     1 <1>   0.0800 
 42 H        7.3540    -0.6970    -0.4780 H     1 <1>   0.0800 
 43 H        3.1690    -8.3360    -0.8460 H     1 <1>   0.0800 
 44 H        1.5620    -7.6310    -0.9790 H     1 <1>   0.0800 
 45 H        2.4230    -7.6100     0.5730 H     1 <1>   0.0800 
 46 H       -2.0720    -4.2400     1.9810 H     1 <1>   0.0800 
 47 H       -0.6320    -5.2220     2.2190 H     1 <1>   0.0800 
 48 H       -1.4850    -5.2480     0.6640 H     1 <1>   0.0800 
@<TRIPOS>BOND
  1   1   2  2   
  2   2   3  am  
  3   2   4  1   
  4   3   5  1   
  5   3   6  1   
  6   4   7  ar  
  7   4   8  ar  
  8   5   9  1   
  9   5  10  1   
 10   5  24  1   
 11   6  11  1   
 12   6  25  1   
 13   6  26  1   
 14   7  12  ar  
 15   7  27  1   
 16   8  13  ar  
 17   8  28  1   
 18   9  14  1   
 19   9  29  1   
 20   9  30  1   
 21  10  15  1   
 22  10  31  1   
 23  10  32  1   
 24  11  16  1   
 25  11  17  1   
 26  11  33  1   
 27  12  18  1   
 28  12  19  ar  
 29  13  19  ar  
 30  13  20  1   
 31  14  16  1   
 32  15  17  1   
 33  15  21  1   
 34  15  34  1   
 35  16  35  1   
 36  16  36  1   
 37  17  37  1   
 38  17  38  1   
 39  18  22  1   
 40  19  39  1   
 41  20  23  1   
 42  21  40  1   
 43  21  41  1   
 44  21  42  1   
 45  22  43  1   
 46  22  44  1   
 47  22  45  1   
 48  23  46  1   
 49  23  47  1   
 50  23  48  1   
@<TRIPOS>SUBSTRUCTURE
  1 ****   2 GROUP 4 **** **** 0

# MOE 2024.06 (io_trps.svl 2023.06)
