@<TRIPOS>MOLECULE
NONAME
31 32 1 0 0 
SMALL
USER_CHARGES


@<TRIPOS>ATOM
  1 S        0.5090    -0.1070    -0.3910 S.3   1 <1>  -0.0800 
  2 C        2.0420     0.6040     0.0500 C.2   1 <1>   0.2280 
  3 C       -0.1440     1.4880    -0.5760 C.2   1 <1>  -0.1100 
  4 N        2.0520     1.8770     0.0560 N.2   1 <1>  -0.5650 
  5 C        0.8000     2.4160    -0.3020 C.2   1 <1>   0.1410 
  6 C        0.6130     3.8570    -0.3530 C.2   1 <1>   0.7160 
  7 O       -0.4570     4.3380    -0.6780 O.2   1 <1>  -0.5700 
  8 N        1.6790     4.6580    -0.0320 N.am  1 <1>  -0.4940 
  9 C        1.8900     6.0580    -0.0730 C.2   1 <1>  -0.0880 
 10 N        0.9880     7.0510     0.1740 N.pl3 1 <1>   0.3140 
 11 C        3.0640     6.6760    -0.3480 C.2   1 <1>  -0.1810 
 12 N        1.5560     8.2710     0.0630 N.2   1 <1>  -0.7070 
 13 C       -0.4090     6.9440     0.6140 C.3   1 <1>   0.0160 
 14 C        2.7910     8.0380    -0.2500 C.2   1 <1>   0.1080 
 15 C        4.4040     6.0490    -0.6950 C.3   1 <1>  -0.0590 
 16 C        3.7860     9.1630    -0.4720 C.3   1 <1>   0.0210 
 17 C        4.5110     9.5250     0.8280 C.3   1 <1>  -0.2400 
 18 H        2.8460    -0.0740     0.2800 H     1 <1>   0.1500 
 19 H       -1.1720     1.5910    -0.8730 H     1 <1>   0.1500 
 20 H        2.5140     4.0970     0.1550 H     1 <1>   0.3700 
 21 H       -0.5120     6.1080     1.2790 H     1 <1>   0.0800 
 22 H       -1.0360     6.8090    -0.2470 H     1 <1>   0.0800 
 23 H       -0.6880     7.8470     1.1240 H     1 <1>   0.0800 
 24 H        4.3340     4.9780    -0.7090 H     1 <1>   0.0800 
 25 H        5.1410     6.3380     0.0330 H     1 <1>   0.0800 
 26 H        4.7210     6.3830    -1.6660 H     1 <1>   0.0800 
 27 H        3.2530    10.0240    -0.8370 H     1 <1>   0.0800 
 28 H        4.4980     8.8740    -1.2220 H     1 <1>   0.0800 
 29 H        3.7920     9.8270     1.5700 H     1 <1>   0.0800 
 30 H        5.1970    10.3350     0.6590 H     1 <1>   0.0800 
 31 H        5.0540     8.6760     1.2010 H     1 <1>   0.0800 
@<TRIPOS>BOND
  1   1   2  1   
  2   1   3  1   
  3   2   4  2   
  4   2  18  1   
  5   3   5  2   
  6   3  19  1   
  7   4   5  1   
  8   5   6  1   
  9   6   7  2   
 10   6   8  am  
 11   8   9  1   
 12   8  20  1   
 13   9  10  1   
 14   9  11  2   
 15  10  12  1   
 16  10  13  1   
 17  11  14  1   
 18  11  15  1   
 19  12  14  2   
 20  13  21  1   
 21  13  22  1   
 22  13  23  1   
 23  14  16  1   
 24  15  24  1   
 25  15  25  1   
 26  15  26  1   
 27  16  17  1   
 28  16  27  1   
 29  16  28  1   
 30  17  29  1   
 31  17  30  1   
 32  17  31  1   
@<TRIPOS>SUBSTRUCTURE
  1 ****   8 GROUP 4 **** **** 0

# MOE 2024.06 (io_trps.svl 2023.06)
