@<TRIPOS>MOLECULE
NONAME
45 47 1 0 0 
SMALL
USER_CHARGES


@<TRIPOS>ATOM
  1 F       -1.6610     1.0260     2.1030 F     1 <1>  -0.1900 
  2 C       -2.4040     1.2810     1.0610 C.ar  1 <1>   0.1900 
  3 C       -1.8900     2.0210     0.0090 C.ar  1 <1>  -0.1440 
  4 C       -3.6950     0.7870     1.0720 C.ar  1 <1>  -0.1500 
  5 C       -2.7340     2.2600    -1.0720 C.ar  1 <1>  -0.1500 
  6 C       -0.4490     2.5350     0.0680 C.3   1 <1>   1.1640 
  7 C       -4.5270     1.0400    -0.0080 C.ar  1 <1>  -0.1440 
  8 C       -4.0340     1.7750    -1.0790 C.ar  1 <1>  -0.1500 
  9 F       -0.1110     3.2210    -1.0180 F     1 <1>  -0.3400 
 10 F       -0.2460     3.3520     1.0930 F     1 <1>  -0.3400 
 11 F        0.4390     1.5560     0.1730 F     1 <1>  -0.3400 
 12 C       -5.9520     0.5190    -0.0220 C.3   1 <1>   0.4870 
 13 N       -6.7640     1.3060     0.9460 N.4   1 <1>  -0.9590 
 14 C       -8.0760     0.6430     1.2540 C.3   1 <1>   0.3430 
 15 C       -6.9330     2.7350     0.5060 C.3   1 <1>   0.3430 
 16 C       -9.0310     0.5670     0.0400 C.3   1 <1>   0.0000 
 17 C       -8.2950     3.0120    -0.1450 C.3   1 <1>  -0.1600 
 18 C      -10.4640     0.4070     0.5800 C.3   1 <1>   0.2000 
 19 C       -8.8640     1.8010    -0.8980 C.3   1 <1>  -0.1600 
 20 C       -8.9010    -0.7290    -0.7820 C.3   1 <1>  -0.1600 
 21 O      -10.9830     1.6070     1.0210 O.3   1 <1>  -0.6800 
 22 C      -11.2860    -0.1730    -0.5670 C.3   1 <1>  -0.1600 
 23 C      -10.2740    -0.9310    -1.4380 C.3   1 <1>  -0.1600 
 24 H       -4.0190     0.2100     1.9210 H     1 <1>   0.1500 
 25 H       -2.3860     2.8260    -1.9230 H     1 <1>   0.1500 
 26 H       -4.6540     1.9780    -1.9380 H     1 <1>   0.1500 
 27 H       -5.9510    -0.5220     0.2580 H     1 <1>   0.0800 
 28 H       -6.3670     0.6040    -1.0120 H     1 <1>   0.0800 
 29 H       -6.2130     1.3340     1.8120 H     1 <1>   0.4500 
 30 H       -7.9150    -0.3460     1.6490 H     1 <1>   0.0800 
 31 H       -8.5730     1.2200     2.0190 H     1 <1>   0.0800 
 32 H       -6.8270     3.3890     1.3570 H     1 <1>   0.0800 
 33 H       -6.1520     2.9910    -0.1910 H     1 <1>   0.0800 
 34 H       -8.9900     3.3160     0.6190 H     1 <1>   0.0800 
 35 H       -8.1970     3.8460    -0.8180 H     1 <1>   0.0800 
 36 H      -10.4800    -0.2870     1.4060 H     1 <1>   0.0800 
 37 H       -8.1980     1.5710    -1.7100 H     1 <1>   0.0800 
 38 H       -9.8070     2.0720    -1.3440 H     1 <1>   0.0800 
 39 H       -8.1210    -0.6990    -1.5220 H     1 <1>   0.0800 
 40 H       -8.7150    -1.5620    -0.1250 H     1 <1>   0.0800 
 41 H      -11.9450     1.5220     1.1800 H     1 <1>   0.4000 
 42 H      -12.0470    -0.8370    -0.1960 H     1 <1>   0.0800 
 43 H      -11.7440     0.6110    -1.1470 H     1 <1>   0.0800 
 44 H      -10.5190    -1.9780    -1.5070 H     1 <1>   0.0800 
 45 H      -10.2740    -0.5140    -2.4320 H     1 <1>   0.0800 
@<TRIPOS>BOND
  1   1   2  1   
  2   2   3  ar  
  3   2   4  ar  
  4   3   5  ar  
  5   3   6  1   
  6   4   7  ar  
  7   4  24  1   
  8   5   8  ar  
  9   5  25  1   
 10   6   9  1   
 11   6  10  1   
 12   6  11  1   
 13   7   8  ar  
 14   7  12  1   
 15   8  26  1   
 16  12  13  1   
 17  12  27  1   
 18  12  28  1   
 19  13  14  1   
 20  13  15  1   
 21  13  29  1   
 22  14  16  1   
 23  14  30  1   
 24  14  31  1   
 25  15  17  1   
 26  15  32  1   
 27  15  33  1   
 28  16  18  1   
 29  16  19  1   
 30  16  20  1   
 31  17  19  1   
 32  17  34  1   
 33  17  35  1   
 34  18  21  1   
 35  18  22  1   
 36  18  36  1   
 37  19  37  1   
 38  19  38  1   
 39  20  23  1   
 40  20  39  1   
 41  20  40  1   
 42  21  41  1   
 43  22  23  1   
 44  22  42  1   
 45  22  43  1   
 46  23  44  1   
 47  23  45  1   
@<TRIPOS>SUBSTRUCTURE
  1 ****  12 GROUP 4 **** **** 0

# MOE 2024.06 (io_trps.svl 2023.06)
