@<TRIPOS>MOLECULE
NONAME
52 54 1 0 0 
SMALL
USER_CHARGES


@<TRIPOS>ATOM
  1 O        4.7650     0.6370    -2.4560 O.2   1 <1>  -0.5700 
  2 C        4.4090     1.1150    -1.4080 C.2   1 <1>   0.6900 
  3 N        4.6310     0.4860    -0.2280 N.am  1 <1>  -0.4900 
  4 N        3.7670     2.3230    -1.3920 N.am  1 <1>  -0.5390 
  5 C        4.2320     1.0050     0.9650 C.2   1 <1>   0.6160 
  6 C        3.3390     2.9240    -0.2090 C.2   1 <1>  -0.0290 
  7 O        4.4680     0.4000     1.9850 O.2   1 <1>  -0.5700 
  8 C        3.5630     2.2650     0.9540 C.2   1 <1>  -0.1360 
  9 C        2.6620     4.2900    -0.2810 C.3   1 <1>   0.4810 
 10 N        3.6540     5.3010    -0.7490 N.4   1 <1>  -0.9590 
 11 C        4.7630     5.4950     0.2300 C.3   1 <1>   0.3430 
 12 C        3.0060     6.5940    -1.1060 C.3   1 <1>   0.3430 
 13 C        5.8420     6.3680    -0.4040 C.3   1 <1>  -0.1600 
 14 C        4.0360     7.5000    -1.7770 C.3   1 <1>  -0.1600 
 15 C        5.2890     7.7160    -0.9060 C.3   1 <1>  -0.0190 
 16 C        6.3620     8.4700    -1.6860 C.2   1 <1>   0.5690 
 17 O        6.7860     7.9800    -2.7030 O.2   1 <1>  -0.5700 
 18 N        6.8130     9.6570    -1.2230 N.am  1 <1>  -0.7300 
 19 C        7.8690    10.4500    -1.8730 C.3   1 <1>   0.2840 
 20 C        8.3170    11.5080    -0.8840 C.ar  1 <1>  -0.1430 
 21 C        9.3690    11.2550    -0.0150 C.ar  1 <1>  -0.1500 
 22 C        7.6710    12.7340    -0.8310 C.ar  1 <1>  -0.1500 
 23 C        9.7730    12.2150     0.8970 C.ar  1 <1>  -0.1500 
 24 C        8.0730    13.6940     0.0800 C.ar  1 <1>  -0.1500 
 25 C        9.1230    13.4450     0.9490 C.ar  1 <1>   0.0830 
 26 O        9.4520    14.4390     1.8110 O.3   1 <1>  -0.3620 
 27 C       10.5190    14.2970     2.7220 C.3   1 <1>   0.0400 
 28 H        5.1000    -0.4150    -0.2370 H     1 <1>   0.3700 
 29 H        3.5690     2.6670    -2.3360 H     1 <1>   0.3700 
 30 H        3.2680     2.6350     1.9190 H     1 <1>   0.1500 
 31 H        2.2840     4.5650     0.6910 H     1 <1>   0.0800 
 32 H        1.8310     4.2370    -0.9660 H     1 <1>   0.0800 
 33 H        4.0900     4.9270    -1.6030 H     1 <1>   0.4500 
 34 H        5.1940     4.5440     0.5010 H     1 <1>   0.0800 
 35 H        4.3900     5.9680     1.1240 H     1 <1>   0.0800 
 36 H        2.6230     7.0730    -0.2190 H     1 <1>   0.0800 
 37 H        2.1850     6.4250    -1.7850 H     1 <1>   0.0800 
 38 H        6.2920     5.8280    -1.2210 H     1 <1>   0.0800 
 39 H        6.6200     6.5490     0.3190 H     1 <1>   0.0800 
 40 H        3.5830     8.4530    -1.9900 H     1 <1>   0.0800 
 41 H        4.3160     7.0670    -2.7230 H     1 <1>   0.0800 
 42 H        5.0110     8.3080    -0.0520 H     1 <1>   0.0800 
 43 H        6.4790    10.0720    -0.3510 H     1 <1>   0.3700 
 44 H        7.4790    10.9090    -2.7660 H     1 <1>   0.0800 
 45 H        8.6910     9.8100    -2.1480 H     1 <1>   0.0800 
 46 H        9.8780    10.3070    -0.0460 H     1 <1>   0.1500 
 47 H        6.8530    12.9470    -1.4980 H     1 <1>   0.1500 
 48 H       10.5900    11.9900     1.5550 H     1 <1>   0.1500 
 49 H        7.5750    14.6460     0.1250 H     1 <1>   0.1500 
 50 H       10.5950    15.2060     3.2910 H     1 <1>   0.0800 
 51 H       11.4280    14.1330     2.1720 H     1 <1>   0.0800 
 52 H       10.3090    13.4710     3.3790 H     1 <1>   0.0800 
@<TRIPOS>BOND
  1   1   2  2   
  2   2   3  am  
  3   2   4  am  
  4   3   5  am  
  5   3  28  1   
  6   4   6  1   
  7   4  29  1   
  8   5   7  2   
  9   5   8  1   
 10   6   8  2   
 11   6   9  1   
 12   8  30  1   
 13   9  10  1   
 14   9  31  1   
 15   9  32  1   
 16  10  11  1   
 17  10  12  1   
 18  10  33  1   
 19  11  13  1   
 20  11  34  1   
 21  11  35  1   
 22  12  14  1   
 23  12  36  1   
 24  12  37  1   
 25  13  15  1   
 26  13  38  1   
 27  13  39  1   
 28  14  15  1   
 29  14  40  1   
 30  14  41  1   
 31  15  16  1   
 32  15  42  1   
 33  16  17  2   
 34  16  18  am  
 35  18  19  1   
 36  18  43  1   
 37  19  20  1   
 38  19  44  1   
 39  19  45  1   
 40  20  21  ar  
 41  20  22  ar  
 42  21  23  ar  
 43  21  46  1   
 44  22  24  ar  
 45  22  47  1   
 46  23  25  ar  
 47  23  48  1   
 48  24  25  ar  
 49  24  49  1   
 50  25  26  1   
 51  26  27  1   
 52  27  50  1   
 53  27  51  1   
 54  27  52  1   
@<TRIPOS>SUBSTRUCTURE
  1 ****  13 GROUP 4 **** **** 0

# MOE 2024.06 (io_trps.svl 2023.06)
