@<TRIPOS>MOLECULE
NONAME
51 53 1 0 0 
SMALL
USER_CHARGES


@<TRIPOS>ATOM
  1 O       -0.8780     0.3560    -0.9080 O.2   1 <1>  -0.5700 
  2 C       -1.6850     0.9680    -0.2360 C.2   1 <1>   0.5440 
  3 N       -2.7380     0.2780     0.3220 N.am  1 <1>  -0.6600 
  4 C       -1.5320     2.3970    -0.0680 C.ar  1 <1>   0.0860 
  5 C       -2.7650    -1.2180     0.3630 C.3   1 <1>   0.1400 
  6 C       -4.0960     0.8750     0.5100 C.3   1 <1>   0.1400 
  7 C       -1.1650     3.1960    -1.1470 C.ar  1 <1>   0.1600 
  8 C       -1.7390     3.0370     1.1470 C.ar  1 <1>  -0.1500 
  9 C       -3.8440    -1.7720    -0.5830 C.3   1 <1>   0.3440 
 10 C       -5.1180     0.2200    -0.4500 C.3   1 <1>   0.2000 
 11 N       -1.0250     4.5120    -1.1250 N.ar  1 <1>  -0.6200 
 12 C       -1.5890     4.4060     1.1930 C.ar  1 <1>  -0.1500 
 13 O       -5.0830    -1.1760    -0.2910 O.3   1 <1>  -0.5600 
 14 C       -3.9560    -3.2870    -0.4420 C.ar  1 <1>  -0.1430 
 15 C       -6.5850     0.7190    -0.2770 C.3   1 <1>   0.0000 
 16 C       -1.2370     5.0940     0.0430 C.ar  1 <1>   0.1670 
 17 C       -3.1680    -4.1050    -1.2390 C.ar  1 <1>  -0.1500 
 18 C       -4.8200    -3.8710     0.4750 C.ar  1 <1>  -0.1500 
 19 C       -7.4810     0.0510    -1.3370 C.3   1 <1>  -0.2400 
 20 C       -6.6760     2.2420    -0.4860 C.3   1 <1>  -0.2400 
 21 C       -7.1540     0.3830     1.1140 C.3   1 <1>  -0.2400 
 22 C       -1.0690     6.5980     0.0710 C.3   1 <1>  -0.0970 
 23 C       -3.2400    -5.4830    -1.1220 C.ar  1 <1>  -0.1500 
 24 C       -4.8940    -5.2480     0.5940 C.ar  1 <1>  -0.1500 
 25 C       -4.1030    -6.0550    -0.2040 C.ar  1 <1>  -0.1500 
 26 H       -1.8080    -1.6250     0.0850 H     1 <1>   0.0800 
 27 H       -2.9770    -1.5440     1.3650 H     1 <1>   0.0800 
 28 H       -4.4040     0.7250     1.5290 H     1 <1>   0.0800 
 29 H       -4.0650     1.9320     0.3220 H     1 <1>   0.0800 
 30 H       -0.9800     2.7060    -2.0890 H     1 <1>   0.1500 
 31 H       -2.0050     2.4730     2.0240 H     1 <1>   0.1500 
 32 H       -3.5910    -1.5280    -1.6000 H     1 <1>   0.0800 
 33 H       -4.8140     0.4350    -1.4600 H     1 <1>   0.0800 
 34 H       -1.7410     4.9340     2.1170 H     1 <1>   0.1500 
 35 H       -2.4910    -3.6740    -1.9560 H     1 <1>   0.1500 
 36 H       -5.4410    -3.2520     1.0990 H     1 <1>   0.1500 
 37 H       -8.4940     0.4020    -1.2600 H     1 <1>   0.0800 
 38 H       -7.4880    -1.0180    -1.2070 H     1 <1>   0.0800 
 39 H       -7.1210     0.2650    -2.3280 H     1 <1>   0.0800 
 40 H       -7.7030     2.5620    -0.4690 H     1 <1>   0.0800 
 41 H       -6.2550     2.5190    -1.4370 H     1 <1>   0.0800 
 42 H       -6.1570     2.7760     0.2880 H     1 <1>   0.0800 
 43 H       -8.1850     0.6800     1.1810 H     1 <1>   0.0800 
 44 H       -6.6120     0.8890     1.8920 H     1 <1>   0.0800 
 45 H       -7.1000    -0.6760     1.2960 H     1 <1>   0.0800 
 46 H       -1.2580     6.9940     1.0520 H     1 <1>   0.0800 
 47 H       -1.7540     7.0490    -0.6250 H     1 <1>   0.0800 
 48 H       -0.0660     6.8520    -0.2200 H     1 <1>   0.0800 
 49 H       -2.6250    -6.1090    -1.7440 H     1 <1>   0.1500 
 50 H       -5.5680    -5.6890     1.3070 H     1 <1>   0.1500 
 51 H       -4.1610    -7.1260    -0.1120 H     1 <1>   0.1500 
@<TRIPOS>BOND
  1   1   2  2   
  2   2   3  am  
  3   2   4  1   
  4   3   5  1   
  5   3   6  1   
  6   4   7  ar  
  7   4   8  ar  
  8   5   9  1   
  9   5  26  1   
 10   5  27  1   
 11   6  10  1   
 12   6  28  1   
 13   6  29  1   
 14   7  11  ar  
 15   7  30  1   
 16   8  12  ar  
 17   8  31  1   
 18   9  13  1   
 19   9  14  1   
 20   9  32  1   
 21  10  13  1   
 22  10  15  1   
 23  10  33  1   
 24  11  16  ar  
 25  12  16  ar  
 26  12  34  1   
 27  14  17  ar  
 28  14  18  ar  
 29  15  19  1   
 30  15  20  1   
 31  15  21  1   
 32  16  22  1   
 33  17  23  ar  
 34  17  35  1   
 35  18  24  ar  
 36  18  36  1   
 37  19  37  1   
 38  19  38  1   
 39  19  39  1   
 40  20  40  1   
 41  20  41  1   
 42  20  42  1   
 43  21  43  1   
 44  21  44  1   
 45  21  45  1   
 46  22  46  1   
 47  22  47  1   
 48  22  48  1   
 49  23  25  ar  
 50  23  49  1   
 51  24  25  ar  
 52  24  50  1   
 53  25  51  1   
@<TRIPOS>SUBSTRUCTURE
  1 ****   3 GROUP 4 **** **** 0

# MOE 2024.06 (io_trps.svl 2023.06)
