@<TRIPOS>MOLECULE
NONAME
58 62 1 0 0 
SMALL
USER_CHARGES


@<TRIPOS>ATOM
  1 O        0.3440     1.1650     0.9940 O.2   1 <1>  -0.5700 
  2 C        0.2520     2.3540     0.8220 C.2   1 <1>   0.5690 
  3 N       -0.8410     3.0280     1.2370 N.am  1 <1>  -0.7300 
  4 C        1.3640     3.1100     0.0890 C.3   1 <1>   0.1810 
  5 C       -1.0260     4.4890     1.0550 C.3   1 <1>   0.3640 
  6 O        1.3080     4.5060     0.2850 O.3   1 <1>  -0.5600 
  7 C       -2.4400     4.7380     0.5310 C.ar  1 <1>  -0.1440 
  8 C        0.0280     5.0890     0.0870 C.3   1 <1>   0.2610 
  9 C       -3.1950     5.7750     1.0590 C.ar  1 <1>  -0.1500 
 10 C       -2.9880     3.9550    -0.4780 C.ar  1 <1>  -0.1500 
 11 C        0.1070     6.6230     0.2070 C.2   1 <1>   0.5690 
 12 C       -4.4740     6.0250     0.5930 C.ar  1 <1>  -0.1500 
 13 C       -4.2670     4.2030    -0.9460 C.ar  1 <1>  -0.1500 
 14 O       -0.3050     7.1490     1.2180 O.2   1 <1>  -0.5700 
 15 N        0.6370     7.3760    -0.8200 N.am  1 <1>  -0.6600 
 16 C       -5.0110     5.2390    -0.4100 C.ar  1 <1>  -0.1500 
 17 C        0.7370     8.8680    -0.7090 C.3   1 <1>   0.1400 
 18 C        1.0830     6.7860    -2.1130 C.3   1 <1>   0.0600 
 19 C        2.1020     9.3910    -0.1880 C.3   1 <1>   0.0000 
 20 C        2.0160    10.9330    -0.0830 C.3   1 <1>  -0.1600 
 21 C        2.4310     8.8320     1.2180 C.3   1 <1>  -0.1600 
 22 C        3.2730     9.0380    -1.1370 C.3   1 <1>  -0.1600 
 23 C        3.3350    11.5310     0.4410 C.3   1 <1>  -0.0800 
 24 C        3.7530     9.4170     1.7490 C.3   1 <1>  -0.0800 
 25 C        4.6000     9.6260    -0.6190 C.3   1 <1>  -0.0800 
 26 C        3.6320    10.9490     1.8350 C.3   1 <1>  -0.1600 
 27 C        4.4750    11.1570    -0.5230 C.3   1 <1>  -0.1600 
 28 C        4.8930     9.0520     0.7800 C.3   1 <1>  -0.1600 
 29 H       -1.5850     2.5220     1.7200 H     1 <1>   0.3700 
 30 H        1.2950     2.9130    -0.9650 H     1 <1>   0.0800 
 31 H        2.3190     2.7680     0.4440 H     1 <1>   0.0800 
 32 H       -0.9200     4.9500     2.0220 H     1 <1>   0.0800 
 33 H       -0.2770     4.8530    -0.9150 H     1 <1>   0.0800 
 34 H       -2.7900     6.4020     1.8370 H     1 <1>   0.1500 
 35 H       -2.4260     3.1420    -0.9060 H     1 <1>   0.1500 
 36 H       -5.0490     6.8330     1.0100 H     1 <1>   0.1500 
 37 H       -4.6850     3.5890    -1.7250 H     1 <1>   0.1500 
 38 H       -6.0060     5.4330    -0.7730 H     1 <1>   0.1500 
 39 H        0.5340     9.3040    -1.6710 H     1 <1>   0.0800 
 40 H       -0.0350     9.2170    -0.0440 H     1 <1>   0.0800 
 41 H        1.5100     7.5420    -2.7480 H     1 <1>   0.0800 
 42 H        0.2440     6.3480    -2.6230 H     1 <1>   0.0800 
 43 H        1.8280     6.0310    -1.9300 H     1 <1>   0.0800 
 44 H        1.7950    11.3540    -1.0480 H     1 <1>   0.0800 
 45 H        1.2160    11.2080     0.5820 H     1 <1>   0.0800 
 46 H        1.6320     9.0660     1.9000 H     1 <1>   0.0800 
 47 H        2.5140     7.7610     1.1760 H     1 <1>   0.0800 
 48 H        3.3780     7.9700    -1.2030 H     1 <1>   0.0800 
 49 H        3.0730     9.4150    -2.1240 H     1 <1>   0.0800 
 50 H        3.2490    12.6020     0.5050 H     1 <1>   0.0800 
 51 H        3.9610     9.0130     2.7250 H     1 <1>   0.0800 
 52 H        5.4000     9.3680    -1.2910 H     1 <1>   0.0800 
 53 H        2.8430    11.2130     2.5170 H     1 <1>   0.0800 
 54 H        4.5480    11.3660     2.2160 H     1 <1>   0.0800 
 55 H        5.4010    11.5750    -0.1700 H     1 <1>   0.0800 
 56 H        4.2800    11.5690    -1.4970 H     1 <1>   0.0800 
 57 H        4.9910     7.9820     0.7220 H     1 <1>   0.0800 
 58 H        5.8240     9.4460     1.1480 H     1 <1>   0.0800 
@<TRIPOS>BOND
  1   1   2  2   
  2   2   3  am  
  3   2   4  1   
  4   3   5  1   
  5   3  29  1   
  6   4   6  1   
  7   4  30  1   
  8   4  31  1   
  9   5   7  1   
 10   5   8  1   
 11   5  32  1   
 12   6   8  1   
 13   7   9  ar  
 14   7  10  ar  
 15   8  11  1   
 16   8  33  1   
 17   9  12  ar  
 18   9  34  1   
 19  10  13  ar  
 20  10  35  1   
 21  11  14  2   
 22  11  15  am  
 23  12  16  ar  
 24  12  36  1   
 25  13  16  ar  
 26  13  37  1   
 27  15  17  1   
 28  15  18  1   
 29  16  38  1   
 30  17  19  1   
 31  17  39  1   
 32  17  40  1   
 33  18  41  1   
 34  18  42  1   
 35  18  43  1   
 36  19  20  1   
 37  19  21  1   
 38  19  22  1   
 39  20  23  1   
 40  20  44  1   
 41  20  45  1   
 42  21  24  1   
 43  21  46  1   
 44  21  47  1   
 45  22  25  1   
 46  22  48  1   
 47  22  49  1   
 48  23  26  1   
 49  23  27  1   
 50  23  50  1   
 51  24  26  1   
 52  24  28  1   
 53  24  51  1   
 54  25  27  1   
 55  25  28  1   
 56  25  52  1   
 57  26  53  1   
 58  26  54  1   
 59  27  55  1   
 60  27  56  1   
 61  28  57  1   
 62  28  58  1   
@<TRIPOS>SUBSTRUCTURE
  1 ****  11 GROUP 4 **** **** 0

# MOE 2024.06 (io_trps.svl 2023.06)
