@<TRIPOS>MOLECULE
NONAME
31 32 1 0 0 
SMALL
USER_CHARGES


@<TRIPOS>ATOM
  1 N       -0.1520     1.3600    -0.8670 N.ar  1 <1>  -0.6200 
  2 C        0.8020     2.1450    -0.3710 C.ar  1 <1>   0.7710 
  3 C       -0.7580     0.5240    -0.0580 C.ar  1 <1>   0.4100 
  4 N        1.1200     2.0870     0.9410 N.ar  1 <1>  -0.1790 
  5 N        1.4430     2.9970    -1.2330 N.pl3 1 <1>  -0.8380 
  6 N       -1.7060    -0.2370    -0.6060 N.pl3 1 <1>  -0.9000 
  7 C       -0.4430     0.4220     1.3050 C.ar  1 <1>  -0.1500 
  8 C        0.5230     1.2290     1.8010 C.ar  1 <1>   0.2110 
  9 C        2.5790     3.9590    -0.9990 C.3   1 <1>   0.3900 
 10 C        1.0240     3.0150    -2.6770 C.3   1 <1>   0.1290 
 11 C        3.0100     4.0250     0.4510 C.2   1 <1>  -0.1810 
 12 C        2.5640     4.8140     1.4560 C.2   1 <1>  -0.3320 
 13 C        3.9480     3.1850     1.0400 C.2   1 <1>   0.1390 
 14 N        3.2260     4.4360     2.5690 N.pl3 1 <1>   0.3000 
 15 C        1.5380     5.9390     1.4410 C.3   1 <1>  -0.0600 
 16 N        4.0280     3.3840     2.3160 N.2   1 <1>  -0.7070 
 17 H        1.8560     2.7300     1.2480 H     1 <1>   0.4570 
 18 H       -2.2660    -0.9360    -0.1120 H     1 <1>   0.4000 
 19 H       -1.9200    -0.1480    -1.6030 H     1 <1>   0.4000 
 20 H       -0.9720    -0.2890     1.9120 H     1 <1>   0.1500 
 21 H        0.8340     1.2180     2.8340 H     1 <1>   0.1500 
 22 H        2.2770     4.9440    -1.3140 H     1 <1>   0.0800 
 23 H        3.4220     3.6680    -1.6050 H     1 <1>   0.0800 
 24 H       -0.0390     3.1810    -2.7520 H     1 <1>   0.0800 
 25 H        1.2560     2.0690    -3.1370 H     1 <1>   0.0800 
 26 H        1.5240     3.7950    -3.2260 H     1 <1>   0.0800 
 27 H        4.5270     2.4340     0.5210 H     1 <1>   0.1500 
 28 H        3.1600     4.8660     3.5040 H     1 <1>   0.2700 
 29 H        1.0990     6.0460     0.4650 H     1 <1>   0.0800 
 30 H        2.0090     6.8710     1.7020 H     1 <1>   0.0800 
 31 H        0.7500     5.7430     2.1470 H     1 <1>   0.0800 
@<TRIPOS>BOND
  1   1   2  ar  
  2   1   3  ar  
  3   2   4  ar  
  4   2   5  1   
  5   3   6  1   
  6   3   7  ar  
  7   4   8  ar  
  8   4  17  1   
  9   5   9  1   
 10   5  10  1   
 11   6  18  1   
 12   6  19  1   
 13   7   8  ar  
 14   7  20  1   
 15   8  21  1   
 16   9  11  1   
 17   9  22  1   
 18   9  23  1   
 19  10  24  1   
 20  10  25  1   
 21  10  26  1   
 22  11  12  2   
 23  11  13  1   
 24  12  14  1   
 25  12  15  1   
 26  13  16  2   
 27  13  27  1   
 28  14  16  1   
 29  14  28  1   
 30  15  29  1   
 31  15  30  1   
 32  15  31  1   
@<TRIPOS>SUBSTRUCTURE
  1 ****   4 GROUP 4 **** **** 0

# MOE 2024.06 (io_trps.svl 2023.06)
