@<TRIPOS>MOLECULE
NONAME
50 52 1 0 0 
SMALL
USER_CHARGES


@<TRIPOS>ATOM
  1 O       -0.1870     0.7400    -0.3650 O.2   1 <1>  -0.5700 
  2 C       -0.2610     1.9420    -0.4770 C.2   1 <1>   0.5690 
  3 N       -1.0270     2.7100     0.3590 N.am  1 <1>  -0.6600 
  4 C        0.5210     2.6100    -1.6090 C.3   1 <1>   0.1810 
  5 C       -1.1200     4.1960     0.1790 C.3   1 <1>   0.3640 
  6 C       -1.7480     2.1410     1.5350 C.3   1 <1>   0.0600 
  7 O        0.8070     3.9600    -1.3440 O.3   1 <1>  -0.5600 
  8 C       -2.5800     4.6770     0.1600 C.ar  1 <1>  -0.1430 
  9 C       -0.3380     4.7420    -1.0430 C.3   1 <1>   0.2610 
 10 C       -3.5880     4.1380    -0.6460 C.ar  1 <1>  -0.1430 
 11 C       -2.8950     5.7310     1.0100 C.ar  1 <1>  -0.1500 
 12 C        0.0160     6.2180    -0.8110 C.2   1 <1>   0.5690 
 13 C       -4.8730     4.6570    -0.5690 C.ar  1 <1>  -0.1500 
 14 C       -3.3680     2.9860    -1.6220 C.3   1 <1>  -0.0960 
 15 C       -4.1770     6.2420     1.0760 C.ar  1 <1>  -0.1500 
 16 O       -0.5960     7.0240    -1.4760 O.2   1 <1>  -0.5700 
 17 N        0.9530     6.6340     0.1160 N.am  1 <1>  -0.6600 
 18 C       -5.1700     5.7020     0.2850 C.ar  1 <1>  -0.1500 
 19 C        1.8650     5.7450     0.8920 C.3   1 <1>   0.1400 
 20 C        1.2890     8.0790     0.2670 C.3   1 <1>   0.1400 
 21 C        3.3030     5.9490     0.4080 C.3   1 <1>  -0.1600 
 22 C        2.7220     8.3220    -0.2160 C.3   1 <1>  -0.1600 
 23 C        3.7300     7.4210     0.5180 C.3   1 <1>  -0.0800 
 24 C        5.1410     7.6180    -0.0470 C.3   1 <1>  -0.2400 
 25 H       -0.0400     2.5510    -2.5230 H     1 <1>   0.0800 
 26 H        1.4570     2.1000    -1.7440 H     1 <1>   0.0800 
 27 H       -0.6610     4.6210     1.0520 H     1 <1>   0.0800 
 28 H       -1.4390     2.6460     2.4330 H     1 <1>   0.0800 
 29 H       -1.5360     1.0910     1.6400 H     1 <1>   0.0800 
 30 H       -2.8100     2.2650     1.4100 H     1 <1>   0.0800 
 31 H       -0.9730     4.7080    -1.9080 H     1 <1>   0.0800 
 32 H       -2.1380     6.1770     1.6320 H     1 <1>   0.1500 
 33 H       -5.6600     4.2500    -1.1780 H     1 <1>   0.1500 
 34 H       -4.1990     2.8910    -2.2970 H     1 <1>   0.0800 
 35 H       -3.2700     2.0610    -1.0850 H     1 <1>   0.0800 
 36 H       -2.4890     3.1430    -2.2140 H     1 <1>   0.0800 
 37 H       -4.4010     7.0590     1.7380 H     1 <1>   0.1500 
 38 H       -6.1710     6.0940     0.3310 H     1 <1>   0.1500 
 39 H        1.7960     5.9990     1.9350 H     1 <1>   0.0800 
 40 H        1.5980     4.7100     0.7900 H     1 <1>   0.0800 
 41 H        0.6090     8.6950    -0.2980 H     1 <1>   0.0800 
 42 H        1.1980     8.3550     1.3040 H     1 <1>   0.0800 
 43 H        3.9620     5.3340     0.9940 H     1 <1>   0.0800 
 44 H        3.3690     5.6190    -0.6150 H     1 <1>   0.0800 
 45 H        2.7600     8.1320    -1.2740 H     1 <1>   0.0800 
 46 H        2.9750     9.3550    -0.0590 H     1 <1>   0.0800 
 47 H        3.7390     7.6980     1.5590 H     1 <1>   0.0800 
 48 H        5.1720     7.3520    -1.0890 H     1 <1>   0.0800 
 49 H        5.8450     7.0040     0.4860 H     1 <1>   0.0800 
 50 H        5.4440     8.6460     0.0540 H     1 <1>   0.0800 
@<TRIPOS>BOND
  1   1   2  2   
  2   2   3  am  
  3   2   4  1   
  4   3   5  1   
  5   3   6  1   
  6   4   7  1   
  7   4  25  1   
  8   4  26  1   
  9   5   8  1   
 10   5   9  1   
 11   5  27  1   
 12   6  28  1   
 13   6  29  1   
 14   6  30  1   
 15   7   9  1   
 16   8  10  ar  
 17   8  11  ar  
 18   9  12  1   
 19   9  31  1   
 20  10  13  ar  
 21  10  14  1   
 22  11  15  ar  
 23  11  32  1   
 24  12  16  2   
 25  12  17  am  
 26  13  18  ar  
 27  13  33  1   
 28  14  34  1   
 29  14  35  1   
 30  14  36  1   
 31  15  18  ar  
 32  15  37  1   
 33  17  19  1   
 34  17  20  1   
 35  18  38  1   
 36  19  21  1   
 37  19  39  1   
 38  19  40  1   
 39  20  22  1   
 40  20  41  1   
 41  20  42  1   
 42  21  23  1   
 43  21  43  1   
 44  21  44  1   
 45  22  23  1   
 46  22  45  1   
 47  22  46  1   
 48  23  24  1   
 49  23  47  1   
 50  24  48  1   
 51  24  49  1   
 52  24  50  1   
@<TRIPOS>SUBSTRUCTURE
  1 ****   9 GROUP 4 **** **** 0

# MOE 2024.06 (io_trps.svl 2023.06)
