@<TRIPOS>MOLECULE
NONAME
36 37 1 0 0 
SMALL
USER_CHARGES


@<TRIPOS>ATOM
  1 F       -2.1870    -0.8080     1.9060 F     1 <1>  -0.1900 
  2 C       -2.3600     0.2680     1.1860 C.ar  1 <1>   0.1900 
  3 C       -2.6750     0.1290    -0.1610 C.ar  1 <1>  -0.1440 
  4 C       -2.2360     1.4970     1.8030 C.ar  1 <1>  -0.1500 
  5 C       -2.8700     1.2780    -0.9200 C.ar  1 <1>  -0.1500 
  6 C       -2.7950    -1.2510    -0.7810 C.3   1 <1>   0.4870 
  7 C       -2.4400     2.6130     1.0180 C.ar  1 <1>   0.1900 
  8 C       -2.7530     2.5280    -0.3280 C.ar  1 <1>  -0.1500 
  9 N       -3.9310    -1.9770    -0.1510 N.4   1 <1>  -0.9590 
 10 F       -2.3360     3.7920     1.5660 F     1 <1>  -0.1900 
 11 C       -3.9400    -3.4220    -0.5590 C.3   1 <1>   0.3430 
 12 C       -5.2400    -1.3130    -0.4220 C.3   1 <1>   0.3430 
 13 C       -5.0750    -4.2130     0.1180 C.3   1 <1>   0.2000 
 14 C       -6.3560    -2.0510     0.3150 C.3   1 <1>  -0.1600 
 15 O       -5.0870    -5.4740    -0.4480 O.3   1 <1>  -0.6800 
 16 C       -6.4430    -3.5390    -0.0940 C.3   1 <1>  -0.0800 
 17 C       -7.5610    -4.2750     0.6660 C.3   1 <1>   0.1200 
 18 O       -8.7550    -3.6100     0.4580 O.3   1 <1>  -0.6800 
 19 H       -1.9920     1.5860     2.8470 H     1 <1>   0.1500 
 20 H       -3.1080     1.2210    -1.9700 H     1 <1>   0.1500 
 21 H       -1.8760    -1.7910    -0.6130 H     1 <1>   0.0800 
 22 H       -2.9510    -1.1670    -1.8440 H     1 <1>   0.0800 
 23 H       -2.8990     3.4310    -0.8970 H     1 <1>   0.1500 
 24 H       -3.7620    -1.9280     0.8650 H     1 <1>   0.4500 
 25 H       -4.0750    -3.4900    -1.6260 H     1 <1>   0.0800 
 26 H       -3.0000    -3.8820    -0.3030 H     1 <1>   0.0800 
 27 H       -5.2120    -0.2860    -0.0910 H     1 <1>   0.0800 
 28 H       -5.4450    -1.3210    -1.4810 H     1 <1>   0.0800 
 29 H       -4.8610    -4.3260     1.1670 H     1 <1>   0.0800 
 30 H       -6.2110    -1.9600     1.3780 H     1 <1>   0.0800 
 31 H       -7.2850    -1.5590     0.0790 H     1 <1>   0.0800 
 32 H       -5.7300    -6.0670    -0.0090 H     1 <1>   0.4000 
 33 H       -6.6760    -3.5840    -1.1450 H     1 <1>   0.0800 
 34 H       -7.3680    -4.2930     1.7260 H     1 <1>   0.0800 
 35 H       -7.6770    -5.2820     0.3030 H     1 <1>   0.0800 
 36 H       -9.5030    -4.0790     0.8810 H     1 <1>   0.4000 
@<TRIPOS>BOND
  1   1   2  1   
  2   2   3  ar  
  3   2   4  ar  
  4   3   5  ar  
  5   3   6  1   
  6   4   7  ar  
  7   4  19  1   
  8   5   8  ar  
  9   5  20  1   
 10   6   9  1   
 11   6  21  1   
 12   6  22  1   
 13   7   8  ar  
 14   7  10  1   
 15   8  23  1   
 16   9  11  1   
 17   9  12  1   
 18   9  24  1   
 19  11  13  1   
 20  11  25  1   
 21  11  26  1   
 22  12  14  1   
 23  12  27  1   
 24  12  28  1   
 25  13  15  1   
 26  13  16  1   
 27  13  29  1   
 28  14  16  1   
 29  14  30  1   
 30  14  31  1   
 31  15  32  1   
 32  16  17  1   
 33  16  33  1   
 34  17  18  1   
 35  17  34  1   
 36  17  35  1   
 37  18  36  1   
@<TRIPOS>SUBSTRUCTURE
  1 ****   9 GROUP 4 **** **** 0

# MOE 2024.06 (io_trps.svl 2023.06)
