@<TRIPOS>MOLECULE
NONAME
52 54 1 0 0 
SMALL
USER_CHARGES


@<TRIPOS>ATOM
  1 S        0.2300     0.6990    -0.7630 S.o2  1 <1>   1.3330 
  2 O       -0.7920     1.6520    -1.1300 O.2   1 <1>  -0.6500 
  3 O        0.2620    -0.6000    -1.3960 O.2   1 <1>  -0.6500 
  4 N        0.1120     0.4560     0.9150 N.am  1 <1>  -0.8490 
  5 C        1.8410     1.4570    -0.9780 C.3   1 <1>  -0.0550 
  6 C       -0.7840    -0.6560     1.2500 C.3   1 <1>   0.1160 
  7 C       -0.2980     1.6590     1.6490 C.3   1 <1>   0.1160 
  8 C        3.0330     0.5350    -0.6390 C.3   1 <1>  -0.0800 
  9 C        4.3960     1.0970    -1.0150 C.3   1 <1>   0.2200 
 10 C        3.2000     0.2050     0.8500 C.3   1 <1>   0.1200 
 11 N        4.4820     2.5370    -0.6720 N.am  1 <1>  -0.7300 
 12 C        5.2930     0.3120    -0.0700 C.3   1 <1>   0.1200 
 13 O        4.5720     0.2320     1.1200 O.3   1 <1>  -0.5600 
 14 C        4.3780     3.5720    -1.5550 C.2   1 <1>   0.5440 
 15 O        4.1600     3.3090    -2.7210 O.2   1 <1>  -0.5700 
 16 C        4.4390     4.9440    -1.1040 C.ar  1 <1>   0.0860 
 17 C        5.4480     5.4370    -0.2360 C.ar  1 <1>   0.0000 
 18 C        3.4720     5.8330    -1.4940 C.ar  1 <1>  -0.1500 
 19 C        5.3230     6.7620     0.2470 C.ar  1 <1>   0.3100 
 20 C        6.5770     4.6860     0.1600 C.ar  1 <1>  -0.1500 
 21 C        3.4510     7.1360    -0.9970 C.ar  1 <1>   0.1670 
 22 N        4.3190     7.5860    -0.1510 N.ar  1 <1>  -0.6200 
 23 C        6.2840     7.2520     1.1630 C.ar  1 <1>  -0.1440 
 24 C        7.4980     5.1870     1.0370 C.ar  1 <1>  -0.1500 
 25 C        2.3650     8.0920    -1.4420 C.3   1 <1>  -0.0970 
 26 C        7.3450     6.4750     1.5490 C.ar  1 <1>  -0.1500 
 27 C        6.1480     8.6630     1.7260 C.3   1 <1>  -0.0970 
 28 H        1.9350     1.7520    -2.0060 H     1 <1>   0.0800 
 29 H        1.8920     2.3490    -0.3860 H     1 <1>   0.0800 
 30 H       -0.8290    -0.7920     2.3170 H     1 <1>   0.0800 
 31 H       -0.4190    -1.5690     0.8100 H     1 <1>   0.0800 
 32 H       -1.7750    -0.4640     0.8730 H     1 <1>   0.0800 
 33 H       -0.2680     1.4730     2.7090 H     1 <1>   0.0800 
 34 H       -1.2990     1.9470     1.3720 H     1 <1>   0.0800 
 35 H        0.3680     2.4750     1.4290 H     1 <1>   0.0800 
 36 H        2.9050    -0.3950    -1.1670 H     1 <1>   0.0800 
 37 H        4.6470     0.9330    -2.0510 H     1 <1>   0.0800 
 38 H        2.8130    -0.7720     1.0880 H     1 <1>   0.0800 
 39 H        2.7330     0.9420     1.4800 H     1 <1>   0.0800 
 40 H        4.5970     2.7200     0.3290 H     1 <1>   0.3700 
 41 H        6.2390     0.7930     0.1070 H     1 <1>   0.0800 
 42 H        5.4490    -0.6890    -0.4320 H     1 <1>   0.0800 
 43 H        2.7090     5.5220    -2.1840 H     1 <1>   0.1500 
 44 H        6.7290     3.7000    -0.2390 H     1 <1>   0.1500 
 45 H        8.3510     4.6020     1.3390 H     1 <1>   0.1500 
 46 H        1.7240     7.6420    -2.1770 H     1 <1>   0.0800 
 47 H        2.8140     8.9720    -1.8660 H     1 <1>   0.0800 
 48 H        1.7740     8.3830    -0.5930 H     1 <1>   0.0800 
 49 H        8.0800     6.8420     2.2440 H     1 <1>   0.1500 
 50 H        6.9400     8.8880     2.4170 H     1 <1>   0.0800 
 51 H        5.2080     8.7620     2.2380 H     1 <1>   0.0800 
 52 H        6.1790     9.3790     0.9240 H     1 <1>   0.0800 
@<TRIPOS>BOND
  1   1   2  2   
  2   1   3  2   
  3   1   4  am  
  4   1   5  1   
  5   4   6  1   
  6   4   7  1   
  7   5   8  1   
  8   5  28  1   
  9   5  29  1   
 10   6  30  1   
 11   6  31  1   
 12   6  32  1   
 13   7  33  1   
 14   7  34  1   
 15   7  35  1   
 16   8   9  1   
 17   8  10  1   
 18   8  36  1   
 19   9  11  1   
 20   9  12  1   
 21   9  37  1   
 22  10  13  1   
 23  10  38  1   
 24  10  39  1   
 25  11  14  am  
 26  11  40  1   
 27  12  13  1   
 28  12  41  1   
 29  12  42  1   
 30  14  15  2   
 31  14  16  1   
 32  16  17  ar  
 33  16  18  ar  
 34  17  19  ar  
 35  17  20  ar  
 36  18  21  ar  
 37  18  43  1   
 38  19  22  ar  
 39  19  23  ar  
 40  20  24  ar  
 41  20  44  1   
 42  21  22  ar  
 43  21  25  1   
 44  23  26  ar  
 45  23  27  1   
 46  24  26  ar  
 47  24  45  1   
 48  25  46  1   
 49  25  47  1   
 50  25  48  1   
 51  26  49  1   
 52  27  50  1   
 53  27  51  1   
 54  27  52  1   
@<TRIPOS>SUBSTRUCTURE
  1 ****  11 GROUP 4 **** **** 0

# MOE 2024.06 (io_trps.svl 2023.06)
