@<TRIPOS>MOLECULE
NONAME
46 49 1 0 0 
SMALL
USER_CHARGES


@<TRIPOS>ATOM
  1 F        2.4620    -3.9330     1.2890 F     1 <1>  -0.1900 
  2 C        2.1730    -3.4030     0.1310 C.ar  1 <1>   0.1900 
  3 C        0.9500    -2.7720    -0.0540 C.ar  1 <1>  -0.0320 
  4 C        3.1230    -3.5010    -0.8700 C.ar  1 <1>  -0.1500 
  5 C        0.6970    -2.2210    -1.3050 C.ar  1 <1>  -0.1500 
  6 C       -0.0830    -2.6920     1.0720 C.3   1 <1>   0.0320 
  7 C        2.8480    -2.9470    -2.1070 C.ar  1 <1>  -0.1500 
  8 C        1.6370    -2.3080    -2.3210 C.ar  1 <1>  -0.1500 
  9 C       -0.6360    -4.0640     1.4950 C.2   1 <1>   0.6300 
 10 C        0.1640    -1.6430     2.1220 C.3   1 <1>  -0.2000 
 11 C       -0.9900    -1.4930     1.1870 C.3   1 <1>  -0.2000 
 12 O       -0.4120    -4.4670     2.6130 O.2   1 <1>  -0.5700 
 13 N       -1.3880    -4.8090     0.6250 N.am  1 <1>  -0.6600 
 14 C       -1.7110    -4.4760    -0.7850 C.3   1 <1>   0.1400 
 15 C       -1.8830    -6.1660     0.9640 C.3   1 <1>   0.1400 
 16 C       -2.6640    -5.5830    -1.2380 C.3   1 <1>   0.2000 
 17 C       -2.2820    -6.7910    -0.3790 C.3   1 <1>  -0.0800 
 18 O       -3.9570    -5.2090    -0.9110 O.3   1 <1>  -0.6800 
 19 C       -1.1060    -7.5650    -1.0070 C.3   1 <1>   0.0200 
 20 C       -0.7010    -8.7470    -0.1480 C.2   1 <1>  -0.0400 
 21 O       -1.5170    -9.7530     0.0150 O.3   1 <1>  -0.0190 
 22 C        0.4150    -9.0010     0.5520 C.2   1 <1>  -0.1500 
 23 N       -1.0090   -10.6670     0.7900 N.2   1 <1>  -0.4100 
 24 C        0.1550   -10.2410     1.1280 C.2   1 <1>   0.1080 
 25 C        1.1060   -10.9900     2.0350 C.3   1 <1>  -0.0590 
 26 H        4.0560    -3.9990    -0.6770 H     1 <1>   0.1500 
 27 H       -0.2340    -1.7190    -1.4980 H     1 <1>   0.1500 
 28 H        3.5740    -3.0090    -2.9000 H     1 <1>   0.1500 
 29 H        1.4260    -1.8730    -3.2840 H     1 <1>   0.1500 
 30 H       -0.0230    -1.8980     3.1520 H     1 <1>   0.1000 
 31 H        1.0180    -1.0000     2.0090 H     1 <1>   0.1000 
 32 H       -0.9420    -0.6930     0.4710 H     1 <1>   0.1000 
 33 H       -1.9820    -1.6340     1.5800 H     1 <1>   0.1000 
 34 H       -2.1580    -3.5010    -0.8730 H     1 <1>   0.0800 
 35 H       -0.8090    -4.5180    -1.3700 H     1 <1>   0.0800 
 36 H       -1.1270    -6.7320     1.4830 H     1 <1>   0.0800 
 37 H       -2.7430    -6.0730     1.6040 H     1 <1>   0.0800 
 38 H       -2.6250    -5.7690    -2.2980 H     1 <1>   0.0800 
 39 H       -3.1130    -7.4650    -0.2610 H     1 <1>   0.0800 
 40 H       -3.9890    -4.9590     0.0340 H     1 <1>   0.4000 
 41 H       -0.2550    -6.9180    -1.1270 H     1 <1>   0.0800 
 42 H       -1.3880    -7.9300    -1.9790 H     1 <1>   0.0800 
 43 H        1.3070    -8.4130     0.6680 H     1 <1>   0.1500 
 44 H        1.3540   -10.3820     2.8850 H     1 <1>   0.0800 
 45 H        2.0040   -11.2350     1.4980 H     1 <1>   0.0800 
 46 H        0.6470   -11.8990     2.3780 H     1 <1>   0.0800 
@<TRIPOS>BOND
  1   1   2  1   
  2   2   3  ar  
  3   2   4  ar  
  4   3   5  ar  
  5   3   6  1   
  6   4   7  ar  
  7   4  26  1   
  8   5   8  ar  
  9   5  27  1   
 10   6   9  1   
 11   6  10  1   
 12   6  11  1   
 13   7   8  ar  
 14   7  28  1   
 15   8  29  1   
 16   9  12  2   
 17   9  13  am  
 18  10  11  1   
 19  10  30  1   
 20  10  31  1   
 21  11  32  1   
 22  11  33  1   
 23  13  14  1   
 24  13  15  1   
 25  14  16  1   
 26  14  34  1   
 27  14  35  1   
 28  15  17  1   
 29  15  36  1   
 30  15  37  1   
 31  16  17  1   
 32  16  18  1   
 33  16  38  1   
 34  17  19  1   
 35  17  39  1   
 36  18  40  1   
 37  19  20  1   
 38  19  41  1   
 39  19  42  1   
 40  20  21  1   
 41  20  22  2   
 42  21  23  1   
 43  22  24  1   
 44  22  43  1   
 45  23  24  2   
 46  24  25  1   
 47  25  44  1   
 48  25  45  1   
 49  25  46  1   
@<TRIPOS>SUBSTRUCTURE
  1 ****  13 GROUP 4 **** **** 0

# MOE 2024.06 (io_trps.svl 2023.06)
