@<TRIPOS>MOLECULE
NONAME
44 45 1 0 0 
SMALL
USER_CHARGES


@<TRIPOS>ATOM
  1 O        1.3260     4.9480     2.6460 O.co2 1 <1>  -0.9000 
  2 C        0.3680     4.8780     1.8820 C.2   1 <1>   0.9060 
  3 O        0.1220     5.7960     1.0950 O.co2 1 <1>  -0.9000 
  4 C       -0.2290     3.5330     1.5890 C.3   1 <1>  -0.2660 
  5 C        0.7100     2.6860     0.6960 C.3   1 <1>  -0.1600 
  6 C        1.2030     3.4100    -0.5750 C.3   1 <1>   0.3430 
  7 N        2.1460     4.5390    -0.3040 N.4   1 <1>  -0.9590 
  8 C        2.2450     5.4510    -1.4770 C.3   1 <1>   0.3430 
  9 C        3.4320     4.1100     0.3000 C.3   1 <1>   0.3430 
 10 C        2.3630     6.9370    -1.0820 C.3   1 <1>   0.2090 
 11 C        4.2510     5.2590     0.8820 C.3   1 <1>  -0.1600 
 12 N        3.5980     7.3290    -0.3180 N.pl3 1 <1>  -0.8380 
 13 C        4.6820     6.3290    -0.1190 C.3   1 <1>   0.2090 
 14 C        3.7300     8.5900     0.1700 C.ar  1 <1>   0.1000 
 15 C        2.9310     9.1250     1.2030 C.ar  1 <1>  -0.1440 
 16 C        4.7170     9.4230    -0.3690 C.ar  1 <1>  -0.1500 
 17 C        3.1310    10.4160     1.6220 C.ar  1 <1>   0.2110 
 18 C        1.8510     8.3020     1.8980 C.3   1 <1>  -0.0970 
 19 C        4.8860    10.7050     0.0800 C.ar  1 <1>   0.2110 
 20 N        4.0930    11.1920     1.0650 N.ar  1 <1>  -0.1790 
 21 H       -1.1720     3.6880     1.1010 H     1 <1>   0.0800 
 22 H       -0.4070     3.0330     2.5230 H     1 <1>   0.0800 
 23 H        0.1680     1.8090     0.3910 H     1 <1>   0.0800 
 24 H        1.5450     2.3470     1.2800 H     1 <1>   0.0800 
 25 H        0.3370     3.7960    -1.0870 H     1 <1>   0.0800 
 26 H        1.6830     2.6960    -1.2250 H     1 <1>   0.0800 
 27 H        1.6680     5.1230     0.4320 H     1 <1>   0.4500 
 28 H        1.3480     5.3540    -2.0640 H     1 <1>   0.0800 
 29 H        3.0780     5.1720    -2.0990 H     1 <1>   0.0800 
 30 H        4.0170     3.5840    -0.4350 H     1 <1>   0.0800 
 31 H        3.2240     3.4300     1.1100 H     1 <1>   0.0800 
 32 H        1.4880     7.2010    -0.5160 H     1 <1>   0.0800 
 33 H        2.3360     7.5210    -1.9840 H     1 <1>   0.0800 
 34 H        5.1420     4.8230     1.2940 H     1 <1>   0.0800 
 35 H        3.7240     5.7040     1.7060 H     1 <1>   0.0800 
 36 H        4.9700     5.8910    -1.0600 H     1 <1>   0.0800 
 37 H        5.5450     6.8340     0.2820 H     1 <1>   0.0800 
 38 H        5.3390     9.0310    -1.1540 H     1 <1>   0.1500 
 39 H        2.5250    10.8360     2.4090 H     1 <1>   0.1500 
 40 H        2.1710     7.2850     2.0190 H     1 <1>   0.0800 
 41 H        0.9410     8.3020     1.3250 H     1 <1>   0.0800 
 42 H        1.6270     8.6810     2.8780 H     1 <1>   0.0800 
 43 H        5.6460    11.3440    -0.3410 H     1 <1>   0.1500 
 44 H        4.2220    12.1530     1.3980 H     1 <1>   0.4570 
@<TRIPOS>BOND
  1   1   2  ar  
  2   2   3  ar  
  3   2   4  1   
  4   4   5  1   
  5   4  21  1   
  6   4  22  1   
  7   5   6  1   
  8   5  23  1   
  9   5  24  1   
 10   6   7  1   
 11   6  25  1   
 12   6  26  1   
 13   7   8  1   
 14   7   9  1   
 15   7  27  1   
 16   8  10  1   
 17   8  28  1   
 18   8  29  1   
 19   9  11  1   
 20   9  30  1   
 21   9  31  1   
 22  10  12  1   
 23  10  32  1   
 24  10  33  1   
 25  11  13  1   
 26  11  34  1   
 27  11  35  1   
 28  12  13  1   
 29  12  14  1   
 30  13  36  1   
 31  13  37  1   
 32  14  15  ar  
 33  14  16  ar  
 34  15  17  ar  
 35  15  18  1   
 36  16  19  ar  
 37  16  38  1   
 38  17  20  ar  
 39  17  39  1   
 40  18  40  1   
 41  18  41  1   
 42  18  42  1   
 43  19  20  ar  
 44  19  43  1   
 45  20  44  1   
@<TRIPOS>SUBSTRUCTURE
  1 ****  12 GROUP 4 **** **** 0

# MOE 2024.06 (io_trps.svl 2023.06)
