@<TRIPOS>MOLECULE
NONAME
50 53 1 0 0 
SMALL
USER_CHARGES


@<TRIPOS>ATOM
  1 O        3.7380    -1.5070    -1.6160 O.2   1 <1>  -0.5700 
  2 C        2.8920    -1.4550    -0.7390 C.2   1 <1>   0.7150 
  3 N        2.8000    -0.2750    -0.0560 N.am  1 <1>  -0.6600 
  4 C        2.1320    -2.6210    -0.3770 C.2   1 <1>  -0.2370 
  5 C        3.5280    -0.2020     1.2560 C.3   1 <1>   0.2200 
  6 C        2.5580     0.9780    -0.8330 C.3   1 <1>   0.1400 
  7 N        2.4950    -3.8460    -0.8860 N.pl3 1 <1>   0.0330 
  8 C        1.0240    -2.8180     0.4070 C.2   1 <1>  -0.1810 
  9 C        3.0030     0.9100     2.1790 C.3   1 <1>   0.1200 
 10 C        5.0580    -0.0570     1.0390 C.3   1 <1>   0.3430 
 11 C        3.5100     2.1440    -0.5040 C.3   1 <1>  -0.0800 
 12 C        1.6500    -4.8080    -0.4170 C.ar  1 <1>  -0.1520 
 13 C        0.7110    -4.1930     0.3990 C.ar  1 <1>   0.0000 
 14 C        0.1750    -1.8050     1.1590 C.3   1 <1>   0.0210 
 15 O        3.6430     2.1200     1.9070 O.3   1 <1>  -0.5600 
 16 N        5.4180     0.4250    -0.3430 N.4   1 <1>  -0.9590 
 17 C        3.1510     2.8310     0.8220 C.3   1 <1>   0.1200 
 18 C        5.0210     1.8430    -0.6170 C.3   1 <1>   0.3430 
 19 C        1.6210    -6.1860    -0.6450 C.ar  1 <1>  -0.1500 
 20 C       -0.2850    -4.9730     1.0020 C.ar  1 <1>  -0.1500 
 21 C       -0.9930    -1.3450     0.2860 C.3   1 <1>  -0.2400 
 22 C        6.8580     0.1930    -0.6450 C.3   1 <1>   0.2630 
 23 C        0.6400    -6.9380    -0.0430 C.ar  1 <1>  -0.1500 
 24 C       -0.3150    -6.3300     0.7810 C.ar  1 <1>  -0.1500 
 25 H        3.3570    -1.1310     1.7750 H     1 <1>   0.0800 
 26 H        2.6340     0.7580    -1.8860 H     1 <1>   0.0800 
 27 H        1.5420     1.2900    -0.6580 H     1 <1>   0.0800 
 28 H        3.2540    -3.9980    -1.5590 H     1 <1>   0.2700 
 29 H        3.2420     0.6630     3.1990 H     1 <1>   0.0800 
 30 H        1.9350     1.0280     2.1040 H     1 <1>   0.0800 
 31 H        5.5020    -1.0250     1.1960 H     1 <1>   0.0800 
 32 H        5.4650     0.6090     1.7820 H     1 <1>   0.0800 
 33 H        3.3090     2.8920    -1.2500 H     1 <1>   0.0800 
 34 H       -0.2020    -2.2510     2.0630 H     1 <1>   0.0800 
 35 H        0.7600    -0.9540     1.4440 H     1 <1>   0.0800 
 36 H        4.8480    -0.1730    -0.9830 H     1 <1>   0.4500 
 37 H        2.0860     2.9570     0.9350 H     1 <1>   0.0800 
 38 H        3.6050     3.8070     0.8610 H     1 <1>   0.0800 
 39 H        5.5550     2.5000     0.0510 H     1 <1>   0.0800 
 40 H        5.3280     2.0870    -1.6210 H     1 <1>   0.0800 
 41 H        2.3570    -6.6440    -1.2820 H     1 <1>   0.1500 
 42 H       -1.0170    -4.5000     1.6300 H     1 <1>   0.1500 
 43 H       -1.6030    -2.1880     0.0120 H     1 <1>   0.0800 
 44 H       -0.6240    -0.8840    -0.6130 H     1 <1>   0.0800 
 45 H       -1.6010    -0.6360     0.8190 H     1 <1>   0.0800 
 46 H        7.4780     0.7800     0.0130 H     1 <1>   0.0800 
 47 H        7.0740     0.4680    -1.6640 H     1 <1>   0.0800 
 48 H        7.1010    -0.8490    -0.5150 H     1 <1>   0.0800 
 49 H        0.5940    -8.0020    -0.2010 H     1 <1>   0.1500 
 50 H       -1.0740    -6.9400     1.2390 H     1 <1>   0.1500 
@<TRIPOS>BOND
  1   1   2  2   
  2   2   3  am  
  3   2   4  1   
  4   3   5  1   
  5   3   6  1   
  6   4   7  1   
  7   4   8  2   
  8   5   9  1   
  9   5  10  1   
 10   5  25  1   
 11   6  11  1   
 12   6  26  1   
 13   6  27  1   
 14   7  12  1   
 15   7  28  1   
 16   8  13  1   
 17   8  14  1   
 18   9  15  1   
 19   9  29  1   
 20   9  30  1   
 21  10  16  1   
 22  10  31  1   
 23  10  32  1   
 24  11  17  1   
 25  11  18  1   
 26  11  33  1   
 27  12  13  ar  
 28  12  19  ar  
 29  13  20  ar  
 30  14  21  1   
 31  14  34  1   
 32  14  35  1   
 33  15  17  1   
 34  16  18  1   
 35  16  22  1   
 36  16  36  1   
 37  17  37  1   
 38  17  38  1   
 39  18  39  1   
 40  18  40  1   
 41  19  23  ar  
 42  19  41  1   
 43  20  24  ar  
 44  20  42  1   
 45  21  43  1   
 46  21  44  1   
 47  21  45  1   
 48  22  46  1   
 49  22  47  1   
 50  22  48  1   
 51  23  24  ar  
 52  23  49  1   
 53  24  50  1   
@<TRIPOS>SUBSTRUCTURE
  1 ****   2 GROUP 4 **** **** 0

# MOE 2024.06 (io_trps.svl 2023.06)
