@<TRIPOS>MOLECULE
NONAME
51 53 1 0 0 
SMALL
USER_CHARGES


@<TRIPOS>ATOM
  1 S       -0.2470     0.0860     1.9010 S.3   1 <1>  -0.0800 
  2 C        0.7690    -1.1120     1.1370 C.2   1 <1>  -0.0450 
  3 C        0.7730     1.3470     1.2580 C.2   1 <1>   0.1980 
  4 C        1.7630    -0.4490     0.5030 C.2   1 <1>   0.0460 
  5 C        0.4290    -2.5020     1.2630 C.2   1 <1>   0.7150 
  6 N        1.7510     0.9270     0.5630 N.2   1 <1>  -0.5650 
  7 C        0.4040     2.7750     1.5810 C.3   1 <1>  -0.0600 
  8 C        2.9080    -1.0800    -0.2630 C.3   1 <1>  -0.0590 
  9 O        0.4260    -3.0300     2.3580 O.2   1 <1>  -0.5700 
 10 N        0.1060    -3.2400     0.1470 N.am  1 <1>  -0.6600 
 11 C        0.0020    -4.7370     0.2420 C.3   1 <1>   0.3640 
 12 C       -0.3820    -2.5610    -1.0940 C.3   1 <1>   0.1400 
 13 C        1.3830    -5.3560     0.0050 C.ar  1 <1>  -0.1430 
 14 C       -1.0460    -5.3900    -0.7110 C.3   1 <1>   0.2000 
 15 C       -0.9880    -3.5230    -2.1230 C.3   1 <1>   0.1200 
 16 C        1.8370    -6.3390     0.8730 C.ar  1 <1>  -0.1500 
 17 C        2.1940    -4.9760    -1.0590 C.ar  1 <1>  -0.1500 
 18 O       -1.7770    -4.4640    -1.4730 O.3   1 <1>  -0.5600 
 19 C       -2.0680    -6.2410     0.0540 C.3   1 <1>   0.1200 
 20 C        3.0700    -6.9420     0.6870 C.ar  1 <1>   0.0830 
 21 C        3.4350    -5.5600    -1.2440 C.ar  1 <1>  -0.1500 
 22 O       -1.4380    -7.3010     0.7020 O.3   1 <1>  -0.6800 
 23 O        3.4230    -7.9230     1.5530 O.3   1 <1>  -0.3630 
 24 C        3.8890    -6.5310    -0.3690 C.ar  1 <1>   0.0830 
 25 C        3.5200    -9.2240     1.0190 C.3   1 <1>   0.0400 
 26 O        5.1280    -7.0380    -0.5880 O.3   1 <1>  -0.3630 
 27 C        6.0930    -6.7900     0.4120 C.3   1 <1>   0.0400 
 28 H        1.1120     3.4440     1.1270 H     1 <1>   0.0800 
 29 H        0.4160     2.9220     2.6450 H     1 <1>   0.0800 
 30 H       -0.5770     2.9930     1.2020 H     1 <1>   0.0800 
 31 H        2.8580    -2.1520    -0.2170 H     1 <1>   0.0800 
 32 H        3.8410    -0.7620     0.1650 H     1 <1>   0.0800 
 33 H        2.8750    -0.7670    -1.2900 H     1 <1>   0.0800 
 34 H       -0.2900    -4.9890     1.2470 H     1 <1>   0.0800 
 35 H       -1.1380    -1.8440    -0.8200 H     1 <1>   0.0800 
 36 H        0.4270    -2.0200    -1.5530 H     1 <1>   0.0800 
 37 H       -0.5380    -6.0300    -1.4120 H     1 <1>   0.0800 
 38 H       -0.2250    -4.0330    -2.6850 H     1 <1>   0.0800 
 39 H       -1.6140    -2.9820    -2.8100 H     1 <1>   0.0800 
 40 H        1.2320    -6.6550     1.7060 H     1 <1>   0.1500 
 41 H        1.8710    -4.2190    -1.7480 H     1 <1>   0.1500 
 42 H       -2.8010    -6.6490    -0.6200 H     1 <1>   0.0800 
 43 H       -2.5600    -5.6440     0.8020 H     1 <1>   0.0800 
 44 H        4.0630    -5.2610    -2.0640 H     1 <1>   0.1500 
 45 H       -1.1220    -7.9680     0.0600 H     1 <1>   0.4000 
 46 H        3.7220    -9.9040     1.8260 H     1 <1>   0.0800 
 47 H        4.3200    -9.2570     0.3020 H     1 <1>   0.0800 
 48 H        2.5850    -9.4760     0.5500 H     1 <1>   0.0800 
 49 H        7.0470    -7.1270     0.0500 H     1 <1>   0.0800 
 50 H        5.8300    -7.3280     1.3050 H     1 <1>   0.0800 
 51 H        6.1240    -5.7330     0.6100 H     1 <1>   0.0800 
@<TRIPOS>BOND
  1   1   2  1   
  2   1   3  1   
  3   2   4  2   
  4   2   5  1   
  5   3   6  2   
  6   3   7  1   
  7   4   6  1   
  8   4   8  1   
  9   5   9  2   
 10   5  10  am  
 11   7  28  1   
 12   7  29  1   
 13   7  30  1   
 14   8  31  1   
 15   8  32  1   
 16   8  33  1   
 17  10  11  1   
 18  10  12  1   
 19  11  13  1   
 20  11  14  1   
 21  11  34  1   
 22  12  15  1   
 23  12  35  1   
 24  12  36  1   
 25  13  16  ar  
 26  13  17  ar  
 27  14  18  1   
 28  14  19  1   
 29  14  37  1   
 30  15  18  1   
 31  15  38  1   
 32  15  39  1   
 33  16  20  ar  
 34  16  40  1   
 35  17  21  ar  
 36  17  41  1   
 37  19  22  1   
 38  19  42  1   
 39  19  43  1   
 40  20  23  1   
 41  20  24  ar  
 42  21  24  ar  
 43  21  44  1   
 44  22  45  1   
 45  23  25  1   
 46  24  26  1   
 47  25  46  1   
 48  25  47  1   
 49  25  48  1   
 50  26  27  1   
 51  27  49  1   
 52  27  50  1   
 53  27  51  1   
@<TRIPOS>SUBSTRUCTURE
  1 ****  10 GROUP 4 **** **** 0

# MOE 2024.06 (io_trps.svl 2023.06)
