@<TRIPOS>MOLECULE
NONAME
41 42 1 0 0 
SMALL
USER_CHARGES


@<TRIPOS>ATOM
  1 S        0.3490     0.0100     0.8270 S.o2  1 <1>   1.3330 
  2 O        1.7560     0.0490     1.1540 O.2   1 <1>  -0.6500 
  3 O       -0.6370     0.1860     1.8700 O.2   1 <1>  -0.6500 
  4 N        0.0390    -1.4630     0.0410 N.am  1 <1>  -0.8490 
  5 C        0.0110     1.2210    -0.4490 C.3   1 <1>  -0.0550 
  6 C       -0.4120    -2.5030     0.9710 C.3   1 <1>   0.1160 
  7 C        1.1760    -1.9550    -0.7440 C.3   1 <1>   0.1160 
  8 C        0.0980     2.6720     0.0520 C.3   1 <1>  -0.0800 
  9 C       -0.2940     3.6790    -1.0260 C.3   1 <1>   0.2000 
 10 C        1.5010     3.1130     0.4770 C.3   1 <1>   0.1400 
 11 O       -1.6710     3.8170    -1.0670 O.3   1 <1>  -0.6800 
 12 C        0.3970     4.9860    -0.6410 C.3   1 <1>   0.1400 
 13 N        1.5340     4.5730     0.2180 N.am  1 <1>  -0.6600 
 14 C        2.4310     5.4220     0.8250 C.2   1 <1>   0.5440 
 15 O        3.2300     4.9590     1.6150 O.2   1 <1>  -0.5700 
 16 C        2.4180     6.8470     0.5890 C.ar  1 <1>   0.0860 
 17 C        2.7380     7.4070    -0.6500 C.ar  1 <1>   0.1900 
 18 C        2.0890     7.7330     1.6190 C.ar  1 <1>  -0.1500 
 19 F        3.0710     6.6250    -1.6400 F     1 <1>  -0.1900 
 20 C        2.7250     8.7670    -0.8940 C.ar  1 <1>  -0.1500 
 21 C        2.0660     9.1030     1.4100 C.ar  1 <1>  -0.1500 
 22 C        2.3830     9.5950     0.1550 C.ar  1 <1>   0.1900 
 23 F        2.3580    10.8830    -0.0400 F     1 <1>  -0.1900 
 24 H        0.6930     1.0820    -1.2650 H     1 <1>   0.0800 
 25 H       -0.9810     1.0520    -0.8210 H     1 <1>   0.0800 
 26 H       -0.6140    -3.4170     0.4390 H     1 <1>   0.0800 
 27 H       -1.3200    -2.1920     1.4600 H     1 <1>   0.0800 
 28 H        0.3390    -2.6860     1.7210 H     1 <1>   0.0800 
 29 H        0.8940    -2.8400    -1.2880 H     1 <1>   0.0800 
 30 H        2.0070    -2.1910    -0.0980 H     1 <1>   0.0800 
 31 H        1.4910    -1.2070    -1.4510 H     1 <1>   0.0800 
 32 H       -0.5460     2.7950     0.9060 H     1 <1>   0.0800 
 33 H        0.0450     3.3660    -1.9990 H     1 <1>   0.0800 
 34 H        2.2600     2.6370    -0.1210 H     1 <1>   0.0800 
 35 H        1.6860     2.9000     1.5180 H     1 <1>   0.0800 
 36 H       -2.0240     4.0180    -0.1780 H     1 <1>   0.4000 
 37 H       -0.2640     5.6220    -0.0780 H     1 <1>   0.0800 
 38 H        0.7490     5.4960    -1.5210 H     1 <1>   0.0800 
 39 H        1.8550     7.3330     2.5910 H     1 <1>   0.1500 
 40 H        2.9750     9.1660    -1.8590 H     1 <1>   0.1500 
 41 H        1.8110     9.7840     2.2040 H     1 <1>   0.1500 
@<TRIPOS>BOND
  1   1   2  2   
  2   1   3  2   
  3   1   4  am  
  4   1   5  1   
  5   4   6  1   
  6   4   7  1   
  7   5   8  1   
  8   5  24  1   
  9   5  25  1   
 10   6  26  1   
 11   6  27  1   
 12   6  28  1   
 13   7  29  1   
 14   7  30  1   
 15   7  31  1   
 16   8   9  1   
 17   8  10  1   
 18   8  32  1   
 19   9  11  1   
 20   9  12  1   
 21   9  33  1   
 22  10  13  1   
 23  10  34  1   
 24  10  35  1   
 25  11  36  1   
 26  12  13  1   
 27  12  37  1   
 28  12  38  1   
 29  13  14  am  
 30  14  15  2   
 31  14  16  1   
 32  16  17  ar  
 33  16  18  ar  
 34  17  19  1   
 35  17  20  ar  
 36  18  21  ar  
 37  18  39  1   
 38  20  22  ar  
 39  20  40  1   
 40  21  22  ar  
 41  21  41  1   
 42  22  23  1   
@<TRIPOS>SUBSTRUCTURE
  1 ****  13 GROUP 4 **** **** 0

# MOE 2024.06 (io_trps.svl 2023.06)
