@<TRIPOS>MOLECULE
NONAME
49 51 1 0 0 
SMALL
USER_CHARGES


@<TRIPOS>ATOM
  1 O        2.8040     1.8480     3.6980 O.co2 1 <1>  -0.9000 
  2 C        3.2430     1.8910     2.5310 C.2   1 <1>   1.0320 
  3 O        3.2750     0.8310     1.8750 O.co2 1 <1>  -0.9000 
  4 C        3.7000     3.1590     1.9820 C.2   1 <1>  -0.0920 
  5 O        4.1790     3.2860     0.7420 O.3   1 <1>  -0.2800 
  6 C        3.7340     4.3850     2.5740 C.2   1 <1>  -0.1500 
  7 C        4.5140     4.5410     0.5350 C.2   1 <1>  -0.0400 
  8 C        4.2600     5.2780     1.6390 C.2   1 <1>  -0.1500 
  9 C        5.0930     4.9070    -0.8190 C.3   1 <1>   0.3200 
 10 N        5.6590     6.2690    -0.7810 N.am  1 <1>  -0.7300 
 11 C        5.7230     7.1410    -1.8130 C.2   1 <1>   0.5690 
 12 O        5.3420     6.8540    -2.9230 O.2   1 <1>  -0.5700 
 13 C        6.3000     8.5360    -1.5460 C.3   1 <1>   0.1710 
 14 N        7.2020     8.6140    -0.3580 N.3   1 <1>  -0.8100 
 15 C        8.5020     7.9600    -0.6470 C.3   1 <1>   0.1100 
 16 C        7.4530    10.0300    -0.0020 C.3   1 <1>   0.1100 
 17 C        9.4690     8.0270     0.5500 C.3   1 <1>   0.2090 
 18 C        8.4080    10.1790     1.2000 C.3   1 <1>   0.2090 
 19 N        9.6860     9.4330     0.9920 N.pl3 1 <1>  -0.8380 
 20 C       10.7840    10.0970     0.4880 C.ar  1 <1>   0.4100 
 21 N       10.5650    10.8950    -0.5370 N.ar  1 <1>  -0.6200 
 22 C       12.0620     9.9170     1.0120 C.ar  1 <1>  -0.1440 
 23 C       11.6300    11.4860    -1.0330 C.ar  1 <1>   0.4700 
 24 C       13.0930    10.5840     0.3870 C.ar  1 <1>   0.1670 
 25 C       12.2890     9.0210     2.2330 C.3   1 <1>  -0.0970 
 26 N       12.8850    11.3790    -0.6420 N.ar  1 <1>  -0.6200 
 27 C       14.5420    10.4660     0.8240 C.3   1 <1>  -0.0970 
 28 H        3.4140     4.6130     3.5750 H     1 <1>   0.1500 
 29 H        4.4110     6.3290     1.8020 H     1 <1>   0.1500 
 30 H        4.3250     4.8440    -1.5700 H     1 <1>   0.0800 
 31 H        5.8720     4.2080    -1.0670 H     1 <1>   0.0800 
 32 H        6.0510     6.5740     0.1140 H     1 <1>   0.3700 
 33 H        5.4640     9.1940    -1.3980 H     1 <1>   0.0800 
 34 H        6.8240     8.8660    -2.4260 H     1 <1>   0.0800 
 35 H        8.9740     8.4390    -1.4900 H     1 <1>   0.0800 
 36 H        8.3420     6.9270    -0.9000 H     1 <1>   0.0800 
 37 H        6.5200    10.5080     0.2420 H     1 <1>   0.0800 
 38 H        7.8810    10.5480    -0.8430 H     1 <1>   0.0800 
 39 H       10.4100     7.5880     0.2690 H     1 <1>   0.0800 
 40 H        9.0640     7.4570     1.3680 H     1 <1>   0.0800 
 41 H        7.9240     9.8060     2.0850 H     1 <1>   0.0800 
 42 H        8.6230    11.2220     1.3560 H     1 <1>   0.0800 
 43 H       11.4560    12.1390    -1.8700 H     1 <1>   0.1500 
 44 H       11.4090     8.9850     2.8500 H     1 <1>   0.0800 
 45 H       13.0890     9.3950     2.8440 H     1 <1>   0.0800 
 46 H       12.5260     8.0230     1.9140 H     1 <1>   0.0800 
 47 H       14.7650     9.4700     1.1570 H     1 <1>   0.0800 
 48 H       14.7360    11.1630     1.6180 H     1 <1>   0.0800 
 49 H       15.1950    10.6940     0.0010 H     1 <1>   0.0800 
@<TRIPOS>BOND
  1   1   2  ar  
  2   2   3  ar  
  3   2   4  1   
  4   4   5  1   
  5   4   6  2   
  6   5   7  1   
  7   6   8  1   
  8   6  28  1   
  9   7   8  2   
 10   7   9  1   
 11   8  29  1   
 12   9  10  1   
 13   9  30  1   
 14   9  31  1   
 15  10  11  am  
 16  10  32  1   
 17  11  12  2   
 18  11  13  1   
 19  13  14  1   
 20  13  33  1   
 21  13  34  1   
 22  14  15  1   
 23  14  16  1   
 24  15  17  1   
 25  15  35  1   
 26  15  36  1   
 27  16  18  1   
 28  16  37  1   
 29  16  38  1   
 30  17  19  1   
 31  17  39  1   
 32  17  40  1   
 33  18  19  1   
 34  18  41  1   
 35  18  42  1   
 36  19  20  1   
 37  20  21  ar  
 38  20  22  ar  
 39  21  23  ar  
 40  22  24  ar  
 41  22  25  1   
 42  23  26  ar  
 43  23  43  1   
 44  24  26  ar  
 45  24  27  1   
 46  25  44  1   
 47  25  45  1   
 48  25  46  1   
 49  27  47  1   
 50  27  48  1   
 51  27  49  1   
@<TRIPOS>SUBSTRUCTURE
  1 ****  15 GROUP 4 **** **** 0

# MOE 2024.06 (io_trps.svl 2023.06)
