@<TRIPOS>MOLECULE
NONAME
50 53 1 0 0 
SMALL
USER_CHARGES


@<TRIPOS>ATOM
  1 O        1.8770     0.3630    -0.1770 O.2   1 <1>  -0.5700 
  2 C        2.2970    -0.7060     0.2230 C.2   1 <1>   0.5440 
  3 N        3.4640    -0.6980     0.9600 N.am  1 <1>  -0.6600 
  4 C        1.6150    -1.9410    -0.1250 C.ar  1 <1>   0.0860 
  5 C        4.5600    -1.6660     0.6700 C.3   1 <1>   0.1400 
  6 C        3.8700     0.5290     1.7000 C.3   1 <1>   0.1400 
  7 C        0.9950    -2.0940    -1.3650 C.ar  1 <1>  -0.1500 
  8 C        1.5540    -3.0190     0.7610 C.ar  1 <1>  -0.1500 
  9 C        5.6080    -0.9330    -0.1740 C.3   1 <1>   0.2000 
 10 C        4.9410     1.2750     0.8960 C.3   1 <1>  -0.1600 
 11 C        0.3630    -3.2740    -1.7160 C.ar  1 <1>  -0.1500 
 12 C        0.9240    -4.2010     0.4160 C.ar  1 <1>  -0.1500 
 13 O        6.7130    -1.7420    -0.4330 O.3   1 <1>  -0.6800 
 14 C        6.0960     0.3270     0.5680 C.3   1 <1>   0.4230 
 15 C        0.3300    -4.3320    -0.8250 C.ar  1 <1>  -0.1500 
 16 N        7.1390     1.0040    -0.2430 N.4   1 <1>  -0.9060 
 17 C        8.0590     1.9140     0.4860 C.3   1 <1>   0.4230 
 18 C        8.9060     2.6600    -0.5600 C.3   1 <1>  -0.0170 
 19 C        9.0820     1.0620     1.2630 C.3   1 <1>  -0.0170 
 20 C       10.0180     1.6760    -0.8260 C.ar  1 <1>  -0.1430 
 21 C       10.1170     0.7730     0.2040 C.ar  1 <1>  -0.1430 
 22 C       10.8650     1.6050    -1.9160 C.ar  1 <1>  -0.1500 
 23 C       11.0660    -0.2320     0.1770 C.ar  1 <1>  -0.1500 
 24 C       11.8190     0.6000    -1.9530 C.ar  1 <1>  -0.1500 
 25 C       11.9190    -0.3130    -0.9130 C.ar  1 <1>  -0.1500 
 26 H        4.9860    -2.0100     1.5970 H     1 <1>   0.0800 
 27 H        4.1800    -2.5110     0.1230 H     1 <1>   0.0800 
 28 H        3.0140     1.1680     1.8550 H     1 <1>   0.0800 
 29 H        4.2470     0.2480     2.6690 H     1 <1>   0.0800 
 30 H        1.0070    -1.2720    -2.0600 H     1 <1>   0.1500 
 31 H        2.0000    -2.9250     1.7350 H     1 <1>   0.1500 
 32 H        5.1670    -0.6630    -1.1180 H     1 <1>   0.0800 
 33 H        5.2870     2.1090     1.4800 H     1 <1>   0.0800 
 34 H        4.4870     1.6500    -0.0050 H     1 <1>   0.0800 
 35 H       -0.1080    -3.3680    -2.6800 H     1 <1>   0.1500 
 36 H        0.8910    -5.0200     1.1150 H     1 <1>   0.1500 
 37 H        6.4550    -2.5570    -0.9180 H     1 <1>   0.4000 
 38 H        6.5280    -0.0050     1.4970 H     1 <1>   0.0800 
 39 H       -0.1620    -5.2500    -1.0960 H     1 <1>   0.1500 
 40 H        7.7240     0.2440    -0.6370 H     1 <1>   0.4500 
 41 H        6.7110     1.4750    -1.0440 H     1 <1>   0.4500 
 42 H        7.5140     2.5930     1.1210 H     1 <1>   0.0800 
 43 H        8.3560     2.9160    -1.4480 H     1 <1>   0.0800 
 44 H        9.3270     3.5510    -0.1290 H     1 <1>   0.0800 
 45 H        9.5380     1.6480     2.0420 H     1 <1>   0.0800 
 46 H        8.6690     0.1640     1.6870 H     1 <1>   0.0800 
 47 H       10.7940     2.3140    -2.7230 H     1 <1>   0.1500 
 48 H       11.1500    -0.9400     0.9830 H     1 <1>   0.1500 
 49 H       12.4900     0.5280    -2.7920 H     1 <1>   0.1500 
 50 H       12.6660    -1.0880    -0.9520 H     1 <1>   0.1500 
@<TRIPOS>BOND
  1   1   2  2   
  2   2   3  am  
  3   2   4  1   
  4   3   5  1   
  5   3   6  1   
  6   4   7  ar  
  7   4   8  ar  
  8   5   9  1   
  9   5  26  1   
 10   5  27  1   
 11   6  10  1   
 12   6  28  1   
 13   6  29  1   
 14   7  11  ar  
 15   7  30  1   
 16   8  12  ar  
 17   8  31  1   
 18   9  13  1   
 19   9  14  1   
 20   9  32  1   
 21  10  14  1   
 22  10  33  1   
 23  10  34  1   
 24  11  15  ar  
 25  11  35  1   
 26  12  15  ar  
 27  12  36  1   
 28  13  37  1   
 29  14  16  1   
 30  14  38  1   
 31  15  39  1   
 32  16  17  1   
 33  16  40  1   
 34  16  41  1   
 35  17  18  1   
 36  17  19  1   
 37  17  42  1   
 38  18  20  1   
 39  18  43  1   
 40  18  44  1   
 41  19  21  1   
 42  19  45  1   
 43  19  46  1   
 44  20  21  ar  
 45  20  22  ar  
 46  21  23  ar  
 47  22  24  ar  
 48  22  47  1   
 49  23  25  ar  
 50  23  48  1   
 51  24  25  ar  
 52  24  49  1   
 53  25  50  1   
@<TRIPOS>SUBSTRUCTURE
  1 ****   9 GROUP 4 **** **** 0

# MOE 2024.06 (io_trps.svl 2023.06)
