@<TRIPOS>MOLECULE
NONAME
41 42 1 0 0 
SMALL
USER_CHARGES


@<TRIPOS>ATOM
  1 O        0.7790    -0.0460    -0.9990 O.3   1 <1>  -0.5600 
  2 C        1.1070     0.6100     0.2080 C.3   1 <1>   0.2000 
  3 C        0.3360    -1.3780    -0.8420 C.3   1 <1>   0.1200 
  4 C        1.2020     2.1490    -0.0760 C.3   1 <1>   0.5030 
  5 C        2.3660    -0.0700     0.8260 C.3   1 <1>   0.3430 
  6 C        1.1990    -2.1840     0.1600 C.3   1 <1>   0.3430 
  7 N        1.6510     2.3840    -1.4520 N.4   1 <1>  -0.8530 
  8 C       -0.1960     2.7660     0.0020 C.3   1 <1>  -0.2400 
  9 C        2.1430     2.9110     0.8600 C.3   1 <1>  -0.2400 
 10 N        2.5240    -1.5120     0.4060 N.4   1 <1>  -0.9590 
 11 C        3.3960    -2.3060     1.3230 C.3   1 <1>   0.4860 
 12 C        3.6640    -3.6450     0.6700 C.ar  1 <1>  -0.1440 
 13 C        4.5460    -3.7410    -0.3980 C.ar  1 <1>  -0.1500 
 14 C        3.0200    -4.7860     1.1290 C.ar  1 <1>  -0.1500 
 15 C        4.7660    -4.9620    -1.0110 C.ar  1 <1>  -0.1500 
 16 C        3.2420    -6.0050     0.5140 C.ar  1 <1>  -0.1500 
 17 C        4.1120    -6.0930    -0.5570 C.ar  1 <1>  -0.1500 
 18 H        0.2930     0.4540     0.8970 H     1 <1>   0.0800 
 19 H        0.3710    -1.8480    -1.8110 H     1 <1>   0.0800 
 20 H       -0.6930    -1.3670    -0.5210 H     1 <1>   0.0800 
 21 H        2.2900    -0.0080     1.9000 H     1 <1>   0.0800 
 22 H        3.2500     0.4740     0.5380 H     1 <1>   0.0800 
 23 H        1.3460    -3.1810    -0.2250 H     1 <1>   0.0800 
 24 H        0.6600    -2.2770     1.0890 H     1 <1>   0.0800 
 25 H        1.2520     1.6220    -2.0240 H     1 <1>   0.4500 
 26 H        2.6670     2.3790    -1.5580 H     1 <1>   0.4500 
 27 H        1.2850     3.2730    -1.8050 H     1 <1>   0.4500 
 28 H       -0.8780     2.2720    -0.6700 H     1 <1>   0.0800 
 29 H       -0.1790     3.8180    -0.2290 H     1 <1>   0.0800 
 30 H       -0.5930     2.6650     0.9980 H     1 <1>   0.0800 
 31 H        3.1650     2.5940     0.7570 H     1 <1>   0.0800 
 32 H        1.8450     2.7650     1.8850 H     1 <1>   0.0800 
 33 H        2.0990     3.9690     0.6660 H     1 <1>   0.0800 
 34 H        2.9960    -1.5380    -0.5090 H     1 <1>   0.4500 
 35 H        2.9130    -2.4510     2.2760 H     1 <1>   0.0800 
 36 H        4.3330    -1.7990     1.4860 H     1 <1>   0.0800 
 37 H        5.0790    -2.8810    -0.7650 H     1 <1>   0.1500 
 38 H        2.3440    -4.7490     1.9670 H     1 <1>   0.1500 
 39 H        5.4500    -5.0390    -1.8400 H     1 <1>   0.1500 
 40 H        2.7430    -6.8920     0.8690 H     1 <1>   0.1500 
 41 H        4.2850    -7.0430    -1.0350 H     1 <1>   0.1500 
@<TRIPOS>BOND
  1   1   2  1   
  2   1   3  1   
  3   2   4  1   
  4   2   5  1   
  5   2  18  1   
  6   3   6  1   
  7   3  19  1   
  8   3  20  1   
  9   4   7  1   
 10   4   8  1   
 11   4   9  1   
 12   5  10  1   
 13   5  21  1   
 14   5  22  1   
 15   6  10  1   
 16   6  23  1   
 17   6  24  1   
 18   7  25  1   
 19   7  26  1   
 20   7  27  1   
 21   8  28  1   
 22   8  29  1   
 23   8  30  1   
 24   9  31  1   
 25   9  32  1   
 26   9  33  1   
 27  10  11  1   
 28  10  34  1   
 29  11  12  1   
 30  11  35  1   
 31  11  36  1   
 32  12  13  ar  
 33  12  14  ar  
 34  13  15  ar  
 35  13  37  1   
 36  14  16  ar  
 37  14  38  1   
 38  15  17  ar  
 39  15  39  1   
 40  16  17  ar  
 41  16  40  1   
 42  17  41  1   
@<TRIPOS>SUBSTRUCTURE
  1 ****  10 GROUP 4 **** **** 0

# MOE 2024.06 (io_trps.svl 2023.06)
