@<TRIPOS>MOLECULE
NONAME
43 44 1 0 0 
SMALL
USER_CHARGES


@<TRIPOS>ATOM
  1 N        0.1640    -0.5140    -0.2520 N.ar  1 <1>  -0.6200 
  2 C        0.3800    -1.7690     0.0760 C.ar  1 <1>   0.7710 
  3 C        1.1070     0.3760     0.0080 C.ar  1 <1>   0.4100 
  4 N        1.5140    -2.1860     0.6650 N.ar  1 <1>  -0.1790 
  5 N       -0.5980    -2.6260    -0.2150 N.pl3 1 <1>  -0.8690 
  6 N        0.8740     1.6690    -0.3500 N.pl3 1 <1>  -0.8380 
  7 C        2.3100    -0.0100     0.6350 C.ar  1 <1>  -0.1500 
  8 C        2.5040    -1.3100     0.9600 C.ar  1 <1>   0.2110 
  9 C       -0.8070    -4.0580     0.0430 C.3   1 <1>   0.4330 
 10 C        1.9330     2.6970    -0.5430 C.3   1 <1>   0.2090 
 11 C       -0.4910     2.1450    -0.7440 C.3   1 <1>   0.1290 
 12 C       -2.3090    -4.3140     0.0130 C.ar  1 <1>  -0.1430 
 13 C       -0.0470    -4.8790    -1.0100 C.3   1 <1>  -0.1600 
 14 C        2.0430     3.5530     0.7160 C.3   1 <1>  -0.2400 
 15 C       -3.0630    -4.0400    -1.1210 C.ar  1 <1>  -0.1500 
 16 C       -2.9460    -4.8300     1.1350 C.ar  1 <1>  -0.1500 
 17 C       -0.1600    -6.3930    -0.7750 C.3   1 <1>  -0.2400 
 18 C       -4.4270    -4.2750    -1.1330 C.ar  1 <1>  -0.1500 
 19 C       -4.3090    -5.0670     1.1230 C.ar  1 <1>  -0.1500 
 20 C       -5.0510    -4.7890    -0.0110 C.ar  1 <1>  -0.1500 
 21 H        1.5840    -3.1770     0.8650 H     1 <1>   0.4570 
 22 H       -1.4330    -2.1940    -0.6250 H     1 <1>   0.4000 
 23 H        3.0530     0.7320     0.8560 H     1 <1>   0.1500 
 24 H        3.4020    -1.6650     1.4410 H     1 <1>   0.1500 
 25 H       -0.4320    -4.3020     1.0220 H     1 <1>   0.0800 
 26 H        2.8780     2.2280    -0.7590 H     1 <1>   0.0800 
 27 H        1.6850     3.3190    -1.3870 H     1 <1>   0.0800 
 28 H       -0.6210     3.1780    -0.4760 H     1 <1>   0.0800 
 29 H       -1.2530     1.5730    -0.2430 H     1 <1>   0.0800 
 30 H       -0.6180     2.0380    -1.8070 H     1 <1>   0.0800 
 31 H       -0.4330    -4.6540    -1.9890 H     1 <1>   0.0800 
 32 H        0.9940    -4.6130    -0.9990 H     1 <1>   0.0800 
 33 H        2.2770     2.9450     1.5700 H     1 <1>   0.0800 
 34 H        1.1200     4.0730     0.8970 H     1 <1>   0.0800 
 35 H        2.8220     4.2830     0.5900 H     1 <1>   0.0800 
 36 H       -2.6010    -3.6430    -2.0080 H     1 <1>   0.1500 
 37 H       -2.3920    -5.0540     2.0300 H     1 <1>   0.1500 
 38 H       -1.1870    -6.7120    -0.8430 H     1 <1>   0.0800 
 39 H        0.2210    -6.6650     0.1940 H     1 <1>   0.0800 
 40 H        0.4020    -6.9250    -1.5230 H     1 <1>   0.0800 
 41 H       -5.0040    -4.0600    -2.0160 H     1 <1>   0.1500 
 42 H       -4.7960    -5.4670     1.9950 H     1 <1>   0.1500 
 43 H       -6.1110    -4.9740    -0.0210 H     1 <1>   0.1500 
@<TRIPOS>BOND
  1   1   2  ar  
  2   1   3  ar  
  3   2   4  ar  
  4   2   5  1   
  5   3   6  1   
  6   3   7  ar  
  7   4   8  ar  
  8   4  21  1   
  9   5   9  1   
 10   5  22  1   
 11   6  10  1   
 12   6  11  1   
 13   7   8  ar  
 14   7  23  1   
 15   8  24  1   
 16   9  12  1   
 17   9  13  1   
 18   9  25  1   
 19  10  14  1   
 20  10  26  1   
 21  10  27  1   
 22  11  28  1   
 23  11  29  1   
 24  11  30  1   
 25  12  15  ar  
 26  12  16  ar  
 27  13  17  1   
 28  13  31  1   
 29  13  32  1   
 30  14  33  1   
 31  14  34  1   
 32  14  35  1   
 33  15  18  ar  
 34  15  36  1   
 35  16  19  ar  
 36  16  37  1   
 37  17  38  1   
 38  17  39  1   
 39  17  40  1   
 40  18  20  ar  
 41  18  41  1   
 42  19  20  ar  
 43  19  42  1   
 44  20  43  1   
@<TRIPOS>SUBSTRUCTURE
  1 ****   5 GROUP 4 **** **** 0

# MOE 2024.06 (io_trps.svl 2023.06)
