@<TRIPOS>MOLECULE
NONAME
51 54 1 0 0 
SMALL
USER_CHARGES


@<TRIPOS>ATOM
  1 O        1.7520    -0.1340    -2.5100 O.2   1 <1>  -0.5700 
  2 C        2.2650    -0.5860    -1.5070 C.2   1 <1>   0.5440 
  3 N        3.0340     0.2450    -0.7200 N.am  1 <1>  -0.6600 
  4 C        2.0480    -1.9610    -1.1300 C.ar  1 <1>   0.0860 
  5 C        3.2010    -0.0030     0.7620 C.3   1 <1>   0.2200 
  6 C        3.6920     1.4210    -1.3710 C.3   1 <1>   0.1400 
  7 C        3.1130    -2.8520    -1.0700 C.ar  1 <1>   0.1600 
  8 C        0.7990    -2.4350    -0.7640 C.ar  1 <1>  -0.1500 
  9 C        2.8270     1.2290     1.6020 C.3   1 <1>   0.1200 
 10 C        4.6170    -0.5160     1.1150 C.3   1 <1>   0.3430 
 11 C        4.7580     2.1430    -0.5240 C.3   1 <1>  -0.0800 
 12 N        3.0480    -4.0910    -0.6130 N.ar  1 <1>  -0.6200 
 13 C        0.6950    -3.7360    -0.3180 C.ar  1 <1>  -0.1440 
 14 O        3.9090     2.0990     1.7390 O.3   1 <1>  -0.5600 
 15 N        5.6200    -0.1640     0.0710 N.4   1 <1>  -0.9590 
 16 C        4.1520     2.9260     0.6500 C.3   1 <1>   0.1200 
 17 C        5.9560     1.2740    -0.0950 C.3   1 <1>   0.3430 
 18 C        1.8470    -4.5170    -0.2520 C.ar  1 <1>   0.1670 
 19 C       -0.6740    -4.2650     0.0960 C.3   1 <1>  -0.0170 
 20 C        6.8410    -1.0550     0.0220 C.3   1 <1>   0.2370 
 21 C        1.7960    -5.9610     0.2290 C.3   1 <1>  -0.0170 
 22 C       -0.7160    -5.7960     0.1630 C.3   1 <1>  -0.1600 
 23 C        7.1370    -1.4270    -1.4310 C.2   1 <1>   0.9060 
 24 C        0.4890    -6.3270     0.9440 C.3   1 <1>  -0.1600 
 25 O        8.2690    -1.7700    -1.7630 O.co2 1 <1>  -0.9000 
 26 O        6.1840    -1.2840    -2.2150 O.co2 1 <1>  -0.9000 
 27 H        2.5050    -0.7670     1.0590 H     1 <1>   0.0800 
 28 H        4.1520     1.0800    -2.2850 H     1 <1>   0.0800 
 29 H        2.9250     2.1240    -1.6510 H     1 <1>   0.0800 
 30 H        4.0770    -2.5120    -1.4160 H     1 <1>   0.1500 
 31 H       -0.0600    -1.7890    -0.8290 H     1 <1>   0.1500 
 32 H        2.5680     0.9100     2.5960 H     1 <1>   0.0800 
 33 H        1.9810     1.7500     1.1850 H     1 <1>   0.0800 
 34 H        4.5670    -1.5890     1.2000 H     1 <1>   0.0800 
 35 H        4.9200    -0.1230     2.0700 H     1 <1>   0.0800 
 36 H        5.1670     2.8980    -1.1700 H     1 <1>   0.0800 
 37 H        5.1850    -0.4180    -0.8510 H     1 <1>   0.4500 
 38 H        3.2380     3.4220     0.3680 H     1 <1>   0.0800 
 39 H        4.8500     3.6750     0.9820 H     1 <1>   0.0800 
 40 H        6.3750     1.6600     0.8190 H     1 <1>   0.0800 
 41 H        6.7100     1.3500    -0.8630 H     1 <1>   0.0800 
 42 H       -0.9160    -3.8640     1.0640 H     1 <1>   0.0800 
 43 H       -1.4210    -3.9230    -0.5990 H     1 <1>   0.0800 
 44 H        7.7010    -0.5630     0.4380 H     1 <1>   0.0800 
 45 H        6.6640    -1.9700     0.5560 H     1 <1>   0.0800 
 46 H        1.9200    -6.5950    -0.6320 H     1 <1>   0.0800 
 47 H        2.6260    -6.1450     0.8880 H     1 <1>   0.0800 
 48 H       -1.6300    -6.1120     0.6350 H     1 <1>   0.0800 
 49 H       -0.7010    -6.1980    -0.8360 H     1 <1>   0.0800 
 50 H        0.4220    -7.3960     1.0440 H     1 <1>   0.0800 
 51 H        0.4910    -5.9000     1.9330 H     1 <1>   0.0800 
@<TRIPOS>BOND
  1   1   2  2   
  2   2   3  am  
  3   2   4  1   
  4   3   5  1   
  5   3   6  1   
  6   4   7  ar  
  7   4   8  ar  
  8   5   9  1   
  9   5  10  1   
 10   5  27  1   
 11   6  11  1   
 12   6  28  1   
 13   6  29  1   
 14   7  12  ar  
 15   7  30  1   
 16   8  13  ar  
 17   8  31  1   
 18   9  14  1   
 19   9  32  1   
 20   9  33  1   
 21  10  15  1   
 22  10  34  1   
 23  10  35  1   
 24  11  16  1   
 25  11  17  1   
 26  11  36  1   
 27  12  18  ar  
 28  13  18  ar  
 29  13  19  1   
 30  14  16  1   
 31  15  17  1   
 32  15  20  1   
 33  15  37  1   
 34  16  38  1   
 35  16  39  1   
 36  17  40  1   
 37  17  41  1   
 38  18  21  1   
 39  19  22  1   
 40  19  42  1   
 41  19  43  1   
 42  20  23  1   
 43  20  44  1   
 44  20  45  1   
 45  21  24  1   
 46  21  46  1   
 47  21  47  1   
 48  22  24  1   
 49  22  48  1   
 50  22  49  1   
 51  23  25  ar  
 52  23  26  ar  
 53  24  50  1   
 54  24  51  1   
@<TRIPOS>SUBSTRUCTURE
  1 ****   4 GROUP 4 **** **** 0

# MOE 2024.06 (io_trps.svl 2023.06)
