@<TRIPOS>MOLECULE
NONAME
25 25 1 0 0 
SMALL
USER_CHARGES


@<TRIPOS>ATOM
  1 O        0.5450    -0.1220     1.4510 O.3   1 <1>  -0.5320 
  2 C        1.3410     0.7390     0.8010 C.ar  1 <1>   0.0830 
  3 C        1.3930     2.0710     1.1780 C.ar  1 <1>  -0.1500 
  4 C        2.1100     0.2750    -0.2500 C.ar  1 <1>  -0.1500 
  5 C        2.2190     2.9500     0.4910 C.ar  1 <1>  -0.1430 
  6 C        2.9490     1.1440    -0.9220 C.ar  1 <1>  -0.1500 
  7 C        3.0070     2.4760    -0.5500 C.ar  1 <1>  -0.1500 
  8 C        2.2400     4.4290     0.8480 C.3   1 <1>  -0.0170 
  9 C        1.6330     5.2570    -0.2950 C.3   1 <1>   0.4230 
 10 N        0.3830     4.6280    -0.7560 N.4   1 <1>  -0.8530 
 11 C        1.3290     6.6910     0.1220 C.3   1 <1>  -0.2400 
 12 H        0.1650     0.2220     2.2780 H     1 <1>   0.4500 
 13 H        0.7920     2.4070     2.0040 H     1 <1>   0.1500 
 14 H        2.0560    -0.7640    -0.5270 H     1 <1>   0.1500 
 15 H        3.5610     0.7770    -1.7290 H     1 <1>   0.1500 
 16 H        3.6780     3.1300    -1.0810 H     1 <1>   0.1500 
 17 H        3.2550     4.7440     1.0180 H     1 <1>   0.0800 
 18 H        1.6970     4.6010     1.7620 H     1 <1>   0.0800 
 19 H        2.3390     5.2670    -1.1120 H     1 <1>   0.0800 
 20 H       -0.3570     4.7260    -0.0560 H     1 <1>   0.4500 
 21 H        0.5590     3.6200    -0.8870 H     1 <1>   0.4500 
 22 H        0.0620     5.0270    -1.6430 H     1 <1>   0.4500 
 23 H        0.6270     6.7230     0.9380 H     1 <1>   0.0800 
 24 H        0.9410     7.2560    -0.7070 H     1 <1>   0.0800 
 25 H        2.2360     7.1720     0.4470 H     1 <1>   0.0800 
@<TRIPOS>BOND
  1   1   2  1   
  2   1  12  1   
  3   2   3  ar  
  4   2   4  ar  
  5   3   5  ar  
  6   3  13  1   
  7   4   6  ar  
  8   4  14  1   
  9   5   7  ar  
 10   5   8  1   
 11   6   7  ar  
 12   6  15  1   
 13   7  16  1   
 14   8   9  1   
 15   8  17  1   
 16   8  18  1   
 17   9  10  1   
 18   9  11  1   
 19   9  19  1   
 20  10  20  1   
 21  10  21  1   
 22  10  22  1   
 23  11  23  1   
 24  11  24  1   
 25  11  25  1   
@<TRIPOS>SUBSTRUCTURE
  1 ****   5 GROUP 4 **** **** 0

# MOE 2024.06 (io_trps.svl 2023.06)
