@<TRIPOS>MOLECULE
NONAME
43 44 1 0 0 
SMALL
USER_CHARGES


@<TRIPOS>ATOM
  1 O       -0.6510     0.3410     2.4030 O.2   1 <1>  -0.5700 
  2 C        0.0980    -0.2950     1.7010 C.2   1 <1>   0.5690 
  3 N        1.2990     0.1770     1.2430 N.am  1 <1>  -0.4940 
  4 C       -0.3170    -1.7020     1.2990 C.3   1 <1>   0.0820 
  5 C        1.9480     1.4150     1.4610 C.2   1 <1>  -0.0880 
  6 C        0.6160    -2.2900     0.2460 C.2   1 <1>  -0.1810 
  7 N        3.1250     1.7990     0.8860 N.pl3 1 <1>   0.3140 
  8 C        1.5610     2.4410     2.2530 C.2   1 <1>  -0.1500 
  9 C        1.6310    -3.1590     0.3770 C.2   1 <1>  -0.0400 
 10 C        0.6300    -1.9820    -1.1150 C.2   1 <1>   0.1080 
 11 N        3.4870     3.0380     1.2990 N.2   1 <1>  -0.7070 
 12 C        3.9740     1.0590    -0.0940 C.3   1 <1>   0.1760 
 13 C        2.5480     3.4060     2.1100 C.2   1 <1>   0.1080 
 14 O        2.1770    -3.3170    -0.7980 O.3   1 <1>  -0.0190 
 15 C        2.2080    -3.9020     1.5660 C.3   1 <1>  -0.0600 
 16 N        1.5830    -2.6030    -1.7080 N.2   1 <1>  -0.4100 
 17 C       -0.3240    -1.0410    -1.8230 C.3   1 <1>  -0.0590 
 18 C        3.2360     0.9110    -1.4410 C.3   1 <1>  -0.1600 
 19 C        4.4580    -0.2820     0.4860 C.3   1 <1>  -0.2400 
 20 C        2.5610     4.7470     2.8050 C.3   1 <1>  -0.0590 
 21 C        4.0830     0.2550    -2.5400 C.3   1 <1>  -0.2400 
 22 H        1.7950    -0.4790     0.6340 H     1 <1>   0.3700 
 23 H       -1.3230    -1.6750     0.9230 H     1 <1>   0.0800 
 24 H       -0.3140    -2.3160     2.1800 H     1 <1>   0.0800 
 25 H        0.6820     2.5100     2.8670 H     1 <1>   0.1500 
 26 H        4.8430     1.6730    -0.2610 H     1 <1>   0.0800 
 27 H        1.6760    -3.6570     2.4660 H     1 <1>   0.0800 
 28 H        3.2430    -3.6380     1.6920 H     1 <1>   0.0800 
 29 H        2.1390    -4.9610     1.3970 H     1 <1>   0.0800 
 30 H       -0.3100    -0.0730    -1.3550 H     1 <1>   0.0800 
 31 H       -1.3210    -1.4380    -1.7880 H     1 <1>   0.0800 
 32 H       -0.0320    -0.9310    -2.8520 H     1 <1>   0.0800 
 33 H        2.9470     1.8930    -1.7760 H     1 <1>   0.0800 
 34 H        2.3420     0.3310    -1.3100 H     1 <1>   0.0800 
 35 H        3.6660    -1.0050     0.5200 H     1 <1>   0.0800 
 36 H        4.8510    -0.1330     1.4770 H     1 <1>   0.0800 
 37 H        5.2470    -0.6820    -0.1240 H     1 <1>   0.0800 
 38 H        1.6940     4.8540     3.4300 H     1 <1>   0.0800 
 39 H        2.5670     5.5310     2.0710 H     1 <1>   0.0800 
 40 H        3.4450     4.8280     3.4100 H     1 <1>   0.0800 
 41 H        5.0130     0.7810    -2.6680 H     1 <1>   0.0800 
 42 H        3.5480     0.2780    -3.4730 H     1 <1>   0.0800 
 43 H        4.2890    -0.7740    -2.3030 H     1 <1>   0.0800 
@<TRIPOS>BOND
  1   1   2  2   
  2   2   3  am  
  3   2   4  1   
  4   3   5  1   
  5   3  22  1   
  6   4   6  1   
  7   4  23  1   
  8   4  24  1   
  9   5   7  1   
 10   5   8  2   
 11   6   9  2   
 12   6  10  1   
 13   7  11  1   
 14   7  12  1   
 15   8  13  1   
 16   8  25  1   
 17   9  14  1   
 18   9  15  1   
 19  10  16  2   
 20  10  17  1   
 21  11  13  2   
 22  12  18  1   
 23  12  19  1   
 24  12  26  1   
 25  13  20  1   
 26  14  16  1   
 27  15  27  1   
 28  15  28  1   
 29  15  29  1   
 30  17  30  1   
 31  17  31  1   
 32  17  32  1   
 33  18  21  1   
 34  18  33  1   
 35  18  34  1   
 36  19  35  1   
 37  19  36  1   
 38  19  37  1   
 39  20  38  1   
 40  20  39  1   
 41  20  40  1   
 42  21  41  1   
 43  21  42  1   
 44  21  43  1   
@<TRIPOS>SUBSTRUCTURE
  1 ****   3 GROUP 4 **** **** 0

# MOE 2024.06 (io_trps.svl 2023.06)
