@<TRIPOS>MOLECULE
NONAME
43 45 1 0 0 
SMALL
USER_CHARGES


@<TRIPOS>ATOM
  1 O       -0.8440     0.5020     2.0340 O.2   1 <1>  -0.5700 
  2 C       -1.4900     0.9630     1.1130 C.2   1 <1>   0.6160 
  3 N       -2.2370     0.1110     0.3290 N.am  1 <1>  -0.6600 
  4 C       -1.4770     2.3870     0.8780 C.2   1 <1>  -0.0140 
  5 C       -2.4150    -1.3260     0.7330 C.3   1 <1>   0.1400 
  6 C       -2.9210     0.5290    -0.9240 C.3   1 <1>   0.1400 
  7 C       -0.2980     3.0270     0.3380 C.ar  1 <1>   0.0280 
  8 C       -2.5730     3.1520     1.1480 C.2   1 <1>  -0.1360 
  9 C       -3.7240    -1.9520     0.2080 C.3   1 <1>   0.2000 
 10 C       -4.4360     0.2840    -0.8210 C.3   1 <1>  -0.1600 
 11 C       -0.3350     4.4120     0.0910 C.ar  1 <1>   0.1170 
 12 C        0.8860     2.3430     0.0400 C.ar  1 <1>  -0.1500 
 13 C       -2.6040     4.5470     0.9030 C.2   1 <1>   0.6160 
 14 O       -3.5080    -2.5180    -1.0400 O.3   1 <1>  -0.6800 
 15 C       -4.8410    -0.8960     0.1010 C.3   1 <1>  -0.0800 
 16 N       -1.4920     5.1240     0.3820 N.am  1 <1>  -0.5470 
 17 C        0.7760     5.0590    -0.4410 C.ar  1 <1>  -0.1500 
 18 C        1.9850     2.9900    -0.4880 C.ar  1 <1>  -0.1430 
 19 O       -3.5780     5.2410     1.1230 O.2   1 <1>  -0.5700 
 20 C       -6.1720    -1.5360    -0.3240 C.3   1 <1>   0.1200 
 21 C        1.9250     4.3560    -0.7290 C.ar  1 <1>  -0.1500 
 22 C        3.2620     2.2320    -0.8040 C.3   1 <1>  -0.0970 
 23 O       -7.1670    -0.5710    -0.3410 O.3   1 <1>  -0.6800 
 24 H       -1.5690    -1.9070     0.4060 H     1 <1>   0.0800 
 25 H       -2.4400    -1.3710     1.8080 H     1 <1>   0.0800 
 26 H       -2.7350     1.5630    -1.1540 H     1 <1>   0.0800 
 27 H       -2.5160    -0.0510    -1.7360 H     1 <1>   0.0800 
 28 H       -3.4690     2.7290     1.5600 H     1 <1>   0.1500 
 29 H       -4.0210    -2.7530     0.8640 H     1 <1>   0.0800 
 30 H       -4.9110     1.1800    -0.4630 H     1 <1>   0.0800 
 31 H       -4.8110     0.1170    -1.8160 H     1 <1>   0.0800 
 32 H        0.9460     1.2850     0.2300 H     1 <1>   0.1500 
 33 H       -3.2150    -1.8290    -1.6650 H     1 <1>   0.4000 
 34 H       -4.9720    -0.5060     1.0950 H     1 <1>   0.0800 
 35 H       -1.5490     6.1300     0.2320 H     1 <1>   0.3700 
 36 H        0.7360     6.1170    -0.6270 H     1 <1>   0.1500 
 37 H       -6.4660    -2.3150     0.3580 H     1 <1>   0.0800 
 38 H       -6.0980    -1.9500    -1.3160 H     1 <1>   0.0800 
 39 H        2.7800     4.8650    -1.1400 H     1 <1>   0.1500 
 40 H        4.0890     2.6700    -0.2750 H     1 <1>   0.0800 
 41 H        3.4610     2.2750    -1.8600 H     1 <1>   0.0800 
 42 H        3.1800     1.2000    -0.5120 H     1 <1>   0.0800 
 43 H       -7.3320    -0.2250     0.5570 H     1 <1>   0.4000 
@<TRIPOS>BOND
  1   1   2  2   
  2   2   3  am  
  3   2   4  1   
  4   3   5  1   
  5   3   6  1   
  6   4   7  1   
  7   4   8  2   
  8   5   9  1   
  9   5  24  1   
 10   5  25  1   
 11   6  10  1   
 12   6  26  1   
 13   6  27  1   
 14   7  11  ar  
 15   7  12  ar  
 16   8  13  1   
 17   8  28  1   
 18   9  14  1   
 19   9  15  1   
 20   9  29  1   
 21  10  15  1   
 22  10  30  1   
 23  10  31  1   
 24  11  16  1   
 25  11  17  ar  
 26  12  18  ar  
 27  12  32  1   
 28  13  16  am  
 29  13  19  2   
 30  14  33  1   
 31  15  20  1   
 32  15  34  1   
 33  16  35  1   
 34  17  21  ar  
 35  17  36  1   
 36  18  21  ar  
 37  18  22  1   
 38  20  23  1   
 39  20  37  1   
 40  20  38  1   
 41  21  39  1   
 42  22  40  1   
 43  22  41  1   
 44  22  42  1   
 45  23  43  1   
@<TRIPOS>SUBSTRUCTURE
  1 ****   4 GROUP 4 **** **** 0

# MOE 2024.06 (io_trps.svl 2023.06)
