@<TRIPOS>MOLECULE
NONAME
41 43 1 0 0 
SMALL
USER_CHARGES


@<TRIPOS>ATOM
  1 S       -0.0850     0.0800    -0.1270 S.3   1 <1>  -0.0800 
  2 C       -1.5010    -0.7930     0.4340 C.2   1 <1>  -0.1400 
  3 C       -0.8100     1.6220     0.2850 C.2   1 <1>  -0.1400 
  4 C       -2.4290     0.0700     0.8960 C.2   1 <1>  -0.1500 
  5 C       -1.4170    -2.2990     0.3000 C.3   1 <1>   0.5230 
  6 C       -2.0340     1.4420     0.8090 C.2   1 <1>  -0.1500 
  7 C        0.0060     2.8680     0.0080 C.3   1 <1>  -0.0600 
  8 N       -2.7800    -2.8910     0.3790 N.4   1 <1>  -0.9590 
  9 C       -3.6560    -2.4800    -0.7640 C.3   1 <1>   0.3430 
 10 C       -2.7710    -4.3860     0.4110 C.3   1 <1>   0.3430 
 11 C       -4.6470    -3.6310    -0.9370 C.3   1 <1>   0.2000 
 12 C       -3.8000    -4.8650    -0.6250 C.3   1 <1>  -0.0800 
 13 O       -5.6750    -3.4960    -0.0090 O.3   1 <1>  -0.6800 
 14 C       -4.5790    -6.1290    -0.2080 C.3   1 <1>   0.0200 
 15 C       -3.6280    -7.2810     0.0510 C.2   1 <1>  -0.0400 
 16 O       -2.7860    -7.2170     1.0470 O.3   1 <1>  -0.0190 
 17 C       -3.4370    -8.4540    -0.5720 C.2   1 <1>  -0.1500 
 18 N       -2.0290    -8.2680     1.1140 N.2   1 <1>  -0.4100 
 19 C       -2.4040    -9.0390     0.1560 C.2   1 <1>   0.1080 
 20 C       -1.7970   -10.3940    -0.1340 C.3   1 <1>  -0.0590 
 21 H       -3.3930    -0.1730     1.3090 H     1 <1>   0.1500 
 22 H       -0.7910    -2.6880     1.0880 H     1 <1>   0.0800 
 23 H       -0.9640    -2.5480    -0.6460 H     1 <1>   0.0800 
 24 H       -2.6880     2.2300     1.1450 H     1 <1>   0.1500 
 25 H       -0.5430     3.7450     0.3020 H     1 <1>   0.0800 
 26 H        0.2300     2.9360    -1.0420 H     1 <1>   0.0800 
 27 H        0.9280     2.8350     0.5600 H     1 <1>   0.0800 
 28 H       -3.2040    -2.5370     1.2450 H     1 <1>   0.4500 
 29 H       -4.1640    -1.5480    -0.5770 H     1 <1>   0.0800 
 30 H       -3.0660    -2.3870    -1.6600 H     1 <1>   0.0800 
 31 H       -1.7970    -4.7830     0.1710 H     1 <1>   0.0800 
 32 H       -3.0460    -4.7320     1.3950 H     1 <1>   0.0800 
 33 H       -5.0840    -3.6490    -1.9220 H     1 <1>   0.0800 
 34 H       -3.2470    -5.1100    -1.5160 H     1 <1>   0.0800 
 35 H       -5.4090    -3.7340     0.8990 H     1 <1>   0.4000 
 36 H       -5.2620    -6.4060    -0.9930 H     1 <1>   0.0800 
 37 H       -5.1570    -5.9580     0.6840 H     1 <1>   0.0800 
 38 H       -3.9340    -8.8780    -1.4250 H     1 <1>   0.1500 
 39 H       -2.5560   -11.1530    -0.0770 H     1 <1>   0.0800 
 40 H       -1.0300   -10.6160     0.5860 H     1 <1>   0.0800 
 41 H       -1.3640   -10.4000    -1.1170 H     1 <1>   0.0800 
@<TRIPOS>BOND
  1   1   2  1   
  2   1   3  1   
  3   2   4  2   
  4   2   5  1   
  5   3   6  2   
  6   3   7  1   
  7   4   6  1   
  8   4  21  1   
  9   5   8  1   
 10   5  22  1   
 11   5  23  1   
 12   6  24  1   
 13   7  25  1   
 14   7  26  1   
 15   7  27  1   
 16   8   9  1   
 17   8  10  1   
 18   8  28  1   
 19   9  11  1   
 20   9  29  1   
 21   9  30  1   
 22  10  12  1   
 23  10  31  1   
 24  10  32  1   
 25  11  12  1   
 26  11  13  1   
 27  11  33  1   
 28  12  14  1   
 29  12  34  1   
 30  13  35  1   
 31  14  15  1   
 32  14  36  1   
 33  14  37  1   
 34  15  16  1   
 35  15  17  2   
 36  16  18  1   
 37  17  19  1   
 38  17  38  1   
 39  18  19  2   
 40  19  20  1   
 41  20  39  1   
 42  20  40  1   
 43  20  41  1   
@<TRIPOS>SUBSTRUCTURE
  1 ****  10 GROUP 4 **** **** 0

# MOE 2024.06 (io_trps.svl 2023.06)
