@<TRIPOS>MOLECULE
NONAME
54 56 1 0 0 
SMALL
USER_CHARGES


@<TRIPOS>ATOM
  1 O        0.1220     1.3780     1.6230 O.2   1 <1>  -0.5700 
  2 C        0.1960     2.1080     0.6520 C.2   1 <1>   0.6900 
  3 N       -0.8660     2.9030     0.2940 N.am  1 <1>  -0.6600 
  4 N        1.3390     2.1540    -0.0920 N.am  1 <1>  -0.5470 
  5 C       -2.1880     2.7370     0.9840 C.3   1 <1>   0.1400 
  6 C       -0.8340     3.8290    -0.8770 C.3   1 <1>   0.1400 
  7 C        2.5230     1.4200     0.0590 C.ar  1 <1>   0.1170 
  8 C       -3.3730     2.7970    -0.0090 C.3   1 <1>   0.0000 
  9 C       -1.9840     4.8380    -0.8150 C.3   1 <1>  -0.1600 
 10 C        2.5570     0.0400    -0.1600 C.ar  1 <1>  -0.1430 
 11 C        3.7010     2.0870     0.4020 C.ar  1 <1>  -0.1430 
 12 C       -4.6870     2.5290     0.7560 C.3   1 <1>   0.2000 
 13 C       -3.3680     4.1660    -0.7440 C.3   1 <1>  -0.1600 
 14 C       -3.3200     1.5980    -0.9790 C.3   1 <1>  -0.1600 
 15 C        3.7520    -0.6470    -0.0320 C.ar  1 <1>  -0.1500 
 16 C        1.3050    -0.7400    -0.5400 C.3   1 <1>  -0.0970 
 17 C        4.8860     1.3800     0.5200 C.ar  1 <1>  -0.1500 
 18 C        3.7070     3.5870     0.6680 C.3   1 <1>  -0.0970 
 19 O       -5.7730     2.9450    -0.0250 O.3   1 <1>  -0.5600 
 20 C       -4.7610     1.0050     0.9130 C.3   1 <1>  -0.1600 
 21 C       -3.9040     0.4080    -0.2120 C.3   1 <1>  -0.1600 
 22 C        4.9210     0.0140     0.3030 C.ar  1 <1>  -0.1430 
 23 C       -6.9320     3.2450     0.6870 C.3   1 <1>   0.0400 
 24 C        6.2230    -0.7530     0.4400 C.3   1 <1>  -0.0970 
 25 H        1.3930     2.9420    -0.7210 H     1 <1>   0.3700 
 26 H       -2.2080     1.8010     1.5140 H     1 <1>   0.0800 
 27 H       -2.2910     3.5210     1.7130 H     1 <1>   0.0800 
 28 H        0.0970     4.3670    -0.8890 H     1 <1>   0.0800 
 29 H       -0.9110     3.2520    -1.7830 H     1 <1>   0.0800 
 30 H       -1.8410     5.4530     0.0570 H     1 <1>   0.0800 
 31 H       -1.9440     5.4850    -1.6730 H     1 <1>   0.0800 
 32 H       -4.7090     3.0490     1.6990 H     1 <1>   0.0800 
 33 H       -3.7600     4.0420    -1.7380 H     1 <1>   0.0800 
 34 H       -4.0310     4.8470    -0.2380 H     1 <1>   0.0800 
 35 H       -3.9580     1.7930    -1.8250 H     1 <1>   0.0800 
 36 H       -2.3310     1.3840    -1.3420 H     1 <1>   0.0800 
 37 H        3.7770    -1.7100    -0.1930 H     1 <1>   0.1500 
 38 H        1.5570    -1.7090    -0.9290 H     1 <1>   0.0800 
 39 H        0.7450    -0.2120    -1.2900 H     1 <1>   0.0800 
 40 H        0.6840    -0.8710     0.3280 H     1 <1>   0.0800 
 41 H        5.7930     1.8930     0.7870 H     1 <1>   0.1500 
 42 H        4.6640     3.9100     1.0380 H     1 <1>   0.0800 
 43 H        2.9640     3.8300     1.4070 H     1 <1>   0.0800 
 44 H        3.4940     4.1230    -0.2380 H     1 <1>   0.0800 
 45 H       -4.3380     0.7250     1.8610 H     1 <1>   0.0800 
 46 H       -5.7730     0.6440     0.8690 H     1 <1>   0.0800 
 47 H       -3.1100    -0.1850     0.2090 H     1 <1>   0.0800 
 48 H       -4.4940    -0.2110    -0.8650 H     1 <1>   0.0800 
 49 H       -7.6950     3.5180    -0.0200 H     1 <1>   0.0800 
 50 H       -6.7370     4.0730     1.3460 H     1 <1>   0.0800 
 51 H       -7.2470     2.3820     1.2460 H     1 <1>   0.0800 
 52 H        6.2330    -1.5960    -0.2260 H     1 <1>   0.0800 
 53 H        6.3290    -1.1050     1.4500 H     1 <1>   0.0800 
 54 H        7.0590    -0.1210     0.2020 H     1 <1>   0.0800 
@<TRIPOS>BOND
  1   1   2  2   
  2   2   3  am  
  3   2   4  am  
  4   3   5  1   
  5   3   6  1   
  6   4   7  1   
  7   4  25  1   
  8   5   8  1   
  9   5  26  1   
 10   5  27  1   
 11   6   9  1   
 12   6  28  1   
 13   6  29  1   
 14   7  10  ar  
 15   7  11  ar  
 16   8  12  1   
 17   8  13  1   
 18   8  14  1   
 19   9  13  1   
 20   9  30  1   
 21   9  31  1   
 22  10  15  ar  
 23  10  16  1   
 24  11  17  ar  
 25  11  18  1   
 26  12  19  1   
 27  12  20  1   
 28  12  32  1   
 29  13  33  1   
 30  13  34  1   
 31  14  21  1   
 32  14  35  1   
 33  14  36  1   
 34  15  22  ar  
 35  15  37  1   
 36  16  38  1   
 37  16  39  1   
 38  16  40  1   
 39  17  22  ar  
 40  17  41  1   
 41  18  42  1   
 42  18  43  1   
 43  18  44  1   
 44  19  23  1   
 45  20  21  1   
 46  20  45  1   
 47  20  46  1   
 48  21  47  1   
 49  21  48  1   
 50  22  24  1   
 51  23  49  1   
 52  23  50  1   
 53  23  51  1   
 54  24  52  1   
 55  24  53  1   
 56  24  54  1   
@<TRIPOS>SUBSTRUCTURE
  1 ****   2 GROUP 4 **** **** 0

# MOE 2024.06 (io_trps.svl 2023.06)
