@<TRIPOS>MOLECULE
NONAME
36 37 1 0 0 
SMALL
USER_CHARGES


@<TRIPOS>ATOM
  1 S       -0.1150    -0.1110    -0.1400 S.3   1 <1>  -0.0800 
  2 C        0.8210     1.3120    -0.5640 C.2   1 <1>  -0.1100 
  3 C       -1.5870     0.8380    -0.0450 C.2   1 <1>  -0.1100 
  4 C        0.0370     2.4060    -0.6140 C.2   1 <1>  -0.1810 
  5 C       -1.3390     2.1310    -0.3200 C.2   1 <1>  -0.1500 
  6 C        0.5090     3.8150    -0.9440 C.3   1 <1>   0.0210 
  7 C        0.4600     4.7350     0.2880 C.3   1 <1>   0.2890 
  8 N        0.6210     6.1560    -0.0880 N.pl3 1 <1>  -0.8690 
  9 C        1.4810     4.3590     1.3640 C.3   1 <1>  -0.2400 
 10 C        1.7800     6.7630    -0.4380 C.ar  1 <1>   0.7200 
 11 N        1.8890     7.9880     0.0470 N.ar  1 <1>  -0.6200 
 12 N        2.6410     6.1010    -1.2030 N.ar  1 <1>  -0.6200 
 13 C        2.9890     8.6510    -0.2650 C.ar  1 <1>   0.4100 
 14 C        3.7410     6.7620    -1.5070 C.ar  1 <1>   0.1600 
 15 N        3.1030     9.9470     0.2370 N.pl3 1 <1>  -0.8380 
 16 C        3.9560     8.0350    -1.0600 C.ar  1 <1>   0.1900 
 17 C        2.3640    10.3550     1.4640 C.3   1 <1>   0.1290 
 18 C        3.5480    11.0680    -0.6340 C.3   1 <1>   0.1290 
 19 F        5.0790     8.6420    -1.3850 F     1 <1>  -0.1900 
 20 H        1.8740     1.1770    -0.7310 H     1 <1>   0.1500 
 21 H       -2.4940     0.3190     0.2090 H     1 <1>   0.1500 
 22 H       -2.0770     2.9140    -0.3320 H     1 <1>   0.1500 
 23 H       -0.1190     4.2210    -1.7150 H     1 <1>   0.0800 
 24 H        1.5130     3.7650    -1.3210 H     1 <1>   0.0800 
 25 H       -0.5210     4.6360     0.7220 H     1 <1>   0.0800 
 26 H        0.0930     6.7890     0.5100 H     1 <1>   0.4000 
 27 H        2.4790     4.3730     0.9650 H     1 <1>   0.0800 
 28 H        1.2790     3.3690     1.7290 H     1 <1>   0.0800 
 29 H        1.4180     5.0440     2.1910 H     1 <1>   0.0800 
 30 H        4.4780     6.2770    -2.1210 H     1 <1>   0.1500 
 31 H        2.2670     9.5180     2.1340 H     1 <1>   0.0800 
 32 H        1.3820    10.7050     1.1970 H     1 <1>   0.0800 
 33 H        2.8980    11.1390     1.9720 H     1 <1>   0.0800 
 34 H        3.6240    10.7450    -1.6580 H     1 <1>   0.0800 
 35 H        4.5100    11.4200    -0.3050 H     1 <1>   0.0800 
 36 H        2.8400    11.8770    -0.5860 H     1 <1>   0.0800 
@<TRIPOS>BOND
  1   1   2  1   
  2   1   3  1   
  3   2   4  2   
  4   2  20  1   
  5   3   5  2   
  6   3  21  1   
  7   4   5  1   
  8   4   6  1   
  9   5  22  1   
 10   6   7  1   
 11   6  23  1   
 12   6  24  1   
 13   7   8  1   
 14   7   9  1   
 15   7  25  1   
 16   8  10  1   
 17   8  26  1   
 18   9  27  1   
 19   9  28  1   
 20   9  29  1   
 21  10  11  ar  
 22  10  12  ar  
 23  11  13  ar  
 24  12  14  ar  
 25  13  15  1   
 26  13  16  ar  
 27  14  16  ar  
 28  14  30  1   
 29  15  17  1   
 30  15  18  1   
 31  16  19  1   
 32  17  31  1   
 33  17  32  1   
 34  17  33  1   
 35  18  34  1   
 36  18  35  1   
 37  18  36  1   
@<TRIPOS>SUBSTRUCTURE
  1 ****  10 GROUP 4 **** **** 0

# MOE 2024.06 (io_trps.svl 2023.06)
