@<TRIPOS>MOLECULE
NONAME
43 45 1 0 0 
SMALL
USER_CHARGES


@<TRIPOS>ATOM
  1 O       -0.6250    -1.1270    -0.7050 O.3   1 <1>  -0.5320 
  2 C       -1.8380    -1.4330    -0.2190 C.ar  1 <1>   0.0830 
  3 C       -2.0830    -2.6800     0.3350 C.ar  1 <1>  -0.1500 
  4 C       -2.8370    -0.4790    -0.2780 C.ar  1 <1>  -0.1500 
  5 C       -3.3450    -2.9750     0.8330 C.ar  1 <1>  -0.1430 
  6 C       -4.0920    -0.7680     0.2250 C.ar  1 <1>  -0.1500 
  7 C       -4.3440    -2.0110     0.7810 C.ar  1 <1>  -0.1500 
  8 C       -3.6480    -4.3360     1.4340 C.3   1 <1>   0.4860 
  9 N       -3.7710    -5.3410     0.3440 N.4   1 <1>  -0.9590 
 10 C       -4.9300    -5.0280    -0.5560 C.3   1 <1>   0.3430 
 11 C       -4.0200    -6.7030     0.9140 C.3   1 <1>   0.3430 
 12 C       -6.0400    -6.0070    -0.1640 C.3   1 <1>   0.2000 
 13 C       -5.2670    -7.2640     0.2170 C.3   1 <1>  -0.0800 
 14 O       -6.6700    -5.5210     0.9780 O.3   1 <1>  -0.6800 
 15 C       -4.9130    -8.1100    -1.0220 C.3   1 <1>   0.0210 
 16 C       -4.0600    -9.3050    -0.6510 C.2   1 <1>   0.1080 
 17 N       -2.7900    -9.2090    -0.4100 N.2   1 <1>  -0.7070 
 18 C       -4.5240   -10.6100    -0.5310 C.2   1 <1>  -0.1500 
 19 N       -2.3990   -10.4740    -0.1420 N.pl3 1 <1>   0.3000 
 20 C       -3.4350   -11.3360    -0.2030 C.2   1 <1>  -0.3320 
 21 C       -3.3170   -12.8280     0.0540 C.3   1 <1>  -0.0600 
 22 H        0.0500    -1.8150    -0.5720 H     1 <1>   0.4500 
 23 H       -1.2900    -3.4040     0.3760 H     1 <1>   0.1500 
 24 H       -2.6260     0.4820    -0.7130 H     1 <1>   0.1500 
 25 H       -4.8680    -0.0220     0.1860 H     1 <1>   0.1500 
 26 H       -5.3280    -2.2130     1.1740 H     1 <1>   0.1500 
 27 H       -4.5690    -4.2890     1.9940 H     1 <1>   0.0800 
 28 H       -2.8540    -4.6140     2.1070 H     1 <1>   0.0800 
 29 H       -2.9030    -5.3390    -0.2050 H     1 <1>   0.4500 
 30 H       -5.2640    -4.0080    -0.4650 H     1 <1>   0.0800 
 31 H       -4.6440    -5.2100    -1.5780 H     1 <1>   0.0800 
 32 H       -3.1610    -7.3390     0.7910 H     1 <1>   0.0800 
 33 H       -4.2310    -6.6200     1.9680 H     1 <1>   0.0800 
 34 H       -6.7740    -6.1450    -0.9400 H     1 <1>   0.0800 
 35 H       -5.8280    -7.8830     0.8970 H     1 <1>   0.0800 
 36 H       -7.4850    -6.0300     1.1760 H     1 <1>   0.4000 
 37 H       -4.3710    -7.5300    -1.7470 H     1 <1>   0.0800 
 38 H       -5.8140    -8.4630    -1.4920 H     1 <1>   0.0800 
 39 H       -5.5340   -10.9500    -0.6780 H     1 <1>   0.1500 
 40 H       -1.4250   -10.7220     0.0720 H     1 <1>   0.2700 
 41 H       -4.2780   -13.3000    -0.0570 H     1 <1>   0.0800 
 42 H       -2.9610   -13.0090     1.0530 H     1 <1>   0.0800 
 43 H       -2.6350   -13.2740    -0.6480 H     1 <1>   0.0800 
@<TRIPOS>BOND
  1   1   2  1   
  2   1  22  1   
  3   2   3  ar  
  4   2   4  ar  
  5   3   5  ar  
  6   3  23  1   
  7   4   6  ar  
  8   4  24  1   
  9   5   7  ar  
 10   5   8  1   
 11   6   7  ar  
 12   6  25  1   
 13   7  26  1   
 14   8   9  1   
 15   8  27  1   
 16   8  28  1   
 17   9  10  1   
 18   9  11  1   
 19   9  29  1   
 20  10  12  1   
 21  10  30  1   
 22  10  31  1   
 23  11  13  1   
 24  11  32  1   
 25  11  33  1   
 26  12  13  1   
 27  12  14  1   
 28  12  34  1   
 29  13  15  1   
 30  13  35  1   
 31  14  36  1   
 32  15  16  1   
 33  15  37  1   
 34  15  38  1   
 35  16  17  2   
 36  16  18  1   
 37  17  19  1   
 38  18  20  2   
 39  18  39  1   
 40  19  20  1   
 41  19  40  1   
 42  20  21  1   
 43  21  41  1   
 44  21  42  1   
 45  21  43  1   
@<TRIPOS>SUBSTRUCTURE
  1 ****   9 GROUP 4 **** **** 0

# MOE 2024.06 (io_trps.svl 2023.06)
