@<TRIPOS>MOLECULE
NONAME
55 57 1 0 0 
SMALL
USER_CHARGES


@<TRIPOS>ATOM
  1 O       -3.7400     2.3360    -0.9120 O.2   1 <1>  -0.5700 
  2 C       -3.1680     1.4580    -0.3100 C.2   1 <1>   0.5690 
  3 N       -3.5820     0.1520    -0.4110 N.am  1 <1>  -0.6600 
  4 C       -1.9880     1.9110     0.5310 C.3   1 <1>  -0.0990 
  5 C       -2.9390    -1.0010     0.3210 C.3   1 <1>   0.3640 
  6 C       -4.7990    -0.1370    -1.2320 C.3   1 <1>   0.1400 
  7 C       -0.8340     2.3250    -0.3920 C.3   1 <1>   0.0960 
  8 C       -1.4910    -1.1430    -0.1510 C.ar  1 <1>  -0.1440 
  9 C       -3.6420    -2.3930     0.2000 C.3   1 <1>   0.2000 
 10 C       -4.9500    -1.6170    -1.5810 C.3   1 <1>   0.1200 
 11 N        0.2820     2.9300     0.3580 N.pl3 1 <1>   0.3140 
 12 C       -0.4840    -1.3410     0.7820 C.ar  1 <1>  -0.1500 
 13 C       -1.1540    -1.0690    -1.4970 C.ar  1 <1>  -0.1500 
 14 O       -4.9040    -2.3550    -0.4080 O.3   1 <1>  -0.5600 
 15 C       -3.8490    -3.0660     1.5660 C.3   1 <1>   0.1200 
 16 N        1.5300     2.4250     0.3160 N.2   1 <1>  -0.7070 
 17 C        0.2360     4.0460     1.1120 C.2   1 <1>  -0.3020 
 18 C        0.8420    -1.4350     0.4000 C.ar  1 <1>   0.0820 
 19 C        0.1690    -1.1590    -1.8940 C.ar  1 <1>  -0.1500 
 20 O       -2.6500    -3.1780     2.2630 O.3   1 <1>  -0.6800 
 21 C        2.2390     3.2250     1.0480 C.2   1 <1>   0.1080 
 22 C        1.4830     4.2630     1.5780 C.2   1 <1>  -0.1500 
 23 O        1.7370    -1.6370     1.4020 O.3   1 <1>  -0.3620 
 24 C        1.1760    -1.3230    -0.9550 C.ar  1 <1>   0.0820 
 25 C        3.7190     3.0240     1.2770 C.3   1 <1>  -0.0590 
 26 C        2.8850    -0.8210     1.4560 C.3   1 <1>   0.0400 
 27 O        2.4610    -1.3840    -1.3800 O.3   1 <1>  -0.3630 
 28 C        2.9720    -0.2120    -1.9770 C.3   1 <1>   0.0400 
 29 H       -2.3110     2.7610     1.1020 H     1 <1>   0.0800 
 30 H       -1.6610     1.1590     1.2200 H     1 <1>   0.0800 
 31 H       -2.9250    -0.7400     1.3650 H     1 <1>   0.0800 
 32 H       -5.6700     0.1830    -0.6860 H     1 <1>   0.0800 
 33 H       -4.7610     0.4320    -2.1460 H     1 <1>   0.0800 
 34 H       -1.1780     3.0460    -1.1110 H     1 <1>   0.0800 
 35 H       -0.4580     1.4710    -0.9220 H     1 <1>   0.0800 
 36 H       -3.0340    -3.0440    -0.4040 H     1 <1>   0.0800 
 37 H       -4.1720    -1.9480    -2.2470 H     1 <1>   0.0800 
 38 H       -5.9050    -1.7910    -2.0450 H     1 <1>   0.0800 
 39 H       -0.7120    -1.4170     1.8310 H     1 <1>   0.1500 
 40 H       -1.9170    -0.9300    -2.2420 H     1 <1>   0.1500 
 41 H       -4.2580    -4.0540     1.4400 H     1 <1>   0.0800 
 42 H       -4.5200    -2.4760     2.1660 H     1 <1>   0.0800 
 43 H       -0.6610     4.6150     1.2700 H     1 <1>   0.1500 
 44 H        0.4190    -1.1030    -2.9370 H     1 <1>   0.1500 
 45 H       -2.0440    -3.8140     1.8290 H     1 <1>   0.4000 
 46 H        1.8390     5.0540     2.2130 H     1 <1>   0.1500 
 47 H        4.1680     3.9340     1.6290 H     1 <1>   0.0800 
 48 H        4.1890     2.7340     0.3560 H     1 <1>   0.0800 
 49 H        3.8670     2.2500     2.0070 H     1 <1>   0.0800 
 50 H        3.2510    -0.8260     2.4660 H     1 <1>   0.0800 
 51 H        2.6180     0.1780     1.1650 H     1 <1>   0.0800 
 52 H        3.6300    -1.2250     0.7960 H     1 <1>   0.0800 
 53 H        4.0330    -0.3330    -2.1030 H     1 <1>   0.0800 
 54 H        2.7710     0.6260    -1.3320 H     1 <1>   0.0800 
 55 H        2.5040    -0.0680    -2.9340 H     1 <1>   0.0800 
@<TRIPOS>BOND
  1   1   2  2   
  2   2   3  am  
  3   2   4  1   
  4   3   5  1   
  5   3   6  1   
  6   4   7  1   
  7   4  29  1   
  8   4  30  1   
  9   5   8  1   
 10   5   9  1   
 11   5  31  1   
 12   6  10  1   
 13   6  32  1   
 14   6  33  1   
 15   7  11  1   
 16   7  34  1   
 17   7  35  1   
 18   8  12  ar  
 19   8  13  ar  
 20   9  14  1   
 21   9  15  1   
 22   9  36  1   
 23  10  14  1   
 24  10  37  1   
 25  10  38  1   
 26  11  16  1   
 27  11  17  1   
 28  12  18  ar  
 29  12  39  1   
 30  13  19  ar  
 31  13  40  1   
 32  15  20  1   
 33  15  41  1   
 34  15  42  1   
 35  16  21  2   
 36  17  22  2   
 37  17  43  1   
 38  18  23  1   
 39  18  24  ar  
 40  19  24  ar  
 41  19  44  1   
 42  20  45  1   
 43  21  22  1   
 44  21  25  1   
 45  22  46  1   
 46  23  26  1   
 47  24  27  1   
 48  25  47  1   
 49  25  48  1   
 50  25  49  1   
 51  26  50  1   
 52  26  51  1   
 53  26  52  1   
 54  27  28  1   
 55  28  53  1   
 56  28  54  1   
 57  28  55  1   
@<TRIPOS>SUBSTRUCTURE
  1 ****   8 GROUP 4 **** **** 0

# MOE 2024.06 (io_trps.svl 2023.06)
