@<TRIPOS>MOLECULE
NONAME
39 41 1 0 0 
SMALL
USER_CHARGES


@<TRIPOS>ATOM
  1 CL       7.5710     0.5950    -1.8050 Cl    1 <1>  -0.1770 
  2 C        6.5590     1.6840    -0.8880 C.ar  1 <1>   0.1770 
  3 C        6.3070     2.9610    -1.3660 C.ar  1 <1>   0.1600 
  4 C        6.0190     1.2620     0.3080 C.ar  1 <1>  -0.1500 
  5 N        5.5510     3.8710    -0.7480 N.ar  1 <1>  -0.6200 
  6 C        5.2420     2.1970     0.9440 C.ar  1 <1>   0.1900 
  7 C        5.0190     3.4760     0.4070 C.ar  1 <1>   0.4100 
  8 F        4.6900     1.8790     2.0910 F     1 <1>  -0.1900 
  9 N        4.2540     4.4150     1.0790 N.pl3 1 <1>  -0.8690 
 10 C        3.0400     5.0430     0.4610 C.3   1 <1>   0.2890 
 11 C        3.4280     5.8910    -0.7720 C.3   1 <1>   0.3430 
 12 C        2.4350     5.9850     1.5190 C.3   1 <1>  -0.1600 
 13 N        4.5950     6.7240    -0.3580 N.4   1 <1>  -0.9590 
 14 C        2.9240     7.4510     1.3930 C.3   1 <1>  -0.1600 
 15 C        4.3400     7.6280     0.8100 C.3   1 <1>   0.3430 
 16 C        5.3530     7.3220    -1.4780 C.3   1 <1>   0.5230 
 17 C        6.7110     7.7520    -0.9690 C.2   1 <1>  -0.1400 
 18 S        6.8970     9.4310    -0.4830 S.3   1 <1>  -0.0800 
 19 C        7.8670     7.0820    -0.8060 C.2   1 <1>  -0.1500 
 20 C        8.5790     9.1670    -0.0600 C.2   1 <1>  -0.1100 
 21 C        8.9300     7.8880    -0.2870 C.2   1 <1>  -0.1500 
 22 H        6.7550     3.2390    -2.3050 H     1 <1>   0.1500 
 23 H        6.1960     0.2800     0.7080 H     1 <1>   0.1500 
 24 H        4.0350     4.0830     2.0290 H     1 <1>   0.4000 
 25 H        2.3310     4.2770     0.1900 H     1 <1>   0.0800 
 26 H        2.6020     6.5080    -1.0840 H     1 <1>   0.0800 
 27 H        3.7020     5.2350    -1.5810 H     1 <1>   0.0800 
 28 H        2.6420     5.6110     2.5070 H     1 <1>   0.0800 
 29 H        1.3640     5.9840     1.4080 H     1 <1>   0.0800 
 30 H        5.2140     5.9770     0.0230 H     1 <1>   0.4500 
 31 H        2.8800     7.9290     2.3570 H     1 <1>   0.0800 
 32 H        2.2430     7.9910     0.7580 H     1 <1>   0.0800 
 33 H        4.4720     8.6570     0.5170 H     1 <1>   0.0800 
 34 H        5.0670     7.4120     1.5770 H     1 <1>   0.0800 
 35 H        4.8240     8.1640    -1.8920 H     1 <1>   0.0800 
 36 H        5.4900     6.5830    -2.2500 H     1 <1>   0.0800 
 37 H        8.0340     6.0400    -1.0260 H     1 <1>   0.1500 
 38 H        9.1360    10.0070     0.3170 H     1 <1>   0.1500 
 39 H        9.9070     7.4700    -0.1110 H     1 <1>   0.1500 
@<TRIPOS>BOND
  1   1   2  1   
  2   2   3  ar  
  3   2   4  ar  
  4   3   5  ar  
  5   3  22  1   
  6   4   6  ar  
  7   4  23  1   
  8   5   7  ar  
  9   6   7  ar  
 10   6   8  1   
 11   7   9  1   
 12   9  10  1   
 13   9  24  1   
 14  10  11  1   
 15  10  12  1   
 16  10  25  1   
 17  11  13  1   
 18  11  26  1   
 19  11  27  1   
 20  12  14  1   
 21  12  28  1   
 22  12  29  1   
 23  13  15  1   
 24  13  16  1   
 25  13  30  1   
 26  14  15  1   
 27  14  31  1   
 28  14  32  1   
 29  15  33  1   
 30  15  34  1   
 31  16  17  1   
 32  16  35  1   
 33  16  36  1   
 34  17  18  1   
 35  17  19  2   
 36  18  20  1   
 37  19  21  1   
 38  19  37  1   
 39  20  21  2   
 40  20  38  1   
 41  21  39  1   
@<TRIPOS>SUBSTRUCTURE
  1 ****   5 GROUP 4 **** **** 0

# MOE 2024.06 (io_trps.svl 2023.06)
