@<TRIPOS>MOLECULE
NONAME
39 41 1 0 0 
SMALL
USER_CHARGES


@<TRIPOS>ATOM
  1 CL       0.5450     0.4070     1.6250 Cl    1 <1>  -0.1770 
  2 C        1.4610    -0.7820     0.7100 C.ar  1 <1>   0.1770 
  3 C        1.0430    -2.1040     0.5710 C.ar  1 <1>   0.4100 
  4 C        2.6390    -0.4090     0.1250 C.ar  1 <1>   0.1600 
  5 N        1.7930    -2.9630    -0.1040 N.ar  1 <1>  -0.6200 
  6 N       -0.1370    -2.5960     1.1050 N.pl3 1 <1>  -0.8380 
  7 N        3.3850    -1.2600    -0.5590 N.ar  1 <1>  -0.6200 
  8 C        2.9100    -2.4930    -0.6260 C.ar  1 <1>   0.4770 
  9 C       -1.4460    -1.9980     0.7410 C.3   1 <1>   0.2090 
 10 C       -0.2040    -3.9670     1.6740 C.3   1 <1>   0.2090 
 11 C        3.7460    -3.4840    -1.3990 C.3   1 <1>  -0.0960 
 12 C       -2.1880    -2.9240    -0.2250 C.3   1 <1>  -0.1600 
 13 C       -0.9380    -4.8970     0.7060 C.3   1 <1>  -0.1600 
 14 C       -2.3330    -4.3560     0.3310 C.3   1 <1>  -0.0800 
 15 C       -3.0450    -5.2880    -0.6750 C.3   1 <1>   0.3800 
 16 O       -4.3160    -4.8130    -0.9240 O.3   1 <1>  -0.6800 
 17 C       -3.1970    -6.7170    -0.1770 C.2   1 <1>  -0.1400 
 18 S       -4.1290    -6.9980     1.2910 S.3   1 <1>  -0.0800 
 19 C       -2.7320    -7.8840    -0.6640 C.2   1 <1>  -0.1500 
 20 C       -3.8470    -8.7260     1.1950 C.2   1 <1>  -0.1100 
 21 C       -3.1000    -9.0260     0.1160 C.2   1 <1>  -0.1500 
 22 H        2.9840     0.6060     0.2180 H     1 <1>   0.1500 
 23 H       -1.3030    -1.0400     0.2710 H     1 <1>   0.0800 
 24 H       -2.0270    -1.8520     1.6360 H     1 <1>   0.0800 
 25 H       -0.7270    -3.9300     2.6140 H     1 <1>   0.0800 
 26 H        0.7890    -4.3400     1.8600 H     1 <1>   0.0800 
 27 H        3.6250    -4.4690    -0.9890 H     1 <1>   0.0800 
 28 H        4.7840    -3.2110    -1.3500 H     1 <1>   0.0800 
 29 H        3.4310    -3.4880    -2.4250 H     1 <1>   0.0800 
 30 H       -1.6480    -2.9470    -1.1550 H     1 <1>   0.0800 
 31 H       -3.1590    -2.5050    -0.4220 H     1 <1>   0.0800 
 32 H       -1.0230    -5.8640     1.1680 H     1 <1>   0.0800 
 33 H       -0.3350    -5.0080    -0.1790 H     1 <1>   0.0800 
 34 H       -2.9230    -4.3160     1.2300 H     1 <1>   0.0800 
 35 H       -2.5110    -5.2830    -1.6100 H     1 <1>   0.0800 
 36 H       -4.9150    -5.2060    -0.2610 H     1 <1>   0.4000 
 37 H       -2.1360    -7.9970    -1.5530 H     1 <1>   0.1500 
 38 H       -4.2760    -9.3420     1.9650 H     1 <1>   0.1500 
 39 H       -2.7870   -10.0140    -0.1720 H     1 <1>   0.1500 
@<TRIPOS>BOND
  1   1   2  1   
  2   2   3  ar  
  3   2   4  ar  
  4   3   5  ar  
  5   3   6  1   
  6   4   7  ar  
  7   4  22  1   
  8   5   8  ar  
  9   6   9  1   
 10   6  10  1   
 11   7   8  ar  
 12   8  11  1   
 13   9  12  1   
 14   9  23  1   
 15   9  24  1   
 16  10  13  1   
 17  10  25  1   
 18  10  26  1   
 19  11  27  1   
 20  11  28  1   
 21  11  29  1   
 22  12  14  1   
 23  12  30  1   
 24  12  31  1   
 25  13  14  1   
 26  13  32  1   
 27  13  33  1   
 28  14  15  1   
 29  14  34  1   
 30  15  16  1   
 31  15  17  1   
 32  15  35  1   
 33  16  36  1   
 34  17  18  1   
 35  17  19  2   
 36  18  20  1   
 37  19  21  1   
 38  19  37  1   
 39  20  21  2   
 40  20  38  1   
 41  21  39  1   
@<TRIPOS>SUBSTRUCTURE
  1 ****  13 GROUP 4 **** **** 0

# MOE 2024.06 (io_trps.svl 2023.06)
