@<TRIPOS>MOLECULE
NONAME
47 49 1 0 0 
SMALL
USER_CHARGES


@<TRIPOS>ATOM
  1 F        1.0560    -2.0040    -2.4710 F     1 <1>  -0.1900 
  2 C        1.8100    -1.9670    -1.4070 C.ar  1 <1>   0.1900 
  3 C        1.2890    -2.4010    -0.1920 C.ar  1 <1>   0.0860 
  4 C        3.0950    -1.4790    -1.5500 C.ar  1 <1>  -0.1500 
  5 C        2.1570    -2.3030     0.8920 C.ar  1 <1>   0.1900 
  6 C       -0.0470    -2.9150    -0.0680 C.2   1 <1>   0.5440 
  7 C        3.9280    -1.4040    -0.4440 C.ar  1 <1>   0.0830 
  8 F        1.7410    -2.6730     2.0720 F     1 <1>  -0.1900 
  9 C        3.4500    -1.8220     0.7960 C.ar  1 <1>  -0.1500 
 10 O       -0.2440    -4.0970    -0.2760 O.2   1 <1>  -0.5700 
 11 N       -1.1010    -2.0950     0.2780 N.am  1 <1>  -0.6600 
 12 O        5.1720    -0.9200    -0.6440 O.3   1 <1>  -0.3630 
 13 C       -2.4970    -2.6150     0.3990 C.3   1 <1>   0.1400 
 14 C       -0.9610    -0.6190     0.4610 C.3   1 <1>   0.1400 
 15 C        6.1170    -0.8350     0.4010 C.3   1 <1>   0.0400 
 16 C       -3.4040    -1.9940    -0.7010 C.3   1 <1>   0.0000 
 17 C       -2.2970     0.1140     0.2520 C.3   1 <1>  -0.1600 
 18 C       -4.8940    -2.2330    -0.3900 C.3   1 <1>   0.2000 
 19 C       -3.0810    -0.4900    -0.9240 C.3   1 <1>  -0.1600 
 20 C       -3.2410    -2.7920    -2.0060 C.3   1 <1>  -0.1600 
 21 O       -5.1930    -1.9920     0.9530 O.3   1 <1>  -0.5600 
 22 C       -5.1640    -3.6900    -0.7740 C.3   1 <1>  -0.1600 
 23 C       -4.1300    -4.0330    -1.8540 C.3   1 <1>  -0.1600 
 24 C       -6.5510    -1.8900     1.2450 C.3   1 <1>   0.0400 
 25 H        3.4520    -1.1580    -2.5120 H     1 <1>   0.1500 
 26 H        4.0550    -1.7830     1.6820 H     1 <1>   0.1500 
 27 H       -2.5130    -3.6890     0.3420 H     1 <1>   0.0800 
 28 H       -2.8600    -2.3500     1.3760 H     1 <1>   0.0800 
 29 H       -0.5860    -0.4170     1.4500 H     1 <1>   0.0800 
 30 H       -0.2520    -0.2430    -0.2550 H     1 <1>   0.0800 
 31 H        7.0290    -0.4370    -0.0050 H     1 <1>   0.0800 
 32 H        6.2920    -1.8210     0.7950 H     1 <1>   0.0800 
 33 H        5.7390    -0.1770     1.1630 H     1 <1>   0.0800 
 34 H       -2.8880     0.0460     1.1490 H     1 <1>   0.0800 
 35 H       -2.1050     1.1560     0.0710 H     1 <1>   0.0800 
 36 H       -5.4930    -1.5820    -1.0050 H     1 <1>   0.0800 
 37 H       -2.4740    -0.3810    -1.8070 H     1 <1>   0.0800 
 38 H       -3.9830     0.0740    -1.0830 H     1 <1>   0.0800 
 39 H       -3.6030    -2.2100    -2.8360 H     1 <1>   0.0800 
 40 H       -2.2140    -3.0570    -2.1950 H     1 <1>   0.0800 
 41 H       -5.0150    -4.3290     0.0800 H     1 <1>   0.0800 
 42 H       -6.1650    -3.8090    -1.1470 H     1 <1>   0.0800 
 43 H       -3.5340    -4.8720    -1.5340 H     1 <1>   0.0800 
 44 H       -4.6010    -4.2810    -2.7900 H     1 <1>   0.0800 
 45 H       -6.6500    -1.6820     2.2950 H     1 <1>   0.0800 
 46 H       -7.0380    -2.8210     1.0140 H     1 <1>   0.0800 
 47 H       -6.9780    -1.0840     0.6740 H     1 <1>   0.0800 
@<TRIPOS>BOND
  1   1   2  1   
  2   2   3  ar  
  3   2   4  ar  
  4   3   5  ar  
  5   3   6  1   
  6   4   7  ar  
  7   4  25  1   
  8   5   8  1   
  9   5   9  ar  
 10   6  10  2   
 11   6  11  am  
 12   7   9  ar  
 13   7  12  1   
 14   9  26  1   
 15  11  13  1   
 16  11  14  1   
 17  12  15  1   
 18  13  16  1   
 19  13  27  1   
 20  13  28  1   
 21  14  17  1   
 22  14  29  1   
 23  14  30  1   
 24  15  31  1   
 25  15  32  1   
 26  15  33  1   
 27  16  18  1   
 28  16  19  1   
 29  16  20  1   
 30  17  19  1   
 31  17  34  1   
 32  17  35  1   
 33  18  21  1   
 34  18  22  1   
 35  18  36  1   
 36  19  37  1   
 37  19  38  1   
 38  20  23  1   
 39  20  39  1   
 40  20  40  1   
 41  21  24  1   
 42  22  23  1   
 43  22  41  1   
 44  22  42  1   
 45  23  43  1   
 46  23  44  1   
 47  24  45  1   
 48  24  46  1   
 49  24  47  1   
@<TRIPOS>SUBSTRUCTURE
  1 ****  11 GROUP 4 **** **** 0

# MOE 2024.06 (io_trps.svl 2023.06)
