@<TRIPOS>MOLECULE
NONAME
50 52 1 0 0 
SMALL
USER_CHARGES


@<TRIPOS>ATOM
  1 S       -0.6610     0.0270     0.9920 S.o2  1 <1>   1.3330 
  2 O       -1.3030    -0.3270     2.2340 O.2   1 <1>  -0.6500 
  3 O       -0.7200     1.3770     0.4840 O.2   1 <1>  -0.6500 
  4 N       -1.2660    -1.0130    -0.2610 N.am  1 <1>  -0.6930 
  5 C        1.0500    -0.4580     1.0620 C.3   1 <1>  -0.1350 
  6 C       -1.3220    -2.3930    -0.1300 C.ar  1 <1>   0.1990 
  7 C       -1.6210    -0.3730    -1.5520 C.3   1 <1>   0.1160 
  8 C       -2.0300    -3.0010     0.9020 C.ar  1 <1>  -0.1500 
  9 C       -0.6580    -3.2160    -1.0350 C.ar  1 <1>  -0.1500 
 10 C       -2.0680    -4.3760     1.0270 C.ar  1 <1>  -0.1500 
 11 C       -0.7000    -4.5910    -0.9100 C.ar  1 <1>  -0.1500 
 12 C       -1.4110    -5.2090     0.1190 C.ar  1 <1>   0.0860 
 13 C       -1.4410    -6.6520     0.2290 C.2   1 <1>   0.5440 
 14 O       -0.3940    -7.2720     0.2490 O.2   1 <1>  -0.5700 
 15 N       -2.6200    -7.3600     0.2880 N.am  1 <1>  -0.6600 
 16 C       -3.9680    -6.8180    -0.0300 C.3   1 <1>   0.1400 
 17 C       -2.6490    -8.8460     0.2480 C.3   1 <1>   0.1400 
 18 C       -4.9140    -8.0050     0.1530 C.3   1 <1>   0.2000 
 19 C       -4.0560    -9.2130    -0.2340 C.3   1 <1>  -0.0800 
 20 O       -5.2500    -8.0880     1.4960 O.3   1 <1>  -0.6800 
 21 C       -4.5590   -10.5740     0.2840 C.3   1 <1>  -0.0160 
 22 C       -3.6910   -11.7080    -0.2370 C.ar  1 <1>  -0.1440 
 23 C       -2.6530   -12.2370     0.5040 C.ar  1 <1>  -0.1500 
 24 C       -3.8960   -12.2660    -1.4830 C.ar  1 <1>  -0.1500 
 25 C       -1.8900   -13.2660    -0.0240 C.ar  1 <1>   0.1600 
 26 C       -3.0750   -13.2930    -1.9170 C.ar  1 <1>   0.1600 
 27 N       -2.0760   -13.8060    -1.2180 N.ar  1 <1>  -0.6200 
 28 H        1.1300    -1.4930     1.3310 H     1 <1>   0.0800 
 29 H        1.5670     0.1290     1.7950 H     1 <1>   0.0800 
 30 H        1.5170    -0.3090     0.1090 H     1 <1>   0.0800 
 31 H       -2.0520    -1.0940    -2.2240 H     1 <1>   0.0800 
 32 H       -0.7420     0.0540    -2.0030 H     1 <1>   0.0800 
 33 H       -2.3390     0.4100    -1.3800 H     1 <1>   0.0800 
 34 H       -2.5550    -2.3860     1.6110 H     1 <1>   0.1500 
 35 H       -0.0990    -2.7710    -1.8370 H     1 <1>   0.1500 
 36 H       -2.6090    -4.8190     1.8450 H     1 <1>   0.1500 
 37 H       -0.1710    -5.2130    -1.6130 H     1 <1>   0.1500 
 38 H       -4.2400    -5.9980     0.6120 H     1 <1>   0.0800 
 39 H       -3.9810    -6.4930    -1.0560 H     1 <1>   0.0800 
 40 H       -1.8950    -9.2320    -0.4190 H     1 <1>   0.0800 
 41 H       -2.4680    -9.2220     1.2400 H     1 <1>   0.0800 
 42 H       -5.8200    -7.9180    -0.4220 H     1 <1>   0.0800 
 43 H       -4.0220    -9.2550    -1.3090 H     1 <1>   0.0800 
 44 H       -4.4300    -8.0240     2.0270 H     1 <1>   0.4000 
 45 H       -5.5740   -10.7250    -0.0390 H     1 <1>   0.0800 
 46 H       -4.5610   -10.5900     1.3600 H     1 <1>   0.0800 
 47 H       -2.4280   -11.8610     1.4850 H     1 <1>   0.1500 
 48 H       -4.6850   -11.9120    -2.1200 H     1 <1>   0.1500 
 49 H       -1.0830   -13.6650     0.5670 H     1 <1>   0.1500 
 50 H       -3.2500   -13.7160    -2.8910 H     1 <1>   0.1500 
@<TRIPOS>BOND
  1   1   2  2   
  2   1   3  2   
  3   1   4  am  
  4   1   5  1   
  5   4   6  1   
  6   4   7  1   
  7   5  28  1   
  8   5  29  1   
  9   5  30  1   
 10   6   8  ar  
 11   6   9  ar  
 12   7  31  1   
 13   7  32  1   
 14   7  33  1   
 15   8  10  ar  
 16   8  34  1   
 17   9  11  ar  
 18   9  35  1   
 19  10  12  ar  
 20  10  36  1   
 21  11  12  ar  
 22  11  37  1   
 23  12  13  1   
 24  13  14  2   
 25  13  15  am  
 26  15  16  1   
 27  15  17  1   
 28  16  18  1   
 29  16  38  1   
 30  16  39  1   
 31  17  19  1   
 32  17  40  1   
 33  17  41  1   
 34  18  19  1   
 35  18  20  1   
 36  18  42  1   
 37  19  21  1   
 38  19  43  1   
 39  20  44  1   
 40  21  22  1   
 41  21  45  1   
 42  21  46  1   
 43  22  23  ar  
 44  22  24  ar  
 45  23  25  ar  
 46  23  47  1   
 47  24  26  ar  
 48  24  48  1   
 49  25  27  ar  
 50  25  49  1   
 51  26  27  ar  
 52  26  50  1   
@<TRIPOS>SUBSTRUCTURE
  1 ****  13 GROUP 4 **** **** 0

# MOE 2024.06 (io_trps.svl 2023.06)
