@<TRIPOS>MOLECULE
NONAME
7 6 1 0 0 
SMALL
USER_CHARGES


@<TRIPOS>ATOM
  1 O        3.5240    -1.0110     0.0040 O.co2 1 <1>  -0.9000 
  2 C        2.8750     0.0370     0.0000 C.2   1 <1>   0.9060 
  3 O        1.6430     0.0700    -0.0030 O.co2 1 <1>  -0.9000 
  4 C        3.6160     1.3390     0.0000 C.3   1 <1>  -0.3460 
  5 H        4.6710     1.1490     0.0060 H     1 <1>   0.0800 
  6 H        3.3380     1.8930     0.8740 H     1 <1>   0.0800 
  7 H        3.3470     1.8870    -0.8800 H     1 <1>   0.0800 
@<TRIPOS>BOND
  1   1   2  ar  
  2   2   3  ar  
  3   2   4  1   
  4   4   5  1   
  5   4   6  1   
  6   4   7  1   
@<TRIPOS>SUBSTRUCTURE
  1 ****   2 GROUP 4 **** **** 0

# MOE 2024.06 (io_trps.svl 2023.06)
