@<TRIPOS>MOLECULE
NONAME
43 45 1 0 0 
SMALL
USER_CHARGES


@<TRIPOS>ATOM
  1 F       -0.5960    -0.3440    -0.4570 F     1 <1>  -0.3400 
  2 C       -1.7260    -0.9290    -0.8490 C.3   1 <1>   0.8560 
  3 F       -1.9500    -0.4590    -2.0740 F     1 <1>  -0.3400 
  4 N       -2.8660    -0.5410     0.0570 N.pl3 1 <1>   0.0480 
  5 C       -3.7940    -1.4130     0.5970 C.2   1 <1>  -0.2370 
  6 C       -3.2030     0.7190     0.4800 C.2   1 <1>  -0.3320 
  7 C       -3.7920    -2.8340     0.3590 C.2   1 <1>   0.7150 
  8 C       -4.6620    -0.6800     1.3660 C.2   1 <1>  -0.1500 
  9 C       -4.2940     0.6560     1.2850 C.2   1 <1>  -0.1500 
 10 C       -2.4550     1.9860     0.0930 C.3   1 <1>  -0.0600 
 11 O       -2.7350    -3.4240     0.2360 O.2   1 <1>  -0.5700 
 12 N       -4.9560    -3.5520     0.2330 N.am  1 <1>  -0.6600 
 13 C       -6.2870    -2.9650    -0.0660 C.3   1 <1>   0.1400 
 14 C       -4.9580    -5.0100    -0.0350 C.3   1 <1>   0.1400 
 15 C       -7.0820    -4.1030    -0.7040 C.3   1 <1>   0.2000 
 16 C       -6.4320    -5.3890    -0.1970 C.3   1 <1>  -0.0800 
 17 O       -8.4180    -4.0650    -0.3360 O.3   1 <1>  -0.6800 
 18 C       -6.6660    -6.5800    -1.1400 C.3   1 <1>   0.0200 
 19 C       -6.0490    -7.8740    -0.6370 C.2   1 <1>  -0.0400 
 20 O       -6.0130    -8.9040    -1.4400 O.3   1 <1>  -0.0190 
 21 C       -5.4910    -8.2460     0.5270 C.2   1 <1>  -0.1500 
 22 N       -5.4590    -9.9400    -0.8810 N.2   1 <1>  -0.4100 
 23 C       -5.1340    -9.5730     0.3060 C.2   1 <1>   0.1080 
 24 C       -4.4550   -10.4700     1.3170 C.3   1 <1>  -0.0590 
 25 H       -1.5480    -1.9830    -0.9200 H     1 <1>   0.0800 
 26 H       -5.4890    -1.0450     1.9490 H     1 <1>   0.1500 
 27 H       -4.7960     1.4710     1.7790 H     1 <1>   0.1500 
 28 H       -2.9560     2.8500     0.4930 H     1 <1>   0.0800 
 29 H       -2.4120     2.0840    -0.9770 H     1 <1>   0.0800 
 30 H       -1.4540     1.9650     0.4850 H     1 <1>   0.0800 
 31 H       -6.7490    -2.6510     0.8530 H     1 <1>   0.0800 
 32 H       -6.1950    -2.1320    -0.7420 H     1 <1>   0.0800 
 33 H       -4.4090    -5.2020    -0.9420 H     1 <1>   0.0800 
 34 H       -4.4940    -5.5420     0.7780 H     1 <1>   0.0800 
 35 H       -7.0240    -4.0290    -1.7770 H     1 <1>   0.0800 
 36 H       -6.8180    -5.6220     0.7800 H     1 <1>   0.0800 
 37 H       -8.5140    -4.1580     0.6310 H     1 <1>   0.4000 
 38 H       -6.2530    -6.3580    -2.1090 H     1 <1>   0.0800 
 39 H       -7.7230    -6.7350    -1.2650 H     1 <1>   0.0800 
 40 H       -5.3370    -7.6960     1.4360 H     1 <1>   0.1500 
 41 H       -3.5130   -10.0440     1.6080 H     1 <1>   0.0800 
 42 H       -4.2810   -11.4400     0.8880 H     1 <1>   0.0800 
 43 H       -5.0800   -10.5800     2.1840 H     1 <1>   0.0800 
@<TRIPOS>BOND
  1   1   2  1   
  2   2   3  1   
  3   2   4  1   
  4   2  25  1   
  5   4   5  1   
  6   4   6  1   
  7   5   7  1   
  8   5   8  2   
  9   6   9  2   
 10   6  10  1   
 11   7  11  2   
 12   7  12  am  
 13   8   9  1   
 14   8  26  1   
 15   9  27  1   
 16  10  28  1   
 17  10  29  1   
 18  10  30  1   
 19  12  13  1   
 20  12  14  1   
 21  13  15  1   
 22  13  31  1   
 23  13  32  1   
 24  14  16  1   
 25  14  33  1   
 26  14  34  1   
 27  15  16  1   
 28  15  17  1   
 29  15  35  1   
 30  16  18  1   
 31  16  36  1   
 32  17  37  1   
 33  18  19  1   
 34  18  38  1   
 35  18  39  1   
 36  19  20  1   
 37  19  21  2   
 38  20  22  1   
 39  21  23  1   
 40  21  40  1   
 41  22  23  2   
 42  23  24  1   
 43  24  41  1   
 44  24  42  1   
 45  24  43  1   
@<TRIPOS>SUBSTRUCTURE
  1 ****  12 GROUP 4 **** **** 0

# MOE 2024.06 (io_trps.svl 2023.06)
