@<TRIPOS>MOLECULE
NONAME
49 52 1 0 0 
SMALL
USER_CHARGES


@<TRIPOS>ATOM
  1 O       -0.6340    -0.2070     0.5000 O.2   1 <1>  -0.5700 
  2 C       -1.5990     0.3940     0.0660 C.2   1 <1>   0.5440 
  3 N       -1.4680     1.7390    -0.2150 N.am  1 <1>  -0.6600 
  4 C       -2.8430    -0.3150    -0.1240 C.ar  1 <1>   0.0860 
  5 C       -2.5950     2.7160    -0.1370 C.3   1 <1>   0.1400 
  6 C       -0.1290     2.3980    -0.3140 C.3   1 <1>   0.1400 
  7 C       -3.2780    -1.2430     0.8160 C.ar  1 <1>   0.1600 
  8 C       -3.6560    -0.1330    -1.2380 C.ar  1 <1>  -0.1500 
  9 C       -2.3020     3.8010     0.9150 C.3   1 <1>   0.1200 
 10 C        0.0160     3.4910     0.7560 C.3   1 <1>   0.1200 
 11 N       -4.4020    -1.9360     0.7620 N.ar  1 <1>  -0.6200 
 12 C       -4.8250    -0.8510    -1.3130 C.ar  1 <1>  -0.1500 
 13 O       -1.0540     4.3920     0.6870 O.3   1 <1>  -0.5600 
 14 C       -5.1860    -1.7370    -0.2940 C.ar  1 <1>   0.4100 
 15 N       -6.3650    -2.4610    -0.3360 N.pl3 1 <1>  -0.8380 
 16 C       -6.4040    -3.8210     0.2880 C.3   1 <1>   0.3470 
 17 C       -7.5250    -2.0960    -1.1990 C.3   1 <1>   0.2090 
 18 C       -7.8180    -4.3760     0.4000 C.2   1 <1>  -0.2880 
 19 C       -8.8510    -2.3150    -0.4660 C.3   1 <1>  -0.0220 
 20 C       -8.9510    -3.7300     0.0780 C.2   1 <1>  -0.1670 
 21 C      -10.2840    -4.2800     0.2120 C.ar  1 <1>   0.0280 
 22 C      -11.3330    -3.5380     0.7490 C.ar  1 <1>  -0.1500 
 23 C      -10.5560    -5.5810    -0.1990 C.ar  1 <1>  -0.1500 
 24 C      -12.6050    -4.0710     0.8650 C.ar  1 <1>  -0.1500 
 25 C      -11.8250    -6.1220    -0.0860 C.ar  1 <1>  -0.1500 
 26 C      -12.8530    -5.3650     0.4470 C.ar  1 <1>  -0.1500 
 27 H       -3.5120     2.2200     0.1270 H     1 <1>   0.0800 
 28 H       -2.7280     3.1830    -1.0970 H     1 <1>   0.0800 
 29 H       -0.0270     2.8430    -1.2880 H     1 <1>   0.0800 
 30 H        0.6620     1.6780    -0.1980 H     1 <1>   0.0800 
 31 H       -2.6460    -1.4150     1.6710 H     1 <1>   0.1500 
 32 H       -3.3630     0.5470    -2.0190 H     1 <1>   0.1500 
 33 H       -2.3070     3.3800     1.9050 H     1 <1>   0.0800 
 34 H       -3.0450     4.5770     0.8660 H     1 <1>   0.0800 
 35 H        0.9240     4.0450     0.6010 H     1 <1>   0.0800 
 36 H        0.0410     3.0530     1.7400 H     1 <1>   0.0800 
 37 H       -5.4550    -0.7380    -2.1710 H     1 <1>   0.1500 
 38 H       -5.9800    -3.7790     1.2770 H     1 <1>   0.0800 
 39 H       -5.8030    -4.4870    -0.3050 H     1 <1>   0.0800 
 40 H       -7.5030    -2.7070    -2.0860 H     1 <1>   0.0800 
 41 H       -7.4680    -1.0630    -1.4890 H     1 <1>   0.0800 
 42 H       -7.8240    -5.3750     0.7950 H     1 <1>   0.1500 
 43 H       -9.6530    -2.1330    -1.1590 H     1 <1>   0.0800 
 44 H       -8.9330    -1.6090     0.3410 H     1 <1>   0.0800 
 45 H      -11.1510    -2.5350     1.0880 H     1 <1>   0.1500 
 46 H       -9.7630    -6.1730    -0.6180 H     1 <1>   0.1500 
 47 H      -13.4010    -3.4800     1.2840 H     1 <1>   0.1500 
 48 H      -12.0120    -7.1300    -0.4120 H     1 <1>   0.1500 
 49 H      -13.8410    -5.7830     0.5360 H     1 <1>   0.1500 
@<TRIPOS>BOND
  1   1   2  2   
  2   2   3  am  
  3   2   4  1   
  4   3   5  1   
  5   3   6  1   
  6   4   7  ar  
  7   4   8  ar  
  8   5   9  1   
  9   5  27  1   
 10   5  28  1   
 11   6  10  1   
 12   6  29  1   
 13   6  30  1   
 14   7  11  ar  
 15   7  31  1   
 16   8  12  ar  
 17   8  32  1   
 18   9  13  1   
 19   9  33  1   
 20   9  34  1   
 21  10  13  1   
 22  10  35  1   
 23  10  36  1   
 24  11  14  ar  
 25  12  14  ar  
 26  12  37  1   
 27  14  15  1   
 28  15  16  1   
 29  15  17  1   
 30  16  18  1   
 31  16  38  1   
 32  16  39  1   
 33  17  19  1   
 34  17  40  1   
 35  17  41  1   
 36  18  20  2   
 37  18  42  1   
 38  19  20  1   
 39  19  43  1   
 40  19  44  1   
 41  20  21  1   
 42  21  22  ar  
 43  21  23  ar  
 44  22  24  ar  
 45  22  45  1   
 46  23  25  ar  
 47  23  46  1   
 48  24  26  ar  
 49  24  47  1   
 50  25  26  ar  
 51  25  48  1   
 52  26  49  1   
@<TRIPOS>SUBSTRUCTURE
  1 ****  14 GROUP 4 **** **** 0

# MOE 2024.06 (io_trps.svl 2023.06)
