@<TRIPOS>MOLECULE
NONAME
50 53 1 0 0 
SMALL
USER_CHARGES


@<TRIPOS>ATOM
  1 O       -1.0390    -0.6460     0.3940 O.2   1 <1>  -0.5700 
  2 C       -1.7000    -1.6320     0.2020 C.2   1 <1>   0.5690 
  3 N       -1.9570    -2.5450     1.1850 N.am  1 <1>  -0.3680 
  4 C       -2.3200    -1.9040    -1.1480 C.3   1 <1>  -0.0990 
  5 N       -2.6520    -3.7290     1.0620 N.2   1 <1>  -0.5120 
  6 C       -2.5100    -3.4170    -1.3680 C.3   1 <1>  -0.0990 
  7 C       -2.9750    -4.1820    -0.1090 C.2   1 <1>   0.3890 
  8 C       -3.7220    -5.4110    -0.3640 C.2   1 <1>   0.6300 
  9 O       -3.7160    -5.8830    -1.4950 O.2   1 <1>  -0.5700 
 10 N       -4.4750    -6.1070     0.5800 N.am  1 <1>  -0.6600 
 11 C       -5.1560    -7.3960     0.2270 C.3   1 <1>   0.1400 
 12 C       -4.9510    -5.5410     1.8760 C.3   1 <1>   0.1400 
 13 C       -6.5840    -7.1740    -0.2990 C.3   1 <1>   0.1400 
 14 C       -6.0630    -4.5070     1.6580 C.3   1 <1>  -0.1600 
 15 N       -7.4130    -6.3460     0.6350 N.am  1 <1>  -0.6600 
 16 C       -7.1090    -4.8890     0.6000 C.3   1 <1>   0.1400 
 17 C       -8.3470    -6.8620     1.5110 C.2   1 <1>   0.5440 
 18 O       -8.8500    -6.1150     2.3320 O.2   1 <1>  -0.5700 
 19 C       -8.6900    -8.2660     1.5410 C.ar  1 <1>   0.0860 
 20 C       -9.3660    -8.8980     0.4930 C.ar  1 <1>   0.0830 
 21 C       -8.3520    -9.0370     2.6560 C.ar  1 <1>  -0.1500 
 22 O       -9.7400    -8.1750    -0.5920 O.3   1 <1>  -0.3630 
 23 C       -9.6580   -10.2630     0.5590 C.ar  1 <1>   0.0830 
 24 C       -8.6520   -10.3850     2.7260 C.ar  1 <1>  -0.1500 
 25 C      -10.7040    -8.7390    -1.4590 C.3   1 <1>   0.1200 
 26 O      -10.2870   -10.9020    -0.4610 O.3   1 <1>  -0.3630 
 27 C       -9.3050   -11.0010     1.6730 C.ar  1 <1>  -0.1500 
 28 C      -10.3880   -10.2200    -1.6960 C.3   1 <1>   0.1200 
 29 H       -1.5960    -2.2780     2.1070 H     1 <1>   0.3700 
 30 H       -1.7010    -1.4870    -1.9220 H     1 <1>   0.0800 
 31 H       -3.2750    -1.4120    -1.1740 H     1 <1>   0.0800 
 32 H       -1.5730    -3.8460    -1.6760 H     1 <1>   0.0800 
 33 H       -3.2100    -3.5530    -2.1730 H     1 <1>   0.0800 
 34 H       -5.1930    -8.0330     1.0930 H     1 <1>   0.0800 
 35 H       -4.5850    -7.9180    -0.5220 H     1 <1>   0.0800 
 36 H       -4.1370    -5.1120     2.4320 H     1 <1>   0.0800 
 37 H       -5.3460    -6.3370     2.4830 H     1 <1>   0.0800 
 38 H       -7.0420    -8.1310    -0.4620 H     1 <1>   0.0800 
 39 H       -6.5320    -6.6860    -1.2560 H     1 <1>   0.0800 
 40 H       -5.6260    -3.5620     1.3910 H     1 <1>   0.0800 
 41 H       -6.5690    -4.3590     2.5950 H     1 <1>   0.0800 
 42 H       -6.7410    -4.6290    -0.3780 H     1 <1>   0.0800 
 43 H       -8.0130    -4.3270     0.7660 H     1 <1>   0.0800 
 44 H       -7.8510    -8.5560     3.4790 H     1 <1>   0.1500 
 45 H       -8.3820   -10.9550     3.5980 H     1 <1>   0.1500 
 46 H      -10.6850    -8.1880    -2.3820 H     1 <1>   0.0800 
 47 H      -11.6720    -8.6290    -1.0010 H     1 <1>   0.0800 
 48 H       -9.5430   -12.0490     1.7120 H     1 <1>   0.1500 
 49 H       -9.4520   -10.3250    -2.2140 H     1 <1>   0.0800 
 50 H      -11.1650   -10.6900    -2.2710 H     1 <1>   0.0800 
@<TRIPOS>BOND
  1   1   2  2   
  2   2   3  am  
  3   2   4  1   
  4   3   5  1   
  5   3  29  1   
  6   4   6  1   
  7   4  30  1   
  8   4  31  1   
  9   5   7  2   
 10   6   7  1   
 11   6  32  1   
 12   6  33  1   
 13   7   8  1   
 14   8   9  2   
 15   8  10  am  
 16  10  11  1   
 17  10  12  1   
 18  11  13  1   
 19  11  34  1   
 20  11  35  1   
 21  12  14  1   
 22  12  36  1   
 23  12  37  1   
 24  13  15  1   
 25  13  38  1   
 26  13  39  1   
 27  14  16  1   
 28  14  40  1   
 29  14  41  1   
 30  15  16  1   
 31  15  17  am  
 32  16  42  1   
 33  16  43  1   
 34  17  18  2   
 35  17  19  1   
 36  19  20  ar  
 37  19  21  ar  
 38  20  22  1   
 39  20  23  ar  
 40  21  24  ar  
 41  21  44  1   
 42  22  25  1   
 43  23  26  1   
 44  23  27  ar  
 45  24  27  ar  
 46  24  45  1   
 47  25  28  1   
 48  25  46  1   
 49  25  47  1   
 50  26  28  1   
 51  27  48  1   
 52  28  49  1   
 53  28  50  1   
@<TRIPOS>SUBSTRUCTURE
  1 ****  13 GROUP 4 **** **** 0

# MOE 2024.06 (io_trps.svl 2023.06)
