@<TRIPOS>MOLECULE
NONAME
45 47 1 0 0 
SMALL
USER_CHARGES


@<TRIPOS>ATOM
  1 O       -3.5240     1.7220    -2.4200 O.2   1 <1>  -0.5700 
  2 C       -2.6020     1.5940    -1.6360 C.2   1 <1>   0.5440 
  3 N       -1.9470     0.3980    -1.6260 N.am  1 <1>  -0.7300 
  4 C       -2.2300     2.6860    -0.7560 C.ar  1 <1>   0.0860 
  5 C       -2.3350    -0.8160    -2.3770 C.3   1 <1>   0.2200 
  6 C       -1.5850     2.5070     0.4810 C.ar  1 <1>   0.3920 
  7 C       -2.5180     3.9950    -1.1270 C.ar  1 <1>  -0.1500 
  8 C       -3.1180    -1.7810    -1.4940 C.3   1 <1>  -0.0800 
  9 C       -1.0850    -1.6400    -2.6540 C.3   1 <1>   0.1200 
 10 O       -1.3070     1.2500     0.8920 O.3   1 <1>  -0.3620 
 11 N       -1.2210     3.4940     1.3010 N.ar  1 <1>  -0.6200 
 12 C       -2.1510     5.0190    -0.2840 C.ar  1 <1>  -0.1500 
 13 C       -2.0180    -2.5720    -0.7790 C.3   1 <1>   0.1200 
 14 C       -4.1520    -1.1460    -0.5450 C.3   1 <1>  -0.0170 
 15 O       -0.8250    -2.3260    -1.4660 O.3   1 <1>  -0.5600 
 16 C       -0.6030     0.9830     2.0870 C.3   1 <1>   0.1200 
 17 C       -1.5110     4.7180     0.9020 C.ar  1 <1>   0.1600 
 18 C       -4.8900    -2.2090     0.2520 C.ar  1 <1>  -0.1430 
 19 C       -0.4480    -0.5300     2.2130 C.3   1 <1>  -0.2400 
 20 C       -5.9020    -2.9650    -0.3040 C.ar  1 <1>  -0.1500 
 21 C       -4.5870    -2.4740     1.5730 C.ar  1 <1>  -0.1500 
 22 C       -6.5390    -3.9260     0.4620 C.ar  1 <1>   0.1600 
 23 C       -5.2860    -3.4580     2.2510 C.ar  1 <1>   0.1600 
 24 N       -6.2530    -4.1930     1.7260 N.ar  1 <1>  -0.6200 
 25 H       -1.2640     0.2250    -0.8800 H     1 <1>   0.3700 
 26 H       -2.8610    -0.5530    -3.2790 H     1 <1>   0.0800 
 27 H       -3.0190     4.1990    -2.0590 H     1 <1>   0.1500 
 28 H       -3.6360    -2.4680    -2.1410 H     1 <1>   0.0800 
 29 H       -0.2370    -1.0330    -2.9170 H     1 <1>   0.0800 
 30 H       -1.2710    -2.3690    -3.4230 H     1 <1>   0.0800 
 31 H       -2.3580     6.0430    -0.5430 H     1 <1>   0.1500 
 32 H       -2.2170    -3.6300    -0.7880 H     1 <1>   0.0800 
 33 H       -1.8830    -2.2370     0.2340 H     1 <1>   0.0800 
 34 H       -4.8600    -0.5730    -1.1190 H     1 <1>   0.0800 
 35 H       -3.6700    -0.4690     0.1390 H     1 <1>   0.0800 
 36 H        0.3580     1.4650     2.0310 H     1 <1>   0.0800 
 37 H       -1.1660     1.3850     2.9130 H     1 <1>   0.0800 
 38 H       -1.2250     5.5250     1.5560 H     1 <1>   0.1500 
 39 H        0.0840    -0.9230     1.3650 H     1 <1>   0.0800 
 40 H       -1.4130    -0.9960     2.2840 H     1 <1>   0.0800 
 41 H        0.1100    -0.7620     3.1030 H     1 <1>   0.0800 
 42 H       -6.2000    -2.8130    -1.3260 H     1 <1>   0.1500 
 43 H       -3.8170    -1.9240     2.0810 H     1 <1>   0.1500 
 44 H       -7.3260    -4.5060     0.0110 H     1 <1>   0.1500 
 45 H       -5.0370    -3.6510     3.2800 H     1 <1>   0.1500 
@<TRIPOS>BOND
  1   1   2  2   
  2   2   3  am  
  3   2   4  1   
  4   3   5  1   
  5   3  25  1   
  6   4   6  ar  
  7   4   7  ar  
  8   5   8  1   
  9   5   9  1   
 10   5  26  1   
 11   6  10  1   
 12   6  11  ar  
 13   7  12  ar  
 14   7  27  1   
 15   8  13  1   
 16   8  14  1   
 17   8  28  1   
 18   9  15  1   
 19   9  29  1   
 20   9  30  1   
 21  10  16  1   
 22  11  17  ar  
 23  12  17  ar  
 24  12  31  1   
 25  13  15  1   
 26  13  32  1   
 27  13  33  1   
 28  14  18  1   
 29  14  34  1   
 30  14  35  1   
 31  16  19  1   
 32  16  36  1   
 33  16  37  1   
 34  17  38  1   
 35  18  20  ar  
 36  18  21  ar  
 37  19  39  1   
 38  19  40  1   
 39  19  41  1   
 40  20  22  ar  
 41  20  42  1   
 42  21  23  ar  
 43  21  43  1   
 44  22  24  ar  
 45  22  44  1   
 46  23  24  ar  
 47  23  45  1   
@<TRIPOS>SUBSTRUCTURE
  1 ****  14 GROUP 4 **** **** 0

# MOE 2024.06 (io_trps.svl 2023.06)
