@<TRIPOS>MOLECULE
NONAME
53 55 1 0 0 
SMALL
USER_CHARGES


@<TRIPOS>ATOM
  1 O       -0.6050     0.1210    -1.2550 O.2   1 <1>  -0.5700 
  2 C       -1.0470     0.5100    -0.2030 C.2   1 <1>   0.5690 
  3 N       -1.8500    -0.2590     0.5680 N.am  1 <1>  -0.7300 
  4 C       -0.6930     1.9030     0.2640 C.3   1 <1>  -0.0990 
  5 C       -2.2310    -1.6560     0.2610 C.3   1 <1>   0.2200 
  6 C       -1.1060     2.9300    -0.7920 C.3   1 <1>   0.1100 
  7 C       -3.7140    -1.7110    -0.0690 C.3   1 <1>  -0.0800 
  8 C       -2.1700    -2.4880     1.5370 C.3   1 <1>   0.1200 
  9 N       -0.8520     4.3060    -0.3260 N.3   1 <1>  -0.8100 
 10 C       -4.3560    -1.7950     1.3220 C.3   1 <1>   0.1200 
 11 C       -4.0500    -2.9340    -0.9440 C.3   1 <1>  -0.0170 
 12 O       -3.3690    -2.2440     2.2070 O.3   1 <1>  -0.5600 
 13 C        0.5940     4.6530    -0.3700 C.3   1 <1>   0.1100 
 14 C       -1.6280     5.2780    -1.1360 C.3   1 <1>   0.1100 
 15 C       -5.5320    -2.9950    -1.2800 C.ar  1 <1>  -0.1440 
 16 C        0.8700     6.1290     0.0120 C.3   1 <1>   0.3430 
 17 C       -1.4110     6.7420    -0.6790 C.3   1 <1>   0.3430 
 18 C       -6.0980    -2.1570    -2.2200 C.ar  1 <1>  -0.1500 
 19 C       -6.3870    -3.8900    -0.6690 C.ar  1 <1>  -0.1500 
 20 N       -0.3940     6.8230     0.4200 N.4   1 <1>  -0.9590 
 21 C       -7.4530    -2.2480    -2.4910 C.ar  1 <1>   0.1600 
 22 C       -7.7290    -3.8990    -1.0120 C.ar  1 <1>   0.1600 
 23 C       -0.1780     8.2070     0.9310 C.3   1 <1>   0.2630 
 24 N       -8.2830    -3.0980    -1.9080 N.ar  1 <1>  -0.6200 
 25 H       -2.2070     0.0790     1.4650 H     1 <1>   0.3700 
 26 H       -1.1940     2.1150     1.1900 H     1 <1>   0.0800 
 27 H        0.3680     1.9290     0.4230 H     1 <1>   0.0800 
 28 H       -1.6050    -2.0570    -0.5190 H     1 <1>   0.0800 
 29 H       -2.1600     2.8030    -0.9790 H     1 <1>   0.0800 
 30 H       -0.5830     2.7420    -1.7170 H     1 <1>   0.0800 
 31 H       -4.0300    -0.8210    -0.5850 H     1 <1>   0.0800 
 32 H       -1.3400    -2.2220     2.1680 H     1 <1>   0.0800 
 33 H       -2.1300    -3.5370     1.3070 H     1 <1>   0.0800 
 34 H       -5.1920    -2.4700     1.3630 H     1 <1>   0.0800 
 35 H       -4.6700    -0.8220     1.6560 H     1 <1>   0.0800 
 36 H       -3.7580    -3.8420    -0.4450 H     1 <1>   0.0800 
 37 H       -3.4920    -2.8770    -1.8630 H     1 <1>   0.0800 
 38 H        1.1370     4.0230     0.3120 H     1 <1>   0.0800 
 39 H        0.9870     4.4680    -1.3570 H     1 <1>   0.0800 
 40 H       -1.3530     5.1890    -2.1740 H     1 <1>   0.0800 
 41 H       -2.6780     5.0480    -1.0620 H     1 <1>   0.0800 
 42 H        1.3120     6.6350    -0.8310 H     1 <1>   0.0800 
 43 H        1.5830     6.1530     0.8200 H     1 <1>   0.0800 
 44 H       -2.3510     7.1420    -0.3360 H     1 <1>   0.0800 
 45 H       -1.0930     7.3310    -1.5230 H     1 <1>   0.0800 
 46 H       -5.4990    -1.4360    -2.7440 H     1 <1>   0.1500 
 47 H       -6.0260    -4.5800     0.0720 H     1 <1>   0.1500 
 48 H       -0.7820     6.2120     1.1580 H     1 <1>   0.4500 
 49 H       -7.8780    -1.5870    -3.2270 H     1 <1>   0.1500 
 50 H       -8.3810    -4.6030    -0.5240 H     1 <1>   0.1500 
 51 H        0.2260     8.8350     0.1540 H     1 <1>   0.0800 
 52 H        0.5110     8.1960     1.7600 H     1 <1>   0.0800 
 53 H       -1.1110     8.6310     1.2670 H     1 <1>   0.0800 
@<TRIPOS>BOND
  1   1   2  2   
  2   2   3  am  
  3   2   4  1   
  4   3   5  1   
  5   3  25  1   
  6   4   6  1   
  7   4  26  1   
  8   4  27  1   
  9   5   7  1   
 10   5   8  1   
 11   5  28  1   
 12   6   9  1   
 13   6  29  1   
 14   6  30  1   
 15   7  10  1   
 16   7  11  1   
 17   7  31  1   
 18   8  12  1   
 19   8  32  1   
 20   8  33  1   
 21   9  13  1   
 22   9  14  1   
 23  10  12  1   
 24  10  34  1   
 25  10  35  1   
 26  11  15  1   
 27  11  36  1   
 28  11  37  1   
 29  13  16  1   
 30  13  38  1   
 31  13  39  1   
 32  14  17  1   
 33  14  40  1   
 34  14  41  1   
 35  15  18  ar  
 36  15  19  ar  
 37  16  20  1   
 38  16  42  1   
 39  16  43  1   
 40  17  20  1   
 41  17  44  1   
 42  17  45  1   
 43  18  21  ar  
 44  18  46  1   
 45  19  22  ar  
 46  19  47  1   
 47  20  23  1   
 48  20  48  1   
 49  21  24  ar  
 50  21  49  1   
 51  22  24  ar  
 52  22  50  1   
 53  23  51  1   
 54  23  52  1   
 55  23  53  1   
@<TRIPOS>SUBSTRUCTURE
  1 ****   3 GROUP 4 **** **** 0

# MOE 2024.06 (io_trps.svl 2023.06)
