@<TRIPOS>MOLECULE
NONAME
50 53 1 0 0 
SMALL
USER_CHARGES


@<TRIPOS>ATOM
  1 S        0.0000    -0.1600    -1.4480 S.o2  1 <1>   1.2950 
  2 O        0.3640     0.5160    -2.6790 O.2   1 <1>  -0.6500 
  3 O       -0.8810    -1.3100    -1.5120 O.2   1 <1>  -0.6500 
  4 N        1.4770    -0.6070    -0.5680 N.pl3 1 <1>   0.3170 
  5 C       -0.7190     1.0520    -0.3080 C.ar  1 <1>  -0.0090 
  6 C        2.6190     0.1410    -0.3620 C.2   1 <1>  -0.3320 
  7 C        1.6470    -1.7540     0.1660 C.2   1 <1>  -0.3020 
  8 C       -1.1100     0.6810     0.9740 C.ar  1 <1>  -0.1500 
  9 C       -0.8860     2.3830    -0.6790 C.ar  1 <1>  -0.1500 
 10 C        3.4590    -0.5360     0.4720 C.2   1 <1>  -0.1500 
 11 C        2.7740     1.5010    -1.0490 C.3   1 <1>   0.2900 
 12 C        2.8400    -1.7400     0.8070 C.2   1 <1>  -0.1500 
 13 C       -1.6370     1.6060     1.8590 C.ar  1 <1>  -0.1500 
 14 C       -1.4120     3.3130     0.2000 C.ar  1 <1>  -0.1500 
 15 N        3.9240     2.2880    -0.5960 N.3   1 <1>  -0.8100 
 16 C       -1.7880     2.9240     1.4720 C.ar  1 <1>  -0.1500 
 17 C        3.8520     2.6860     0.8330 C.3   1 <1>   0.1100 
 18 C        5.2180     1.7950    -1.1100 C.3   1 <1>   0.1100 
 19 C        4.8370     3.7930     1.2890 C.3   1 <1>   0.2200 
 20 C        6.3870     2.7870    -0.9620 C.3   1 <1>  -0.0190 
 21 N        5.2530     4.7070     0.1810 N.am  1 <1>  -0.6600 
 22 C        6.0640     3.2210     2.0300 C.3   1 <1>   0.1200 
 23 C        5.9530     4.2420    -0.9000 C.2   1 <1>   0.5690 
 24 C        7.3370     2.4440     0.1950 C.3   1 <1>   0.1200 
 25 C        4.7380     6.1020     0.2480 C.3   1 <1>   0.0600 
 26 O        6.6530     2.1380     1.3700 O.3   1 <1>  -0.5600 
 27 O        6.2880     4.9670    -1.8100 O.2   1 <1>  -0.5700 
 28 H        0.8930    -2.5230     0.1840 H     1 <1>   0.1500 
 29 H       -1.0060    -0.3440     1.2890 H     1 <1>   0.1500 
 30 H       -0.6030     2.7010    -1.6700 H     1 <1>   0.1500 
 31 H        4.4300    -0.2460     0.8380 H     1 <1>   0.1500 
 32 H        1.8930     2.0920    -0.8730 H     1 <1>   0.0800 
 33 H        2.8480     1.3570    -2.1140 H     1 <1>   0.0800 
 34 H        3.2600    -2.4930     1.4530 H     1 <1>   0.1500 
 35 H       -1.9320     1.2990     2.8480 H     1 <1>   0.1500 
 36 H       -1.5320     4.3380    -0.1070 H     1 <1>   0.1500 
 37 H       -2.2000     3.6450     2.1590 H     1 <1>   0.1500 
 38 H        2.8600     3.0560     1.0200 H     1 <1>   0.0800 
 39 H        3.9820     1.8270     1.4640 H     1 <1>   0.0800 
 40 H        5.4780     0.8610    -0.6470 H     1 <1>   0.0800 
 41 H        5.0980     1.6030    -2.1630 H     1 <1>   0.0800 
 42 H        4.3160     4.3860     2.0190 H     1 <1>   0.0800 
 43 H        6.9810     2.6910    -1.8520 H     1 <1>   0.0800 
 44 H        5.7490     2.8540     2.9890 H     1 <1>   0.0800 
 45 H        6.8050     3.9850     2.1910 H     1 <1>   0.0800 
 46 H        8.0260     3.2500     0.3850 H     1 <1>   0.0800 
 47 H        7.9070     1.5680    -0.0640 H     1 <1>   0.0800 
 48 H        5.0720     6.5720     1.1560 H     1 <1>   0.0800 
 49 H        3.6620     6.0900     0.2240 H     1 <1>   0.0800 
 50 H        5.0920     6.6790    -0.5880 H     1 <1>   0.0800 
@<TRIPOS>BOND
  1   1   2  2   
  2   1   3  2   
  3   1   4  1   
  4   1   5  1   
  5   4   6  1   
  6   4   7  1   
  7   5   8  ar  
  8   5   9  ar  
  9   6  10  2   
 10   6  11  1   
 11   7  12  2   
 12   7  28  1   
 13   8  13  ar  
 14   8  29  1   
 15   9  14  ar  
 16   9  30  1   
 17  10  12  1   
 18  10  31  1   
 19  11  15  1   
 20  11  32  1   
 21  11  33  1   
 22  12  34  1   
 23  13  16  ar  
 24  13  35  1   
 25  14  16  ar  
 26  14  36  1   
 27  15  17  1   
 28  15  18  1   
 29  16  37  1   
 30  17  19  1   
 31  17  38  1   
 32  17  39  1   
 33  18  20  1   
 34  18  40  1   
 35  18  41  1   
 36  19  21  1   
 37  19  22  1   
 38  19  42  1   
 39  20  23  1   
 40  20  24  1   
 41  20  43  1   
 42  21  23  am  
 43  21  25  1   
 44  22  26  1   
 45  22  44  1   
 46  22  45  1   
 47  23  27  2   
 48  24  26  1   
 49  24  46  1   
 50  24  47  1   
 51  25  48  1   
 52  25  49  1   
 53  25  50  1   
@<TRIPOS>SUBSTRUCTURE
  1 ****  11 GROUP 4 **** **** 0

# MOE 2024.06 (io_trps.svl 2023.06)
