@<TRIPOS>MOLECULE
NONAME
54 56 1 0 0 
SMALL
USER_CHARGES


@<TRIPOS>ATOM
  1 S       -2.0400     0.1120    -0.1920 S.3   1 <1>  -0.0800 
  2 C       -1.1010    -0.7210    -1.3860 C.2   1 <1>   0.4420 
  3 C       -1.2720     1.5740    -0.7150 C.2   1 <1>   0.1980 
  4 N       -0.3300     0.0710    -2.0390 N.2   1 <1>  -0.3380 
  5 N       -1.2910    -2.0800    -1.4800 N.am  1 <1>  -0.4940 
  6 N       -0.4330     1.3790    -1.6520 N.2   1 <1>  -0.3380 
  7 C       -1.6400     2.8770    -0.0280 C.3   1 <1>   0.3000 
  8 C       -0.6780    -3.0180    -2.2550 C.2   1 <1>   0.5690 
  9 O       -3.0300     3.0320     0.0190 O.3   1 <1>  -0.5600 
 10 O        0.2260    -2.7920    -3.0190 O.2   1 <1>  -0.5700 
 11 C       -1.1960    -4.4480    -2.1060 C.3   1 <1>   0.1710 
 12 C       -3.4520     4.2350     0.5760 C.3   1 <1>   0.0400 
 13 N       -1.8640    -4.7000    -0.7930 N.3   1 <1>  -0.8100 
 14 C       -2.7760    -5.8680    -0.8880 C.3   1 <1>   0.1100 
 15 C       -0.8900    -4.8390     0.2950 C.3   1 <1>   0.1100 
 16 C       -3.2820    -6.4140     0.4820 C.3   1 <1>   0.0000 
 17 C       -1.6200    -4.8160     1.6450 C.3   1 <1>  -0.1600 
 18 C       -3.0770    -5.2910     1.5330 C.3   1 <1>   0.2000 
 19 C       -4.8050    -6.6860     0.3860 C.3   1 <1>   0.1200 
 20 C       -2.5180    -7.7060     0.9180 C.3   1 <1>  -0.0170 
 21 O       -3.5120    -5.6770     2.7920 O.3   1 <1>  -0.6800 
 22 O       -5.1200    -7.4440    -0.7350 O.3   1 <1>  -0.6800 
 23 C       -2.6770    -8.9270     0.0160 C.ar  1 <1>  -0.1440 
 24 C       -3.6880    -9.8460     0.2570 C.ar  1 <1>  -0.1500 
 25 C       -1.8030    -9.1490    -1.0390 C.ar  1 <1>  -0.1500 
 26 C       -3.8430   -10.9510    -0.5600 C.ar  1 <1>  -0.1500 
 27 C       -1.9560   -10.2540    -1.8580 C.ar  1 <1>  -0.1500 
 28 C       -2.9790   -11.1540    -1.6210 C.ar  1 <1>  -0.1500 
 29 H       -1.9830    -2.4960    -0.8530 H     1 <1>   0.3700 
 30 H       -1.2190     3.7020    -0.5760 H     1 <1>   0.0800 
 31 H       -1.2610     2.8770     0.9780 H     1 <1>   0.0800 
 32 H       -0.3800    -5.1350    -2.2460 H     1 <1>   0.0800 
 33 H       -1.9010    -4.6070    -2.9030 H     1 <1>   0.0800 
 34 H       -4.5280     4.2480     0.5680 H     1 <1>   0.0800 
 35 H       -3.0780     5.0530    -0.0160 H     1 <1>   0.0800 
 36 H       -3.0980     4.3050     1.5900 H     1 <1>   0.0800 
 37 H       -3.6240    -5.5530    -1.4750 H     1 <1>   0.0800 
 38 H       -2.3020    -6.6550    -1.4430 H     1 <1>   0.0800 
 39 H       -0.3480    -5.7610     0.1750 H     1 <1>   0.0800 
 40 H       -0.1740    -4.0330     0.2690 H     1 <1>   0.0800 
 41 H       -1.6210    -3.8080     2.0190 H     1 <1>   0.0800 
 42 H       -1.0660    -5.4220     2.3380 H     1 <1>   0.0800 
 43 H       -3.6830    -4.4480     1.2410 H     1 <1>   0.0800 
 44 H       -5.3480    -5.7600     0.3030 H     1 <1>   0.0800 
 45 H       -5.1580    -7.2080     1.2590 H     1 <1>   0.0800 
 46 H       -1.4680    -7.5020     1.0050 H     1 <1>   0.0800 
 47 H       -2.8490    -7.9950     1.8990 H     1 <1>   0.0800 
 48 H       -2.8730    -6.2880     3.2040 H     1 <1>   0.4000 
 49 H       -4.5910    -8.2750    -0.7400 H     1 <1>   0.4000 
 50 H       -4.3650    -9.7080     1.0830 H     1 <1>   0.1500 
 51 H       -0.9950    -8.4660    -1.2310 H     1 <1>   0.1500 
 52 H       -4.6360   -11.6550    -0.3710 H     1 <1>   0.1500 
 53 H       -1.2790   -10.4160    -2.6780 H     1 <1>   0.1500 
 54 H       -3.1000   -12.0130    -2.2580 H     1 <1>   0.1500 
@<TRIPOS>BOND
  1   1   2  1   
  2   1   3  1   
  3   2   4  2   
  4   2   5  1   
  5   3   6  2   
  6   3   7  1   
  7   4   6  1   
  8   5   8  am  
  9   5  29  1   
 10   7   9  1   
 11   7  30  1   
 12   7  31  1   
 13   8  10  2   
 14   8  11  1   
 15   9  12  1   
 16  11  13  1   
 17  11  32  1   
 18  11  33  1   
 19  12  34  1   
 20  12  35  1   
 21  12  36  1   
 22  13  14  1   
 23  13  15  1   
 24  14  16  1   
 25  14  37  1   
 26  14  38  1   
 27  15  17  1   
 28  15  39  1   
 29  15  40  1   
 30  16  18  1   
 31  16  19  1   
 32  16  20  1   
 33  17  18  1   
 34  17  41  1   
 35  17  42  1   
 36  18  21  1   
 37  18  43  1   
 38  19  22  1   
 39  19  44  1   
 40  19  45  1   
 41  20  23  1   
 42  20  46  1   
 43  20  47  1   
 44  21  48  1   
 45  22  49  1   
 46  23  24  ar  
 47  23  25  ar  
 48  24  26  ar  
 49  24  50  1   
 50  25  27  ar  
 51  25  51  1   
 52  26  28  ar  
 53  26  52  1   
 54  27  28  ar  
 55  27  53  1   
 56  28  54  1   
@<TRIPOS>SUBSTRUCTURE
  1 ****  13 GROUP 4 **** **** 0

# MOE 2024.06 (io_trps.svl 2023.06)
