@<TRIPOS>MOLECULE
NONAME
63 65 1 0 0 
SMALL
USER_CHARGES


@<TRIPOS>ATOM
  1 O       -0.7840    -0.7780     0.7240 O.2   1 <1>  -0.5700 
  2 C        0.0340    -1.6200     0.4410 C.2   1 <1>   0.5690 
  3 N       -0.1870    -2.6050    -0.4830 N.am  1 <1>  -0.6600 
  4 C        1.3770    -1.6020     1.1410 C.3   1 <1>  -0.0990 
  5 C        0.8610    -3.6180    -0.7640 C.3   1 <1>   0.1400 
  6 C       -1.4780    -2.7520    -1.2060 C.3   1 <1>   0.0600 
  7 C        2.5120    -1.8050     0.1230 C.3   1 <1>  -0.0800 
  8 C        2.2390    -2.9390    -0.8940 C.3   1 <1>  -0.0800 
  9 C        3.8630    -2.1190     0.7800 C.3   1 <1>  -0.1600 
 10 C        3.4050    -3.9250    -0.7480 C.3   1 <1>  -0.1600 
 11 C        4.5460    -3.0730    -0.1920 C.3   1 <1>   0.2200 
 12 N        5.6530    -3.8440     0.4550 N.am  1 <1>  -0.6600 
 13 C        6.9840    -3.5510     0.2620 C.2   1 <1>   0.5690 
 14 C        5.2780    -4.9810     1.3530 C.3   1 <1>   0.0600 
 15 O        7.8570    -4.2470     0.7260 O.2   1 <1>  -0.5700 
 16 C        7.3960    -2.3230    -0.5420 C.3   1 <1>  -0.0990 
 17 C        8.9070    -2.0180    -0.5140 C.3   1 <1>  -0.0990 
 18 C        9.2610    -0.7130    -1.2210 C.2   1 <1>   0.4230 
 19 O        8.5570    -0.3800    -2.1450 O.2   1 <1>  -0.5700 
 20 C       10.3510     0.1120    -0.7530 C.ar  1 <1>   0.0860 
 21 C       11.5640    -0.3900    -0.2470 C.ar  1 <1>   0.0820 
 22 C       10.2010     1.5010    -0.7970 C.ar  1 <1>  -0.1500 
 23 O       11.7470    -1.7340    -0.2340 O.3   1 <1>  -0.3630 
 24 C       12.5560     0.4780     0.2030 C.ar  1 <1>  -0.1500 
 25 C       11.1780     2.3610    -0.3400 C.ar  1 <1>   0.0820 
 26 C       12.8980    -2.3500     0.3010 C.3   1 <1>   0.0400 
 27 C       12.3830     1.8470     0.1490 C.ar  1 <1>   0.0820 
 28 O       10.9110     3.6900    -0.3760 O.3   1 <1>  -0.3620 
 29 O       13.4120     2.6170     0.5720 O.3   1 <1>  -0.3620 
 30 C       10.6490     4.2900     0.8730 C.3   1 <1>   0.0400 
 31 C       13.9200     3.5980    -0.3080 C.3   1 <1>   0.0400 
 32 H        1.5030    -0.6670     1.6550 H     1 <1>   0.0800 
 33 H        1.3750    -2.3910     1.8700 H     1 <1>   0.0800 
 34 H        0.8690    -4.3250     0.0480 H     1 <1>   0.0800 
 35 H        0.6320    -4.1480    -1.6730 H     1 <1>   0.0800 
 36 H       -1.9110    -3.7110    -0.9870 H     1 <1>   0.0800 
 37 H       -1.3130    -2.6670    -2.2650 H     1 <1>   0.0800 
 38 H       -2.1700    -1.9840    -0.9030 H     1 <1>   0.0800 
 39 H        2.6120    -0.8910    -0.4400 H     1 <1>   0.0800 
 40 H        2.2930    -2.5070    -1.8800 H     1 <1>   0.0800 
 41 H        3.7110    -2.6060     1.7260 H     1 <1>   0.0800 
 42 H        4.4450    -1.2270     0.9290 H     1 <1>   0.0800 
 43 H        3.6720    -4.3690    -1.6900 H     1 <1>   0.0800 
 44 H        3.1280    -4.6950    -0.0530 H     1 <1>   0.0800 
 45 H        4.9250    -2.4920    -1.0140 H     1 <1>   0.0800 
 46 H        4.4140    -4.7310     1.9410 H     1 <1>   0.0800 
 47 H        6.0840    -5.2140     2.0290 H     1 <1>   0.0800 
 48 H        5.0680    -5.8540     0.7610 H     1 <1>   0.0800 
 49 H        7.0970    -2.4740    -1.5630 H     1 <1>   0.0800 
 50 H        6.8700    -1.4710    -0.1540 H     1 <1>   0.0800 
 51 H        9.4380    -2.8230    -0.9880 H     1 <1>   0.0800 
 52 H        9.2300    -1.9600     0.5100 H     1 <1>   0.0800 
 53 H        9.2910     1.9160    -1.1930 H     1 <1>   0.1500 
 54 H       13.4880     0.1170     0.5930 H     1 <1>   0.1500 
 55 H       12.7740    -3.4150     0.2190 H     1 <1>   0.0800 
 56 H       12.9950    -2.0740     1.3360 H     1 <1>   0.0800 
 57 H       13.7580    -2.0390    -0.2650 H     1 <1>   0.0800 
 58 H       10.4320     5.3300     0.7080 H     1 <1>   0.0800 
 59 H       11.5150     4.1900     1.5030 H     1 <1>   0.0800 
 60 H        9.8020     3.8020     1.3220 H     1 <1>   0.0800 
 61 H       14.8960     3.8850     0.0380 H     1 <1>   0.0800 
 62 H       13.2690     4.4520    -0.3040 H     1 <1>   0.0800 
 63 H       13.9870     3.1810    -1.2970 H     1 <1>   0.0800 
@<TRIPOS>BOND
  1   1   2  2   
  2   2   3  am  
  3   2   4  1   
  4   3   5  1   
  5   3   6  1   
  6   4   7  1   
  7   4  32  1   
  8   4  33  1   
  9   5   8  1   
 10   5  34  1   
 11   5  35  1   
 12   6  36  1   
 13   6  37  1   
 14   6  38  1   
 15   7   8  1   
 16   7   9  1   
 17   7  39  1   
 18   8  10  1   
 19   8  40  1   
 20   9  11  1   
 21   9  41  1   
 22   9  42  1   
 23  10  11  1   
 24  10  43  1   
 25  10  44  1   
 26  11  12  1   
 27  11  45  1   
 28  12  13  am  
 29  12  14  1   
 30  13  15  2   
 31  13  16  1   
 32  14  46  1   
 33  14  47  1   
 34  14  48  1   
 35  16  17  1   
 36  16  49  1   
 37  16  50  1   
 38  17  18  1   
 39  17  51  1   
 40  17  52  1   
 41  18  19  2   
 42  18  20  1   
 43  20  21  ar  
 44  20  22  ar  
 45  21  23  1   
 46  21  24  ar  
 47  22  25  ar  
 48  22  53  1   
 49  23  26  1   
 50  24  27  ar  
 51  24  54  1   
 52  25  27  ar  
 53  25  28  1   
 54  26  55  1   
 55  26  56  1   
 56  26  57  1   
 57  27  29  1   
 58  28  30  1   
 59  29  31  1   
 60  30  58  1   
 61  30  59  1   
 62  30  60  1   
 63  31  61  1   
 64  31  62  1   
 65  31  63  1   
@<TRIPOS>SUBSTRUCTURE
  1 ****  16 GROUP 4 **** **** 0

# MOE 2024.06 (io_trps.svl 2023.06)
