@<TRIPOS>MOLECULE
NONAME
39 41 1 0 0 
SMALL
USER_CHARGES


@<TRIPOS>ATOM
  1 O       -0.5580     0.7180     2.1590 O.3   1 <1>  -0.5600 
  2 C        0.5210     0.8530     1.2760 C.3   1 <1>   0.1200 
  3 C       -1.6500     1.4740     1.7300 C.3   1 <1>   0.1200 
  4 C        0.1050     1.8520     0.1950 C.3   1 <1>   0.2890 
  5 C       -1.4120     1.7740     0.2500 C.3   1 <1>  -0.0800 
  6 N        0.5480     3.2170     0.5710 N.pl3 1 <1>  -0.8690 
  7 C       -1.9500     0.6600    -0.6670 C.3   1 <1>  -0.0170 
  8 C        0.4430     4.3040    -0.2860 C.ar  1 <1>   0.4100 
  9 C       -3.4690     0.5920    -0.6260 C.ar  1 <1>  -0.1440 
 10 N        0.4010     4.0240    -1.5810 N.ar  1 <1>  -0.6200 
 11 C        0.3780     5.6340     0.2180 C.ar  1 <1>   0.3920 
 12 C       -4.2540     1.5290    -1.2660 C.ar  1 <1>  -0.1500 
 13 C       -4.1400    -0.4060     0.0500 C.ar  1 <1>  -0.1500 
 14 C        0.3180     5.1140    -2.3300 C.ar  1 <1>   0.1600 
 15 O        0.4010     5.7990     1.5700 O.3   1 <1>  -0.3630 
 16 N        0.2870     6.7140    -0.5450 N.ar  1 <1>  -0.6200 
 17 C       -5.6340     1.4280    -1.1980 C.ar  1 <1>   0.1600 
 18 C       -5.5250    -0.4170     0.0560 C.ar  1 <1>   0.1600 
 19 C        0.2650     6.4060    -1.8340 C.ar  1 <1>   0.1600 
 20 C        0.3760     7.0940     2.1400 C.3   1 <1>   0.0400 
 21 N       -6.2890     0.4770    -0.5510 N.ar  1 <1>  -0.6200 
 22 H        1.3910     1.1790     1.8180 H     1 <1>   0.0800 
 23 H        0.7050    -0.1140     0.8430 H     1 <1>   0.0800 
 24 H       -2.5570     0.9260     1.9160 H     1 <1>   0.0800 
 25 H       -1.6590     2.3850     2.3020 H     1 <1>   0.0800 
 26 H        0.5110     1.5870    -0.7660 H     1 <1>   0.0800 
 27 H       -1.8660     2.7070    -0.0330 H     1 <1>   0.0800 
 28 H        0.3990     3.4460     1.5590 H     1 <1>   0.4000 
 29 H       -1.5370    -0.2910    -0.3800 H     1 <1>   0.0800 
 30 H       -1.6420     0.8560    -1.6800 H     1 <1>   0.0800 
 31 H       -3.8060     2.3370    -1.8160 H     1 <1>   0.1500 
 32 H       -3.6010    -1.1740     0.5740 H     1 <1>   0.1500 
 33 H        0.2920     4.9690    -3.3950 H     1 <1>   0.1500 
 34 H       -6.2300     2.1690    -1.7030 H     1 <1>   0.1500 
 35 H       -6.0320    -1.2030     0.5900 H     1 <1>   0.1500 
 36 H        0.2000     7.2260    -2.5280 H     1 <1>   0.1500 
 37 H        0.4120     6.9940     3.2100 H     1 <1>   0.0800 
 38 H       -0.5330     7.5880     1.8450 H     1 <1>   0.0800 
 39 H        1.2330     7.6440     1.7920 H     1 <1>   0.0800 
@<TRIPOS>BOND
  1   1   2  1   
  2   1   3  1   
  3   2   4  1   
  4   2  22  1   
  5   2  23  1   
  6   3   5  1   
  7   3  24  1   
  8   3  25  1   
  9   4   5  1   
 10   4   6  1   
 11   4  26  1   
 12   5   7  1   
 13   5  27  1   
 14   6   8  1   
 15   6  28  1   
 16   7   9  1   
 17   7  29  1   
 18   7  30  1   
 19   8  10  ar  
 20   8  11  ar  
 21   9  12  ar  
 22   9  13  ar  
 23  10  14  ar  
 24  11  15  1   
 25  11  16  ar  
 26  12  17  ar  
 27  12  31  1   
 28  13  18  ar  
 29  13  32  1   
 30  14  19  ar  
 31  14  33  1   
 32  15  20  1   
 33  16  19  ar  
 34  17  21  ar  
 35  17  34  1   
 36  18  21  ar  
 37  18  35  1   
 38  19  36  1   
 39  20  37  1   
 40  20  38  1   
 41  20  39  1   
@<TRIPOS>SUBSTRUCTURE
  1 ****   5 GROUP 4 **** **** 0

# MOE 2024.06 (io_trps.svl 2023.06)
