@<TRIPOS>MOLECULE
NONAME
46 49 1 0 0 
SMALL
USER_CHARGES


@<TRIPOS>ATOM
  1 CL       0.5280     0.8070    -1.6060 Cl    1 <1>  -0.1770 
  2 C        0.6380     2.4270    -0.9510 C.ar  1 <1>   0.1770 
  3 C        1.8240     2.8390    -0.3050 C.ar  1 <1>   0.3100 
  4 C       -0.4480     3.2470    -1.0950 C.ar  1 <1>  -0.1500 
  5 N        2.8730     1.9820    -0.1810 N.ar  1 <1>  -0.6200 
  6 C        1.8690     4.1610     0.1960 C.ar  1 <1>   0.0000 
  7 C       -0.3990     4.5470    -0.5880 C.ar  1 <1>  -0.1500 
  8 C        3.9370     2.3970     0.4280 C.ar  1 <1>   0.1670 
  9 C        3.0580     4.5970     0.8280 C.ar  1 <1>   0.0860 
 10 C        0.7320     4.9880     0.0430 C.ar  1 <1>  -0.1500 
 11 C        4.0720     3.6850     0.9450 C.ar  1 <1>  -0.1500 
 12 C        5.0790     1.4120     0.5660 C.3   1 <1>  -0.0960 
 13 C        3.2130     5.9490     1.3080 C.2   1 <1>   0.5440 
 14 O        2.8820     6.2080     2.4500 O.2   1 <1>  -0.5700 
 15 N        3.7220     6.9510     0.5030 N.am  1 <1>  -0.6600 
 16 C        4.2060     8.2330     1.1150 C.3   1 <1>   0.1400 
 17 C        3.9840     6.7550    -0.9600 C.3   1 <1>   0.1400 
 18 C        5.7290     8.4800     1.0050 C.3   1 <1>   0.2200 
 19 C        5.4640     6.8330    -1.3830 C.3   1 <1>  -0.0190 
 20 N        6.0850     9.0120    -0.3410 N.am  1 <1>  -0.6600 
 21 C        6.6390     7.2890     1.4040 C.3   1 <1>   0.1200 
 22 C        5.9290     8.2680    -1.4740 C.2   1 <1>   0.5690 
 23 C        6.4780     5.9770    -0.6030 C.3   1 <1>   0.1200 
 24 C        6.5660    10.4230    -0.3840 C.3   1 <1>   0.0600 
 25 O        6.3460     6.0640     0.7830 O.3   1 <1>  -0.5600 
 26 O        6.1550     8.7160    -2.5730 O.2   1 <1>  -0.5700 
 27 H       -1.3350     2.8970    -1.5920 H     1 <1>   0.1500 
 28 H       -1.2580     5.1890    -0.6970 H     1 <1>   0.1500 
 29 H        0.7580     5.9900     0.4390 H     1 <1>   0.1500 
 30 H        4.9850     3.9680     1.4370 H     1 <1>   0.1500 
 31 H        5.9390     1.8720     1.0160 H     1 <1>   0.0800 
 32 H        5.3510     1.0390    -0.4040 H     1 <1>   0.0800 
 33 H        4.7650     0.5860     1.1780 H     1 <1>   0.0800 
 34 H        3.6820     9.0560     0.6630 H     1 <1>   0.0800 
 35 H        3.9580     8.2480     2.1610 H     1 <1>   0.0800 
 36 H        3.6010     5.8030    -1.2760 H     1 <1>   0.0800 
 37 H        3.4310     7.5030    -1.5030 H     1 <1>   0.0800 
 38 H        5.9480     9.2620     1.7110 H     1 <1>   0.0800 
 39 H        5.4950     6.4650    -2.3920 H     1 <1>   0.0800 
 40 H        6.5280     7.1200     2.4600 H     1 <1>   0.0800 
 41 H        7.6690     7.5300     1.2120 H     1 <1>   0.0800 
 42 H        7.4870     6.2450    -0.8670 H     1 <1>   0.0800 
 43 H        6.3290     4.9420    -0.8560 H     1 <1>   0.0800 
 44 H        7.4500    10.5270     0.2210 H     1 <1>   0.0800 
 45 H        5.8000    11.0810    -0.0120 H     1 <1>   0.0800 
 46 H        6.8080    10.7170    -1.3920 H     1 <1>   0.0800 
@<TRIPOS>BOND
  1   1   2  1   
  2   2   3  ar  
  3   2   4  ar  
  4   3   5  ar  
  5   3   6  ar  
  6   4   7  ar  
  7   4  27  1   
  8   5   8  ar  
  9   6   9  ar  
 10   6  10  ar  
 11   7  10  ar  
 12   7  28  1   
 13   8  11  ar  
 14   8  12  1   
 15   9  11  ar  
 16   9  13  1   
 17  10  29  1   
 18  11  30  1   
 19  12  31  1   
 20  12  32  1   
 21  12  33  1   
 22  13  14  2   
 23  13  15  am  
 24  15  16  1   
 25  15  17  1   
 26  16  18  1   
 27  16  34  1   
 28  16  35  1   
 29  17  19  1   
 30  17  36  1   
 31  17  37  1   
 32  18  20  1   
 33  18  21  1   
 34  18  38  1   
 35  19  22  1   
 36  19  23  1   
 37  19  39  1   
 38  20  22  am  
 39  20  24  1   
 40  21  25  1   
 41  21  40  1   
 42  21  41  1   
 43  22  26  2   
 44  23  25  1   
 45  23  42  1   
 46  23  43  1   
 47  24  44  1   
 48  24  45  1   
 49  24  46  1   
@<TRIPOS>SUBSTRUCTURE
  1 ****   9 GROUP 4 **** **** 0

# MOE 2024.06 (io_trps.svl 2023.06)
