@<TRIPOS>MOLECULE
NONAME
49 52 1 0 0 
SMALL
USER_CHARGES


@<TRIPOS>ATOM
  1 O       -0.0940    -0.6010    -1.1280 O.2   1 <1>  -0.5700 
  2 C       -0.3760    -1.5160    -0.3710 C.2   1 <1>   0.5440 
  3 N        0.5270    -1.9150     0.5880 N.am  1 <1>  -0.4200 
  4 C       -1.6360    -2.2010    -0.4390 C.ar  1 <1>   0.0860 
  5 C        0.1960    -2.9390     1.4450 C.2   1 <1>   0.4500 
  6 C        1.8470    -1.2420     0.6940 C.3   1 <1>   0.0600 
  7 C       -1.8630    -3.2310     0.4810 C.ar  1 <1>   0.1790 
  8 C       -2.6370    -1.9010    -1.3650 C.ar  1 <1>  -0.1500 
  9 N       -0.9140    -3.5740     1.4240 N.2   1 <1>  -0.6290 
 10 C       -3.0660    -3.9230     0.4540 C.ar  1 <1>  -0.1500 
 11 C       -3.8270    -2.5980    -1.3730 C.ar  1 <1>  -0.1500 
 12 C       -4.0720    -3.6230    -0.4550 C.ar  1 <1>   0.0860 
 13 C       -5.3270    -4.3500    -0.4530 C.2   1 <1>   0.5440 
 14 O       -5.3130    -5.5640    -0.5250 O.2   1 <1>  -0.5700 
 15 N       -6.5400    -3.7000    -0.3650 N.am  1 <1>  -0.6600 
 16 C       -7.8110    -4.4500    -0.5950 C.3   1 <1>   0.1400 
 17 C       -6.6600    -2.2850     0.1020 C.3   1 <1>   0.1400 
 18 C       -8.9210    -3.4980    -1.0430 C.3   1 <1>  -0.1600 
 19 C       -7.9650    -2.1020     0.8720 C.3   1 <1>  -0.1600 
 20 C       -9.1800    -2.3630    -0.0340 C.3   1 <1>   0.4180 
 21 O       -9.4060    -1.2170    -0.8180 O.3   1 <1>  -0.5600 
 22 C      -10.4110    -2.6930     0.8090 C.2   1 <1>  -0.2880 
 23 C      -10.1440    -0.1670    -0.2540 C.3   1 <1>   0.1200 
 24 C      -11.5050    -1.9310     0.8740 C.2   1 <1>  -0.2760 
 25 C      -11.5630    -0.6260     0.1030 C.3   1 <1>  -0.0220 
 26 C      -12.7490    -2.2740     1.6740 C.3   1 <1>  -0.1020 
 27 H        0.9390    -3.2060     2.1760 H     1 <1>   0.0600 
 28 H        2.3770    -1.3440    -0.2380 H     1 <1>   0.0800 
 29 H        2.4360    -1.6740     1.4840 H     1 <1>   0.0800 
 30 H        1.7000    -0.1950     0.8950 H     1 <1>   0.0800 
 31 H       -2.4650    -1.1140    -2.0810 H     1 <1>   0.1500 
 32 H       -3.2190    -4.7180     1.1620 H     1 <1>   0.1500 
 33 H       -4.5870    -2.3600    -2.0980 H     1 <1>   0.1500 
 34 H       -8.0940    -4.9490     0.3170 H     1 <1>   0.0800 
 35 H       -7.6540    -5.2010    -1.3510 H     1 <1>   0.0800 
 36 H       -6.6490    -1.6260    -0.7500 H     1 <1>   0.0800 
 37 H       -5.8310    -2.0370     0.7420 H     1 <1>   0.0800 
 38 H       -9.8250    -4.0570    -1.2010 H     1 <1>   0.0800 
 39 H       -8.6300    -3.0850    -1.9920 H     1 <1>   0.0800 
 40 H       -8.0110    -1.1170     1.2940 H     1 <1>   0.0800 
 41 H       -7.9690    -2.7960     1.6930 H     1 <1>   0.0800 
 42 H      -10.3110    -3.6210     1.3420 H     1 <1>   0.1500 
 43 H      -10.1800     0.6320    -0.9720 H     1 <1>   0.0800 
 44 H       -9.6330     0.1820     0.6260 H     1 <1>   0.0800 
 45 H      -12.1410    -0.7560    -0.7940 H     1 <1>   0.0800 
 46 H      -12.0300     0.1390     0.6980 H     1 <1>   0.0800 
 47 H      -12.9350    -1.5180     2.4160 H     1 <1>   0.0800 
 48 H      -12.6270    -3.2190     2.1730 H     1 <1>   0.0800 
 49 H      -13.6010    -2.3410     1.0220 H     1 <1>   0.0800 
@<TRIPOS>BOND
  1   1   2  2   
  2   2   3  am  
  3   2   4  1   
  4   3   5  1   
  5   3   6  1   
  6   4   7  ar  
  7   4   8  ar  
  8   5   9  2   
  9   5  27  1   
 10   6  28  1   
 11   6  29  1   
 12   6  30  1   
 13   7   9  1   
 14   7  10  ar  
 15   8  11  ar  
 16   8  31  1   
 17  10  12  ar  
 18  10  32  1   
 19  11  12  ar  
 20  11  33  1   
 21  12  13  1   
 22  13  14  2   
 23  13  15  am  
 24  15  16  1   
 25  15  17  1   
 26  16  18  1   
 27  16  34  1   
 28  16  35  1   
 29  17  19  1   
 30  17  36  1   
 31  17  37  1   
 32  18  20  1   
 33  18  38  1   
 34  18  39  1   
 35  19  20  1   
 36  19  40  1   
 37  19  41  1   
 38  20  21  1   
 39  20  22  1   
 40  21  23  1   
 41  22  24  2   
 42  22  42  1   
 43  23  25  1   
 44  23  43  1   
 45  23  44  1   
 46  24  25  1   
 47  24  26  1   
 48  25  45  1   
 49  25  46  1   
 50  26  47  1   
 51  26  48  1   
 52  26  49  1   
@<TRIPOS>SUBSTRUCTURE
  1 ****  17 GROUP 4 **** **** 0

# MOE 2024.06 (io_trps.svl 2023.06)
