@<TRIPOS>MOLECULE
NONAME
47 50 1 0 0 
SMALL
USER_CHARGES


@<TRIPOS>ATOM
  1 O        1.8810     0.0250     2.0370 O.3   1 <1>  -0.6800 
  2 C        1.4440    -0.3210     0.7610 C.3   1 <1>   0.2000 
  3 C        1.9840    -1.6990     0.3870 C.3   1 <1>  -0.0800 
  4 C        2.1550     0.5830    -0.2490 C.3   1 <1>   0.3430 
  5 C        3.4460    -1.4290     0.0190 C.3   1 <1>   0.3430 
  6 C        1.8180    -2.8180     1.4380 C.3   1 <1>  -0.0170 
  7 N        3.5250    -0.0030    -0.4270 N.4   1 <1>  -0.9590 
  8 C        2.6260    -4.0460     1.0320 C.ar  1 <1>  -0.1440 
  9 C        4.5120     0.7540     0.3770 C.3   1 <1>   0.5230 
 10 C        2.2450    -4.8900    -0.0400 C.ar  1 <1>   0.0000 
 11 C        3.7800    -4.3510     1.6950 C.ar  1 <1>  -0.1500 
 12 C        4.7290     2.0720    -0.3200 C.2   1 <1>  -0.3320 
 13 C        3.1290    -5.9380    -0.3960 C.ar  1 <1>   0.3100 
 14 C        1.0440    -4.7610    -0.7760 C.ar  1 <1>  -0.1500 
 15 C        4.5660    -5.4330     1.2820 C.ar  1 <1>   0.1600 
 16 N        5.5660     2.2630    -1.3660 N.pl3 1 <1>   0.3140 
 17 C        4.1700     3.2720    -0.0430 C.2   1 <1>  -0.1500 
 18 N        4.2830    -6.1880     0.2700 N.ar  1 <1>  -0.6200 
 19 C        2.8040    -6.7630    -1.4840 C.ar  1 <1>  -0.1500 
 20 C        0.7540    -5.5860    -1.8290 C.ar  1 <1>  -0.1500 
 21 N        5.5300     3.5330    -1.7830 N.2   1 <1>  -0.7070 
 22 C        6.4640     1.3010    -2.0260 C.3   1 <1>   0.0160 
 23 C        4.7050     4.1370    -0.9870 C.2   1 <1>   0.1390 
 24 C        1.6470    -6.5960    -2.1940 C.ar  1 <1>  -0.1500 
 25 H        1.2600    -0.2980     2.7250 H     1 <1>   0.4000 
 26 H        0.3700    -0.2340     0.7150 H     1 <1>   0.0800 
 27 H        1.4910    -2.0090    -0.5170 H     1 <1>   0.0800 
 28 H        2.1850     1.6040     0.0950 H     1 <1>   0.0800 
 29 H        1.6260     0.5460    -1.1870 H     1 <1>   0.0800 
 30 H        3.7760    -2.1070    -0.7530 H     1 <1>   0.0800 
 31 H        4.0590    -1.5740     0.8940 H     1 <1>   0.0800 
 32 H        0.7800    -3.0790     1.5530 H     1 <1>   0.0800 
 33 H        2.1660    -2.4820     2.3990 H     1 <1>   0.0800 
 34 H        3.7960     0.0770    -1.4130 H     1 <1>   0.4500 
 35 H        4.1300     0.9160     1.3740 H     1 <1>   0.0800 
 36 H        5.4430     0.2170     0.4470 H     1 <1>   0.0800 
 37 H        4.1220    -3.7810     2.5400 H     1 <1>   0.1500 
 38 H        0.3290    -4.0090    -0.5030 H     1 <1>   0.1500 
 39 H        5.4670    -5.6460     1.8340 H     1 <1>   0.1500 
 40 H        3.4670     3.5520     0.7240 H     1 <1>   0.1500 
 41 H        3.5000    -7.5410    -1.7400 H     1 <1>   0.1500 
 42 H       -0.1620    -5.4780    -2.3840 H     1 <1>   0.1500 
 43 H        6.9560     0.6950    -1.2900 H     1 <1>   0.0800 
 44 H        7.2060     1.8460    -2.5830 H     1 <1>   0.0800 
 45 H        5.9000     0.6880    -2.7030 H     1 <1>   0.0800 
 46 H        4.4720     5.1880    -1.0620 H     1 <1>   0.1500 
 47 H        1.4100    -7.2370    -3.0260 H     1 <1>   0.1500 
@<TRIPOS>BOND
  1   1   2  1   
  2   1  25  1   
  3   2   3  1   
  4   2   4  1   
  5   2  26  1   
  6   3   5  1   
  7   3   6  1   
  8   3  27  1   
  9   4   7  1   
 10   4  28  1   
 11   4  29  1   
 12   5   7  1   
 13   5  30  1   
 14   5  31  1   
 15   6   8  1   
 16   6  32  1   
 17   6  33  1   
 18   7   9  1   
 19   7  34  1   
 20   8  10  ar  
 21   8  11  ar  
 22   9  12  1   
 23   9  35  1   
 24   9  36  1   
 25  10  13  ar  
 26  10  14  ar  
 27  11  15  ar  
 28  11  37  1   
 29  12  16  1   
 30  12  17  2   
 31  13  18  ar  
 32  13  19  ar  
 33  14  20  ar  
 34  14  38  1   
 35  15  18  ar  
 36  15  39  1   
 37  16  21  1   
 38  16  22  1   
 39  17  23  1   
 40  17  40  1   
 41  19  24  ar  
 42  19  41  1   
 43  20  24  ar  
 44  20  42  1   
 45  21  23  2   
 46  22  43  1   
 47  22  44  1   
 48  22  45  1   
 49  23  46  1   
 50  24  47  1   
@<TRIPOS>SUBSTRUCTURE
  1 ****   5 GROUP 4 **** **** 0

# MOE 2024.06 (io_trps.svl 2023.06)
