@<TRIPOS>MOLECULE
NONAME
45 49 1 0 0 
SMALL
USER_CHARGES


@<TRIPOS>ATOM
  1 N       -0.0820    -0.8470     0.6920 N.ar  1 <1>  -0.6200 
  2 C        0.4490    -2.0020     1.0110 C.ar  1 <1>   0.4100 
  3 C        0.7710     0.0860     0.3140 C.ar  1 <1>   0.4760 
  4 N       -0.4500    -2.9500     1.3880 N.pl3 1 <1>  -0.8690 
  5 C        1.8130    -2.2100     0.9740 C.ar  1 <1>  -0.1500 
  6 N        2.0870    -0.0020     0.2240 N.ar  1 <1>  -0.6200 
  7 C        0.1790     1.4230    -0.0630 C.3   1 <1>  -0.0970 
  8 C       -0.6890    -4.2090     0.6650 C.3   1 <1>   0.3690 
  9 C        2.5990    -1.1680     0.5670 C.ar  1 <1>   0.1600 
 10 C       -2.1980    -4.4850     0.7360 C.3   1 <1>  -0.1600 
 11 C       -0.2630    -4.1310    -0.8150 C.3   1 <1>  -0.1600 
 12 C        0.0660    -5.3520     1.3630 C.3   1 <1>  -0.1600 
 13 C       -2.5400    -5.8220     0.0360 C.3   1 <1>   0.2560 
 14 C       -0.5740    -5.4610    -1.5230 C.3   1 <1>  -0.0800 
 15 C       -0.2410    -6.6900     0.6630 C.3   1 <1>  -0.0800 
 16 N       -4.0130    -6.1120     0.0950 N.pl3 1 <1>   0.3140 
 17 C       -2.0870    -5.7350    -1.4400 C.3   1 <1>  -0.1600 
 18 C       -1.7560    -6.9580     0.7340 C.3   1 <1>  -0.1600 
 19 C        0.1850    -6.6000    -0.8150 C.3   1 <1>  -0.1600 
 20 N       -4.5580    -7.2120    -0.4260 N.2   1 <1>  -0.7070 
 21 C       -5.0000    -5.3840     0.6370 C.2   1 <1>   0.0360 
 22 C       -5.8130    -7.0620    -0.1610 C.2   1 <1>   0.3660 
 23 N       -6.1460    -5.9470     0.4970 N.2   1 <1>  -0.5650 
 24 H       -1.3360    -2.4910     1.6020 H     1 <1>   0.4000 
 25 H        2.2290    -3.1530     1.2600 H     1 <1>   0.1500 
 26 H       -0.8910     1.3570    -0.1320 H     1 <1>   0.0800 
 27 H        0.5730     1.7370    -1.0110 H     1 <1>   0.0800 
 28 H        0.4390     2.1480     0.6840 H     1 <1>   0.0800 
 29 H        3.6690    -1.2790     0.5190 H     1 <1>   0.1500 
 30 H       -2.7210    -3.6800     0.2520 H     1 <1>   0.0800 
 31 H       -2.4950    -4.5340     1.7690 H     1 <1>   0.0800 
 32 H        0.7920    -3.9420    -0.8910 H     1 <1>   0.0800 
 33 H       -0.7830    -3.3250    -1.3040 H     1 <1>   0.0800 
 34 H       -0.2270    -5.4050     2.3970 H     1 <1>   0.0800 
 35 H        1.1230    -5.1690     1.3250 H     1 <1>   0.0800 
 36 H       -0.2700    -5.4060    -2.5550 H     1 <1>   0.0800 
 37 H        0.2940    -7.4880     1.1500 H     1 <1>   0.0800 
 38 H       -2.6250    -4.9510    -1.9440 H     1 <1>   0.0800 
 39 H       -2.3060    -6.6620    -1.9430 H     1 <1>   0.0800 
 40 H       -1.9710    -7.8970     0.2530 H     1 <1>   0.0800 
 41 H       -2.0620    -7.0370     1.7620 H     1 <1>   0.0800 
 42 H        1.2460    -6.4260    -0.8790 H     1 <1>   0.0800 
 43 H       -0.0170    -7.5350    -1.3090 H     1 <1>   0.0800 
 44 H       -4.8430    -4.4420     1.1280 H     1 <1>   0.1500 
 45 H       -6.5670    -7.7800    -0.4430 H     1 <1>   0.1500 
@<TRIPOS>BOND
  1   1   2  ar  
  2   1   3  ar  
  3   2   4  1   
  4   2   5  ar  
  5   3   6  ar  
  6   3   7  1   
  7   4   8  1   
  8   4  24  1   
  9   5   9  ar  
 10   5  25  1   
 11   6   9  ar  
 12   7  26  1   
 13   7  27  1   
 14   7  28  1   
 15   8  10  1   
 16   8  11  1   
 17   8  12  1   
 18   9  29  1   
 19  10  13  1   
 20  10  30  1   
 21  10  31  1   
 22  11  14  1   
 23  11  32  1   
 24  11  33  1   
 25  12  15  1   
 26  12  34  1   
 27  12  35  1   
 28  13  16  1   
 29  13  17  1   
 30  13  18  1   
 31  14  17  1   
 32  14  19  1   
 33  14  36  1   
 34  15  18  1   
 35  15  19  1   
 36  15  37  1   
 37  16  20  1   
 38  16  21  1   
 39  17  38  1   
 40  17  39  1   
 41  18  40  1   
 42  18  41  1   
 43  19  42  1   
 44  19  43  1   
 45  20  22  2   
 46  21  23  2   
 47  21  44  1   
 48  22  23  1   
 49  22  45  1   
@<TRIPOS>SUBSTRUCTURE
  1 ****   8 GROUP 4 **** **** 0

# MOE 2024.06 (io_trps.svl 2023.06)
