@<TRIPOS>MOLECULE
NONAME
26 26 1 0 0 
SMALL
USER_CHARGES


@<TRIPOS>ATOM
  1 F        1.0140    -0.1940     1.2510 F     1 <1>  -0.1900 
  2 C        1.7290     0.6460     0.5510 C.ar  1 <1>   0.1900 
  3 C        2.5740     0.1720    -0.4400 C.ar  1 <1>  -0.1440 
  4 C        1.5990     1.9900     0.8410 C.ar  1 <1>  -0.1500 
  5 C        3.3160     1.1090    -1.1550 C.ar  1 <1>  -0.1500 
  6 C        2.6610    -1.3260    -0.7130 C.3   1 <1>   1.1640 
  7 C        2.3400     2.9090     0.1180 C.ar  1 <1>  -0.1440 
  8 C        3.1960     2.4610    -0.8750 C.ar  1 <1>  -0.1500 
  9 F        1.4970    -1.8480    -1.0790 F     1 <1>  -0.3400 
 10 F        3.5110    -1.6180    -1.6920 F     1 <1>  -0.3400 
 11 F        3.0750    -2.0150     0.3420 F     1 <1>  -0.3400 
 12 C        2.2130     4.3990     0.3970 C.3   1 <1>  -0.0160 
 13 C        1.3870     5.1200    -0.6810 C.3   1 <1>  -0.1860 
 14 C        1.4810     6.6210    -0.4500 C.2   1 <1>   0.9060 
 15 C       -0.0750     4.6250    -0.7230 C.3   1 <1>  -0.2400 
 16 O        1.0700     7.0890     0.6180 O.co2 1 <1>  -0.9000 
 17 O        1.9960     7.3190    -1.3290 O.co2 1 <1>  -0.9000 
 18 H        0.9260     2.3130     1.6150 H     1 <1>   0.1500 
 19 H        3.9910     0.8040    -1.9380 H     1 <1>   0.1500 
 20 H        3.7700     3.1780    -1.4390 H     1 <1>   0.1500 
 21 H        3.1970     4.8350     0.4310 H     1 <1>   0.0800 
 22 H        1.7620     4.5660     1.3600 H     1 <1>   0.0800 
 23 H        1.8340     4.9310    -1.6390 H     1 <1>   0.0800 
 24 H       -0.5460     4.7930     0.2290 H     1 <1>   0.0800 
 25 H       -0.1210     3.5790    -0.9650 H     1 <1>   0.0800 
 26 H       -0.6180     5.1770    -1.4700 H     1 <1>   0.0800 
@<TRIPOS>BOND
  1   1   2  1   
  2   2   3  ar  
  3   2   4  ar  
  4   3   5  ar  
  5   3   6  1   
  6   4   7  ar  
  7   4  18  1   
  8   5   8  ar  
  9   5  19  1   
 10   6   9  1   
 11   6  10  1   
 12   6  11  1   
 13   7   8  ar  
 14   7  12  1   
 15   8  20  1   
 16  12  13  1   
 17  12  21  1   
 18  12  22  1   
 19  13  14  1   
 20  13  15  1   
 21  13  23  1   
 22  14  16  ar  
 23  14  17  ar  
 24  15  24  1   
 25  15  25  1   
 26  15  26  1   
@<TRIPOS>SUBSTRUCTURE
  1 ****   7 GROUP 4 **** **** 0

# MOE 2024.06 (io_trps.svl 2023.06)
