@<TRIPOS>MOLECULE
NONAME
57 60 1 0 0 
SMALL
USER_CHARGES


@<TRIPOS>ATOM
  1 O       -1.3130     0.2840    -1.6510 O.2   1 <1>  -0.5700 
  2 C       -2.1560     1.1600    -1.5790 C.2   1 <1>   0.5440 
  3 N       -3.4700     0.7600    -1.4650 N.am  1 <1>  -0.6600 
  4 C       -1.7710     2.5620    -1.5660 C.ar  1 <1>   0.0860 
  5 C       -3.8340    -0.6320    -1.8350 C.3   1 <1>   0.1400 
  6 C       -4.3530     1.3480    -0.4220 C.3   1 <1>   0.1400 
  7 C       -0.5880     2.9760    -0.9580 C.ar  1 <1>  -0.1500 
  8 C       -2.5650     3.5430    -2.1620 C.ar  1 <1>  -0.1500 
  9 C       -3.6830    -1.5260    -0.5850 C.3   1 <1>   0.4230 
 10 C       -4.2420     0.4810     0.8410 C.3   1 <1>  -0.1600 
 11 C       -0.1980     4.3090    -0.9120 C.ar  1 <1>   0.0000 
 12 C       -2.1990     4.8750    -2.1320 C.ar  1 <1>  -0.1500 
 13 N       -3.8070    -3.0160    -0.8690 N.4   1 <1>  -0.9590 
 14 C       -4.5650    -1.0250     0.6010 C.3   1 <1>   0.0000 
 15 C        1.0310     4.7030    -0.2620 C.ar  1 <1>   0.0000 
 16 C       -1.0250     5.2540    -1.5090 C.ar  1 <1>  -0.1500 
 17 C       -4.0730    -3.8510     0.3470 C.3   1 <1>   0.3430 
 18 C       -4.7570    -3.3890    -1.9670 C.3   1 <1>   0.2630 
 19 C       -4.1990    -1.8250     1.8860 C.3   1 <1>  -0.1600 
 20 C       -6.0720    -1.2050     0.2600 C.3   1 <1>   0.1200 
 21 C        1.2610     4.4000     1.0780 C.ar  1 <1>  -0.1500 
 22 C        2.0190     5.3970    -0.9580 C.ar  1 <1>  -0.1500 
 23 C       -3.5200    -3.1800     1.6040 C.3   1 <1>  -0.1600 
 24 O       -6.8870    -0.5920     1.1960 O.3   1 <1>  -0.6800 
 25 C        2.4340     4.7770     1.7040 C.ar  1 <1>  -0.1500 
 26 C        3.1960     5.7790    -0.3400 C.ar  1 <1>  -0.1500 
 27 C        3.4000     5.4670     0.9940 C.ar  1 <1>   0.0820 
 28 O        4.5330     5.8300     1.6090 O.3   1 <1>  -0.5330 
 29 H       -4.8380    -0.6390    -2.2160 H     1 <1>   0.0800 
 30 H       -3.1730    -0.9750    -2.6120 H     1 <1>   0.0800 
 31 H       -4.0520     2.3560    -0.1930 H     1 <1>   0.0800 
 32 H       -5.3700     1.3790    -0.7770 H     1 <1>   0.0800 
 33 H        0.0510     2.2340    -0.5110 H     1 <1>   0.1500 
 34 H       -3.4770     3.2560    -2.6560 H     1 <1>   0.1500 
 35 H       -2.6660    -1.3690    -0.2620 H     1 <1>   0.0800 
 36 H       -3.2350     0.5840     1.2070 H     1 <1>   0.0800 
 37 H       -4.8850     0.8930     1.6000 H     1 <1>   0.0800 
 38 H       -2.8260     5.6180    -2.5940 H     1 <1>   0.1500 
 39 H       -2.8640    -3.2810    -1.1920 H     1 <1>   0.4500 
 40 H       -0.7440     6.2920    -1.4810 H     1 <1>   0.1500 
 41 H       -5.1350    -3.9860     0.4720 H     1 <1>   0.0800 
 42 H       -3.6260    -4.8250     0.2270 H     1 <1>   0.0800 
 43 H       -5.7630    -3.0940    -1.7150 H     1 <1>   0.0800 
 44 H       -4.7430    -4.4560    -2.1260 H     1 <1>   0.0800 
 45 H       -4.4770    -2.9080    -2.8910 H     1 <1>   0.0800 
 46 H       -3.5280    -1.2570     2.5090 H     1 <1>   0.0800 
 47 H       -5.0800    -1.9950     2.4800 H     1 <1>   0.0800 
 48 H       -6.3480    -2.2440     0.2260 H     1 <1>   0.0800 
 49 H       -6.3170    -0.7590    -0.6870 H     1 <1>   0.0800 
 50 H        0.5100     3.8670     1.6340 H     1 <1>   0.1500 
 51 H        1.8600     5.6330    -1.9950 H     1 <1>   0.1500 
 52 H       -3.6690    -3.8310     2.4480 H     1 <1>   0.0800 
 53 H       -2.4570    -3.0470     1.4940 H     1 <1>   0.0800 
 54 H       -6.7900    -0.9840     2.0870 H     1 <1>   0.4000 
 55 H        2.6080     4.5420     2.7390 H     1 <1>   0.1500 
 56 H        3.9450     6.3130    -0.8960 H     1 <1>   0.1500 
 57 H        5.1520     6.3070     1.0290 H     1 <1>   0.4500 
@<TRIPOS>BOND
  1   1   2  2   
  2   2   3  am  
  3   2   4  1   
  4   3   5  1   
  5   3   6  1   
  6   4   7  ar  
  7   4   8  ar  
  8   5   9  1   
  9   5  29  1   
 10   5  30  1   
 11   6  10  1   
 12   6  31  1   
 13   6  32  1   
 14   7  11  ar  
 15   7  33  1   
 16   8  12  ar  
 17   8  34  1   
 18   9  13  1   
 19   9  14  1   
 20   9  35  1   
 21  10  14  1   
 22  10  36  1   
 23  10  37  1   
 24  11  15  1   
 25  11  16  ar  
 26  12  16  ar  
 27  12  38  1   
 28  13  17  1   
 29  13  18  1   
 30  13  39  1   
 31  14  19  1   
 32  14  20  1   
 33  15  21  ar  
 34  15  22  ar  
 35  16  40  1   
 36  17  23  1   
 37  17  41  1   
 38  17  42  1   
 39  18  43  1   
 40  18  44  1   
 41  18  45  1   
 42  19  23  1   
 43  19  46  1   
 44  19  47  1   
 45  20  24  1   
 46  20  48  1   
 47  20  49  1   
 48  21  25  ar  
 49  21  50  1   
 50  22  26  ar  
 51  22  51  1   
 52  23  52  1   
 53  23  53  1   
 54  24  54  1   
 55  25  27  ar  
 56  25  55  1   
 57  26  27  ar  
 58  26  56  1   
 59  27  28  1   
 60  28  57  1   
@<TRIPOS>SUBSTRUCTURE
  1 ****   2 GROUP 4 **** **** 0

# MOE 2024.06 (io_trps.svl 2023.06)
