@<TRIPOS>MOLECULE
NONAME
46 48 1 0 0 
SMALL
USER_CHARGES


@<TRIPOS>ATOM
  1 O        0.4130    -0.3070    -1.7330 O.2   1 <1>  -0.5700 
  2 C        1.2290    -0.9240    -1.0740 C.2   1 <1>   0.5440 
  3 N        2.1090    -0.2250    -0.2830 N.am  1 <1>  -0.6600 
  4 C        1.2530    -2.3710    -1.1320 C.ar  1 <1>   0.0860 
  5 C        2.8920    -0.8050     0.8310 C.3   1 <1>   0.1400 
  6 C        2.0990     1.2530    -0.2090 C.3   1 <1>   0.1400 
  7 C        0.1250    -3.1340    -0.9030 C.ar  1 <1>  -0.1500 
  8 C        2.4020    -3.0930    -1.4220 C.ar  1 <1>  -0.1500 
  9 C        3.1240     0.3590     1.7870 C.3   1 <1>  -0.1600 
 10 C        3.0900     1.5990     0.8970 C.3   1 <1>  -0.1600 
 11 C        0.1740    -4.5210    -0.9490 C.ar  1 <1>   0.4100 
 12 C        2.3640    -4.4710    -1.4460 C.ar  1 <1>   0.1600 
 13 N        1.2870    -5.1980    -1.2100 N.ar  1 <1>  -0.6200 
 14 N       -0.9730    -5.2530    -0.7150 N.pl3 1 <1>  -0.8380 
 15 C       -0.8380    -6.6500    -0.2120 C.3   1 <1>   0.3900 
 16 C       -2.1740    -5.0030    -1.5600 C.3   1 <1>   0.1290 
 17 C       -2.1140    -7.0860     0.4900 C.2   1 <1>  -0.1810 
 18 C       -2.9370    -8.1390     0.2740 C.2   1 <1>  -0.3320 
 19 C       -2.6840    -6.4070     1.5580 C.2   1 <1>   0.1390 
 20 N       -3.9260    -8.0480     1.1920 N.pl3 1 <1>   0.3140 
 21 C       -2.8400    -9.2450    -0.7670 C.3   1 <1>  -0.0600 
 22 N       -3.7680    -6.9760     1.9850 N.2   1 <1>  -0.7070 
 23 C       -5.0630    -8.9590     1.3720 C.3   1 <1>   0.0160 
 24 H        3.8320    -1.1650     0.4510 H     1 <1>   0.0800 
 25 H        2.3570    -1.6080     1.3110 H     1 <1>   0.0800 
 26 H        1.1080     1.5850     0.0520 H     1 <1>   0.0800 
 27 H        2.3850     1.6830    -1.1540 H     1 <1>   0.0800 
 28 H       -0.8060    -2.6500    -0.6780 H     1 <1>   0.1500 
 29 H        3.3180    -2.5710    -1.6310 H     1 <1>   0.1500 
 30 H        4.0520     0.2620     2.3220 H     1 <1>   0.0800 
 31 H        2.3130     0.3970     2.4940 H     1 <1>   0.0800 
 32 H        2.7960     2.4830     1.4330 H     1 <1>   0.0800 
 33 H        4.0590     1.7610     0.4570 H     1 <1>   0.0800 
 34 H        3.2680    -5.0100    -1.6720 H     1 <1>   0.1500 
 35 H       -0.0200    -6.7030     0.4860 H     1 <1>   0.0800 
 36 H       -0.6180    -7.3030    -1.0370 H     1 <1>   0.0800 
 37 H       -2.0170    -4.1560    -2.2060 H     1 <1>   0.0800 
 38 H       -3.0250    -4.8080    -0.9290 H     1 <1>   0.0800 
 39 H       -2.3830    -5.8640    -2.1700 H     1 <1>   0.0800 
 40 H       -2.2750    -5.5050     1.9830 H     1 <1>   0.1500 
 41 H       -1.9760    -9.1090    -1.3900 H     1 <1>   0.0800 
 42 H       -3.7140    -9.2390    -1.3940 H     1 <1>   0.0800 
 43 H       -2.7620   -10.2020    -0.2830 H     1 <1>   0.0800 
 44 H       -5.6470    -8.9750     0.4720 H     1 <1>   0.0800 
 45 H       -5.6670    -8.6100     2.1880 H     1 <1>   0.0800 
 46 H       -4.6940    -9.9430     1.5920 H     1 <1>   0.0800 
@<TRIPOS>BOND
  1   1   2  2   
  2   2   3  am  
  3   2   4  1   
  4   3   5  1   
  5   3   6  1   
  6   4   7  ar  
  7   4   8  ar  
  8   5   9  1   
  9   5  24  1   
 10   5  25  1   
 11   6  10  1   
 12   6  26  1   
 13   6  27  1   
 14   7  11  ar  
 15   7  28  1   
 16   8  12  ar  
 17   8  29  1   
 18   9  10  1   
 19   9  30  1   
 20   9  31  1   
 21  10  32  1   
 22  10  33  1   
 23  11  13  ar  
 24  11  14  1   
 25  12  13  ar  
 26  12  34  1   
 27  14  15  1   
 28  14  16  1   
 29  15  17  1   
 30  15  35  1   
 31  15  36  1   
 32  16  37  1   
 33  16  38  1   
 34  16  39  1   
 35  17  18  2   
 36  17  19  1   
 37  18  20  1   
 38  18  21  1   
 39  19  22  2   
 40  19  40  1   
 41  20  22  1   
 42  20  23  1   
 43  21  41  1   
 44  21  42  1   
 45  21  43  1   
 46  23  44  1   
 47  23  45  1   
 48  23  46  1   
@<TRIPOS>SUBSTRUCTURE
  1 ****  11 GROUP 4 **** **** 0

# MOE 2024.06 (io_trps.svl 2023.06)
