@<TRIPOS>MOLECULE
NONAME
44 46 1 0 0 
SMALL
USER_CHARGES


@<TRIPOS>ATOM
  1 O        0.1950    -0.4530     0.1890 O.2   1 <1>  -0.5700 
  2 C        0.9910    -1.3230    -0.1070 C.2   1 <1>   0.5440 
  3 N        2.2690    -1.2560     0.3960 N.am  1 <1>  -0.6600 
  4 C        0.5810    -2.4090    -0.9740 C.ar  1 <1>   0.0860 
  5 C        3.2170    -2.3920     0.4500 C.3   1 <1>   0.1400 
  6 C        2.7060    -0.1610     1.2900 C.3   1 <1>   0.1400 
  7 C       -0.5280    -3.1860    -0.7060 C.ar  1 <1>  -0.1500 
  8 C        1.2700    -2.7460    -2.1320 C.ar  1 <1>  -0.1500 
  9 C        4.1140    -2.0900     1.6440 C.3   1 <1>  -0.1600 
 10 C        4.0980    -0.5680     1.7610 C.3   1 <1>  -0.1600 
 11 C       -0.8800    -4.2340    -1.5420 C.ar  1 <1>   0.4100 
 12 C        0.8410    -3.8030    -2.9090 C.ar  1 <1>   0.1600 
 13 N       -0.2090    -4.5570    -2.6400 N.ar  1 <1>  -0.6200 
 14 N       -1.9740    -5.0090    -1.2320 N.pl3 1 <1>  -0.8380 
 15 C       -1.6700    -6.3670    -0.7010 C.3   1 <1>   0.2090 
 16 C       -3.0830    -4.9840    -2.2210 C.3   1 <1>   0.1290 
 17 C       -2.1530    -6.4710     0.7410 C.3   1 <1>   0.0210 
 18 C       -1.8200    -7.8350     1.3020 C.2   1 <1>   0.3350 
 19 N       -0.9830    -8.0590     2.2340 N.2   1 <1>  -0.4100 
 20 N       -2.4010    -8.9320     0.8360 N.2   1 <1>  -0.5650 
 21 O       -0.9700    -9.3410     2.4340 O.3   1 <1>  -0.0190 
 22 C       -1.8370    -9.8040     1.5690 C.2   1 <1>   0.2980 
 23 C       -2.0890   -11.2930     1.5150 C.3   1 <1>  -0.0600 
 24 H        3.7980    -2.4090    -0.4570 H     1 <1>   0.0800 
 25 H        2.7010    -3.3290     0.5730 H     1 <1>   0.0800 
 26 H        2.0260    -0.0950     2.1230 H     1 <1>   0.0800 
 27 H        2.7190     0.7780     0.7620 H     1 <1>   0.0800 
 28 H       -1.1320    -2.9860     0.1580 H     1 <1>   0.1500 
 29 H        2.1340    -2.1770    -2.4190 H     1 <1>   0.1500 
 30 H        5.1070    -2.4820     1.5090 H     1 <1>   0.0800 
 31 H        3.6800    -2.5290     2.5260 H     1 <1>   0.0800 
 32 H        4.2930    -0.2310     2.7640 H     1 <1>   0.0800 
 33 H        4.8290    -0.1410     1.0980 H     1 <1>   0.0800 
 34 H        1.3910    -4.0450    -3.8030 H     1 <1>   0.1500 
 35 H       -0.6080    -6.5450    -0.7350 H     1 <1>   0.0800 
 36 H       -2.1490    -7.1200    -1.3050 H     1 <1>   0.0800 
 37 H       -3.2300    -3.9790    -2.5780 H     1 <1>   0.0800 
 38 H       -3.9940    -5.3280    -1.7630 H     1 <1>   0.0800 
 39 H       -2.8420    -5.6160    -3.0590 H     1 <1>   0.0800 
 40 H       -3.2160    -6.3250     0.7810 H     1 <1>   0.0800 
 41 H       -1.6720    -5.7160     1.3340 H     1 <1>   0.0800 
 42 H       -2.8220   -11.5130     0.7610 H     1 <1>   0.0800 
 43 H       -2.4500   -11.6340     2.4670 H     1 <1>   0.0800 
 44 H       -1.1750   -11.8050     1.2770 H     1 <1>   0.0800 
@<TRIPOS>BOND
  1   1   2  2   
  2   2   3  am  
  3   2   4  1   
  4   3   5  1   
  5   3   6  1   
  6   4   7  ar  
  7   4   8  ar  
  8   5   9  1   
  9   5  24  1   
 10   5  25  1   
 11   6  10  1   
 12   6  26  1   
 13   6  27  1   
 14   7  11  ar  
 15   7  28  1   
 16   8  12  ar  
 17   8  29  1   
 18   9  10  1   
 19   9  30  1   
 20   9  31  1   
 21  10  32  1   
 22  10  33  1   
 23  11  13  ar  
 24  11  14  1   
 25  12  13  ar  
 26  12  34  1   
 27  14  15  1   
 28  14  16  1   
 29  15  17  1   
 30  15  35  1   
 31  15  36  1   
 32  16  37  1   
 33  16  38  1   
 34  16  39  1   
 35  17  18  1   
 36  17  40  1   
 37  17  41  1   
 38  18  19  2   
 39  18  20  1   
 40  19  21  1   
 41  20  22  2   
 42  21  22  1   
 43  22  23  1   
 44  23  42  1   
 45  23  43  1   
 46  23  44  1   
@<TRIPOS>SUBSTRUCTURE
  1 ****   7 GROUP 4 **** **** 0

# MOE 2024.06 (io_trps.svl 2023.06)
