@<TRIPOS>MOLECULE
NONAME
51 54 1 0 0 
SMALL
USER_CHARGES


@<TRIPOS>ATOM
  1 O       -0.6590     1.0790     0.8130 O.2   1 <1>  -0.5700 
  2 C       -1.7500     1.5900     0.6490 C.2   1 <1>   0.5440 
  3 N       -2.8750     0.9290     1.0960 N.am  1 <1>  -0.6600 
  4 C       -1.8320     2.8720    -0.0210 C.ar  1 <1>   0.0860 
  5 C       -2.7840    -0.2370     2.0200 C.3   1 <1>   0.1400 
  6 C       -4.2420     1.1510     0.5500 C.3   1 <1>   0.1400 
  7 C       -1.2090     3.1130    -1.2320 C.ar  1 <1>  -0.1500 
  8 C       -2.5290     3.9510     0.5050 C.ar  1 <1>  -0.1500 
  9 C       -3.2190    -1.5040     1.2820 C.3   1 <1>  -0.1600 
 10 C       -4.6860    -0.1030    -0.2080 C.3   1 <1>  -0.1600 
 11 C       -1.3190     4.3470    -1.8470 C.ar  1 <1>   0.3930 
 12 C       -2.5810     5.1490    -0.1810 C.ar  1 <1>   0.1600 
 13 C       -4.6230    -1.3620     0.6760 C.3   1 <1>   0.4240 
 14 O       -0.6890     4.4980    -3.0310 O.3   1 <1>  -0.3630 
 15 N       -2.0010     5.3720    -1.3470 N.ar  1 <1>  -0.6200 
 16 O       -5.4840    -1.1650     1.7730 O.3   1 <1>  -0.5600 
 17 C       -4.9930    -2.6280    -0.1270 C.ar  1 <1>  -0.1430 
 18 C       -0.7250     5.7310    -3.7220 C.3   1 <1>   0.0400 
 19 C       -6.8350    -1.4590     1.5940 C.3   1 <1>   0.1200 
 20 C       -6.1130    -3.3860     0.1990 C.ar  1 <1>  -0.1430 
 21 C       -4.2100    -3.0330    -1.2030 C.ar  1 <1>  -0.1500 
 22 C       -6.9870    -2.9580     1.3600 C.3   1 <1>  -0.0170 
 23 C       -6.4350    -4.5230    -0.5260 C.ar  1 <1>  -0.1500 
 24 C       -4.5310    -4.1650    -1.9290 C.ar  1 <1>  -0.1500 
 25 C       -5.6430    -4.9190    -1.5980 C.ar  1 <1>   0.0830 
 26 O       -5.8870    -6.0160    -2.3580 O.3   1 <1>  -0.3630 
 27 C       -6.9820    -6.8640    -2.0910 C.3   1 <1>   0.0400 
 28 H       -3.4250    -0.0660     2.8680 H     1 <1>   0.0800 
 29 H       -1.7780    -0.3550     2.3860 H     1 <1>   0.0800 
 30 H       -4.2600     1.9910    -0.1210 H     1 <1>   0.0800 
 31 H       -4.9190     1.3500     1.3630 H     1 <1>   0.0800 
 32 H       -0.6310     2.3390    -1.7010 H     1 <1>   0.1500 
 33 H       -3.0250     3.8490     1.4530 H     1 <1>   0.1500 
 34 H       -3.2100    -2.3410     1.9560 H     1 <1>   0.0800 
 35 H       -2.4970    -1.7020     0.5130 H     1 <1>   0.0800 
 36 H       -4.0390    -0.2280    -1.0550 H     1 <1>   0.0800 
 37 H       -5.6800     0.0290    -0.5890 H     1 <1>   0.0800 
 38 H       -3.1290     5.9700     0.2510 H     1 <1>   0.1500 
 39 H       -0.1570     5.6280    -4.6290 H     1 <1>   0.0800 
 40 H       -0.2900     6.4920    -3.0970 H     1 <1>   0.0800 
 41 H       -1.7480     5.9730    -3.9510 H     1 <1>   0.0800 
 42 H       -7.2140    -0.8960     0.7600 H     1 <1>   0.0800 
 43 H       -7.3580    -1.1630     2.4870 H     1 <1>   0.0800 
 44 H       -3.3390    -2.4710    -1.4890 H     1 <1>   0.1500 
 45 H       -8.0180    -3.1810     1.1530 H     1 <1>   0.0800 
 46 H       -6.6970    -3.4900     2.2480 H     1 <1>   0.0800 
 47 H       -7.3020    -5.0880    -0.2470 H     1 <1>   0.1500 
 48 H       -3.9210    -4.4730    -2.7580 H     1 <1>   0.1500 
 49 H       -6.9680    -7.6620    -2.8100 H     1 <1>   0.0800 
 50 H       -7.8920    -6.2990    -2.1880 H     1 <1>   0.0800 
 51 H       -6.8790    -7.2640    -1.0980 H     1 <1>   0.0800 
@<TRIPOS>BOND
  1   1   2  2   
  2   2   3  am  
  3   2   4  1   
  4   3   5  1   
  5   3   6  1   
  6   4   7  ar  
  7   4   8  ar  
  8   5   9  1   
  9   5  28  1   
 10   5  29  1   
 11   6  10  1   
 12   6  30  1   
 13   6  31  1   
 14   7  11  ar  
 15   7  32  1   
 16   8  12  ar  
 17   8  33  1   
 18   9  13  1   
 19   9  34  1   
 20   9  35  1   
 21  10  13  1   
 22  10  36  1   
 23  10  37  1   
 24  11  14  1   
 25  11  15  ar  
 26  12  15  ar  
 27  12  38  1   
 28  13  16  1   
 29  13  17  1   
 30  14  18  1   
 31  16  19  1   
 32  17  20  ar  
 33  17  21  ar  
 34  18  39  1   
 35  18  40  1   
 36  18  41  1   
 37  19  22  1   
 38  19  42  1   
 39  19  43  1   
 40  20  22  1   
 41  20  23  ar  
 42  21  24  ar  
 43  21  44  1   
 44  22  45  1   
 45  22  46  1   
 46  23  25  ar  
 47  23  47  1   
 48  24  25  ar  
 49  24  48  1   
 50  25  26  1   
 51  26  27  1   
 52  27  49  1   
 53  27  50  1   
 54  27  51  1   
@<TRIPOS>SUBSTRUCTURE
  1 ****  10 GROUP 4 **** **** 0

# MOE 2024.06 (io_trps.svl 2023.06)
