@<TRIPOS>MOLECULE
NONAME
45 48 1 0 0 
SMALL
USER_CHARGES


@<TRIPOS>ATOM
  1 S        0.0370     0.2970     1.6750 S.3   1 <1>  -0.0800 
  2 C        1.2320    -0.8770     1.0690 C.2   1 <1>  -0.0450 
  3 C        0.9980     1.6740     1.1520 C.2   1 <1>  -0.1100 
  4 C        2.2600    -0.1840     0.5120 C.2   1 <1>   0.0620 
  5 C        1.0040    -2.2820     1.2450 C.2   1 <1>   0.7150 
  6 C        2.1300     1.2430     0.5690 C.2   1 <1>   0.0620 
  7 O        3.3380    -0.7490    -0.0730 O.3   1 <1>  -0.3420 
  8 O        1.9070    -3.0020     1.6370 O.2   1 <1>  -0.5700 
  9 N       -0.2160    -2.8630     0.9630 N.am  1 <1>  -0.6600 
 10 O        3.0970     2.0560     0.0660 O.3   1 <1>  -0.3420 
 11 C        4.2020     0.0880    -0.8180 C.3   1 <1>   0.1200 
 12 C       -1.2070    -2.2880     0.0150 C.3   1 <1>   0.1400 
 13 C       -0.4710    -4.3140     1.1110 C.3   1 <1>   0.1400 
 14 C        4.3620     1.4520    -0.1290 C.3   1 <1>   0.1200 
 15 C       -2.0670    -3.4660    -0.4720 C.3   1 <1>   0.2000 
 16 C       -1.2130    -4.7000    -0.1670 C.3   1 <1>  -0.0800 
 17 O       -3.2450    -3.5400     0.2790 O.3   1 <1>  -0.5600 
 18 C       -1.9970    -6.0200    -0.0490 C.3   1 <1>   0.0200 
 19 C       -4.2890    -2.7330    -0.1690 C.3   1 <1>   0.0400 
 20 C       -1.0930    -7.2360     0.0780 C.2   1 <1>  -0.0400 
 21 O       -1.6390    -8.4060     0.2790 O.3   1 <1>  -0.0190 
 22 C        0.2370    -7.4110     0.0260 C.2   1 <1>  -0.1500 
 23 N       -0.7480    -9.3510     0.3660 N.2   1 <1>  -0.4100 
 24 C        0.3930    -8.7800     0.2190 C.2   1 <1>   0.1080 
 25 C        1.7200    -9.5040     0.2520 C.3   1 <1>  -0.0590 
 26 H        0.6210     2.6620     1.3390 H     1 <1>   0.1500 
 27 H        5.1510    -0.4110    -0.9020 H     1 <1>   0.0800 
 28 H        3.7820     0.2120    -1.8000 H     1 <1>   0.0800 
 29 H       -1.8100    -1.5430     0.5020 H     1 <1>   0.0800 
 30 H       -0.6850    -1.8470    -0.8160 H     1 <1>   0.0800 
 31 H        0.4400    -4.8740     1.2300 H     1 <1>   0.0800 
 32 H       -1.0980    -4.4690     1.9730 H     1 <1>   0.0800 
 33 H        4.9560     2.1160    -0.7310 H     1 <1>   0.0800 
 34 H        4.8300     1.3330     0.8330 H     1 <1>   0.0800 
 35 H       -2.3150    -3.3970    -1.5180 H     1 <1>   0.0800 
 36 H       -0.4860    -4.7970    -0.9540 H     1 <1>   0.0800 
 37 H       -2.6140    -6.1460    -0.9200 H     1 <1>   0.0800 
 38 H       -2.6460    -5.9830     0.8080 H     1 <1>   0.0800 
 39 H       -5.1260    -2.8730     0.4930 H     1 <1>   0.0800 
 40 H       -4.5650    -3.0310    -1.1660 H     1 <1>   0.0800 
 41 H       -3.9850    -1.7020    -0.1510 H     1 <1>   0.0800 
 42 H        1.0300    -6.7020    -0.1260 H     1 <1>   0.1500 
 43 H        2.3380    -9.0940     1.0290 H     1 <1>   0.0800 
 44 H        2.2180    -9.3950    -0.6930 H     1 <1>   0.0800 
 45 H        1.5630   -10.5490     0.4450 H     1 <1>   0.0800 
@<TRIPOS>BOND
  1   1   2  1   
  2   1   3  1   
  3   2   4  2   
  4   2   5  1   
  5   3   6  2   
  6   3  26  1   
  7   4   6  1   
  8   4   7  1   
  9   5   8  2   
 10   5   9  am  
 11   6  10  1   
 12   7  11  1   
 13   9  12  1   
 14   9  13  1   
 15  10  14  1   
 16  11  14  1   
 17  11  27  1   
 18  11  28  1   
 19  12  15  1   
 20  12  29  1   
 21  12  30  1   
 22  13  16  1   
 23  13  31  1   
 24  13  32  1   
 25  14  33  1   
 26  14  34  1   
 27  15  16  1   
 28  15  17  1   
 29  15  35  1   
 30  16  18  1   
 31  16  36  1   
 32  17  19  1   
 33  18  20  1   
 34  18  37  1   
 35  18  38  1   
 36  19  39  1   
 37  19  40  1   
 38  19  41  1   
 39  20  21  1   
 40  20  22  2   
 41  21  23  1   
 42  22  24  1   
 43  22  42  1   
 44  23  24  2   
 45  24  25  1   
 46  25  43  1   
 47  25  44  1   
 48  25  45  1   
@<TRIPOS>SUBSTRUCTURE
  1 ****   9 GROUP 4 **** **** 0

# MOE 2024.06 (io_trps.svl 2023.06)
