@<TRIPOS>MOLECULE
NONAME
47 49 1 0 0 
SMALL
USER_CHARGES


@<TRIPOS>ATOM
  1 S        0.4260     0.2280    -1.7140 S.3   1 <1>  -0.0800 
  2 C        0.6560     1.6300    -0.6600 C.ar  1 <1>   0.0400 
  3 C        1.1860    -0.8510    -0.5370 C.2   1 <1>  -0.1400 
  4 C        1.2910     1.2440     0.5110 C.ar  1 <1>   0.0000 
  5 C        0.2750     2.9320    -0.9220 C.ar  1 <1>  -0.1500 
  6 C        1.5820    -0.1630     0.5500 C.2   1 <1>  -0.1500 
  7 C        1.2870    -2.3260    -0.9050 C.3   1 <1>   0.4970 
  8 C        1.5540     2.2230     1.4640 C.ar  1 <1>  -0.1500 
  9 C        0.5440     3.8910     0.0390 C.ar  1 <1>  -0.1500 
 10 N        0.0580    -3.0590    -0.3830 N.4   1 <1>  -0.9590 
 11 C        2.5780    -2.9590    -0.3360 C.2   1 <1>   0.9060 
 12 C        1.1810     3.5340     1.2250 C.ar  1 <1>  -0.1500 
 13 C        0.1040    -4.4810    -0.8200 C.3   1 <1>   0.3430 
 14 C       -1.2400    -2.3750    -0.6180 C.3   1 <1>   0.3430 
 15 O        3.5270    -3.1960    -1.0870 O.co2 1 <1>  -0.9000 
 16 O        2.5290    -3.3590     0.8390 O.co2 1 <1>  -0.9000 
 17 C       -1.0200    -5.2690    -0.1550 C.3   1 <1>  -0.1600 
 18 C       -2.3670    -3.1560     0.0480 C.3   1 <1>  -0.1600 
 19 C       -2.3770    -4.6110    -0.4120 C.3   1 <1>   0.2000 
 20 O       -3.3480    -5.2570     0.3400 O.3   1 <1>  -0.5600 
 21 C       -3.8870    -6.4110    -0.2350 C.3   1 <1>   0.1200 
 22 C       -4.9490    -6.9740     0.7040 C.3   1 <1>   0.1200 
 23 O       -5.4670    -8.1300     0.1250 O.3   1 <1>  -0.5600 
 24 C       -6.4570    -8.7440     0.8850 C.3   1 <1>   0.0400 
 25 H       -0.2130     3.1860    -1.8460 H     1 <1>   0.1500 
 26 H        2.0840    -0.5860     1.4050 H     1 <1>   0.1500 
 27 H        1.3450    -2.4140    -1.9750 H     1 <1>   0.0800 
 28 H        2.0490     1.9520     2.3800 H     1 <1>   0.1500 
 29 H        0.2620     4.9160    -0.1290 H     1 <1>   0.1500 
 30 H        0.2710    -3.0830     0.6310 H     1 <1>   0.4500 
 31 H        1.3850     4.2910     1.9630 H     1 <1>   0.1500 
 32 H        1.0520    -4.9200    -0.5460 H     1 <1>   0.0800 
 33 H        0.0030    -4.5360    -1.8910 H     1 <1>   0.0800 
 34 H       -1.4230    -2.3010    -1.6770 H     1 <1>   0.0800 
 35 H       -1.2110    -1.3780    -0.2070 H     1 <1>   0.0800 
 36 H       -0.8300    -5.3230     0.9030 H     1 <1>   0.0800 
 37 H       -1.0100    -6.2690    -0.5490 H     1 <1>   0.0800 
 38 H       -3.3060    -2.6960    -0.2010 H     1 <1>   0.0800 
 39 H       -2.2430    -3.1100     1.1160 H     1 <1>   0.0800 
 40 H       -2.6440    -4.6620    -1.4560 H     1 <1>   0.0800 
 41 H       -3.1060    -7.1370    -0.3730 H     1 <1>   0.0800 
 42 H       -4.3360    -6.1540    -1.1790 H     1 <1>   0.0800 
 43 H       -5.7470    -6.2640     0.8330 H     1 <1>   0.0800 
 44 H       -4.5110    -7.2300     1.6530 H     1 <1>   0.0800 
 45 H       -6.7890    -9.6210     0.3570 H     1 <1>   0.0800 
 46 H       -7.2810    -8.0640     1.0120 H     1 <1>   0.0800 
 47 H       -6.0490    -9.0290     1.8390 H     1 <1>   0.0800 
@<TRIPOS>BOND
  1   1   2  1   
  2   1   3  1   
  3   2   4  ar  
  4   2   5  ar  
  5   3   6  2   
  6   3   7  1   
  7   4   6  1   
  8   4   8  ar  
  9   5   9  ar  
 10   5  25  1   
 11   6  26  1   
 12   7  10  1   
 13   7  11  1   
 14   7  27  1   
 15   8  12  ar  
 16   8  28  1   
 17   9  12  ar  
 18   9  29  1   
 19  10  13  1   
 20  10  14  1   
 21  10  30  1   
 22  11  15  ar  
 23  11  16  ar  
 24  12  31  1   
 25  13  17  1   
 26  13  32  1   
 27  13  33  1   
 28  14  18  1   
 29  14  34  1   
 30  14  35  1   
 31  17  19  1   
 32  17  36  1   
 33  17  37  1   
 34  18  19  1   
 35  18  38  1   
 36  18  39  1   
 37  19  20  1   
 38  19  40  1   
 39  20  21  1   
 40  21  22  1   
 41  21  41  1   
 42  21  42  1   
 43  22  23  1   
 44  22  43  1   
 45  22  44  1   
 46  23  24  1   
 47  24  45  1   
 48  24  46  1   
 49  24  47  1   
@<TRIPOS>SUBSTRUCTURE
  1 ****  14 GROUP 4 **** **** 0

# MOE 2024.06 (io_trps.svl 2023.06)
