@<TRIPOS>MOLECULE
NONAME
44 45 1 0 0 
SMALL
USER_CHARGES


@<TRIPOS>ATOM
  1 F        0.1850     2.4600     0.3980 F     1 <1>  -0.1900 
  2 C        1.4080     2.4760     0.8570 C.ar  1 <1>   0.1900 
  3 C        1.6730     1.9610     2.1130 C.ar  1 <1>   0.1600 
  4 C        2.4050     3.0100     0.0760 C.ar  1 <1>  -0.1500 
  5 N        2.8890     1.9430     2.6440 N.ar  1 <1>  -0.6200 
  6 C        3.6890     3.0120     0.6110 C.ar  1 <1>   0.0860 
  7 C        3.8490     2.4560     1.8850 C.ar  1 <1>   0.1600 
  8 C        4.8270     3.5550    -0.1040 C.2   1 <1>   0.5440 
  9 O        5.9640     3.2370     0.1910 O.2   1 <1>  -0.5700 
 10 N        4.6900     4.4960    -1.0970 N.am  1 <1>  -0.6600 
 11 C        5.5510     4.4450    -2.3270 C.3   1 <1>   0.1400 
 12 C        4.0810     5.8180    -0.8040 C.3   1 <1>   0.1400 
 13 C        7.0090     4.8990    -2.0840 C.3   1 <1>   0.3430 
 14 C        5.0710     6.7040    -0.0350 C.3   1 <1>  -0.1600 
 15 N        7.1750     5.6200    -0.7870 N.4   1 <1>  -0.9590 
 16 C        6.4310     6.9090    -0.7120 C.3   1 <1>   0.3430 
 17 C        8.5920     5.7420    -0.3870 C.3   1 <1>   0.4810 
 18 C        8.6200     6.1950     1.0560 C.2   1 <1>  -0.2880 
 19 C        9.0370     7.3740     1.5340 C.2   1 <1>  -0.2760 
 20 C        9.0110     7.6870     3.0220 C.3   1 <1>  -0.1020 
 21 C        9.5850     8.5320     0.7100 C.3   1 <1>  -0.1020 
 22 H        0.8630     1.5530     2.6920 H     1 <1>   0.1500 
 23 H        2.1890     3.4000    -0.9020 H     1 <1>   0.1500 
 24 H        4.8430     2.4360     2.3020 H     1 <1>   0.1500 
 25 H        5.5660     3.4360    -2.7020 H     1 <1>   0.0800 
 26 H        5.1130     5.0570    -3.0960 H     1 <1>   0.0800 
 27 H        3.7890     6.2960    -1.7250 H     1 <1>   0.0800 
 28 H        3.1910     5.6850    -0.2120 H     1 <1>   0.0800 
 29 H        7.3410     5.5120    -2.9050 H     1 <1>   0.0800 
 30 H        7.6240     4.0130    -2.0690 H     1 <1>   0.0800 
 31 H        5.2210     6.3090     0.9550 H     1 <1>   0.0800 
 32 H        4.6170     7.6710     0.0890 H     1 <1>   0.0800 
 33 H        6.7350     4.9740    -0.1010 H     1 <1>   0.4500 
 34 H        6.9940     7.6180    -0.1270 H     1 <1>   0.0800 
 35 H        6.2990     7.3220    -1.6980 H     1 <1>   0.0800 
 36 H        9.0900     4.7890    -0.4720 H     1 <1>   0.0800 
 37 H        9.0960     6.4530    -1.0180 H     1 <1>   0.0800 
 38 H        8.2510     5.4220     1.7100 H     1 <1>   0.1500 
 39 H        8.3860     8.5410     3.2150 H     1 <1>   0.0800 
 40 H       10.0050     7.9020     3.3740 H     1 <1>   0.0800 
 41 H        8.6290     6.8550     3.5870 H     1 <1>   0.0800 
 42 H       10.5920     8.7540     1.0180 H     1 <1>   0.0800 
 43 H        8.9850     9.4120     0.8640 H     1 <1>   0.0800 
 44 H        9.6000     8.3160    -0.3410 H     1 <1>   0.0800 
@<TRIPOS>BOND
  1   1   2  1   
  2   2   3  ar  
  3   2   4  ar  
  4   3   5  ar  
  5   3  22  1   
  6   4   6  ar  
  7   4  23  1   
  8   5   7  ar  
  9   6   7  ar  
 10   6   8  1   
 11   7  24  1   
 12   8   9  2   
 13   8  10  am  
 14  10  11  1   
 15  10  12  1   
 16  11  13  1   
 17  11  25  1   
 18  11  26  1   
 19  12  14  1   
 20  12  27  1   
 21  12  28  1   
 22  13  15  1   
 23  13  29  1   
 24  13  30  1   
 25  14  16  1   
 26  14  31  1   
 27  14  32  1   
 28  15  16  1   
 29  15  17  1   
 30  15  33  1   
 31  16  34  1   
 32  16  35  1   
 33  17  18  1   
 34  17  36  1   
 35  17  37  1   
 36  18  19  2   
 37  18  38  1   
 38  19  20  1   
 39  19  21  1   
 40  20  39  1   
 41  20  40  1   
 42  20  41  1   
 43  21  42  1   
 44  21  43  1   
 45  21  44  1   
@<TRIPOS>SUBSTRUCTURE
  1 ****   8 GROUP 4 **** **** 0

# MOE 2024.06 (io_trps.svl 2023.06)
