@<TRIPOS>MOLECULE
NONAME
49 52 1 0 0 
SMALL
USER_CHARGES


@<TRIPOS>ATOM
  1 S        0.6630    -0.2750     2.7740 S.3   1 <1>  -0.0800 
  2 C        1.0960    -0.0670     1.0980 C.2   1 <1>   0.1980 
  3 C       -0.7650    -1.1220     2.2680 C.2   1 <1>  -0.1100 
  4 N        0.2760    -0.5890     0.2770 N.2   1 <1>  -0.5650 
  5 C        2.3690     0.7020     0.7680 C.3   1 <1>   0.5230 
  6 C       -0.8180    -1.1970     0.9190 C.2   1 <1>   0.1410 
  7 N        2.4000     0.9980    -0.7050 N.4   1 <1>  -0.9590 
  8 C       -1.8900    -1.8080     0.1370 C.2   1 <1>   0.7160 
  9 C        3.7760     1.2520    -1.2220 C.3   1 <1>   0.2630 
 10 C        1.4480     2.0960    -1.0640 C.3   1 <1>   0.2630 
 11 O       -2.3320    -1.2180    -0.8340 O.2   1 <1>  -0.5700 
 12 N       -2.4310    -3.0350     0.4700 N.am  1 <1>  -0.6600 
 13 C       -3.7290    -3.4990    -0.0990 C.3   1 <1>   0.1400 
 14 C       -1.7140    -4.0720     1.2640 C.3   1 <1>   0.1400 
 15 C       -3.4870    -4.7190    -0.9890 C.3   1 <1>  -0.1600 
 16 C       -1.4620    -5.2970     0.3820 C.3   1 <1>  -0.1600 
 17 C       -2.7600    -5.8350    -0.2280 C.3   1 <1>   0.4610 
 18 O       -3.5580    -6.2450     0.8690 O.3   1 <1>  -0.5600 
 19 C       -2.4700    -7.0310    -1.1380 C.2   1 <1>  -0.1810 
 20 C       -4.6190    -7.1410     0.6310 C.3   1 <1>   0.1200 
 21 C       -3.0790    -8.2080    -0.9440 C.2   1 <1>  -0.1400 
 22 C       -1.5630    -7.0480    -2.2510 C.2   1 <1>  -0.1500 
 23 C       -4.0990    -8.4960     0.1240 C.3   1 <1>   0.0200 
 24 S       -2.5580    -9.4130    -2.1020 S.3   1 <1>  -0.0800 
 25 C       -1.4940    -8.2430    -2.8700 C.2   1 <1>  -0.1100 
 26 H       -1.4410    -1.4780     3.0260 H     1 <1>   0.1500 
 27 H        3.2150     0.0950     1.0410 H     1 <1>   0.0800 
 28 H        2.4020     1.6170     1.3340 H     1 <1>   0.0800 
 29 H        2.0100     0.1380    -1.1370 H     1 <1>   0.4500 
 30 H        4.1910     2.1390    -0.7700 H     1 <1>   0.0800 
 31 H        3.7510     1.3920    -2.2920 H     1 <1>   0.0800 
 32 H        4.4210     0.4160    -1.0040 H     1 <1>   0.0800 
 33 H        1.7450     3.0230    -0.6000 H     1 <1>   0.0800 
 34 H        0.4500     1.8470    -0.7370 H     1 <1>   0.0800 
 35 H        1.4250     2.2360    -2.1330 H     1 <1>   0.0800 
 36 H       -4.1990    -2.7180    -0.6720 H     1 <1>   0.0800 
 37 H       -4.3920    -3.7600     0.7090 H     1 <1>   0.0800 
 38 H       -2.3180    -4.3490     2.1130 H     1 <1>   0.0800 
 39 H       -0.7720    -3.7040     1.6260 H     1 <1>   0.0800 
 40 H       -2.8900    -4.4130    -1.8280 H     1 <1>   0.0800 
 41 H       -4.4180    -5.0810    -1.3810 H     1 <1>   0.0800 
 42 H       -0.9980    -6.0760     0.9600 H     1 <1>   0.0800 
 43 H       -0.7800    -5.0220    -0.4000 H     1 <1>   0.0800 
 44 H       -5.2820    -6.7010    -0.0910 H     1 <1>   0.0800 
 45 H       -5.1530    -7.2710     1.5550 H     1 <1>   0.0800 
 46 H       -1.0090    -6.1710    -2.5360 H     1 <1>   0.1500 
 47 H       -4.9120    -9.0720    -0.2780 H     1 <1>   0.0800 
 48 H       -3.6450    -9.0470     0.9270 H     1 <1>   0.0800 
 49 H       -0.9220    -8.5790    -3.7160 H     1 <1>   0.1500 
@<TRIPOS>BOND
  1   1   2  1   
  2   1   3  1   
  3   2   4  2   
  4   2   5  1   
  5   3   6  2   
  6   3  26  1   
  7   4   6  1   
  8   5   7  1   
  9   5  27  1   
 10   5  28  1   
 11   6   8  1   
 12   7   9  1   
 13   7  10  1   
 14   7  29  1   
 15   8  11  2   
 16   8  12  am  
 17   9  30  1   
 18   9  31  1   
 19   9  32  1   
 20  10  33  1   
 21  10  34  1   
 22  10  35  1   
 23  12  13  1   
 24  12  14  1   
 25  13  15  1   
 26  13  36  1   
 27  13  37  1   
 28  14  16  1   
 29  14  38  1   
 30  14  39  1   
 31  15  17  1   
 32  15  40  1   
 33  15  41  1   
 34  16  17  1   
 35  16  42  1   
 36  16  43  1   
 37  17  18  1   
 38  17  19  1   
 39  18  20  1   
 40  19  21  2   
 41  19  22  1   
 42  20  23  1   
 43  20  44  1   
 44  20  45  1   
 45  21  23  1   
 46  21  24  1   
 47  22  25  2   
 48  22  46  1   
 49  23  47  1   
 50  23  48  1   
 51  24  25  1   
 52  25  49  1   
@<TRIPOS>SUBSTRUCTURE
  1 ****  12 GROUP 4 **** **** 0

# MOE 2024.06 (io_trps.svl 2023.06)
