@<TRIPOS>MOLECULE
NONAME
44 46 1 0 0 
SMALL
USER_CHARGES


@<TRIPOS>ATOM
  1 CL       3.1140     1.8110    -3.8330 Cl    1 <1>  -0.1770 
  2 C        3.0000     1.8630    -2.0910 C.ar  1 <1>   0.1770 
  3 C        2.9900     3.0720    -1.4160 C.ar  1 <1>   0.1900 
  4 C        2.9340     0.6800    -1.3780 C.ar  1 <1>  -0.1500 
  5 F        3.0670     4.1870    -2.0960 F     1 <1>  -0.1900 
  6 C        2.9190     3.1380    -0.0320 C.ar  1 <1>  -0.1440 
  7 C        2.8590     0.7260     0.0060 C.ar  1 <1>  -0.1500 
  8 C        2.8510     1.9430     0.6750 C.ar  1 <1>  -0.1500 
  9 C        2.9120     4.4740     0.6890 C.3   1 <1>   0.4870 
 10 N        4.1560     5.2400     0.3720 N.4   1 <1>  -0.9590 
 11 C        4.1470     6.6220     0.9310 C.3   1 <1>   0.4860 
 12 C        5.4300     4.4790     0.6420 C.3   1 <1>   0.3430 
 13 C        2.8740     7.3330     0.5270 C.ar  1 <1>  -0.1430 
 14 C        6.5730     4.8890    -0.3260 C.3   1 <1>   0.2200 
 15 C        2.6880     7.7530    -0.7840 C.ar  1 <1>   0.1600 
 16 C        1.8750     7.5680     1.4540 C.ar  1 <1>  -0.1500 
 17 N        6.0230     5.3760    -1.6070 N.am  1 <1>  -0.7300 
 18 C        7.4120     6.0850     0.1770 C.3   1 <1>  -0.1600 
 19 N        1.5970     8.3500    -1.2270 N.ar  1 <1>  -0.6200 
 20 C        0.7380     8.2010     1.0010 C.ar  1 <1>  -0.1500 
 21 C        6.3400     6.6440    -1.8940 C.2   1 <1>   0.5690 
 22 C        7.2580     7.2210    -0.8570 C.3   1 <1>  -0.0990 
 23 C        0.6490     8.5650    -0.3310 C.ar  1 <1>   0.1600 
 24 O        5.8920     7.2530    -2.8240 O.2   1 <1>  -0.5700 
 25 H        2.9390    -0.2610    -1.9010 H     1 <1>   0.1500 
 26 H        2.8020    -0.1960     0.5640 H     1 <1>   0.1500 
 27 H        2.7850     1.9380     1.7510 H     1 <1>   0.1500 
 28 H        2.8380     4.3150     1.7520 H     1 <1>   0.0800 
 29 H        2.0450     5.0310     0.3700 H     1 <1>   0.0800 
 30 H        4.1420     5.3610    -0.6580 H     1 <1>   0.4500 
 31 H        4.2150     6.5870     2.0060 H     1 <1>   0.0800 
 32 H        4.9900     7.1780     0.5570 H     1 <1>   0.0800 
 33 H        5.7440     4.6050     1.6640 H     1 <1>   0.0800 
 34 H        5.2550     3.4270     0.4920 H     1 <1>   0.0800 
 35 H        7.2230     4.0470    -0.5040 H     1 <1>   0.0800 
 36 H        3.4640     7.5930    -1.5170 H     1 <1>   0.1500 
 37 H        1.9610     7.2830     2.4890 H     1 <1>   0.1500 
 38 H        5.6540     4.7620    -2.3440 H     1 <1>   0.3700 
 39 H        7.1080     6.4110     1.1560 H     1 <1>   0.0800 
 40 H        8.4470     5.7930     0.2400 H     1 <1>   0.0800 
 41 H       -0.0770     8.4170     1.6690 H     1 <1>   0.1500 
 42 H        8.2000     7.4670    -1.3140 H     1 <1>   0.0800 
 43 H        6.8240     8.1060    -0.4300 H     1 <1>   0.0800 
 44 H       -0.2440     9.0580    -0.6780 H     1 <1>   0.1500 
@<TRIPOS>BOND
  1   1   2  1   
  2   2   3  ar  
  3   2   4  ar  
  4   3   5  1   
  5   3   6  ar  
  6   4   7  ar  
  7   4  25  1   
  8   6   8  ar  
  9   6   9  1   
 10   7   8  ar  
 11   7  26  1   
 12   8  27  1   
 13   9  10  1   
 14   9  28  1   
 15   9  29  1   
 16  10  11  1   
 17  10  12  1   
 18  10  30  1   
 19  11  13  1   
 20  11  31  1   
 21  11  32  1   
 22  12  14  1   
 23  12  33  1   
 24  12  34  1   
 25  13  15  ar  
 26  13  16  ar  
 27  14  17  1   
 28  14  18  1   
 29  14  35  1   
 30  15  19  ar  
 31  15  36  1   
 32  16  20  ar  
 33  16  37  1   
 34  17  21  am  
 35  17  38  1   
 36  18  22  1   
 37  18  39  1   
 38  18  40  1   
 39  19  23  ar  
 40  20  23  ar  
 41  20  41  1   
 42  21  22  1   
 43  21  24  2   
 44  22  42  1   
 45  22  43  1   
 46  23  44  1   
@<TRIPOS>SUBSTRUCTURE
  1 ****  10 GROUP 4 **** **** 0

# MOE 2024.06 (io_trps.svl 2023.06)
