@<TRIPOS>MOLECULE
NONAME
51 52 1 0 0 
SMALL
USER_CHARGES


@<TRIPOS>ATOM
  1 O       -1.7450     2.8180    -1.5710 O.co2 1 <1>  -0.9000 
  2 C       -0.6080     3.1080    -1.1650 C.2   1 <1>   0.9060 
  3 O        0.2470     3.5350    -1.9510 O.co2 1 <1>  -0.9000 
  4 C       -0.2860     2.9200     0.3310 C.3   1 <1>  -0.1060 
  5 C       -1.4650     3.4330     1.1960 C.3   1 <1>   0.2000 
  6 C        0.9620     3.7440     0.7310 C.3   1 <1>   0.1400 
  7 C       -0.0380     1.4140     0.6450 C.3   1 <1>  -0.1600 
  8 O       -2.6310     2.7760     0.8650 O.3   1 <1>  -0.6800 
  9 C       -1.7170     4.9320     1.0240 C.3   1 <1>  -0.1600 
 10 N        0.7100     5.2100     0.6560 N.am  1 <1>  -0.6600 
 11 C        1.1560     0.7890    -0.0980 C.3   1 <1>  -0.1600 
 12 C       -0.4670     5.7200     1.4010 C.3   1 <1>   0.1400 
 13 C        1.3600     5.9200    -0.3180 C.2   1 <1>   0.5690 
 14 C        1.2700    -0.7070     0.2090 C.3   1 <1>  -0.2400 
 15 O        2.5710     5.9000    -0.3980 O.2   1 <1>  -0.5700 
 16 C        0.5660     6.6940    -1.3730 C.3   1 <1>   0.1810 
 17 O       -0.0350     7.8890    -0.8760 O.3   1 <1>  -0.3630 
 18 C        0.6840     8.9890    -0.5390 C.ar  1 <1>   0.0820 
 19 C        2.0590     9.1080    -0.7060 C.ar  1 <1>  -0.1500 
 20 C       -0.0240    10.0470     0.0040 C.ar  1 <1>  -0.1500 
 21 C        2.7210    10.2670    -0.3280 C.ar  1 <1>  -0.1440 
 22 C        0.6290    11.2060     0.3790 C.ar  1 <1>  -0.1500 
 23 C        2.0010    11.3260     0.2180 C.ar  1 <1>  -0.1440 
 24 C        4.2290    10.3440    -0.5200 C.3   1 <1>  -0.0970 
 25 C        2.6870    12.6150     0.6450 C.3   1 <1>  -0.0970 
 26 H       -1.2730     3.2260     2.2350 H     1 <1>   0.0800 
 27 H        1.7810     3.4960     0.0750 H     1 <1>   0.0800 
 28 H        1.2590     3.4990     1.7340 H     1 <1>   0.0800 
 29 H        0.1030     1.2890     1.7040 H     1 <1>   0.0800 
 30 H       -0.9240     0.8640     0.3730 H     1 <1>   0.0800 
 31 H       -2.6060     2.6940    -0.1380 H     1 <1>   0.4000 
 32 H       -1.9810     5.1550     0.0050 H     1 <1>   0.0800 
 33 H       -2.5290     5.2350     1.6580 H     1 <1>   0.0800 
 34 H        1.0290     0.9210    -1.1610 H     1 <1>   0.0800 
 35 H        2.0720     1.2730     0.1870 H     1 <1>   0.0800 
 36 H       -0.2750     5.6090     2.4540 H     1 <1>   0.0800 
 37 H       -0.6140     6.7670     1.2050 H     1 <1>   0.0800 
 38 H        0.3760    -1.2180    -0.1010 H     1 <1>   0.0800 
 39 H        1.4140    -0.8640     1.2630 H     1 <1>   0.0800 
 40 H        2.1060    -1.1260    -0.3210 H     1 <1>   0.0800 
 41 H       -0.2250     6.0610    -1.7310 H     1 <1>   0.0800 
 42 H        1.1950     6.9410    -2.2060 H     1 <1>   0.0800 
 43 H        2.6280     8.3020    -1.1280 H     1 <1>   0.1500 
 44 H       -1.0870     9.9550     0.1290 H     1 <1>   0.1500 
 45 H        0.0590    12.0160     0.7980 H     1 <1>   0.1500 
 46 H        4.6130     9.4270    -0.9290 H     1 <1>   0.0800 
 47 H        4.7110    10.5170     0.4250 H     1 <1>   0.0800 
 48 H        4.4740    11.1440    -1.1940 H     1 <1>   0.0800 
 49 H        1.9740    13.3230     1.0280 H     1 <1>   0.0800 
 50 H        3.1880    13.0610    -0.1940 H     1 <1>   0.0800 
 51 H        3.4060    12.4100     1.4170 H     1 <1>   0.0800 
@<TRIPOS>BOND
  1   1   2  ar  
  2   2   3  ar  
  3   2   4  1   
  4   4   5  1   
  5   4   6  1   
  6   4   7  1   
  7   5   8  1   
  8   5   9  1   
  9   5  26  1   
 10   6  10  1   
 11   6  27  1   
 12   6  28  1   
 13   7  11  1   
 14   7  29  1   
 15   7  30  1   
 16   8  31  1   
 17   9  12  1   
 18   9  32  1   
 19   9  33  1   
 20  10  12  1   
 21  10  13  am  
 22  11  14  1   
 23  11  34  1   
 24  11  35  1   
 25  12  36  1   
 26  12  37  1   
 27  13  15  2   
 28  13  16  1   
 29  14  38  1   
 30  14  39  1   
 31  14  40  1   
 32  16  17  1   
 33  16  41  1   
 34  16  42  1   
 35  17  18  1   
 36  18  19  ar  
 37  18  20  ar  
 38  19  21  ar  
 39  19  43  1   
 40  20  22  ar  
 41  20  44  1   
 42  21  23  ar  
 43  21  24  1   
 44  22  23  ar  
 45  22  45  1   
 46  23  25  1   
 47  24  46  1   
 48  24  47  1   
 49  24  48  1   
 50  25  49  1   
 51  25  50  1   
 52  25  51  1   
@<TRIPOS>SUBSTRUCTURE
  1 ****  13 GROUP 4 **** **** 0

# MOE 2024.06 (io_trps.svl 2023.06)
