@<TRIPOS>MOLECULE
NONAME
48 50 1 0 0 
SMALL
USER_CHARGES


@<TRIPOS>ATOM
  1 O       -0.8350    -0.2910     0.2160 O.3   1 <1>  -0.3630 
  2 C       -2.0480    -0.6280     0.7130 C.ar  1 <1>   0.0830 
  3 C       -0.5440     1.0310    -0.1780 C.3   1 <1>   0.2580 
  4 C       -2.2210    -1.9570     1.0600 C.ar  1 <1>  -0.1500 
  5 C       -3.0990     0.2690     0.8830 C.ar  1 <1>  -0.1500 
  6 C        0.8760     1.0580    -0.7090 C.2   1 <1>  -0.2880 
  7 C       -3.4320    -2.4060     1.5640 C.ar  1 <1>  -0.1430 
  8 C       -4.3060    -0.1730     1.3940 C.ar  1 <1>  -0.1500 
  9 C        1.2390     1.4470    -1.9350 C.2   1 <1>  -0.3000 
 10 C       -4.4740    -1.5050     1.7330 C.ar  1 <1>  -0.1500 
 11 C       -3.6250    -3.8670     1.9190 C.3   1 <1>   0.4860 
 12 N       -3.6360    -4.6750     0.6670 N.4   1 <1>  -0.9590 
 13 C       -4.7940    -4.2920    -0.2020 C.3   1 <1>   0.3430 
 14 C       -3.7920    -6.1300     0.9810 C.3   1 <1>   0.3430 
 15 C       -5.8750    -5.3390     0.0730 C.3   1 <1>   0.2000 
 16 C       -5.0700    -6.6200     0.2790 C.3   1 <1>  -0.0800 
 17 O       -6.5010    -5.0220     1.2750 O.3   1 <1>  -0.6800 
 18 C       -4.7740    -7.3240    -1.0640 C.3   1 <1>  -0.0170 
 19 C       -4.0710    -8.6610    -0.8710 C.ar  1 <1>   0.1670 
 20 N       -2.7980    -8.6070    -0.5150 N.ar  1 <1>  -0.6200 
 21 C       -4.7640    -9.8540    -1.0730 C.ar  1 <1>   0.1600 
 22 C       -2.2660    -9.8140    -0.3860 C.ar  1 <1>   0.1600 
 23 N       -4.2370   -11.0570    -0.9320 N.ar  1 <1>  -0.6200 
 24 C       -2.9630   -10.9990    -0.5870 C.ar  1 <1>   0.1600 
 25 H       -1.2430     1.3220    -0.9430 H     1 <1>   0.0800 
 26 H       -0.6390     1.6730     0.6800 H     1 <1>   0.0800 
 27 H       -1.3860    -2.6220     0.9280 H     1 <1>   0.1500 
 28 H       -2.9980     1.3070     0.6280 H     1 <1>   0.1500 
 29 H        1.5860     0.7180     0.0250 H     1 <1>   0.1500 
 30 H       -5.1170     0.5230     1.5300 H     1 <1>   0.1500 
 31 H        2.2580     1.4520    -2.2840 H     1 <1>   0.1500 
 32 H        0.5560     1.7880    -2.6940 H     1 <1>   0.1500 
 33 H       -5.4230    -1.8260     2.1310 H     1 <1>   0.1500 
 34 H       -4.5560    -3.9940     2.4480 H     1 <1>   0.0800 
 35 H       -2.8200    -4.1870     2.5610 H     1 <1>   0.0800 
 36 H       -2.7560    -4.4930     0.1690 H     1 <1>   0.4500 
 37 H       -5.1540    -3.2960     0.0000 H     1 <1>   0.0800 
 38 H       -4.4990    -4.3530    -1.2360 H     1 <1>   0.0800 
 39 H       -2.9230    -6.6810     0.6640 H     1 <1>   0.0800 
 40 H       -3.9070    -6.2630     2.0450 H     1 <1>   0.0800 
 41 H       -6.6170    -5.3900    -0.7060 H     1 <1>   0.0800 
 42 H       -5.6000    -7.3120     0.9100 H     1 <1>   0.0800 
 43 H       -7.3160    -5.5530     1.4030 H     1 <1>   0.4000 
 44 H       -4.1580    -6.7050    -1.6930 H     1 <1>   0.0800 
 45 H       -5.6980    -7.4920    -1.5890 H     1 <1>   0.0800 
 46 H       -5.7990    -9.8190    -1.3640 H     1 <1>   0.1500 
 47 H       -1.2280    -9.8730    -0.1090 H     1 <1>   0.1500 
 48 H       -2.4460   -11.9340    -0.4570 H     1 <1>   0.1500 
@<TRIPOS>BOND
  1   1   2  1   
  2   1   3  1   
  3   2   4  ar  
  4   2   5  ar  
  5   3   6  1   
  6   3  25  1   
  7   3  26  1   
  8   4   7  ar  
  9   4  27  1   
 10   5   8  ar  
 11   5  28  1   
 12   6   9  2   
 13   6  29  1   
 14   7  10  ar  
 15   7  11  1   
 16   8  10  ar  
 17   8  30  1   
 18   9  31  1   
 19   9  32  1   
 20  10  33  1   
 21  11  12  1   
 22  11  34  1   
 23  11  35  1   
 24  12  13  1   
 25  12  14  1   
 26  12  36  1   
 27  13  15  1   
 28  13  37  1   
 29  13  38  1   
 30  14  16  1   
 31  14  39  1   
 32  14  40  1   
 33  15  16  1   
 34  15  17  1   
 35  15  41  1   
 36  16  18  1   
 37  16  42  1   
 38  17  43  1   
 39  18  19  1   
 40  18  44  1   
 41  18  45  1   
 42  19  20  ar  
 43  19  21  ar  
 44  20  22  ar  
 45  21  23  ar  
 46  21  46  1   
 47  22  24  ar  
 48  22  47  1   
 49  23  24  ar  
 50  24  48  1   
@<TRIPOS>SUBSTRUCTURE
  1 ****  12 GROUP 4 **** **** 0

# MOE 2024.06 (io_trps.svl 2023.06)
