@<TRIPOS>MOLECULE
NONAME
54 56 1 0 0 
SMALL
USER_CHARGES


@<TRIPOS>ATOM
  1 O       -1.5900    -1.0430     0.0380 O.co2 1 <1>  -0.9000 
  2 C       -1.1450    -2.1930    -0.0620 C.2   1 <1>   1.0330 
  3 O       -1.3240    -2.8360    -1.1110 O.co2 1 <1>  -0.9000 
  4 C       -0.4840    -2.8300     1.0200 C.2   1 <1>  -0.2330 
  5 C       -1.1170    -3.5620     2.0180 C.2   1 <1>   0.3720 
  6 C        0.8370    -2.9810     1.2880 C.2   1 <1>   0.0870 
  7 N       -0.2600    -4.1500     2.7730 N.2   1 <1>  -0.4100 
  8 N       -2.4920    -3.7400     2.2070 N.pl3 1 <1>  -0.8210 
  9 O        0.9140    -3.7710     2.3340 O.3   1 <1>  -0.0190 
 10 C        2.0340    -2.4910     0.6460 C.ar  1 <1>   0.0530 
 11 C       -3.2560    -4.3900     1.0900 C.3   1 <1>   0.2090 
 12 C       -3.1370    -2.4570     2.6180 C.3   1 <1>   0.1290 
 13 C        3.2780    -3.0710     0.9030 C.ar  1 <1>  -0.1500 
 14 C        2.0050    -1.4250    -0.2550 C.ar  1 <1>  -0.1500 
 15 C       -2.9840    -5.9060     1.0020 C.3   1 <1>   0.3430 
 16 C        4.4290    -2.6190     0.2850 C.ar  1 <1>  -0.1500 
 17 C        3.1510    -0.9680    -0.8790 C.ar  1 <1>  -0.1500 
 18 N       -1.5290    -6.2390     0.8840 N.4   1 <1>  -0.9590 
 19 C        4.3780    -1.5660    -0.6120 C.ar  1 <1>   0.0830 
 20 C       -0.9820    -5.8920    -0.4670 C.3   1 <1>   0.4230 
 21 C       -1.2180    -7.6020     1.3950 C.3   1 <1>   0.2630 
 22 O        5.5470    -1.1810    -1.1790 O.3   1 <1>  -0.3630 
 23 C       -1.4100    -6.8770    -1.5560 C.3   1 <1>  -0.1600 
 24 C        0.5440    -5.9580    -0.4800 C.3   1 <1>  -0.1600 
 25 C        5.5960    -0.1250    -2.1120 C.3   1 <1>   0.0400 
 26 C       -0.3110    -7.9400    -1.6670 C.3   1 <1>  -0.1600 
 27 C        0.9500    -7.3200    -1.0570 C.3   1 <1>  -0.1600 
 28 H       -3.0410    -3.9230     0.1490 H     1 <1>   0.0800 
 29 H       -4.3090    -4.2550     1.2660 H     1 <1>   0.0800 
 30 H       -2.4820    -1.9060     3.2720 H     1 <1>   0.0800 
 31 H       -4.0540    -2.6580     3.1420 H     1 <1>   0.0800 
 32 H       -3.3470    -1.8450     1.7550 H     1 <1>   0.0800 
 33 H        3.3470    -3.8900     1.5960 H     1 <1>   0.1500 
 34 H        1.0720    -0.9360    -0.4760 H     1 <1>   0.1500 
 35 H       -3.5240    -6.3170     0.1670 H     1 <1>   0.0800 
 36 H       -3.3750    -6.3520     1.9010 H     1 <1>   0.0800 
 37 H        5.3780    -3.0780     0.4950 H     1 <1>   0.1500 
 38 H        3.0650    -0.1470    -1.5650 H     1 <1>   0.1500 
 39 H       -1.0800    -5.5610     1.5350 H     1 <1>   0.4500 
 40 H       -1.3030    -4.9030    -0.7310 H     1 <1>   0.0800 
 41 H       -1.6870    -8.3480     0.7780 H     1 <1>   0.0800 
 42 H       -1.5730    -7.7070     2.4070 H     1 <1>   0.0800 
 43 H       -0.1530    -7.7640     1.3890 H     1 <1>   0.0800 
 44 H       -1.4380    -6.3280    -2.4820 H     1 <1>   0.0800 
 45 H       -2.3820    -7.3020    -1.3920 H     1 <1>   0.0800 
 46 H        0.9770    -5.7790     0.4870 H     1 <1>   0.0800 
 47 H        0.8910    -5.1860    -1.1460 H     1 <1>   0.0800 
 48 H        6.6170    -0.0040    -2.4250 H     1 <1>   0.0800 
 49 H        5.2480     0.7750    -1.6370 H     1 <1>   0.0800 
 50 H        4.9800    -0.3780    -2.9570 H     1 <1>   0.0800 
 51 H       -0.1500    -8.2160    -2.6960 H     1 <1>   0.0800 
 52 H       -0.5870    -8.8240    -1.1200 H     1 <1>   0.0800 
 53 H        1.3450    -7.9590    -0.2860 H     1 <1>   0.0800 
 54 H        1.7110    -7.1890    -1.8100 H     1 <1>   0.0800 
@<TRIPOS>BOND
  1   1   2  ar  
  2   2   3  ar  
  3   2   4  1   
  4   4   5  1   
  5   4   6  2   
  6   5   7  2   
  7   5   8  1   
  8   6   9  1   
  9   6  10  1   
 10   7   9  1   
 11   8  11  1   
 12   8  12  1   
 13  10  13  ar  
 14  10  14  ar  
 15  11  15  1   
 16  11  28  1   
 17  11  29  1   
 18  12  30  1   
 19  12  31  1   
 20  12  32  1   
 21  13  16  ar  
 22  13  33  1   
 23  14  17  ar  
 24  14  34  1   
 25  15  18  1   
 26  15  35  1   
 27  15  36  1   
 28  16  19  ar  
 29  16  37  1   
 30  17  19  ar  
 31  17  38  1   
 32  18  20  1   
 33  18  21  1   
 34  18  39  1   
 35  19  22  1   
 36  20  23  1   
 37  20  24  1   
 38  20  40  1   
 39  21  41  1   
 40  21  42  1   
 41  21  43  1   
 42  22  25  1   
 43  23  26  1   
 44  23  44  1   
 45  23  45  1   
 46  24  27  1   
 47  24  46  1   
 48  24  47  1   
 49  25  48  1   
 50  25  49  1   
 51  25  50  1   
 52  26  27  1   
 53  26  51  1   
 54  26  52  1   
 55  27  53  1   
 56  27  54  1   
@<TRIPOS>SUBSTRUCTURE
  1 ****   6 GROUP 4 **** **** 0

# MOE 2024.06 (io_trps.svl 2023.06)
