@<TRIPOS>MOLECULE
NONAME
62 64 1 0 0 
SMALL
USER_CHARGES


@<TRIPOS>ATOM
  1 S       -0.0400     0.9020    -1.1590 S.o2  1 <1>   1.4470 
  2 O       -1.2650     0.2360    -1.5600 O.2   1 <1>  -0.6500 
  3 O        0.6420     1.7000    -2.1560 O.2   1 <1>  -0.6500 
  4 N       -0.4770     1.9330     0.1170 N.am  1 <1>  -0.8490 
  5 C        1.0900    -0.3090    -0.4270 C.ar  1 <1>  -0.0090 
  6 C       -1.1970     3.1350    -0.3080 C.3   1 <1>   0.1960 
  7 C       -1.0390     1.2380     1.2880 C.3   1 <1>   0.1960 
  8 C        2.2920     0.0730     0.1480 C.ar  1 <1>   0.0820 
  9 C        0.7790    -1.6630    -0.4170 C.ar  1 <1>  -0.1500 
 10 C       -2.6860     2.8340    -0.4870 C.3   1 <1>  -0.1600 
 11 C       -2.2780     1.9340     1.8630 C.3   1 <1>  -0.1600 
 12 O        2.6480     1.3710     0.1900 O.3   1 <1>  -0.3620 
 13 C        3.1360    -0.8660     0.7140 C.ar  1 <1>  -0.1500 
 14 C        1.6120    -2.6290     0.1360 C.ar  1 <1>  -0.1430 
 15 C       -3.3410     2.2480     0.7890 C.3   1 <1>   0.2800 
 16 C        3.6100     1.7920    -0.7510 C.3   1 <1>   0.0400 
 17 C        2.8140    -2.2130     0.7180 C.ar  1 <1>  -0.1430 
 18 C        1.1020    -4.0800     0.0540 C.3   1 <1>   0.0630 
 19 O       -4.0970     3.3050     1.3400 O.3   1 <1>  -0.5600 
 20 C       -4.2430     0.9970     0.5140 C.3   1 <1>   0.2000 
 21 C        3.8250    -3.1480     1.3700 C.3   1 <1>  -0.0970 
 22 C        0.5210    -4.5490     1.3920 C.3   1 <1>  -0.2400 
 23 C        2.1180    -5.0810    -0.5080 C.3   1 <1>  -0.2400 
 24 C       -5.4960     3.3020     1.2390 C.3   1 <1>   0.1200 
 25 O       -3.5220    -0.0930    -0.0050 O.3   1 <1>  -0.6800 
 26 C       -5.5270     1.3240    -0.3140 C.3   1 <1>   0.2800 
 27 C       -5.9390     2.7930    -0.1360 C.3   1 <1>  -0.1600 
 28 O       -6.5610     0.5710     0.2110 O.3   1 <1>  -0.6800 
 29 C       -5.4750     0.9540    -1.8040 C.3   1 <1>  -0.2400 
 30 H       -1.0740     3.9010     0.4390 H     1 <1>   0.0800 
 31 H       -0.7800     3.5160    -1.2260 H     1 <1>   0.0800 
 32 H       -1.2960     0.2240     1.0340 H     1 <1>   0.0800 
 33 H       -0.2780     1.1860     2.0480 H     1 <1>   0.0800 
 34 H       -0.1560    -1.9620    -0.8610 H     1 <1>   0.1500 
 35 H       -2.7920     2.1650    -1.3150 H     1 <1>   0.0800 
 36 H       -3.1760     3.7480    -0.7690 H     1 <1>   0.0800 
 37 H       -1.9580     2.8460     2.3350 H     1 <1>   0.0800 
 38 H       -2.7030     1.3120     2.6300 H     1 <1>   0.0800 
 39 H        4.0520    -0.5220     1.1580 H     1 <1>   0.1500 
 40 H        3.7510     2.8510    -0.6340 H     1 <1>   0.0800 
 41 H        3.2470     1.5800    -1.7410 H     1 <1>   0.0800 
 42 H        4.5320     1.2720    -0.5680 H     1 <1>   0.0800 
 43 H        0.2840    -4.0920    -0.6460 H     1 <1>   0.0800 
 44 H       -4.5820     0.6650     1.4800 H     1 <1>   0.0800 
 45 H        4.5070    -2.6000     1.9950 H     1 <1>   0.0800 
 46 H        4.3990    -3.6490     0.6120 H     1 <1>   0.0800 
 47 H        3.3390    -3.8750     1.9890 H     1 <1>   0.0800 
 48 H        1.2770    -4.6130     2.1490 H     1 <1>   0.0800 
 49 H        0.0680    -5.5180     1.2790 H     1 <1>   0.0800 
 50 H       -0.2340    -3.8580     1.7220 H     1 <1>   0.0800 
 51 H        2.8500    -5.3590     0.2250 H     1 <1>   0.0800 
 52 H        2.6150    -4.6590    -1.3630 H     1 <1>   0.0800 
 53 H        1.6100    -5.9770    -0.8180 H     1 <1>   0.0800 
 54 H       -5.8910     2.6760     2.0230 H     1 <1>   0.0800 
 55 H       -5.8350     4.3100     1.3990 H     1 <1>   0.0800 
 56 H       -2.9160     0.1740    -0.7390 H     1 <1>   0.4000 
 57 H       -5.4820     3.4100    -0.8870 H     1 <1>   0.0800 
 58 H       -7.0030     2.9010    -0.2420 H     1 <1>   0.0800 
 59 H       -7.2350     0.4200    -0.4760 H     1 <1>   0.4000 
 60 H       -4.6860     1.4870    -2.2980 H     1 <1>   0.0800 
 61 H       -6.3980     1.2080    -2.2920 H     1 <1>   0.0800 
 62 H       -5.2910    -0.0990    -1.9240 H     1 <1>   0.0800 
@<TRIPOS>BOND
  1   1   2  2   
  2   1   3  2   
  3   1   4  am  
  4   1   5  1   
  5   4   6  1   
  6   4   7  1   
  7   5   8  ar  
  8   5   9  ar  
  9   6  10  1   
 10   6  30  1   
 11   6  31  1   
 12   7  11  1   
 13   7  32  1   
 14   7  33  1   
 15   8  12  1   
 16   8  13  ar  
 17   9  14  ar  
 18   9  34  1   
 19  10  15  1   
 20  10  35  1   
 21  10  36  1   
 22  11  15  1   
 23  11  37  1   
 24  11  38  1   
 25  12  16  1   
 26  13  17  ar  
 27  13  39  1   
 28  14  17  ar  
 29  14  18  1   
 30  15  19  1   
 31  15  20  1   
 32  16  40  1   
 33  16  41  1   
 34  16  42  1   
 35  17  21  1   
 36  18  22  1   
 37  18  23  1   
 38  18  43  1   
 39  19  24  1   
 40  20  25  1   
 41  20  26  1   
 42  20  44  1   
 43  21  45  1   
 44  21  46  1   
 45  21  47  1   
 46  22  48  1   
 47  22  49  1   
 48  22  50  1   
 49  23  51  1   
 50  23  52  1   
 51  23  53  1   
 52  24  27  1   
 53  24  54  1   
 54  24  55  1   
 55  25  56  1   
 56  26  27  1   
 57  26  28  1   
 58  26  29  1   
 59  27  57  1   
 60  27  58  1   
 61  28  59  1   
 62  29  60  1   
 63  29  61  1   
 64  29  62  1   
@<TRIPOS>SUBSTRUCTURE
  1 ****   7 GROUP 4 **** **** 0

# MOE 2024.06 (io_trps.svl 2023.06)
