@<TRIPOS>MOLECULE
NONAME
49 52 1 0 0 
SMALL
USER_CHARGES


@<TRIPOS>ATOM
  1 O       -1.2180     0.0210     0.4640 O.2   1 <1>  -0.5700 
  2 C       -1.9970     0.8440     0.0180 C.2   1 <1>   0.5440 
  3 N       -3.2180     0.3890    -0.4340 N.am  1 <1>  -0.6600 
  4 C       -1.6700     2.2580     0.0280 C.ar  1 <1>   0.0860 
  5 C       -3.3860    -1.0380    -0.8060 C.3   1 <1>   0.1400 
  6 C       -4.4590     1.0050     0.1220 C.3   1 <1>   0.1400 
  7 C       -0.9160     2.8130     1.0530 C.ar  1 <1>  -0.1500 
  8 C       -2.1110     3.1110    -1.0080 C.ar  1 <1>  -0.1500 
  9 C       -4.3240    -1.6280     0.2650 C.3   1 <1>   0.4230 
 10 C       -5.7210     0.1190    -0.1330 C.3   1 <1>  -0.1600 
 11 C       -0.6290     4.1720     1.0600 C.ar  1 <1>   0.2270 
 12 C       -1.8310     4.4580    -1.0160 C.ar  1 <1>  -0.1500 
 13 N       -3.7250    -2.7980     0.9990 N.4   1 <1>  -0.9590 
 14 C       -5.8290    -1.5090    -0.2500 C.3   1 <1>   0.0000 
 15 N        0.0730     4.9030     1.9700 N.2   1 <1>  -0.5650 
 16 C       -1.0820     4.9830     0.0370 C.ar  1 <1>  -0.1520 
 17 C       -3.7270    -3.9920     0.1770 C.3   1 <1>   0.3430 
 18 C       -2.3690    -2.4950     1.5710 C.3   1 <1>   0.2630 
 19 C       -6.0200    -3.1070    -0.4620 C.3   1 <1>  -0.1600 
 20 C       -7.3630    -1.3120    -0.7090 C.3   1 <1>   0.1200 
 21 C        0.0430     6.1020     1.5050 C.2   1 <1>   0.0360 
 22 N       -0.6380     6.2270     0.3390 N.pl3 1 <1>   0.0330 
 23 C       -5.1920    -4.2900     0.0830 C.3   1 <1>  -0.1600 
 24 O       -8.1650    -1.3890     0.4280 O.3   1 <1>  -0.6800 
 25 H       -3.8410    -1.0950    -1.7800 H     1 <1>   0.0800 
 26 H       -2.4390    -1.5410    -0.8590 H     1 <1>   0.0800 
 27 H       -4.3280     1.1440     1.1840 H     1 <1>   0.0800 
 28 H       -4.6040     1.9820    -0.3110 H     1 <1>   0.0800 
 29 H       -0.5410     2.2080     1.8570 H     1 <1>   0.1500 
 30 H       -2.6790     2.6840    -1.8170 H     1 <1>   0.1500 
 31 H       -4.2940    -0.9270     1.0770 H     1 <1>   0.0800 
 32 H       -6.4490     0.4840     0.5770 H     1 <1>   0.0800 
 33 H       -5.9790     0.5340    -1.0950 H     1 <1>   0.0800 
 34 H       -2.1720     5.0970    -1.8120 H     1 <1>   0.1500 
 35 H       -4.3630    -2.9800     1.7860 H     1 <1>   0.4500 
 36 H       -3.2950    -3.8030    -0.7920 H     1 <1>   0.0800 
 37 H       -3.2050    -4.8020     0.6620 H     1 <1>   0.0800 
 38 H       -1.6410    -2.3700     0.7860 H     1 <1>   0.0800 
 39 H       -2.0430    -3.2950     2.2150 H     1 <1>   0.0800 
 40 H       -2.3990    -1.5820     2.1430 H     1 <1>   0.0800 
 41 H       -6.9980    -3.4500    -0.1530 H     1 <1>   0.0800 
 42 H       -5.9810    -3.2480    -1.5320 H     1 <1>   0.0800 
 43 H       -7.7330    -2.0370    -1.4180 H     1 <1>   0.0800 
 44 H       -7.6440    -0.3920    -1.1940 H     1 <1>   0.0800 
 45 H        0.5100     6.9480     1.9810 H     1 <1>   0.1500 
 46 H       -0.7830     7.0810    -0.2050 H     1 <1>   0.2700 
 47 H       -5.3330    -5.1490    -0.5510 H     1 <1>   0.0800 
 48 H       -5.5550    -4.5680     1.0590 H     1 <1>   0.0800 
 49 H       -9.1130    -1.2870     0.2010 H     1 <1>   0.4000 
@<TRIPOS>BOND
  1   1   2  2   
  2   2   3  am  
  3   2   4  1   
  4   3   5  1   
  5   3   6  1   
  6   4   7  ar  
  7   4   8  ar  
  8   5   9  1   
  9   5  25  1   
 10   5  26  1   
 11   6  10  1   
 12   6  27  1   
 13   6  28  1   
 14   7  11  ar  
 15   7  29  1   
 16   8  12  ar  
 17   8  30  1   
 18   9  13  1   
 19   9  14  1   
 20   9  31  1   
 21  10  14  1   
 22  10  32  1   
 23  10  33  1   
 24  11  15  1   
 25  11  16  ar  
 26  12  16  ar  
 27  12  34  1   
 28  13  17  1   
 29  13  18  1   
 30  13  35  1   
 31  14  19  1   
 32  14  20  1   
 33  15  21  2   
 34  16  22  1   
 35  17  23  1   
 36  17  36  1   
 37  17  37  1   
 38  18  38  1   
 39  18  39  1   
 40  18  40  1   
 41  19  23  1   
 42  19  41  1   
 43  19  42  1   
 44  20  24  1   
 45  20  43  1   
 46  20  44  1   
 47  21  22  1   
 48  21  45  1   
 49  22  46  1   
 50  23  47  1   
 51  23  48  1   
 52  24  49  1   
@<TRIPOS>SUBSTRUCTURE
  1 ****   3 GROUP 4 **** **** 0

# MOE 2024.06 (io_trps.svl 2023.06)
