@<TRIPOS>MOLECULE
NONAME
54 56 1 0 0 
SMALL
USER_CHARGES


@<TRIPOS>ATOM
  1 F        0.7280    -4.1870     1.5680 F     1 <1>  -0.1900 
  2 C       -0.3080    -4.6270     0.8990 C.ar  1 <1>   0.1900 
  3 C       -0.1750    -5.5170    -0.1730 C.ar  1 <1>   0.0830 
  4 C       -1.5450    -4.1650     1.3060 C.ar  1 <1>  -0.1500 
  5 O        0.9820    -6.0460    -0.6650 O.3   1 <1>  -0.3630 
  6 C       -1.3310    -5.9230    -0.8180 C.ar  1 <1>  -0.1500 
  7 C       -2.6790    -4.5940     0.6420 C.ar  1 <1>  -0.1500 
  8 C        2.2540    -5.7310    -0.1420 C.3   1 <1>   0.0400 
  9 C       -2.6000    -5.4870    -0.4290 C.ar  1 <1>   0.0530 
 10 C       -3.7810    -5.9600    -1.1070 C.2   1 <1>   0.0870 
 11 O       -3.7210    -6.3800    -2.3500 O.3   1 <1>  -0.0190 
 12 C       -5.0610    -6.1400    -0.7010 C.2   1 <1>  -0.2330 
 13 N       -4.8730    -6.8230    -2.7910 N.2   1 <1>  -0.4100 
 14 C       -5.6990    -6.6620    -1.8200 C.2   1 <1>   0.3720 
 15 C       -5.6750    -5.9860     0.5690 C.2   1 <1>   1.0330 
 16 N       -7.0540    -6.9900    -1.9230 N.pl3 1 <1>  -0.8210 
 17 O       -6.0460    -4.8860     0.9930 O.co2 1 <1>  -0.9000 
 18 O       -5.8670    -7.0110     1.2520 O.co2 1 <1>  -0.9000 
 19 C       -7.5590    -8.1540    -1.1270 C.3   1 <1>   0.2090 
 20 C       -7.9360    -5.7960    -1.7800 C.3   1 <1>   0.1290 
 21 C       -6.6210    -9.3800    -1.1590 C.3   1 <1>   0.3430 
 22 N       -5.5440    -9.3390    -0.1200 N.4   1 <1>  -0.9590 
 23 C       -4.1880    -9.4450    -0.7170 C.3   1 <1>   0.3430 
 24 C       -5.7760   -10.2730     1.0080 C.3   1 <1>   0.3430 
 25 C       -3.1280    -9.2050     0.3570 C.3   1 <1>  -0.1600 
 26 C       -4.7170   -10.0650     2.0920 C.3   1 <1>  -0.1600 
 27 C       -3.2900   -10.1730     1.5350 C.3   1 <1>  -0.0800 
 28 C       -2.2610    -9.8630     2.6270 C.3   1 <1>  -0.2400 
 29 H       -1.6210    -3.4800     2.1310 H     1 <1>   0.1500 
 30 H       -1.2380    -6.6020    -1.6450 H     1 <1>   0.1500 
 31 H       -3.6400    -4.2250     0.9620 H     1 <1>   0.1500 
 32 H        2.9920    -6.2680    -0.7090 H     1 <1>   0.0800 
 33 H        2.2940    -6.0350     0.8890 H     1 <1>   0.0800 
 34 H        2.4200    -4.6720    -0.2390 H     1 <1>   0.0800 
 35 H       -8.4960    -8.4520    -1.5630 H     1 <1>   0.0800 
 36 H       -7.7570    -7.8620    -0.1100 H     1 <1>   0.0800 
 37 H       -7.4790    -4.9430    -2.2520 H     1 <1>   0.0800 
 38 H       -8.0960    -5.5650    -0.7400 H     1 <1>   0.0800 
 39 H       -8.8840    -5.9820    -2.2530 H     1 <1>   0.0800 
 40 H       -6.1860    -9.4360    -2.1440 H     1 <1>   0.0800 
 41 H       -7.2140   -10.2660    -1.0100 H     1 <1>   0.0800 
 42 H       -5.5940    -8.3880     0.3310 H     1 <1>   0.4500 
 43 H       -4.0730    -8.7150    -1.5010 H     1 <1>   0.0800 
 44 H       -4.0550   -10.4240    -1.1450 H     1 <1>   0.0800 
 45 H       -5.7340   -11.2890     0.6530 H     1 <1>   0.0800 
 46 H       -6.7510   -10.0930     1.4320 H     1 <1>   0.0800 
 47 H       -3.2080    -8.1900     0.7050 H     1 <1>   0.0800 
 48 H       -2.1530    -9.3220    -0.0830 H     1 <1>   0.0800 
 49 H       -4.8610   -10.7970     2.8670 H     1 <1>   0.0800 
 50 H       -4.8660    -9.0950     2.5350 H     1 <1>   0.0800 
 51 H       -3.1250   -11.1800     1.1870 H     1 <1>   0.0800 
 52 H       -2.3950    -8.8620     3.0010 H     1 <1>   0.0800 
 53 H       -1.2620    -9.9500     2.2380 H     1 <1>   0.0800 
 54 H       -2.3650   -10.5500     3.4480 H     1 <1>   0.0800 
@<TRIPOS>BOND
  1   1   2  1   
  2   2   3  ar  
  3   2   4  ar  
  4   3   5  1   
  5   3   6  ar  
  6   4   7  ar  
  7   4  29  1   
  8   5   8  1   
  9   6   9  ar  
 10   6  30  1   
 11   7   9  ar  
 12   7  31  1   
 13   8  32  1   
 14   8  33  1   
 15   8  34  1   
 16   9  10  1   
 17  10  11  1   
 18  10  12  2   
 19  11  13  1   
 20  12  14  1   
 21  12  15  1   
 22  13  14  2   
 23  14  16  1   
 24  15  17  ar  
 25  15  18  ar  
 26  16  19  1   
 27  16  20  1   
 28  19  21  1   
 29  19  35  1   
 30  19  36  1   
 31  20  37  1   
 32  20  38  1   
 33  20  39  1   
 34  21  22  1   
 35  21  40  1   
 36  21  41  1   
 37  22  23  1   
 38  22  24  1   
 39  22  42  1   
 40  23  25  1   
 41  23  43  1   
 42  23  44  1   
 43  24  26  1   
 44  24  45  1   
 45  24  46  1   
 46  25  27  1   
 47  25  47  1   
 48  25  48  1   
 49  26  27  1   
 50  26  49  1   
 51  26  50  1   
 52  27  28  1   
 53  27  51  1   
 54  28  52  1   
 55  28  53  1   
 56  28  54  1   
@<TRIPOS>SUBSTRUCTURE
  1 ****  10 GROUP 4 **** **** 0

# MOE 2024.06 (io_trps.svl 2023.06)
