@<TRIPOS>MOLECULE
NONAME
49 51 1 0 0 
SMALL
USER_CHARGES


@<TRIPOS>ATOM
  1 O       -0.3100     0.3870     0.7360 O.2   1 <1>  -0.5700 
  2 C       -1.2820     0.9180     0.2500 C.2   1 <1>   0.5690 
  3 N       -2.4460     0.2310     0.0570 N.am  1 <1>  -0.6600 
  4 C       -1.2050     2.3760    -0.1640 C.3   1 <1>  -0.0990 
  5 C       -3.6900     0.7400    -0.5740 C.3   1 <1>   0.1400 
  6 C       -2.6300    -1.1740     0.4820 C.3   1 <1>   0.1400 
  7 C        0.1460     3.0060     0.1740 C.3   1 <1>   0.1200 
  8 C       -4.7190    -0.3920    -0.4350 C.3   1 <1>   0.2000 
  9 C       -3.8620    -1.6540    -0.2890 C.3   1 <1>  -0.0800 
 10 O        0.1200     4.3530    -0.2440 O.3   1 <1>  -0.3630 
 11 O       -5.4620    -0.2130     0.7370 O.3   1 <1>  -0.5600 
 12 C       -4.5800    -2.8420     0.3770 C.3   1 <1>   0.0200 
 13 C        1.1940     5.1620    -0.0630 C.ar  1 <1>   0.0820 
 14 C       -6.5850     0.6010     0.6130 C.3   1 <1>   0.0400 
 15 C       -3.7690    -4.1270     0.3460 C.2   1 <1>  -0.0400 
 16 C        2.3830     4.7500     0.5340 C.ar  1 <1>  -0.1500 
 17 C        1.0730     6.4690    -0.5070 C.ar  1 <1>  -0.1500 
 18 O       -4.2480    -5.1850     0.9460 O.3   1 <1>  -0.0190 
 19 C       -2.5890    -4.4680    -0.1970 C.2   1 <1>  -0.1500 
 20 C        3.4310     5.6430     0.6790 C.ar  1 <1>  -0.1500 
 21 C        2.1220     7.3610    -0.3610 C.ar  1 <1>  -0.1500 
 22 N       -3.4530    -6.2100     0.8370 N.2   1 <1>  -0.4100 
 23 C       -2.4440    -5.8070     0.1540 C.2   1 <1>   0.1080 
 24 C        3.3020     6.9470     0.2330 C.ar  1 <1>  -0.1500 
 25 C       -1.2620    -6.6760    -0.2140 C.3   1 <1>  -0.0590 
 26 H       -1.3650     2.4400    -1.2230 H     1 <1>   0.0800 
 27 H       -1.9760     2.9180     0.3490 H     1 <1>   0.0800 
 28 H       -4.0270     1.6420    -0.0950 H     1 <1>   0.0800 
 29 H       -3.4960     0.9300    -1.6160 H     1 <1>   0.0800 
 30 H       -1.7550    -1.7600     0.2610 H     1 <1>   0.0800 
 31 H       -2.8160    -1.1910     1.5430 H     1 <1>   0.0800 
 32 H        0.9410     2.5000    -0.3460 H     1 <1>   0.0800 
 33 H        0.3200     2.9790     1.2360 H     1 <1>   0.0800 
 34 H       -5.3880    -0.4550    -1.2760 H     1 <1>   0.0800 
 35 H       -3.5420    -1.9480    -1.2730 H     1 <1>   0.0800 
 36 H       -5.5130    -3.0200    -0.1260 H     1 <1>   0.0800 
 37 H       -4.8040    -2.6040     1.4030 H     1 <1>   0.0800 
 38 H       -7.0550     0.6690     1.5790 H     1 <1>   0.0800 
 39 H       -7.2700     0.1580    -0.0900 H     1 <1>   0.0800 
 40 H       -6.2880     1.5830     0.2880 H     1 <1>   0.0800 
 41 H        2.5120     3.7450     0.8890 H     1 <1>   0.1500 
 42 H        0.1540     6.7830    -0.9670 H     1 <1>   0.1500 
 43 H       -1.8910    -3.8880    -0.7710 H     1 <1>   0.1500 
 44 H        4.3490     5.3220     1.1410 H     1 <1>   0.1500 
 45 H        2.0190     8.3740    -0.7090 H     1 <1>   0.1500 
 46 H        4.1180     7.6390     0.3470 H     1 <1>   0.1500 
 47 H       -1.1660    -6.7280    -1.2820 H     1 <1>   0.0800 
 48 H       -1.4030    -7.6690     0.1730 H     1 <1>   0.0800 
 49 H       -0.3630    -6.2630     0.2050 H     1 <1>   0.0800 
@<TRIPOS>BOND
  1   1   2  2   
  2   2   3  am  
  3   2   4  1   
  4   3   5  1   
  5   3   6  1   
  6   4   7  1   
  7   4  26  1   
  8   4  27  1   
  9   5   8  1   
 10   5  28  1   
 11   5  29  1   
 12   6   9  1   
 13   6  30  1   
 14   6  31  1   
 15   7  10  1   
 16   7  32  1   
 17   7  33  1   
 18   8   9  1   
 19   8  11  1   
 20   8  34  1   
 21   9  12  1   
 22   9  35  1   
 23  10  13  1   
 24  11  14  1   
 25  12  15  1   
 26  12  36  1   
 27  12  37  1   
 28  13  16  ar  
 29  13  17  ar  
 30  14  38  1   
 31  14  39  1   
 32  14  40  1   
 33  15  18  1   
 34  15  19  2   
 35  16  20  ar  
 36  16  41  1   
 37  17  21  ar  
 38  17  42  1   
 39  18  22  1   
 40  19  23  1   
 41  19  43  1   
 42  20  24  ar  
 43  20  44  1   
 44  21  24  ar  
 45  21  45  1   
 46  22  23  2   
 47  23  25  1   
 48  24  46  1   
 49  25  47  1   
 50  25  48  1   
 51  25  49  1   
@<TRIPOS>SUBSTRUCTURE
  1 ****   2 GROUP 4 **** **** 0

# MOE 2024.06 (io_trps.svl 2023.06)
