@<TRIPOS>MOLECULE
NONAME
54 56 1 0 0 
SMALL
USER_CHARGES


@<TRIPOS>ATOM
  1 O       -0.4400     0.9280    -0.4670 O.2   1 <1>  -0.5700 
  2 C       -0.6350     2.0770    -0.7860 C.2   1 <1>   0.5690 
  3 N       -0.9140     3.0790     0.1110 N.am  1 <1>  -0.6600 
  4 C       -0.5610     2.4180    -2.2730 C.3   1 <1>   0.1810 
  5 C       -1.0920     4.4940    -0.3610 C.3   1 <1>   0.3640 
  6 C       -0.9180     2.9130     1.5920 C.3   1 <1>   0.2200 
  7 O       -0.0580     3.7100    -2.4830 O.3   1 <1>  -0.5600 
  8 C       -2.4850     5.0070     0.0040 C.ar  1 <1>  -0.1440 
  9 C       -0.8360     4.7260    -1.8740 C.3   1 <1>   0.2610 
 10 C        0.4880     2.5680     2.0840 C.3   1 <1>  -0.2400 
 11 C       -1.9510     1.8790     2.0400 C.3   1 <1>  -0.2400 
 12 C       -3.6160     4.2200    -0.1720 C.ar  1 <1>  -0.1500 
 13 C       -2.6300     6.2910     0.5090 C.ar  1 <1>  -0.1500 
 14 C       -0.2090     6.1140    -2.0560 C.2   1 <1>   0.5690 
 15 C       -4.8680     4.7050     0.1600 C.ar  1 <1>  -0.1500 
 16 C       -3.8820     6.7770     0.8420 C.ar  1 <1>  -0.1500 
 17 O       -0.9130     6.9610    -2.5580 O.2   1 <1>  -0.5700 
 18 N        1.0690     6.4190    -1.6270 N.am  1 <1>  -0.6600 
 19 C       -5.0020     5.9850     0.6690 C.ar  1 <1>  -0.1500 
 20 C        1.6030     7.8060    -1.7320 C.3   1 <1>   0.1400 
 21 C        2.0710     5.4390    -1.1130 C.3   1 <1>   0.1400 
 22 C        2.0880     8.2740    -0.3580 C.3   1 <1>  -0.1600 
 23 C        2.5650     5.8810     0.2680 C.3   1 <1>  -0.1600 
 24 C        3.1310     7.3110     0.2430 C.3   1 <1>  -0.0800 
 25 C        3.5530     7.7310     1.6600 C.3   1 <1>   0.1200 
 26 O        4.1100     8.9970     1.6300 O.3   1 <1>  -0.6800 
 27 H       -1.5370     2.3460    -2.7170 H     1 <1>   0.0800 
 28 H        0.0990     1.7260    -2.7650 H     1 <1>   0.0800 
 29 H       -0.3820     5.0880     0.1840 H     1 <1>   0.0800 
 30 H       -1.1970     3.8520     2.0430 H     1 <1>   0.0800 
 31 H       -1.7810     4.7330    -2.3860 H     1 <1>   0.0800 
 32 H        0.7920     1.6030     1.7210 H     1 <1>   0.0800 
 33 H        0.5000     2.5400     3.1580 H     1 <1>   0.0800 
 34 H        1.1910     3.3090     1.7540 H     1 <1>   0.0800 
 35 H       -1.6870     0.8920     1.7070 H     1 <1>   0.0800 
 36 H       -2.9230     2.1350     1.6610 H     1 <1>   0.0800 
 37 H       -2.0040     1.8630     3.1130 H     1 <1>   0.0800 
 38 H       -3.5290     3.2220    -0.5660 H     1 <1>   0.1500 
 39 H       -1.7720     6.9280     0.6430 H     1 <1>   0.1500 
 40 H       -5.7390     4.0880     0.0240 H     1 <1>   0.1500 
 41 H       -3.9850     7.7750     1.2320 H     1 <1>   0.1500 
 42 H       -5.9760     6.3630     0.9270 H     1 <1>   0.1500 
 43 H        2.4180     7.8150    -2.4350 H     1 <1>   0.0800 
 44 H        0.8480     8.4830    -2.0940 H     1 <1>   0.0800 
 45 H        1.6610     4.4500    -1.0350 H     1 <1>   0.0800 
 46 H        2.8980     5.3960    -1.8020 H     1 <1>   0.0800 
 47 H        2.5120     9.2570    -0.4600 H     1 <1>   0.0800 
 48 H        1.2400     8.3570     0.2990 H     1 <1>   0.0800 
 49 H        1.7470     5.8230     0.9650 H     1 <1>   0.0800 
 50 H        3.3250     5.1960     0.5990 H     1 <1>   0.0800 
 51 H        4.0050     7.3090    -0.3850 H     1 <1>   0.0800 
 52 H        4.2860     7.0530     2.0630 H     1 <1>   0.0800 
 53 H        2.7020     7.7620     2.3190 H     1 <1>   0.0800 
 54 H        4.9010     9.0130     1.0580 H     1 <1>   0.4000 
@<TRIPOS>BOND
  1   1   2  2   
  2   2   3  am  
  3   2   4  1   
  4   3   5  1   
  5   3   6  1   
  6   4   7  1   
  7   4  27  1   
  8   4  28  1   
  9   5   8  1   
 10   5   9  1   
 11   5  29  1   
 12   6  10  1   
 13   6  11  1   
 14   6  30  1   
 15   7   9  1   
 16   8  12  ar  
 17   8  13  ar  
 18   9  14  1   
 19   9  31  1   
 20  10  32  1   
 21  10  33  1   
 22  10  34  1   
 23  11  35  1   
 24  11  36  1   
 25  11  37  1   
 26  12  15  ar  
 27  12  38  1   
 28  13  16  ar  
 29  13  39  1   
 30  14  17  2   
 31  14  18  am  
 32  15  19  ar  
 33  15  40  1   
 34  16  19  ar  
 35  16  41  1   
 36  18  20  1   
 37  18  21  1   
 38  19  42  1   
 39  20  22  1   
 40  20  43  1   
 41  20  44  1   
 42  21  23  1   
 43  21  45  1   
 44  21  46  1   
 45  22  24  1   
 46  22  47  1   
 47  22  48  1   
 48  23  24  1   
 49  23  49  1   
 50  23  50  1   
 51  24  25  1   
 52  24  51  1   
 53  25  26  1   
 54  25  52  1   
 55  25  53  1   
 56  26  54  1   
@<TRIPOS>SUBSTRUCTURE
  1 ****   5 GROUP 4 **** **** 0

# MOE 2024.06 (io_trps.svl 2023.06)
