@<TRIPOS>MOLECULE
NONAME
50 53 1 0 0 
SMALL
USER_CHARGES


@<TRIPOS>ATOM
  1 S       -0.5370     0.3710     0.0690 S.o2  1 <1>   1.0900 
  2 O        0.7820     0.0240    -0.4040 O.2   1 <1>  -0.6500 
  3 O       -0.7630     1.4860     0.9570 O.2   1 <1>  -0.6500 
  4 C       -1.2720    -1.1030     0.7160 C.3   1 <1>  -0.0550 
  5 C       -1.6230     0.4620    -1.3470 C.3   1 <1>  -0.0550 
  6 C       -1.6750    -1.8920    -0.5270 C.3   1 <1>   0.1760 
  7 C       -2.3300    -0.8970    -1.5070 C.3   1 <1>  -0.1600 
  8 N       -2.5910    -3.0120    -0.1940 N.pl3 1 <1>   0.3140 
  9 N       -3.6610    -2.8180     0.5980 N.2   1 <1>  -0.7070 
 10 C       -2.5290    -4.2930    -0.6400 C.2   1 <1>  -0.3320 
 11 C       -4.2640    -3.9650     0.6370 C.2   1 <1>   0.1080 
 12 C       -3.6010    -4.9340    -0.1240 C.2   1 <1>   0.0630 
 13 C       -1.4430    -4.8320    -1.5620 C.3   1 <1>  -0.0600 
 14 C       -5.5280    -4.1640     1.4440 C.3   1 <1>  -0.0590 
 15 N       -3.9250    -6.3000    -0.3250 N.am  1 <1>  -0.4930 
 16 C       -5.1350    -6.8590    -0.5990 C.2   1 <1>   0.5690 
 17 O       -6.1560    -6.2240    -0.7050 O.2   1 <1>  -0.5700 
 18 C       -5.1990    -8.3600    -0.7870 C.3   1 <1>  -0.0990 
 19 C       -6.2830    -8.9930     0.0980 C.3   1 <1>   0.0200 
 20 C       -6.2920   -10.5080    -0.0050 C.2   1 <1>   0.1980 
 21 S       -7.5870   -11.3380     0.8530 S.3   1 <1>  -0.0800 
 22 N       -5.4880   -11.2730    -0.6250 N.2   1 <1>  -0.5650 
 23 C       -6.9510   -12.8710     0.2960 C.ar  1 <1>   0.0400 
 24 C       -5.8340   -12.6160    -0.4760 C.ar  1 <1>   0.2270 
 25 C       -7.4310   -14.1440     0.5470 C.ar  1 <1>  -0.1500 
 26 C       -5.1580   -13.6930    -1.0290 C.ar  1 <1>  -0.1500 
 27 C       -6.7440   -15.2080    -0.0130 C.ar  1 <1>  -0.1500 
 28 C       -5.6130   -14.9820    -0.7970 C.ar  1 <1>  -0.1500 
 29 H       -2.1440    -0.8470     1.2890 H     1 <1>   0.0800 
 30 H       -0.5830    -1.6520     1.3270 H     1 <1>   0.0800 
 31 H       -1.0550     0.6980    -2.2270 H     1 <1>   0.0800 
 32 H       -2.3580     1.2320    -1.2000 H     1 <1>   0.0800 
 33 H       -0.7840    -2.2920    -0.9760 H     1 <1>   0.0800 
 34 H       -2.2580    -1.2540    -2.5200 H     1 <1>   0.0800 
 35 H       -3.3700    -0.7750    -1.2550 H     1 <1>   0.0800 
 36 H       -1.4160    -4.2630    -2.4750 H     1 <1>   0.0800 
 37 H       -1.6350    -5.8580    -1.8160 H     1 <1>   0.0800 
 38 H       -0.4830    -4.7740    -1.0820 H     1 <1>   0.0800 
 39 H       -5.5500    -3.4700     2.2640 H     1 <1>   0.0800 
 40 H       -5.5700    -5.1640     1.8310 H     1 <1>   0.0800 
 41 H       -6.3820    -3.9910     0.8160 H     1 <1>   0.0800 
 42 H       -3.1180    -6.9190    -0.3450 H     1 <1>   0.3700 
 43 H       -4.2470    -8.7980    -0.5510 H     1 <1>   0.0800 
 44 H       -5.4170    -8.5670    -1.8190 H     1 <1>   0.0800 
 45 H       -7.2480    -8.6190    -0.1950 H     1 <1>   0.0800 
 46 H       -6.1170    -8.7200     1.1250 H     1 <1>   0.0800 
 47 H       -8.3060   -14.2920     1.1540 H     1 <1>   0.1500 
 48 H       -4.2880   -13.5090    -1.6320 H     1 <1>   0.1500 
 49 H       -7.0820   -16.2160     0.1560 H     1 <1>   0.1500 
 50 H       -5.0900   -15.8190    -1.2260 H     1 <1>   0.1500 
@<TRIPOS>BOND
  1   1   2  2   
  2   1   3  2   
  3   1   4  1   
  4   1   5  1   
  5   4   6  1   
  6   4  29  1   
  7   4  30  1   
  8   5   7  1   
  9   5  31  1   
 10   5  32  1   
 11   6   7  1   
 12   6   8  1   
 13   6  33  1   
 14   7  34  1   
 15   7  35  1   
 16   8   9  1   
 17   8  10  1   
 18   9  11  2   
 19  10  12  2   
 20  10  13  1   
 21  11  12  1   
 22  11  14  1   
 23  12  15  1   
 24  13  36  1   
 25  13  37  1   
 26  13  38  1   
 27  14  39  1   
 28  14  40  1   
 29  14  41  1   
 30  15  16  am  
 31  15  42  1   
 32  16  17  2   
 33  16  18  1   
 34  18  19  1   
 35  18  43  1   
 36  18  44  1   
 37  19  20  1   
 38  19  45  1   
 39  19  46  1   
 40  20  21  1   
 41  20  22  2   
 42  21  23  1   
 43  22  24  1   
 44  23  24  ar  
 45  23  25  ar  
 46  24  26  ar  
 47  25  27  ar  
 48  25  47  1   
 49  26  28  ar  
 50  26  48  1   
 51  27  28  ar  
 52  27  49  1   
 53  28  50  1   
@<TRIPOS>SUBSTRUCTURE
  1 ****  15 GROUP 4 **** **** 0

# MOE 2024.06 (io_trps.svl 2023.06)
