@<TRIPOS>MOLECULE
NONAME
44 47 1 0 0 
SMALL
USER_CHARGES


@<TRIPOS>ATOM
  1 S        3.3080    -0.4530    -2.1390 S.3   1 <1>  -0.0800 
  2 C        2.7070     0.0710    -0.5680 C.2   1 <1>   0.3250 
  3 C        1.9200    -1.4580    -2.3490 C.2   1 <1>  -0.1100 
  4 N        1.5740    -0.4890    -0.2870 N.2   1 <1>  -0.5650 
  5 C        3.5080     1.0180     0.2020 C.ar  1 <1>   0.6730 
  6 C        1.1050    -1.3640    -1.2770 C.2   1 <1>   0.1410 
  7 N        3.1020     1.3150     1.4480 N.ar  1 <1>  -0.6200 
  8 N        4.6050     1.5400    -0.3700 N.ar  1 <1>  -0.6200 
  9 C       -0.1650    -2.0850    -1.1590 C.2   1 <1>   0.7160 
 10 C        3.8240     2.1680     2.1320 C.ar  1 <1>   0.1600 
 11 C        5.3100     2.3900     0.3370 C.ar  1 <1>   0.1600 
 12 O       -0.6570    -2.5460    -2.1760 O.2   1 <1>  -0.5700 
 13 N       -0.8220    -2.2860     0.0480 N.am  1 <1>  -0.6600 
 14 C        4.9560     2.7430     1.6140 C.ar  1 <1>  -0.1500 
 15 C       -2.2940    -2.4760     0.1900 C.3   1 <1>   0.2200 
 16 C       -0.0850    -2.3360     1.3430 C.3   1 <1>   0.0600 
 17 C       -2.7720    -3.8600    -0.2360 C.3   1 <1>  -0.1600 
 18 C       -3.1490    -1.4970    -0.6140 C.3   1 <1>  -0.1600 
 19 C       -4.2740    -3.6880    -0.4930 C.3   1 <1>  -0.0800 
 20 C       -4.5140    -2.1850    -0.7300 C.3   1 <1>  -0.0800 
 21 C       -5.1510    -4.0840     0.7040 C.3   1 <1>  -0.1600 
 22 C       -5.5220    -1.7330     0.3360 C.3   1 <1>  -0.1600 
 23 C       -6.2270    -3.0120     0.7610 C.3   1 <1>   0.2000 
 24 O       -6.7050    -2.8860     2.0460 O.3   1 <1>  -0.6800 
 25 H        1.8290    -2.0280    -3.2560 H     1 <1>   0.1500 
 26 H        3.5040     2.4130     3.1320 H     1 <1>   0.1500 
 27 H        6.1910     2.8150    -0.1140 H     1 <1>   0.1500 
 28 H        5.5400     3.4410     2.1840 H     1 <1>   0.1500 
 29 H       -2.5620    -2.3430     1.2250 H     1 <1>   0.0800 
 30 H       -0.5060    -3.0930     1.9820 H     1 <1>   0.0800 
 31 H       -0.1480    -1.3790     1.8320 H     1 <1>   0.0800 
 32 H        0.9510    -2.5760     1.1780 H     1 <1>   0.0800 
 33 H       -2.2980    -4.1450    -1.1580 H     1 <1>   0.0800 
 34 H       -2.5600    -4.6040     0.5110 H     1 <1>   0.0800 
 35 H       -3.2070    -0.5350    -0.1370 H     1 <1>   0.0800 
 36 H       -2.7570    -1.3700    -1.6060 H     1 <1>   0.0800 
 37 H       -4.5730    -4.2500    -1.3630 H     1 <1>   0.0800 
 38 H       -4.9320    -2.0300    -1.7110 H     1 <1>   0.0800 
 39 H       -4.5710    -4.0660     1.6100 H     1 <1>   0.0800 
 40 H       -5.5800    -5.0600     0.5690 H     1 <1>   0.0800 
 41 H       -6.2190    -1.0170    -0.0620 H     1 <1>   0.0800 
 42 H       -5.0060    -1.3060     1.1780 H     1 <1>   0.0800 
 43 H       -7.0450    -3.2450     0.0990 H     1 <1>   0.0800 
 44 H       -5.9740    -2.6630     2.6500 H     1 <1>   0.4000 
@<TRIPOS>BOND
  1   1   2  1   
  2   1   3  1   
  3   2   4  2   
  4   2   5  1   
  5   3   6  2   
  6   3  25  1   
  7   4   6  1   
  8   5   7  ar  
  9   5   8  ar  
 10   6   9  1   
 11   7  10  ar  
 12   8  11  ar  
 13   9  12  2   
 14   9  13  am  
 15  10  14  ar  
 16  10  26  1   
 17  11  14  ar  
 18  11  27  1   
 19  13  15  1   
 20  13  16  1   
 21  14  28  1   
 22  15  17  1   
 23  15  18  1   
 24  15  29  1   
 25  16  30  1   
 26  16  31  1   
 27  16  32  1   
 28  17  19  1   
 29  17  33  1   
 30  17  34  1   
 31  18  20  1   
 32  18  35  1   
 33  18  36  1   
 34  19  20  1   
 35  19  21  1   
 36  19  37  1   
 37  20  22  1   
 38  20  38  1   
 39  21  23  1   
 40  21  39  1   
 41  21  40  1   
 42  22  23  1   
 43  22  41  1   
 44  22  42  1   
 45  23  24  1   
 46  23  43  1   
 47  24  44  1   
@<TRIPOS>SUBSTRUCTURE
  1 ****  13 GROUP 4 **** **** 0

# MOE 2024.06 (io_trps.svl 2023.06)
