@<TRIPOS>MOLECULE
NONAME
48 51 1 0 0 
SMALL
USER_CHARGES


@<TRIPOS>ATOM
  1 S        0.4410     0.5050     1.4180 S.3   1 <1>  -0.0800 
  2 C        1.6020     1.4170     0.4760 C.ar  1 <1>   0.0400 
  3 C        1.1040    -0.9840     0.7550 C.2   1 <1>   0.2280 
  4 C        2.3690     0.5190    -0.2410 C.ar  1 <1>   0.2270 
  5 C        1.7730     2.7860     0.4150 C.ar  1 <1>  -0.1500 
  6 N        2.0660    -0.8280    -0.0620 N.2   1 <1>  -0.5650 
  7 C        3.3580     1.0270    -1.0700 C.ar  1 <1>  -0.1500 
  8 C        2.7720     3.3050    -0.4080 C.ar  1 <1>   0.0860 
  9 C        3.5470     2.3970    -1.1490 C.ar  1 <1>  -0.1500 
 10 C        2.9830     4.7380    -0.5010 C.2   1 <1>   0.5440 
 11 O        2.0190     5.4650    -0.6510 O.2   1 <1>  -0.5700 
 12 N        4.2370     5.3100    -0.4180 N.am  1 <1>  -0.6600 
 13 C        5.3980     4.6440     0.2580 C.3   1 <1>   0.1400 
 14 C        4.4640     6.7000    -0.9070 C.3   1 <1>   0.1400 
 15 C        5.9120     5.4410     1.4660 C.3   1 <1>   0.1400 
 16 C        4.3960     7.6910     0.2620 C.3   1 <1>  -0.1600 
 17 N        6.5920     6.6990     1.0330 N.am  1 <1>  -0.6600 
 18 C        5.7300     7.9180     0.9890 C.3   1 <1>   0.1400 
 19 C        7.9130     6.6540     0.6610 C.2   1 <1>   0.5690 
 20 O        8.5140     5.6060     0.6160 O.2   1 <1>  -0.5700 
 21 C        8.6520     7.9300     0.2860 C.3   1 <1>  -0.0990 
 22 C       10.1620     7.7370     0.0910 C.3   1 <1>   0.0210 
 23 C       10.8140     9.0590    -0.2680 C.2   1 <1>  -0.1810 
 24 C       11.0310    10.1370     0.5860 C.2   1 <1>   0.1390 
 25 C       11.3030     9.4620    -1.4590 C.2   1 <1>  -0.3020 
 26 N       11.6020    11.1340    -0.0170 N.2   1 <1>  -0.7070 
 27 N       11.7740    10.7120    -1.2840 N.pl3 1 <1>   0.3000 
 28 H        0.6510    -1.9020     1.0860 H     1 <1>   0.1500 
 29 H        1.1430     3.4450     0.9860 H     1 <1>   0.1500 
 30 H        3.9590     0.3430    -1.6410 H     1 <1>   0.1500 
 31 H        4.3090     2.7870    -1.8030 H     1 <1>   0.1500 
 32 H        6.1990     4.5090    -0.4480 H     1 <1>   0.0800 
 33 H        5.1080     3.6720     0.6120 H     1 <1>   0.0800 
 34 H        3.6970     6.9490    -1.6220 H     1 <1>   0.0800 
 35 H        5.4120     6.7640    -1.4130 H     1 <1>   0.0800 
 36 H        6.6170     4.8310     2.0050 H     1 <1>   0.0800 
 37 H        5.0990     5.6630     2.1350 H     1 <1>   0.0800 
 38 H        3.6440     7.3670     0.9600 H     1 <1>   0.0800 
 39 H        4.0690     8.6410    -0.1180 H     1 <1>   0.0800 
 40 H        5.5370     8.2480     1.9950 H     1 <1>   0.0800 
 41 H        6.2460     8.7140     0.4830 H     1 <1>   0.0800 
 42 H        8.4970     8.6550     1.0620 H     1 <1>   0.0800 
 43 H        8.2350     8.3100    -0.6270 H     1 <1>   0.0800 
 44 H       10.3390     7.0260    -0.6970 H     1 <1>   0.0800 
 45 H       10.6050     7.3510     0.9930 H     1 <1>   0.0800 
 46 H       10.7620    10.1540     1.6280 H     1 <1>   0.1500 
 47 H       11.3430     8.9420    -2.3990 H     1 <1>   0.1500 
 48 H       12.2150    11.3010    -2.0010 H     1 <1>   0.2700 
@<TRIPOS>BOND
  1   1   2  1   
  2   1   3  1   
  3   2   4  ar  
  4   2   5  ar  
  5   3   6  2   
  6   3  28  1   
  7   4   6  1   
  8   4   7  ar  
  9   5   8  ar  
 10   5  29  1   
 11   7   9  ar  
 12   7  30  1   
 13   8   9  ar  
 14   8  10  1   
 15   9  31  1   
 16  10  11  2   
 17  10  12  am  
 18  12  13  1   
 19  12  14  1   
 20  13  15  1   
 21  13  32  1   
 22  13  33  1   
 23  14  16  1   
 24  14  34  1   
 25  14  35  1   
 26  15  17  1   
 27  15  36  1   
 28  15  37  1   
 29  16  18  1   
 30  16  38  1   
 31  16  39  1   
 32  17  18  1   
 33  17  19  am  
 34  18  40  1   
 35  18  41  1   
 36  19  20  2   
 37  19  21  1   
 38  21  22  1   
 39  21  42  1   
 40  21  43  1   
 41  22  23  1   
 42  22  44  1   
 43  22  45  1   
 44  23  24  1   
 45  23  25  2   
 46  24  26  2   
 47  24  46  1   
 48  25  27  1   
 49  25  47  1   
 50  26  27  1   
 51  27  48  1   
@<TRIPOS>SUBSTRUCTURE
  1 ****  13 GROUP 4 **** **** 0

# MOE 2024.06 (io_trps.svl 2023.06)
