@<TRIPOS>MOLECULE
NONAME
46 48 1 0 0 
SMALL
USER_CHARGES


@<TRIPOS>ATOM
  1 F       -0.7700     5.4380    -1.3140 F     1 <1>  -0.1900 
  2 C       -1.3440     4.5950    -0.4870 C.ar  1 <1>   0.1900 
  3 C       -0.5590     3.6660     0.2080 C.ar  1 <1>   0.1000 
  4 C       -2.7150     4.6730    -0.3450 C.ar  1 <1>  -0.1500 
  5 N        0.8340     3.5550     0.0930 N.pl3 1 <1>  -0.8380 
  6 C       -1.2250     2.8020     1.0680 C.ar  1 <1>  -0.1500 
  7 C       -3.3480     3.7970     0.5210 C.ar  1 <1>  -0.1500 
  8 C        1.6050     4.7230     0.6180 C.3   1 <1>   0.2090 
  9 C        1.3220     3.0650    -1.2330 C.3   1 <1>   0.2090 
 10 C       -2.6010     2.8640     1.2240 C.ar  1 <1>  -0.1500 
 11 C        3.1170     4.4260     0.6350 C.3   1 <1>   0.3430 
 12 C        2.8400     2.7860    -1.2020 C.3   1 <1>   0.3430 
 13 N        3.6200     3.9780    -0.7140 N.4   1 <1>  -0.9590 
 14 C        5.1020     3.7600    -0.7070 C.3   1 <1>   0.3430 
 15 C        5.8530     4.9390    -1.3530 C.3   1 <1>   0.1400 
 16 N        5.4170     6.2560    -0.8000 N.am  1 <1>  -0.4200 
 17 C        4.3920     6.9560    -1.3970 C.2   1 <1>   0.6900 
 18 C        6.0500     6.7810     0.3090 C.2   1 <1>   0.6160 
 19 O        3.6410     6.4050    -2.1770 O.2   1 <1>  -0.5700 
 20 N        4.1670     8.2510    -1.0250 N.am  1 <1>  -0.5390 
 21 O        6.7650     6.0580     0.9750 O.2   1 <1>  -0.5700 
 22 C        5.7900     8.1360     0.6650 C.2   1 <1>  -0.1360 
 23 C        4.8640     8.8600    -0.0010 C.2   1 <1>  -0.0290 
 24 C        4.5240    10.3070     0.2990 C.3   1 <1>  -0.1020 
 25 H       -3.2760     5.4040    -0.9000 H     1 <1>   0.1500 
 26 H       -0.6550     2.0760     1.6180 H     1 <1>   0.1500 
 27 H       -4.4170     3.8390     0.6480 H     1 <1>   0.1500 
 28 H        1.2730     4.9440     1.6180 H     1 <1>   0.0800 
 29 H        1.4170     5.5900     0.0080 H     1 <1>   0.0800 
 30 H        1.1070     3.7960    -1.9940 H     1 <1>   0.0800 
 31 H        0.7980     2.1590    -1.4880 H     1 <1>   0.0800 
 32 H       -3.0930     2.1840     1.8970 H     1 <1>   0.1500 
 33 H        3.3010     3.6550     1.3650 H     1 <1>   0.0800 
 34 H        3.6440     5.3110     0.9480 H     1 <1>   0.0800 
 35 H        3.1650     2.5160    -2.1930 H     1 <1>   0.0800 
 36 H        3.0150     1.9460    -0.5510 H     1 <1>   0.0800 
 37 H        3.4200     4.7580    -1.3760 H     1 <1>   0.4500 
 38 H        5.3440     2.8630    -1.2500 H     1 <1>   0.0800 
 39 H        5.4520     3.6330     0.3050 H     1 <1>   0.0800 
 40 H        5.6920     4.9250    -2.4170 H     1 <1>   0.0800 
 41 H        6.9110     4.8140    -1.1920 H     1 <1>   0.0800 
 42 H        3.4400     8.7440    -1.5500 H     1 <1>   0.3700 
 43 H        6.3660     8.5320     1.4820 H     1 <1>   0.1500 
 44 H        4.7110    10.9180    -0.5650 H     1 <1>   0.0800 
 45 H        5.1230    10.6760     1.1130 H     1 <1>   0.0800 
 46 H        3.4870    10.3970     0.5720 H     1 <1>   0.0800 
@<TRIPOS>BOND
  1   1   2  1   
  2   2   3  ar  
  3   2   4  ar  
  4   3   5  1   
  5   3   6  ar  
  6   4   7  ar  
  7   4  25  1   
  8   5   8  1   
  9   5   9  1   
 10   6  10  ar  
 11   6  26  1   
 12   7  10  ar  
 13   7  27  1   
 14   8  11  1   
 15   8  28  1   
 16   8  29  1   
 17   9  12  1   
 18   9  30  1   
 19   9  31  1   
 20  10  32  1   
 21  11  13  1   
 22  11  33  1   
 23  11  34  1   
 24  12  13  1   
 25  12  35  1   
 26  12  36  1   
 27  13  14  1   
 28  13  37  1   
 29  14  15  1   
 30  14  38  1   
 31  14  39  1   
 32  15  16  1   
 33  15  40  1   
 34  15  41  1   
 35  16  17  am  
 36  16  18  am  
 37  17  19  2   
 38  17  20  am  
 39  18  21  2   
 40  18  22  1   
 41  20  23  1   
 42  20  42  1   
 43  22  23  2   
 44  22  43  1   
 45  23  24  1   
 46  24  44  1   
 47  24  45  1   
 48  24  46  1   
@<TRIPOS>SUBSTRUCTURE
  1 ****   8 GROUP 4 **** **** 0

# MOE 2024.06 (io_trps.svl 2023.06)
