@<TRIPOS>MOLECULE
NONAME
55 58 1 0 0 
SMALL
USER_CHARGES


@<TRIPOS>ATOM
  1 O       -3.6740     1.7820    -2.1440 O.2   1 <1>  -0.5700 
  2 C       -3.2730     1.2030    -1.1490 C.2   1 <1>   0.5440 
  3 N       -3.9830     0.0940    -0.7390 N.am  1 <1>  -0.6600 
  4 C       -2.0990     1.7060    -0.4500 C.ar  1 <1>   0.0860 
  5 C       -3.4080    -1.2990    -0.6310 C.3   1 <1>   0.3640 
  6 C       -5.4620     0.1010    -0.9090 C.3   1 <1>   0.1400 
  7 C       -1.1270     2.4410    -1.1320 C.ar  1 <1>  -0.1500 
  8 C       -1.8880     1.4750     0.9130 C.ar  1 <1>  -0.1500 
  9 C       -1.8770    -1.2880    -0.7140 C.ar  1 <1>  -0.1430 
 10 C       -4.0270    -2.2730    -1.6850 C.3   1 <1>   0.2000 
 11 C       -5.8510    -0.8130    -2.0720 C.3   1 <1>   0.1200 
 12 C        0.0080     2.9050    -0.4950 C.ar  1 <1>   0.0830 
 13 C       -0.7540     1.9320     1.5620 C.ar  1 <1>  -0.1500 
 14 C       -1.1380    -1.6220     0.4130 C.ar  1 <1>  -0.1500 
 15 C       -1.2040    -0.9500    -1.8840 C.ar  1 <1>  -0.1500 
 16 O       -5.4210    -2.1130    -1.8000 O.3   1 <1>  -0.5600 
 17 C       -3.8270    -3.7700    -1.3710 C.3   1 <1>   0.1200 
 18 O        0.9240     3.6030    -1.2140 O.3   1 <1>  -0.3630 
 19 C        0.1980     2.6520     0.8630 C.ar  1 <1>   0.0830 
 20 C        0.2440    -1.5990     0.3890 C.ar  1 <1>   0.0830 
 21 C        0.1790    -0.9070    -1.9110 C.ar  1 <1>  -0.1500 
 22 O       -2.5160    -4.1030    -1.0480 O.3   1 <1>  -0.6800 
 23 C        2.1940     3.8080    -0.6240 C.3   1 <1>   0.1200 
 24 O        1.2950     3.1060     1.5130 O.3   1 <1>  -0.3630 
 25 O        0.8920    -1.9760     1.5180 O.3   1 <1>  -0.3620 
 26 C        0.9110    -1.2030    -0.7740 C.ar  1 <1>   0.0830 
 27 C        2.0480     4.1190     0.8730 C.3   1 <1>   0.1200 
 28 C        1.5970    -3.1940     1.4410 C.3   1 <1>   0.0400 
 29 O        2.2590    -1.0700    -0.8460 O.3   1 <1>  -0.3630 
 30 C        2.8380    -0.1330     0.0360 C.3   1 <1>   0.0400 
 31 H       -3.6820    -1.6780     0.3380 H     1 <1>   0.0800 
 32 H       -5.9340    -0.2400    -0.0050 H     1 <1>   0.0800 
 33 H       -5.8100     1.1010    -1.1080 H     1 <1>   0.0800 
 34 H       -1.2580     2.6480    -2.1790 H     1 <1>   0.1500 
 35 H       -2.6230     0.9200     1.4690 H     1 <1>   0.1500 
 36 H       -3.6090    -2.0640    -2.6530 H     1 <1>   0.0800 
 37 H       -5.4050    -0.4740    -2.9920 H     1 <1>   0.0800 
 38 H       -6.9200    -0.8370    -2.1870 H     1 <1>   0.0800 
 39 H       -0.6010     1.7340     2.6080 H     1 <1>   0.1500 
 40 H       -1.6260    -1.9080     1.3270 H     1 <1>   0.1500 
 41 H       -1.7520    -0.6910    -2.7740 H     1 <1>   0.1500 
 42 H       -4.1150    -4.3600    -2.2240 H     1 <1>   0.0800 
 43 H       -4.4390    -4.0510    -0.5310 H     1 <1>   0.0800 
 44 H        0.6980    -0.6230    -2.8080 H     1 <1>   0.1500 
 45 H       -1.8760    -3.7080    -1.6760 H     1 <1>   0.4000 
 46 H        2.7770     2.9160    -0.7670 H     1 <1>   0.0800 
 47 H        2.6690     4.6240    -1.1380 H     1 <1>   0.0800 
 48 H        1.5340     5.0540     1.0110 H     1 <1>   0.0800 
 49 H        3.0090     4.1690     1.3500 H     1 <1>   0.0800 
 50 H        2.0110    -3.4050     2.4100 H     1 <1>   0.0800 
 51 H        2.3850    -3.1030     0.7150 H     1 <1>   0.0800 
 52 H        0.9130    -3.9720     1.1530 H     1 <1>   0.0800 
 53 H        3.8340     0.0800    -0.3060 H     1 <1>   0.0800 
 54 H        2.8720    -0.5500     1.0250 H     1 <1>   0.0800 
 55 H        2.2440     0.7640     0.0320 H     1 <1>   0.0800 
@<TRIPOS>BOND
  1   1   2  2   
  2   2   3  am  
  3   2   4  1   
  4   3   5  1   
  5   3   6  1   
  6   4   7  ar  
  7   4   8  ar  
  8   5   9  1   
  9   5  10  1   
 10   5  31  1   
 11   6  11  1   
 12   6  32  1   
 13   6  33  1   
 14   7  12  ar  
 15   7  34  1   
 16   8  13  ar  
 17   8  35  1   
 18   9  14  ar  
 19   9  15  ar  
 20  10  16  1   
 21  10  17  1   
 22  10  36  1   
 23  11  16  1   
 24  11  37  1   
 25  11  38  1   
 26  12  18  1   
 27  12  19  ar  
 28  13  19  ar  
 29  13  39  1   
 30  14  20  ar  
 31  14  40  1   
 32  15  21  ar  
 33  15  41  1   
 34  17  22  1   
 35  17  42  1   
 36  17  43  1   
 37  18  23  1   
 38  19  24  1   
 39  20  25  1   
 40  20  26  ar  
 41  21  26  ar  
 42  21  44  1   
 43  22  45  1   
 44  23  27  1   
 45  23  46  1   
 46  23  47  1   
 47  24  27  1   
 48  25  28  1   
 49  26  29  1   
 50  27  48  1   
 51  27  49  1   
 52  28  50  1   
 53  28  51  1   
 54  28  52  1   
 55  29  30  1   
 56  30  53  1   
 57  30  54  1   
 58  30  55  1   
@<TRIPOS>SUBSTRUCTURE
  1 ****   9 GROUP 4 **** **** 0

# MOE 2024.06 (io_trps.svl 2023.06)
