@<TRIPOS>MOLECULE
NONAME
50 52 1 0 0 
SMALL
USER_CHARGES


@<TRIPOS>ATOM
  1 O        0.0610    -0.6560    -0.5890 O.2   1 <1>  -0.5700 
  2 C       -0.1530    -1.7930    -0.2150 C.2   1 <1>   0.5440 
  3 N       -1.4530    -2.1630    -0.0400 N.am  1 <1>  -0.7300 
  4 C        0.9390    -2.7200     0.0450 C.ar  1 <1>   0.0860 
  5 C       -2.6300    -1.2690    -0.2350 C.3   1 <1>   0.2010 
  6 C        2.2420    -2.2550     0.2330 C.ar  1 <1>  -0.1500 
  7 C        0.7430    -4.1020     0.1160 C.ar  1 <1>  -0.1500 
  8 C       -3.9260    -1.8390     0.3600 C.2   1 <1>   0.5690 
  9 C        3.2940    -3.1170     0.4870 C.ar  1 <1>  -0.1500 
 10 C        1.7890    -4.9700     0.3710 C.ar  1 <1>  -0.1500 
 11 O       -3.9190    -2.9940     0.7320 O.2   1 <1>  -0.5700 
 12 N       -5.0470    -1.0520     0.4620 N.am  1 <1>  -0.6600 
 13 C        3.0680    -4.4790     0.5590 C.ar  1 <1>  -0.1500 
 14 C       -6.3230    -1.5910     1.0240 C.3   1 <1>   0.1400 
 15 C       -5.1060     0.3650    -0.0090 C.3   1 <1>   0.1400 
 16 C       -7.4700    -1.5600    -0.0220 C.3   1 <1>   0.0000 
 17 C       -6.5510     0.8320    -0.2430 C.3   1 <1>  -0.1600 
 18 C       -8.8090    -1.7390     0.7300 C.3   1 <1>   0.2000 
 19 C       -7.3810    -0.2770    -0.9040 C.3   1 <1>  -0.1600 
 20 C       -7.4100    -2.8300    -0.8880 C.3   1 <1>  -0.1600 
 21 O       -9.8850    -1.4220    -0.1070 O.3   1 <1>  -0.5600 
 22 C       -8.8800    -3.2400     1.0370 C.3   1 <1>  -0.1600 
 23 C       -8.0890    -3.9410    -0.0760 C.3   1 <1>  -0.1600 
 24 C      -11.0570    -1.0490     0.5470 C.3   1 <1>   0.0400 
 25 H       -1.7040    -3.0650     0.3790 H     1 <1>   0.3700 
 26 H       -2.4200    -0.3200     0.2230 H     1 <1>   0.0800 
 27 H       -2.7730    -1.1150    -1.2890 H     1 <1>   0.0800 
 28 H        2.4290    -1.1950     0.1780 H     1 <1>   0.1500 
 29 H       -0.2400    -4.5100    -0.0350 H     1 <1>   0.1500 
 30 H        4.2870    -2.7270     0.6290 H     1 <1>   0.1500 
 31 H        1.6100    -6.0310     0.4230 H     1 <1>   0.1500 
 32 H        3.8840    -5.1530     0.7570 H     1 <1>   0.1500 
 33 H       -6.1790    -2.5930     1.3910 H     1 <1>   0.0800 
 34 H       -6.5900    -0.9840     1.8710 H     1 <1>   0.0800 
 35 H       -4.6300     1.0050     0.7150 H     1 <1>   0.0800 
 36 H       -4.5700     0.4480    -0.9390 H     1 <1>   0.0800 
 37 H       -6.9990     1.1150     0.6940 H     1 <1>   0.0800 
 38 H       -6.5420     1.7050    -0.8710 H     1 <1>   0.0800 
 39 H       -8.8570    -1.1260     1.6140 H     1 <1>   0.0800 
 40 H       -6.9050    -0.5260    -1.8360 H     1 <1>   0.0800 
 41 H       -8.3550     0.1040    -1.1500 H     1 <1>   0.0800 
 42 H       -7.9810    -2.6730    -1.7880 H     1 <1>   0.0800 
 43 H       -6.4020    -3.0900    -1.1610 H     1 <1>   0.0800 
 44 H       -8.4000    -3.4300     1.9810 H     1 <1>   0.0800 
 45 H       -9.8910    -3.5990     1.0920 H     1 <1>   0.0800 
 46 H       -7.3520    -4.6010     0.3500 H     1 <1>   0.0800 
 47 H       -8.7450    -4.5130    -0.7090 H     1 <1>   0.0800 
 48 H      -11.8090    -0.8630    -0.1990 H     1 <1>   0.0800 
 49 H      -10.8760    -0.1500     1.1100 H     1 <1>   0.0800 
 50 H      -11.3780    -1.8450     1.1950 H     1 <1>   0.0800 
@<TRIPOS>BOND
  1   1   2  2   
  2   2   3  am  
  3   2   4  1   
  4   3   5  1   
  5   3  25  1   
  6   4   6  ar  
  7   4   7  ar  
  8   5   8  1   
  9   5  26  1   
 10   5  27  1   
 11   6   9  ar  
 12   6  28  1   
 13   7  10  ar  
 14   7  29  1   
 15   8  11  2   
 16   8  12  am  
 17   9  13  ar  
 18   9  30  1   
 19  10  13  ar  
 20  10  31  1   
 21  12  14  1   
 22  12  15  1   
 23  13  32  1   
 24  14  16  1   
 25  14  33  1   
 26  14  34  1   
 27  15  17  1   
 28  15  35  1   
 29  15  36  1   
 30  16  18  1   
 31  16  19  1   
 32  16  20  1   
 33  17  19  1   
 34  17  37  1   
 35  17  38  1   
 36  18  21  1   
 37  18  22  1   
 38  18  39  1   
 39  19  40  1   
 40  19  41  1   
 41  20  23  1   
 42  20  42  1   
 43  20  43  1   
 44  21  24  1   
 45  22  23  1   
 46  22  44  1   
 47  22  45  1   
 48  23  46  1   
 49  23  47  1   
 50  24  48  1   
 51  24  49  1   
 52  24  50  1   
@<TRIPOS>SUBSTRUCTURE
  1 ****   8 GROUP 4 **** **** 0

# MOE 2024.06 (io_trps.svl 2023.06)
