@<TRIPOS>MOLECULE
NONAME
40 40 1 0 0 
SMALL
USER_CHARGES


@<TRIPOS>ATOM
  1 N       -0.0840     0.3160     0.3700 N.ar  1 <1>  -0.1790 
  2 C        1.0330     1.0200     0.2030 C.ar  1 <1>   0.7710 
  3 C       -1.2140     0.9400     0.6820 C.ar  1 <1>   0.7710 
  4 N        1.0270     2.3120     0.3430 N.ar  1 <1>  -0.6200 
  5 N        2.1620     0.3470    -0.1160 N.pl3 1 <1>  -0.8690 
  6 N       -1.2720     2.2230     0.8250 N.ar  1 <1>  -0.6200 
  7 N       -2.3490     0.2460     0.8500 N.pl3 1 <1>  -0.8690 
  8 C       -0.1300     2.8640     0.6470 C.ar  1 <1>   0.7200 
  9 C        3.5130     0.8660    -0.3770 C.3   1 <1>   0.3690 
 10 C       -2.6310    -1.2050     0.8800 C.3   1 <1>   0.2090 
 11 N       -0.1060     4.1900     0.7810 N.pl3 1 <1>  -0.8690 
 12 C        4.0690     1.5510     0.8720 C.3   1 <1>  -0.2400 
 13 C        4.3690    -0.3560    -0.7010 C.3   1 <1>  -0.2400 
 14 C        3.4990     1.8030    -1.5850 C.3   1 <1>  -0.2400 
 15 C       -3.0590    -1.6410    -0.5150 C.3   1 <1>  -0.2400 
 16 C       -1.2220     5.1050     1.0910 C.3   1 <1>   0.2090 
 17 C       -1.1830     6.2550     0.0940 C.3   1 <1>  -0.2400 
 18 H       -0.1000    -0.6760     0.2310 H     1 <1>   0.4570 
 19 H        2.1740    -0.6680    -0.2010 H     1 <1>   0.4000 
 20 H       -3.1760     0.8320     1.0200 H     1 <1>   0.4000 
 21 H       -3.4260    -1.3990     1.5830 H     1 <1>   0.0800 
 22 H       -1.7650    -1.7600     1.2000 H     1 <1>   0.0800 
 23 H        0.8010     4.6410     0.6470 H     1 <1>   0.4000 
 24 H        4.0220     0.8930     1.7200 H     1 <1>   0.0800 
 25 H        3.5300     2.4520     1.0950 H     1 <1>   0.0800 
 26 H        5.0970     1.8220     0.7130 H     1 <1>   0.0800 
 27 H        4.3950    -1.0390     0.1300 H     1 <1>   0.0800 
 28 H        5.3810    -0.0510    -0.9050 H     1 <1>   0.0800 
 29 H        3.9990    -0.8650    -1.5730 H     1 <1>   0.0800 
 30 H        2.9600     2.7070    -1.3730 H     1 <1>   0.0800 
 31 H        3.0570     1.3190    -2.4370 H     1 <1>   0.0800 
 32 H        4.5050     2.0820    -1.8420 H     1 <1>   0.0800 
 33 H       -3.9470    -1.1120    -0.8140 H     1 <1>   0.0800 
 34 H       -3.2850    -2.6930    -0.5110 H     1 <1>   0.0800 
 35 H       -2.2820    -1.4650    -1.2350 H     1 <1>   0.0800 
 36 H       -1.1090     5.4800     2.0940 H     1 <1>   0.0800 
 37 H       -2.1670     4.5930     1.0210 H     1 <1>   0.0800 
 38 H       -0.2570     6.7960     0.1790 H     1 <1>   0.0800 
 39 H       -1.9920     6.9340     0.2950 H     1 <1>   0.0800 
 40 H       -1.2920     5.8820    -0.9080 H     1 <1>   0.0800 
@<TRIPOS>BOND
  1   1   2  ar  
  2   1   3  ar  
  3   1  18  1   
  4   2   4  ar  
  5   2   5  1   
  6   3   6  ar  
  7   3   7  1   
  8   4   8  ar  
  9   5   9  1   
 10   5  19  1   
 11   6   8  ar  
 12   7  10  1   
 13   7  20  1   
 14   8  11  1   
 15   9  12  1   
 16   9  13  1   
 17   9  14  1   
 18  10  15  1   
 19  10  21  1   
 20  10  22  1   
 21  11  16  1   
 22  11  23  1   
 23  12  24  1   
 24  12  25  1   
 25  12  26  1   
 26  13  27  1   
 27  13  28  1   
 28  13  29  1   
 29  14  30  1   
 30  14  31  1   
 31  14  32  1   
 32  15  33  1   
 33  15  34  1   
 34  15  35  1   
 35  16  17  1   
 36  16  36  1   
 37  16  37  1   
 38  17  38  1   
 39  17  39  1   
 40  17  40  1   
@<TRIPOS>SUBSTRUCTURE
  1 ****   2 GROUP 4 **** **** 0

# MOE 2024.06 (io_trps.svl 2023.06)
