@<TRIPOS>MOLECULE
NONAME
48 50 1 0 0 
SMALL
USER_CHARGES


@<TRIPOS>ATOM
  1 S       -1.4650    -0.1020     0.7420 S.3   1 <1>  -0.0800 
  2 C       -1.3590    -1.4450    -0.3880 C.2   1 <1>  -0.1400 
  3 C       -1.5710     1.0540    -0.5720 C.2   1 <1>  -0.1400 
  4 C       -1.3950    -0.9970    -1.6570 C.2   1 <1>  -0.1500 
  5 C       -1.2370    -2.8350     0.1950 C.3   1 <1>   0.5230 
  6 C       -1.5200     0.4250    -1.7600 C.2   1 <1>  -0.1500 
  7 C       -1.6920     2.5180    -0.2030 C.3   1 <1>  -0.0600 
  8 N       -2.6090    -3.3860     0.3900 N.4   1 <1>  -0.9590 
  9 C       -2.6630    -4.8840     0.4680 C.3   1 <1>   0.3430 
 10 C       -3.3570    -2.6730     1.4700 C.3   1 <1>   0.3430 
 11 C       -4.1120    -5.4730     0.5560 C.3   1 <1>   0.4230 
 12 C       -4.6670    -3.3890     1.8430 C.3   1 <1>  -0.1600 
 13 N       -4.5050    -6.5160    -0.4880 N.4   1 <1>  -0.9590 
 14 C       -5.2150    -4.4020     0.8010 C.3   1 <1>   0.0000 
 15 C       -5.9710    -6.8600    -0.4530 C.3   1 <1>   0.3430 
 16 C       -4.1140    -6.1990    -1.9030 C.3   1 <1>   0.2630 
 17 C       -6.4290    -5.1470     1.4230 C.3   1 <1>  -0.1600 
 18 C       -5.7390    -3.6400    -0.4600 C.3   1 <1>   0.1200 
 19 C       -6.5790    -6.6070     0.9320 C.3   1 <1>  -0.1600 
 20 O       -4.7260    -3.2120    -1.3110 O.3   1 <1>  -0.6800 
 21 H       -1.3350    -1.5930    -2.5520 H     1 <1>   0.1500 
 22 H       -0.6940    -2.8030     1.1250 H     1 <1>   0.0800 
 23 H       -0.6910    -3.4490    -0.5020 H     1 <1>   0.0800 
 24 H       -1.5610     0.9090    -2.7210 H     1 <1>   0.1500 
 25 H       -1.7440     3.1220    -1.0910 H     1 <1>   0.0800 
 26 H       -0.8370     2.8240     0.3730 H     1 <1>   0.0800 
 27 H       -2.5810     2.6810     0.3790 H     1 <1>   0.0800 
 28 H       -3.1310    -3.1200    -0.4710 H     1 <1>   0.4500 
 29 H       -2.1600    -5.3050    -0.3850 H     1 <1>   0.0800 
 30 H       -2.1260    -5.1940     1.3500 H     1 <1>   0.0800 
 31 H       -2.7410    -2.5740     2.3500 H     1 <1>   0.0800 
 32 H       -3.5940    -1.6770     1.1260 H     1 <1>   0.0800 
 33 H       -4.0870    -6.0210     1.4840 H     1 <1>   0.0800 
 34 H       -4.4850    -3.8980     2.7750 H     1 <1>   0.0800 
 35 H       -5.4110    -2.6400     2.0580 H     1 <1>   0.0800 
 36 H       -4.0200    -7.3910    -0.2330 H     1 <1>   0.4500 
 37 H       -6.5030    -6.2600    -1.1730 H     1 <1>   0.0800 
 38 H       -6.1120    -7.8950    -0.7280 H     1 <1>   0.0800 
 39 H       -4.6430    -5.3300    -2.2580 H     1 <1>   0.0800 
 40 H       -4.3590    -7.0270    -2.5500 H     1 <1>   0.0800 
 41 H       -3.0560    -6.0150    -1.9800 H     1 <1>   0.0800 
 42 H       -6.3490    -5.1810     2.4980 H     1 <1>   0.0800 
 43 H       -7.3380    -4.6060     1.2140 H     1 <1>   0.0800 
 44 H       -6.3000    -2.7710    -0.1560 H     1 <1>   0.0800 
 45 H       -6.4000    -4.2580    -1.0420 H     1 <1>   0.0800 
 46 H       -7.6250    -6.8620     0.9060 H     1 <1>   0.0800 
 47 H       -6.1190    -7.2790     1.6370 H     1 <1>   0.0800 
 48 H       -5.1020    -2.6090    -1.9970 H     1 <1>   0.4000 
@<TRIPOS>BOND
  1   1   2  1   
  2   1   3  1   
  3   2   4  2   
  4   2   5  1   
  5   3   6  2   
  6   3   7  1   
  7   4   6  1   
  8   4  21  1   
  9   5   8  1   
 10   5  22  1   
 11   5  23  1   
 12   6  24  1   
 13   7  25  1   
 14   7  26  1   
 15   7  27  1   
 16   8   9  1   
 17   8  10  1   
 18   8  28  1   
 19   9  11  1   
 20   9  29  1   
 21   9  30  1   
 22  10  12  1   
 23  10  31  1   
 24  10  32  1   
 25  11  13  1   
 26  11  14  1   
 27  11  33  1   
 28  12  14  1   
 29  12  34  1   
 30  12  35  1   
 31  13  15  1   
 32  13  16  1   
 33  13  36  1   
 34  14  17  1   
 35  14  18  1   
 36  15  19  1   
 37  15  37  1   
 38  15  38  1   
 39  16  39  1   
 40  16  40  1   
 41  16  41  1   
 42  17  19  1   
 43  17  42  1   
 44  17  43  1   
 45  18  20  1   
 46  18  44  1   
 47  18  45  1   
 48  19  46  1   
 49  19  47  1   
 50  20  48  1   
@<TRIPOS>SUBSTRUCTURE
  1 ****   8 GROUP 4 **** **** 0

# MOE 2024.06 (io_trps.svl 2023.06)
