@<TRIPOS>MOLECULE
NONAME
59 62 1 0 0 
SMALL
USER_CHARGES


@<TRIPOS>ATOM
  1 O       -0.1650    -0.4930    -0.6410 O.2   1 <1>  -0.5700 
  2 C       -0.0770    -1.5730    -0.0960 C.2   1 <1>   0.5690 
  3 N        0.8120    -1.8190     0.9230 N.am  1 <1>  -0.6600 
  4 C       -1.0300    -2.6660    -0.6200 C.3   1 <1>   0.4040 
  5 C        1.7540    -0.7420     1.3650 C.3   1 <1>   0.2200 
  6 C        0.9300    -3.1360     1.6290 C.3   1 <1>   0.0600 
  7 N       -2.1160    -2.1110    -1.5130 N.4   1 <1>  -0.9590 
  8 C        3.1970    -1.2490     1.4020 C.3   1 <1>  -0.2400 
  9 C        1.3150    -0.1930     2.7220 C.3   1 <1>  -0.2400 
 10 C       -3.1510    -1.3720    -0.7110 C.3   1 <1>   0.3430 
 11 C       -2.7240    -3.1230    -2.4180 C.3   1 <1>   0.3430 
 12 C       -4.1420    -0.6280    -1.6210 C.3   1 <1>   0.1430 
 13 C       -3.6860    -2.4260    -3.3860 C.3   1 <1>  -0.1600 
 14 C       -5.2310    -0.0230    -0.7660 C.ar  1 <1>   0.1670 
 15 C       -4.7580    -1.6000    -2.6510 C.3   1 <1>  -0.1600 
 16 C       -3.5110     0.6210    -2.2960 C.3   1 <1>  -0.1600 
 17 N       -5.8850    -0.6660     0.1700 N.ar  1 <1>  -0.6200 
 18 C       -5.4560     1.2800    -1.0790 C.ar  1 <1>  -0.1440 
 19 C       -4.5460     1.7570    -2.1830 C.3   1 <1>  -0.0170 
 20 C       -6.8320     0.0450     0.8040 C.ar  1 <1>   0.6200 
 21 C       -6.4310     1.9410    -0.3780 C.ar  1 <1>   0.1600 
 22 N       -7.1220     1.3310     0.5590 N.ar  1 <1>  -0.6200 
 23 C       -7.6040    -0.6320     1.8360 C.ar  1 <1>   0.0000 
 24 C       -7.0490    -1.6430     2.6260 C.ar  1 <1>  -0.1500 
 25 C       -8.9390    -0.3010     2.0830 C.ar  1 <1>  -0.1500 
 26 C       -7.7840    -2.2880     3.6040 C.ar  1 <1>  -0.1500 
 27 C       -9.6800    -0.9410     3.0590 C.ar  1 <1>  -0.1500 
 28 C       -9.1030    -1.9380     3.8230 C.ar  1 <1>  -0.1500 
 29 H       -1.4730    -3.1780     0.2160 H     1 <1>   0.0800 
 30 H       -0.4350    -3.3710    -1.1740 H     1 <1>   0.0800 
 31 H        1.7230     0.0730     0.6590 H     1 <1>   0.0800 
 32 H        0.0310    -3.7180     1.5370 H     1 <1>   0.0800 
 33 H        1.1130    -2.9830     2.6780 H     1 <1>   0.0800 
 34 H        1.7530    -3.6960     1.2180 H     1 <1>   0.0800 
 35 H       -1.6360    -1.3900    -2.0790 H     1 <1>   0.4500 
 36 H        3.3390    -1.9820     2.1750 H     1 <1>   0.0800 
 37 H        3.8590    -0.4260     1.6030 H     1 <1>   0.0800 
 38 H        3.4670    -1.6680     0.4500 H     1 <1>   0.0800 
 39 H        1.4040    -0.9320     3.4950 H     1 <1>   0.0800 
 40 H        0.2980     0.1510     2.6680 H     1 <1>   0.0800 
 41 H        1.9350     0.6440     2.9880 H     1 <1>   0.0800 
 42 H       -2.6760    -0.6570    -0.0580 H     1 <1>   0.0800 
 43 H       -3.7030    -2.0670    -0.1000 H     1 <1>   0.0800 
 44 H       -3.2660    -3.8540    -1.8390 H     1 <1>   0.0800 
 45 H       -1.9560    -3.6320    -2.9790 H     1 <1>   0.0800 
 46 H       -4.1720    -3.1730    -3.9900 H     1 <1>   0.0800 
 47 H       -3.1230    -1.7990    -4.0550 H     1 <1>   0.0800 
 48 H       -5.3570    -1.0550    -3.3610 H     1 <1>   0.0800 
 49 H       -5.4190    -2.2770    -2.1350 H     1 <1>   0.0800 
 50 H       -3.2340     0.4530    -3.3210 H     1 <1>   0.0800 
 51 H       -2.6300     0.9210    -1.7520 H     1 <1>   0.0800 
 52 H       -5.1080     1.8560    -3.0970 H     1 <1>   0.0800 
 53 H       -4.0810     2.6970    -1.9390 H     1 <1>   0.0800 
 54 H       -6.6510     2.9750    -0.5850 H     1 <1>   0.1500 
 55 H       -6.0240    -1.9270     2.4730 H     1 <1>   0.1500 
 56 H       -9.4050     0.4740     1.4980 H     1 <1>   0.1500 
 57 H       -7.3310    -3.0630     4.1980 H     1 <1>   0.1500 
 58 H      -10.7060    -0.6620     3.2250 H     1 <1>   0.1500 
 59 H       -9.6780    -2.4380     4.5840 H     1 <1>   0.1500 
@<TRIPOS>BOND
  1   1   2  2   
  2   2   3  am  
  3   2   4  1   
  4   3   5  1   
  5   3   6  1   
  6   4   7  1   
  7   4  29  1   
  8   4  30  1   
  9   5   8  1   
 10   5   9  1   
 11   5  31  1   
 12   6  32  1   
 13   6  33  1   
 14   6  34  1   
 15   7  10  1   
 16   7  11  1   
 17   7  35  1   
 18   8  36  1   
 19   8  37  1   
 20   8  38  1   
 21   9  39  1   
 22   9  40  1   
 23   9  41  1   
 24  10  12  1   
 25  10  42  1   
 26  10  43  1   
 27  11  13  1   
 28  11  44  1   
 29  11  45  1   
 30  12  14  1   
 31  12  15  1   
 32  12  16  1   
 33  13  15  1   
 34  13  46  1   
 35  13  47  1   
 36  14  17  ar  
 37  14  18  ar  
 38  15  48  1   
 39  15  49  1   
 40  16  19  1   
 41  16  50  1   
 42  16  51  1   
 43  17  20  ar  
 44  18  19  1   
 45  18  21  ar  
 46  19  52  1   
 47  19  53  1   
 48  20  22  ar  
 49  20  23  1   
 50  21  22  ar  
 51  21  54  1   
 52  23  24  ar  
 53  23  25  ar  
 54  24  26  ar  
 55  24  55  1   
 56  25  27  ar  
 57  25  56  1   
 58  26  28  ar  
 59  26  57  1   
 60  27  28  ar  
 61  27  58  1   
 62  28  59  1   
@<TRIPOS>SUBSTRUCTURE
  1 ****  10 GROUP 4 **** **** 0

# MOE 2024.06 (io_trps.svl 2023.06)
