@<TRIPOS>MOLECULE
NONAME
43 47 1 0 0 
SMALL
USER_CHARGES


@<TRIPOS>ATOM
  1 S       -0.9310     0.5460    -1.1230 S.3   1 <1>  -0.0800 
  2 C       -0.4580     2.0090    -0.2850 C.2   1 <1>  -0.1400 
  3 C        0.6260     0.4860    -1.9350 C.2   1 <1>  -0.1100 
  4 C        0.7870     2.3880    -0.6030 C.2   1 <1>  -0.1810 
  5 C       -1.3720     2.7310     0.6670 C.3   1 <1>   0.0200 
  6 C        1.4090     1.5160    -1.5580 C.2   1 <1>  -0.1500 
  7 C        1.4150     3.6330     0.0270 C.3   1 <1>   0.4610 
  8 C       -0.8120     4.1510     0.8470 C.3   1 <1>   0.1200 
  9 O        0.5800     4.1250     1.0600 O.3   1 <1>  -0.5600 
 10 C        2.7440     3.2750     0.7010 C.3   1 <1>  -0.1600 
 11 C        1.6260     4.7360    -1.0180 C.3   1 <1>  -0.1600 
 12 C        3.4110     4.5150     1.2910 C.3   1 <1>   0.2090 
 13 C        2.3240     5.9540    -0.4160 C.3   1 <1>   0.2090 
 14 N        3.6100     5.5180     0.2050 N.pl3 1 <1>  -0.8380 
 15 C        4.7890     6.1770    -0.0080 C.2   1 <1>   0.2710 
 16 N        4.7100     7.4710    -0.3490 N.2   1 <1>  -0.6210 
 17 C        6.0040     5.5480     0.1170 C.2   1 <1>  -0.1410 
 18 C        5.8020     8.1350    -0.5420 C.2   1 <1>   0.9190 
 19 C        7.1300     6.3010    -0.1080 C.cat 1 <1>   0.7910 
 20 N        7.0320     7.5870    -0.4310 N.pl3 1 <1>  -0.6690 
 21 N        5.7000     9.4210    -0.8650 N.pl3 1 <1>  -0.8500 
 22 N        8.4430     6.0170    -0.0810 N.pl3 1 <1>  -0.3930 
 23 C        8.3190     8.0320    -0.5920 C.2   1 <1>   0.5030 
 24 N        9.1870     7.1140    -0.3880 N.2   1 <1>  -0.2600 
 25 H        0.7930    -0.3270    -2.6200 H     1 <1>   0.1500 
 26 H       -1.3980     2.2180     1.6110 H     1 <1>   0.0800 
 27 H       -2.3690     2.7800     0.2690 H     1 <1>   0.0800 
 28 H        2.4060     1.6990    -1.9180 H     1 <1>   0.1500 
 29 H       -1.2670     4.6250     1.6980 H     1 <1>   0.0800 
 30 H       -1.0130     4.7460    -0.0260 H     1 <1>   0.0800 
 31 H        3.4100     2.8320    -0.0140 H     1 <1>   0.0800 
 32 H        2.5610     2.5520     1.4740 H     1 <1>   0.0800 
 33 H        0.6880     5.0230    -1.4510 H     1 <1>   0.0800 
 34 H        2.2390     4.3550    -1.8140 H     1 <1>   0.0800 
 35 H        4.3450     4.2490     1.7510 H     1 <1>   0.0800 
 36 H        2.7800     4.9420     2.0530 H     1 <1>   0.0800 
 37 H        1.7000     6.4080     0.3350 H     1 <1>   0.0800 
 38 H        2.4990     6.6790    -1.1930 H     1 <1>   0.0800 
 39 H        6.0740     4.5100     0.3660 H     1 <1>   0.1500 
 40 H        4.7580     9.8120    -0.9240 H     1 <1>   0.4000 
 41 H        6.4620    10.0810    -0.9800 H     1 <1>   0.4000 
 42 H        8.8540     5.1020     0.1350 H     1 <1>   0.4500 
 43 H        8.5530     9.0500    -0.8640 H     1 <1>   0.1500 
@<TRIPOS>BOND
  1   1   2  1   
  2   1   3  1   
  3   2   4  2   
  4   2   5  1   
  5   3   6  2   
  6   3  25  1   
  7   4   6  1   
  8   4   7  1   
  9   5   8  1   
 10   5  26  1   
 11   5  27  1   
 12   6  28  1   
 13   7   9  1   
 14   7  10  1   
 15   7  11  1   
 16   8   9  1   
 17   8  29  1   
 18   8  30  1   
 19  10  12  1   
 20  10  31  1   
 21  10  32  1   
 22  11  13  1   
 23  11  33  1   
 24  11  34  1   
 25  12  14  1   
 26  12  35  1   
 27  12  36  1   
 28  13  14  1   
 29  13  37  1   
 30  13  38  1   
 31  14  15  1   
 32  15  16  1   
 33  15  17  2   
 34  16  18  2   
 35  17  19  1   
 36  17  39  1   
 37  18  20  1   
 38  18  21  1   
 39  19  20  ar  
 40  19  22  ar  
 41  20  23  1   
 42  21  40  1   
 43  21  41  1   
 44  22  24  1   
 45  22  42  1   
 46  23  24  2   
 47  23  43  1   
@<TRIPOS>SUBSTRUCTURE
  1 ****  14 GROUP 4 **** **** 0

# MOE 2024.06 (io_trps.svl 2023.06)
