@<TRIPOS>MOLECULE
NONAME
43 45 1 0 0 
SMALL
USER_CHARGES


@<TRIPOS>ATOM
  1 N       -0.9230     1.5930    -0.3560 N.2   1 <1>  -0.6210 
  2 C       -1.8460     0.6970    -0.2180 C.2   1 <1>   0.9190 
  3 C       -0.7080     2.4500     0.6500 C.2   1 <1>   0.2710 
  4 N       -2.5990     0.5730     0.8980 N.pl3 1 <1>  -0.6690 
  5 N       -2.0610    -0.1380    -1.2310 N.pl3 1 <1>  -0.8500 
  6 N        0.2480     3.3960     0.4740 N.pl3 1 <1>  -0.8690 
  7 C       -1.4290     2.3900     1.8150 C.2   1 <1>  -0.1410 
  8 C       -2.3900     1.4120     1.9090 C.cat 1 <1>   0.7910 
  9 C       -3.6050    -0.2650     1.3090 C.2   1 <1>   0.5030 
 10 C        1.2300     3.4670    -0.6170 C.3   1 <1>   0.4700 
 11 N       -3.2580     1.0660     2.8740 N.pl3 1 <1>  -0.3930 
 12 N       -4.0200     0.0060     2.4890 N.2   1 <1>  -0.2600 
 13 C        2.4650     4.1650    -0.0670 C.2   1 <1>  -0.1810 
 14 C        0.6340     4.2380    -1.7890 C.3   1 <1>  -0.2400 
 15 C        3.7590     3.6530    -0.1400 C.2   1 <1>   0.1080 
 16 C        2.6070     5.3540     0.5730 C.2   1 <1>  -0.3320 
 17 N        4.6310     4.4400     0.4000 N.2   1 <1>  -0.7070 
 18 C        4.1670     2.3360    -0.7630 C.3   1 <1>  -0.0590 
 19 N        3.9280     5.4950     0.8390 N.pl3 1 <1>   0.3140 
 20 C        1.5660     6.4000     0.9500 C.3   1 <1>  -0.0600 
 21 C        4.6110     6.6230     1.5110 C.3   1 <1>   0.0960 
 22 C        5.0220     7.7040     0.5030 C.3   1 <1>  -0.2400 
 23 H       -1.4900    -0.0160    -2.0700 H     1 <1>   0.4000 
 24 H       -2.7850    -0.8470    -1.2890 H     1 <1>   0.4000 
 25 H        0.5780     3.9830     1.2460 H     1 <1>   0.4000 
 26 H       -1.2500     3.0780     2.6170 H     1 <1>   0.1500 
 27 H       -3.9890    -1.0620     0.6910 H     1 <1>   0.1500 
 28 H        1.4810     2.4700    -0.9360 H     1 <1>   0.0800 
 29 H       -3.3540     1.5210     3.7890 H     1 <1>   0.4500 
 30 H        0.3510     5.2290    -1.4900 H     1 <1>   0.0800 
 31 H       -0.2260     3.7210    -2.1700 H     1 <1>   0.0800 
 32 H        1.3650     4.3150    -2.5730 H     1 <1>   0.0800 
 33 H        3.8890     2.3200    -1.8000 H     1 <1>   0.0800 
 34 H        3.6910     1.5240    -0.2460 H     1 <1>   0.0800 
 35 H        5.2320     2.2150    -0.6890 H     1 <1>   0.0800 
 36 H        0.5800     6.0970     0.6520 H     1 <1>   0.0800 
 37 H        1.7890     7.3320     0.4620 H     1 <1>   0.0800 
 38 H        1.5640     6.5570     2.0140 H     1 <1>   0.0800 
 39 H        5.4840     6.2340     2.0030 H     1 <1>   0.0800 
 40 H        3.9560     7.0330     2.2560 H     1 <1>   0.0800 
 41 H        5.6880     7.2840    -0.2310 H     1 <1>   0.0800 
 42 H        5.5310     8.5030     1.0100 H     1 <1>   0.0800 
 43 H        4.1570     8.1050     0.0060 H     1 <1>   0.0800 
@<TRIPOS>BOND
  1   1   2  2   
  2   1   3  1   
  3   2   4  1   
  4   2   5  1   
  5   3   6  1   
  6   3   7  2   
  7   4   8  ar  
  8   4   9  1   
  9   5  23  1   
 10   5  24  1   
 11   6  10  1   
 12   6  25  1   
 13   7   8  1   
 14   7  26  1   
 15   8  11  ar  
 16   9  12  2   
 17   9  27  1   
 18  10  13  1   
 19  10  14  1   
 20  10  28  1   
 21  11  12  1   
 22  11  29  1   
 23  13  15  1   
 24  13  16  2   
 25  14  30  1   
 26  14  31  1   
 27  14  32  1   
 28  15  17  2   
 29  15  18  1   
 30  16  19  1   
 31  16  20  1   
 32  17  19  1   
 33  18  33  1   
 34  18  34  1   
 35  18  35  1   
 36  19  21  1   
 37  20  36  1   
 38  20  37  1   
 39  20  38  1   
 40  21  22  1   
 41  21  39  1   
 42  21  40  1   
 43  22  41  1   
 44  22  42  1   
 45  22  43  1   
@<TRIPOS>SUBSTRUCTURE
  1 ****   6 GROUP 4 **** **** 0

# MOE 2024.06 (io_trps.svl 2023.06)
