@<TRIPOS>MOLECULE
NONAME
53 56 1 0 0 
SMALL
USER_CHARGES


@<TRIPOS>ATOM
  1 O        1.6170     0.6170    -2.4930 O.2   1 <1>  -0.5700 
  2 C        1.8760     0.7970    -1.3160 C.2   1 <1>   0.5440 
  3 N        1.3320     1.8940    -0.6850 N.am  1 <1>  -0.6600 
  4 C        2.7450    -0.1030    -0.6040 C.ar  1 <1>   0.0860 
  5 C        1.4420     2.1930     0.7590 C.3   1 <1>   0.1400 
  6 C        0.3970     2.8210    -1.3560 C.3   1 <1>   0.1400 
  7 C        2.3500    -1.4050    -0.2300 C.ar  1 <1>   0.4100 
  8 C        4.0260     0.3130    -0.2670 C.ar  1 <1>  -0.1500 
  9 C        0.2750     3.1310     1.0410 C.3   1 <1>  -0.1600 
 10 C        0.0270     3.8440    -0.2870 C.3   1 <1>  -0.1600 
 11 N        3.1500    -2.2480     0.4260 N.ar  1 <1>  -0.6200 
 12 N        1.1000    -1.9290    -0.5140 N.pl3 1 <1>  -0.8380 
 13 C        4.8410    -0.5620     0.4120 C.ar  1 <1>  -0.1500 
 14 C        4.3560    -1.8170     0.7290 C.ar  1 <1>   0.1600 
 15 C        0.9950    -3.1940    -1.2830 C.3   1 <1>   0.2090 
 16 C       -0.1670    -1.1820    -0.3000 C.3   1 <1>   0.2090 
 17 C       -0.0500    -4.1070    -0.6440 C.3   1 <1>  -0.1600 
 18 C       -1.2100    -2.1020     0.3300 C.3   1 <1>  -0.1600 
 19 C       -1.3860    -3.3710    -0.5020 C.3   1 <1>   0.2000 
 20 O       -2.3050    -4.1760     0.1650 O.3   1 <1>  -0.5600 
 21 C       -2.9670    -5.1170    -0.6230 C.3   1 <1>   0.2630 
 22 C       -3.9790    -5.8640     0.2300 C.ar  1 <1>  -0.1430 
 23 C       -3.6800    -6.2240     1.5370 C.ar  1 <1>   0.1600 
 24 C       -5.2130    -6.2110    -0.2870 C.ar  1 <1>  -0.1500 
 25 N       -4.4890    -6.8930     2.3460 N.ar  1 <1>  -0.6200 
 26 C       -6.0690    -6.9020     0.5430 C.ar  1 <1>  -0.1500 
 27 C       -5.6640    -7.2140     1.8290 C.ar  1 <1>   0.1600 
 28 H        2.3770     2.6930     0.9430 H     1 <1>   0.0800 
 29 H        1.3840     1.2970     1.3550 H     1 <1>   0.0800 
 30 H       -0.4710     2.2720    -1.6780 H     1 <1>   0.0800 
 31 H        0.8660     3.2830    -2.2080 H     1 <1>   0.0800 
 32 H        4.3650     1.2970    -0.5400 H     1 <1>   0.1500 
 33 H        0.4960     3.8150     1.8400 H     1 <1>   0.0800 
 34 H       -0.5870     2.5450     1.3080 H     1 <1>   0.0800 
 35 H       -0.9900     4.1780    -0.3900 H     1 <1>   0.0800 
 36 H        0.6840     4.6920    -0.3750 H     1 <1>   0.0800 
 37 H        5.8410    -0.2820     0.6920 H     1 <1>   0.1500 
 38 H        4.9980    -2.5010     1.2590 H     1 <1>   0.1500 
 39 H        1.9490    -3.6950    -1.3090 H     1 <1>   0.0800 
 40 H        0.7140    -2.9610    -2.2960 H     1 <1>   0.0800 
 41 H       -0.5210    -0.8080    -1.2460 H     1 <1>   0.0800 
 42 H        0.0060    -0.3460     0.3550 H     1 <1>   0.0800 
 43 H        0.3070    -4.4060     0.3260 H     1 <1>   0.0800 
 44 H       -0.1590    -4.9810    -1.2570 H     1 <1>   0.0800 
 45 H       -2.1470    -1.5820     0.3980 H     1 <1>   0.0800 
 46 H       -0.8870    -2.3620     1.3220 H     1 <1>   0.0800 
 47 H       -1.7810    -3.1080    -1.4700 H     1 <1>   0.0800 
 48 H       -2.2480    -5.8090    -1.0230 H     1 <1>   0.0800 
 49 H       -3.4640    -4.6000    -1.4260 H     1 <1>   0.0800 
 50 H       -2.7210    -5.9440     1.9380 H     1 <1>   0.1500 
 51 H       -5.5010    -5.9570    -1.2920 H     1 <1>   0.1500 
 52 H       -7.0430    -7.1990     0.2000 H     1 <1>   0.1500 
 53 H       -6.3410    -7.7550     2.4680 H     1 <1>   0.1500 
@<TRIPOS>BOND
  1   1   2  2   
  2   2   3  am  
  3   2   4  1   
  4   3   5  1   
  5   3   6  1   
  6   4   7  ar  
  7   4   8  ar  
  8   5   9  1   
  9   5  28  1   
 10   5  29  1   
 11   6  10  1   
 12   6  30  1   
 13   6  31  1   
 14   7  11  ar  
 15   7  12  1   
 16   8  13  ar  
 17   8  32  1   
 18   9  10  1   
 19   9  33  1   
 20   9  34  1   
 21  10  35  1   
 22  10  36  1   
 23  11  14  ar  
 24  12  15  1   
 25  12  16  1   
 26  13  14  ar  
 27  13  37  1   
 28  14  38  1   
 29  15  17  1   
 30  15  39  1   
 31  15  40  1   
 32  16  18  1   
 33  16  41  1   
 34  16  42  1   
 35  17  19  1   
 36  17  43  1   
 37  17  44  1   
 38  18  19  1   
 39  18  45  1   
 40  18  46  1   
 41  19  20  1   
 42  19  47  1   
 43  20  21  1   
 44  21  22  1   
 45  21  48  1   
 46  21  49  1   
 47  22  23  ar  
 48  22  24  ar  
 49  23  25  ar  
 50  23  50  1   
 51  24  26  ar  
 52  24  51  1   
 53  25  27  ar  
 54  26  27  ar  
 55  26  52  1   
 56  27  53  1   
@<TRIPOS>SUBSTRUCTURE
  1 ****  16 GROUP 4 **** **** 0

# MOE 2024.06 (io_trps.svl 2023.06)
