@<TRIPOS>MOLECULE
NONAME
50 52 1 0 0 
SMALL
USER_CHARGES


@<TRIPOS>ATOM
  1 O       -1.3120     0.8620     3.2030 O.3   1 <1>  -0.5600 
  2 C        0.0130     0.8010     2.7700 C.3   1 <1>   0.1200 
  3 C       -2.1740     0.8740     2.1020 C.3   1 <1>   0.1200 
  4 C        0.0270     1.5450     1.4420 C.3   1 <1>   0.2890 
  5 C       -1.3020     1.0860     0.8580 C.3   1 <1>  -0.0800 
  6 N        0.0150     3.0060     1.7200 N.pl3 1 <1>  -0.8690 
  7 C       -1.9260     2.0120    -0.2020 C.3   1 <1>  -0.0170 
  8 C        0.6290     3.9850     1.0260 C.ar  1 <1>   0.4100 
  9 C       -3.1930     1.4020    -0.7810 C.ar  1 <1>  -0.1430 
 10 N        1.2270     3.6350    -0.0910 N.ar  1 <1>  -0.6200 
 11 C        0.5990     5.3230     1.4930 C.ar  1 <1>  -0.1430 
 12 C       -3.1480     0.4390    -1.7680 C.ar  1 <1>  -0.1500 
 13 C       -4.4500     1.7760    -0.3510 C.ar  1 <1>  -0.1500 
 14 C        1.8090     4.5810    -0.8100 C.ar  1 <1>   0.7710 
 15 C        1.1980     6.2760     0.7230 C.ar  1 <1>   0.2180 
 16 C       -0.0880     5.6170     2.8330 C.3   1 <1>  -0.0970 
 17 C       -4.3290    -0.0910    -2.2610 C.ar  1 <1>   0.1600 
 18 C       -5.5690     1.1820    -0.9100 C.ar  1 <1>   0.1600 
 19 N        1.8000     5.8630    -0.4170 N.ar  1 <1>  -0.1790 
 20 N        2.4320     4.2530    -1.9770 N.pl3 1 <1>  -0.8380 
 21 C        1.2610     7.7700     1.0210 C.3   1 <1>  -0.0970 
 22 N       -5.5390     0.2550    -1.8540 N.ar  1 <1>  -0.6200 
 23 C        2.6150     2.8190    -2.3840 C.3   1 <1>   0.1290 
 24 C        2.9540     5.1970    -3.0160 C.3   1 <1>   0.1290 
 25 H        0.6590     1.2470     3.5060 H     1 <1>   0.0800 
 26 H        0.2700    -0.2350     2.6330 H     1 <1>   0.0800 
 27 H       -2.7050    -0.0620     2.0610 H     1 <1>   0.0800 
 28 H       -2.8720     1.6810     2.2440 H     1 <1>   0.0800 
 29 H        0.8710     1.2700     0.8320 H     1 <1>   0.0800 
 30 H       -1.1460     0.1210     0.4090 H     1 <1>   0.0800 
 31 H       -0.5320     3.2160     2.5610 H     1 <1>   0.4000 
 32 H       -1.2170     2.1760    -0.9950 H     1 <1>   0.0800 
 33 H       -2.1570     2.9710     0.2270 H     1 <1>   0.0800 
 34 H       -2.2090     0.0960    -2.1600 H     1 <1>   0.1500 
 35 H       -4.5740     2.5220     0.4120 H     1 <1>   0.1500 
 36 H        0.1150     6.6040     3.2020 H     1 <1>   0.0800 
 37 H        0.2570     4.9280     3.5840 H     1 <1>   0.0800 
 38 H       -1.1540     5.5040     2.7310 H     1 <1>   0.0800 
 39 H       -4.2740    -0.8410    -3.0320 H     1 <1>   0.1500 
 40 H       -6.5420     1.4860    -0.5630 H     1 <1>   0.1500 
 41 H        2.2970     6.4990    -1.0250 H     1 <1>   0.4570 
 42 H        0.4470     8.0830     1.6480 H     1 <1>   0.0800 
 43 H        1.1960     8.3430     0.1130 H     1 <1>   0.0800 
 44 H        2.1860     8.0090     1.5160 H     1 <1>   0.0800 
 45 H        3.5720     2.6860    -2.8600 H     1 <1>   0.0800 
 46 H        1.8390     2.5350    -3.0750 H     1 <1>   0.0800 
 47 H        2.5780     2.1580    -1.5350 H     1 <1>   0.0800 
 48 H        2.7120     4.8260    -3.9990 H     1 <1>   0.0800 
 49 H        4.0260     5.2720    -2.9370 H     1 <1>   0.0800 
 50 H        2.5200     6.1760    -2.9240 H     1 <1>   0.0800 
@<TRIPOS>BOND
  1   1   2  1   
  2   1   3  1   
  3   2   4  1   
  4   2  25  1   
  5   2  26  1   
  6   3   5  1   
  7   3  27  1   
  8   3  28  1   
  9   4   5  1   
 10   4   6  1   
 11   4  29  1   
 12   5   7  1   
 13   5  30  1   
 14   6   8  1   
 15   6  31  1   
 16   7   9  1   
 17   7  32  1   
 18   7  33  1   
 19   8  10  ar  
 20   8  11  ar  
 21   9  12  ar  
 22   9  13  ar  
 23  10  14  ar  
 24  11  15  ar  
 25  11  16  1   
 26  12  17  ar  
 27  12  34  1   
 28  13  18  ar  
 29  13  35  1   
 30  14  19  ar  
 31  14  20  1   
 32  15  19  ar  
 33  15  21  1   
 34  16  36  1   
 35  16  37  1   
 36  16  38  1   
 37  17  22  ar  
 38  17  39  1   
 39  18  22  ar  
 40  18  40  1   
 41  19  41  1   
 42  20  23  1   
 43  20  24  1   
 44  21  42  1   
 45  21  43  1   
 46  21  44  1   
 47  23  45  1   
 48  23  46  1   
 49  23  47  1   
 50  24  48  1   
 51  24  49  1   
 52  24  50  1   
@<TRIPOS>SUBSTRUCTURE
  1 ****   7 GROUP 4 **** **** 0

# MOE 2024.06 (io_trps.svl 2023.06)
