@<TRIPOS>MOLECULE
NONAME
54 56 1 0 0 
SMALL
USER_CHARGES


@<TRIPOS>ATOM
  1 O        2.1650    -4.8390    -1.7420 O.2   1 <1>  -0.5700 
  2 C        2.1020    -4.0710    -0.7960 C.2   1 <1>   0.5440 
  3 N        2.4660    -2.7560    -0.9890 N.am  1 <1>  -0.6600 
  4 C        1.6480    -4.5630     0.4970 C.ar  1 <1>   0.3960 
  5 C        2.1370    -1.6370    -0.0710 C.3   1 <1>   0.1400 
  6 C        2.9450    -2.2380    -2.2940 C.3   1 <1>   0.1400 
  7 N        0.4370    -5.1350     0.5970 N.ar  1 <1>  -0.6200 
  8 C        2.4970    -4.4360     1.5960 C.ar  1 <1>   0.1600 
  9 C        2.6070    -0.3800    -0.7950 C.3   1 <1>  -0.1600 
 10 C        2.6030    -0.7540    -2.2730 C.3   1 <1>  -0.1600 
 11 C        0.1370    -5.5520     1.8170 C.ar  1 <1>   0.4100 
 12 N        2.2140    -4.8300     2.8270 N.ar  1 <1>  -0.6200 
 13 N       -1.1020    -6.1760     1.9300 N.pl3 1 <1>  -0.8380 
 14 C        1.0210    -5.3840     2.9010 C.ar  1 <1>   0.1600 
 15 C       -2.2950    -5.5350     1.2940 C.3   1 <1>   0.3530 
 16 C       -1.4350    -7.0390     3.1050 C.3   1 <1>   0.1290 
 17 C       -3.2310    -6.5620     0.6520 C.ar  1 <1>  -0.1430 
 18 C       -2.8040    -7.6060    -0.1750 C.ar  1 <1>  -0.1430 
 19 C       -4.5880    -6.4190     0.9080 C.ar  1 <1>  -0.1500 
 20 C       -3.7430    -8.4750    -0.7170 C.ar  1 <1>  -0.1500 
 21 C       -1.3420    -7.8670    -0.5240 C.3   1 <1>   0.4860 
 22 C       -5.5130    -7.2890     0.3610 C.ar  1 <1>  -0.1500 
 23 C       -5.0900    -8.3190    -0.4530 C.ar  1 <1>  -0.1500 
 24 N       -0.7880    -6.8270    -1.4360 N.4   1 <1>  -0.9590 
 25 C       -1.7420    -6.3450    -2.4780 C.3   1 <1>   0.2630 
 26 C        0.4990    -7.2700    -2.0430 C.3   1 <1>   0.2630 
 27 H        2.6380    -1.7420     0.8760 H     1 <1>   0.0800 
 28 H        1.0710    -1.6010     0.0810 H     1 <1>   0.0800 
 29 H        2.4670    -2.7410    -3.1180 H     1 <1>   0.0800 
 30 H        4.0110    -2.3790    -2.3560 H     1 <1>   0.0800 
 31 H        3.4620    -3.9840     1.4410 H     1 <1>   0.1500 
 32 H        3.6110    -0.1500    -0.4810 H     1 <1>   0.0800 
 33 H        1.9750     0.4650    -0.5840 H     1 <1>   0.0800 
 34 H        1.6170    -0.6170    -2.6840 H     1 <1>   0.0800 
 35 H        3.3040    -0.1740    -2.8470 H     1 <1>   0.0800 
 36 H        0.7100    -5.7260     3.8700 H     1 <1>   0.1500 
 37 H       -2.0000    -4.8220     0.5450 H     1 <1>   0.0800 
 38 H       -2.8260    -4.9860     2.0530 H     1 <1>   0.0800 
 39 H       -0.5710    -7.6020     3.4150 H     1 <1>   0.0800 
 40 H       -2.2130    -7.7380     2.8460 H     1 <1>   0.0800 
 41 H       -1.7750    -6.4320     3.9260 H     1 <1>   0.0800 
 42 H       -4.9470    -5.6240     1.5400 H     1 <1>   0.1500 
 43 H       -3.4370    -9.2890    -1.3520 H     1 <1>   0.1500 
 44 H       -1.2730    -8.8290    -1.0010 H     1 <1>   0.0800 
 45 H       -0.7560    -7.9080     0.3790 H     1 <1>   0.0800 
 46 H       -6.5630    -7.1640     0.5710 H     1 <1>   0.1500 
 47 H       -5.8100    -8.9980    -0.8780 H     1 <1>   0.1500 
 48 H       -0.5500    -6.0340    -0.8030 H     1 <1>   0.4500 
 49 H       -2.0280    -7.1560    -3.1260 H     1 <1>   0.0800 
 50 H       -1.2830    -5.5700    -3.0700 H     1 <1>   0.0800 
 51 H       -2.6290    -5.9430    -2.0160 H     1 <1>   0.0800 
 52 H        0.3550    -8.1650    -2.6260 H     1 <1>   0.0800 
 53 H        1.2270    -7.4640    -1.2720 H     1 <1>   0.0800 
 54 H        0.8900    -6.4990    -2.6860 H     1 <1>   0.0800 
@<TRIPOS>BOND
  1   1   2  2   
  2   2   3  am  
  3   2   4  1   
  4   3   5  1   
  5   3   6  1   
  6   4   7  ar  
  7   4   8  ar  
  8   5   9  1   
  9   5  27  1   
 10   5  28  1   
 11   6  10  1   
 12   6  29  1   
 13   6  30  1   
 14   7  11  ar  
 15   8  12  ar  
 16   8  31  1   
 17   9  10  1   
 18   9  32  1   
 19   9  33  1   
 20  10  34  1   
 21  10  35  1   
 22  11  13  1   
 23  11  14  ar  
 24  12  14  ar  
 25  13  15  1   
 26  13  16  1   
 27  14  36  1   
 28  15  17  1   
 29  15  37  1   
 30  15  38  1   
 31  16  39  1   
 32  16  40  1   
 33  16  41  1   
 34  17  18  ar  
 35  17  19  ar  
 36  18  20  ar  
 37  18  21  1   
 38  19  22  ar  
 39  19  42  1   
 40  20  23  ar  
 41  20  43  1   
 42  21  24  1   
 43  21  44  1   
 44  21  45  1   
 45  22  23  ar  
 46  22  46  1   
 47  23  47  1   
 48  24  25  1   
 49  24  26  1   
 50  24  48  1   
 51  25  49  1   
 52  25  50  1   
 53  25  51  1   
 54  26  52  1   
 55  26  53  1   
 56  26  54  1   
@<TRIPOS>SUBSTRUCTURE
  1 ****   7 GROUP 4 **** **** 0

# MOE 2024.06 (io_trps.svl 2023.06)
