@<TRIPOS>MOLECULE
NONAME
45 46 1 0 0 
SMALL
USER_CHARGES


@<TRIPOS>ATOM
  1 S       -0.1080     0.2710    -0.2690 S.3   1 <1>  -0.0800 
  2 C        1.4030    -0.0970    -1.0670 C.2   1 <1>   0.1980 
  3 C        0.7270     1.4030     0.7570 C.2   1 <1>  -0.1400 
  4 N        2.4020     0.5550    -0.6220 N.2   1 <1>  -0.5650 
  5 C        1.3660    -1.1240    -2.1750 C.3   1 <1>  -0.0600 
  6 C        2.0280     1.4050     0.4210 C.2   1 <1>   0.0460 
  7 C       -0.1180     2.1340     1.7850 C.3   1 <1>  -0.0600 
  8 C        3.1310     2.2540     1.0540 C.3   1 <1>   0.6040 
  9 N        3.9500     2.8060    -0.0640 N.4   1 <1>  -0.9590 
 10 C        3.9690     1.3720     1.9810 C.3   1 <1>  -0.2400 
 11 C        5.2830     3.3700     0.3180 C.3   1 <1>   0.3430 
 12 C        3.1380     3.8060    -0.8360 C.3   1 <1>   0.2630 
 13 C        6.2170     3.5410    -0.8930 C.3   1 <1>  -0.0220 
 14 C        7.0130     4.8410    -0.7900 C.2   1 <1>  -0.1240 
 15 C        6.2930     6.0860    -0.8020 C.2   1 <1>   0.6160 
 16 C        8.3620     4.8470    -0.7010 C.2   1 <1>  -0.0410 
 17 O        5.0720     6.0930    -0.8270 O.2   1 <1>  -0.5700 
 18 N        6.9970     7.2770    -0.7560 N.am  1 <1>  -0.4200 
 19 N        9.0210     6.0570    -0.6180 N.am  1 <1>  -0.5390 
 20 C        8.3740     7.2600    -0.6430 C.2   1 <1>   0.6900 
 21 C        6.2850     8.5870    -0.7990 C.3   1 <1>   0.0600 
 22 O        9.0310     8.2740    -0.5570 O.2   1 <1>  -0.5700 
 23 H        1.0030    -2.0590    -1.7920 H     1 <1>   0.0800 
 24 H        2.3530    -1.2700    -2.5750 H     1 <1>   0.0800 
 25 H        0.7150    -0.7890    -2.9620 H     1 <1>   0.0800 
 26 H       -0.8880     2.7000     1.2910 H     1 <1>   0.0800 
 27 H        0.4810     2.8030     2.3740 H     1 <1>   0.0800 
 28 H       -0.5860     1.4220     2.4420 H     1 <1>   0.0800 
 29 H        2.6890     3.0530     1.6250 H     1 <1>   0.0800 
 30 H        4.0580     1.9710    -0.6660 H     1 <1>   0.4500 
 31 H        4.5020     0.6250     1.4190 H     1 <1>   0.0800 
 32 H        3.3130     0.8610     2.6640 H     1 <1>   0.0800 
 33 H        4.6500     1.9560     2.5700 H     1 <1>   0.0800 
 34 H        5.7770     2.7300     1.0280 H     1 <1>   0.0800 
 35 H        5.1310     4.3270     0.7900 H     1 <1>   0.0800 
 36 H        2.9370     4.6750    -0.2310 H     1 <1>   0.0800 
 37 H        2.2010     3.3720    -1.1480 H     1 <1>   0.0800 
 38 H        3.6680     4.1290    -1.7170 H     1 <1>   0.0800 
 39 H        5.6650     3.5620    -1.8160 H     1 <1>   0.0800 
 40 H        6.8880     2.7010    -0.9350 H     1 <1>   0.0800 
 41 H        8.9700     3.9550    -0.6920 H     1 <1>   0.1500 
 42 H       10.0390     6.1340    -0.5500 H     1 <1>   0.3700 
 43 H        5.3550     8.4950    -1.3330 H     1 <1>   0.0800 
 44 H        6.8910     9.3230    -1.2990 H     1 <1>   0.0800 
 45 H        6.0860     8.9210     0.2040 H     1 <1>   0.0800 
@<TRIPOS>BOND
  1   1   2  1   
  2   1   3  1   
  3   2   4  2   
  4   2   5  1   
  5   3   6  2   
  6   3   7  1   
  7   4   6  1   
  8   5  23  1   
  9   5  24  1   
 10   5  25  1   
 11   6   8  1   
 12   7  26  1   
 13   7  27  1   
 14   7  28  1   
 15   8   9  1   
 16   8  10  1   
 17   8  29  1   
 18   9  11  1   
 19   9  12  1   
 20   9  30  1   
 21  10  31  1   
 22  10  32  1   
 23  10  33  1   
 24  11  13  1   
 25  11  34  1   
 26  11  35  1   
 27  12  36  1   
 28  12  37  1   
 29  12  38  1   
 30  13  14  1   
 31  13  39  1   
 32  13  40  1   
 33  14  15  1   
 34  14  16  2   
 35  15  17  2   
 36  15  18  am  
 37  16  19  1   
 38  16  41  1   
 39  18  20  am  
 40  18  21  1   
 41  19  20  am  
 42  19  42  1   
 43  20  22  2   
 44  21  43  1   
 45  21  44  1   
 46  21  45  1   
@<TRIPOS>SUBSTRUCTURE
  1 ****  11 GROUP 4 **** **** 0

# MOE 2024.06 (io_trps.svl 2023.06)
