@<TRIPOS>MOLECULE
NONAME
53 56 1 0 0 
SMALL
USER_CHARGES


@<TRIPOS>ATOM
  1 N       -1.7140     1.6170    -1.5600 N.2   1 <1>  -0.7070 
  2 N       -1.6870     0.4790    -0.8350 N.pl3 1 <1>   0.3140 
  3 C       -0.4840     1.8100    -1.9290 C.2   1 <1>   0.1390 
  4 C       -0.4320    -0.0150    -0.7610 C.2   1 <1>  -0.3020 
  5 C       -2.9130    -0.0660    -0.2100 C.3   1 <1>   0.2390 
  6 C        0.3680     0.8190    -1.4580 C.2   1 <1>  -0.1500 
  7 C       -2.9220    -1.5920    -0.1870 C.ar  1 <1>  -0.1440 
  8 C       -2.8040    -2.2810     1.0100 C.ar  1 <1>  -0.1500 
  9 C       -3.0490    -2.3050    -1.3690 C.ar  1 <1>  -0.1500 
 10 C       -2.8150    -3.6640     1.0230 C.ar  1 <1>  -0.1500 
 11 C       -3.0590    -3.6890    -1.3550 C.ar  1 <1>  -0.1500 
 12 C       -2.9440    -4.3800    -0.1570 C.ar  1 <1>  -0.1430 
 13 C       -2.9550    -5.9020    -0.1360 C.3   1 <1>   0.2530 
 14 N       -4.0460    -6.3910     0.7210 N.3   1 <1>  -0.6890 
 15 C       -5.3910    -6.0310     0.2060 C.3   1 <1>   0.2100 
 16 C       -4.3760    -7.8200     0.5070 C.3   1 <1>   0.2100 
 17 C       -5.8660    -7.4180     0.7280 C.3   1 <1>   0.4720 
 18 N       -6.8800    -8.1380    -0.1320 N.4   1 <1>  -0.9280 
 19 C       -8.2950    -7.7760     0.1910 C.3   1 <1>   0.4230 
 20 C       -6.6730    -9.6150    -0.0250 C.3   1 <1>   0.3430 
 21 C       -9.2400    -8.4880    -0.7880 C.3   1 <1>  -0.1600 
 22 C       -8.5320    -6.2680     0.1060 C.3   1 <1>  -0.2400 
 23 C       -7.5760   -10.3530    -1.0130 C.3   1 <1>  -0.1600 
 24 C       -9.0490   -10.0080    -0.7820 C.3   1 <1>  -0.1600 
 25 H       -0.1710     2.6460    -2.5300 H     1 <1>   0.1500 
 26 H       -0.1880    -0.9170    -0.2290 H     1 <1>   0.1500 
 27 H       -3.7590     0.2910    -0.7670 H     1 <1>   0.0800 
 28 H       -2.9780     0.3260     0.7870 H     1 <1>   0.0800 
 29 H        1.4280     0.7580    -1.6280 H     1 <1>   0.1500 
 30 H       -2.7020    -1.7480     1.9400 H     1 <1>   0.1500 
 31 H       -3.1340    -1.7830    -2.3070 H     1 <1>   0.1500 
 32 H       -2.7250    -4.1890     1.9590 H     1 <1>   0.1500 
 33 H       -3.1540    -4.2200    -2.2860 H     1 <1>   0.1500 
 34 H       -2.0160    -6.2540     0.2560 H     1 <1>   0.0800 
 35 H       -3.0620    -6.2790    -1.1390 H     1 <1>   0.0800 
 36 H       -5.4090    -5.9460    -0.8680 H     1 <1>   0.0000 
 37 H       -5.8000    -5.1870     0.7320 H     1 <1>   0.0000 
 38 H       -3.9650    -8.4440     1.2800 H     1 <1>   0.0000 
 39 H       -4.1590    -8.1430    -0.4970 H     1 <1>   0.0000 
 40 H       -6.1410    -7.4140     1.7670 H     1 <1>   0.0000 
 41 H       -6.7160    -7.8670    -1.1070 H     1 <1>   0.4500 
 42 H       -8.5270    -8.1070     1.1920 H     1 <1>   0.0800 
 43 H       -6.8980    -9.9420     0.9780 H     1 <1>   0.0800 
 44 H       -5.6470    -9.8670    -0.2390 H     1 <1>   0.0800 
 45 H       -9.0850    -8.1080    -1.7840 H     1 <1>   0.0800 
 46 H      -10.2600    -8.2710    -0.5200 H     1 <1>   0.0800 
 47 H       -8.2000    -5.8700    -0.8360 H     1 <1>   0.0800 
 48 H       -8.0510    -5.7520     0.9160 H     1 <1>   0.0800 
 49 H       -9.5840    -6.0620     0.1980 H     1 <1>   0.0800 
 50 H       -7.4360   -11.4140    -0.8940 H     1 <1>   0.0800 
 51 H       -7.2900   -10.1030    -2.0200 H     1 <1>   0.0800 
 52 H       -9.6560   -10.4590    -1.5510 H     1 <1>   0.0800 
 53 H       -9.3700   -10.4090     0.1650 H     1 <1>   0.0800 
@<TRIPOS>BOND
  1   1   2  1   
  2   1   3  2   
  3   2   4  1   
  4   2   5  1   
  5   3   6  1   
  6   3  25  1   
  7   4   6  2   
  8   4  26  1   
  9   5   7  1   
 10   5  27  1   
 11   5  28  1   
 12   6  29  1   
 13   7   8  ar  
 14   7   9  ar  
 15   8  10  ar  
 16   8  30  1   
 17   9  11  ar  
 18   9  31  1   
 19  10  12  ar  
 20  10  32  1   
 21  11  12  ar  
 22  11  33  1   
 23  12  13  1   
 24  13  14  1   
 25  13  34  1   
 26  13  35  1   
 27  14  15  1   
 28  14  16  1   
 29  15  17  1   
 30  15  36  1   
 31  15  37  1   
 32  16  17  1   
 33  16  38  1   
 34  16  39  1   
 35  17  18  1   
 36  17  40  1   
 37  18  19  1   
 38  18  20  1   
 39  18  41  1   
 40  19  21  1   
 41  19  22  1   
 42  19  42  1   
 43  20  23  1   
 44  20  43  1   
 45  20  44  1   
 46  21  24  1   
 47  21  45  1   
 48  21  46  1   
 49  22  47  1   
 50  22  48  1   
 51  22  49  1   
 52  23  24  1   
 53  23  50  1   
 54  23  51  1   
 55  24  52  1   
 56  24  53  1   
@<TRIPOS>SUBSTRUCTURE
  1 ****  12 GROUP 4 **** **** 0

# MOE 2024.06 (io_trps.svl 2023.06)
