@<TRIPOS>MOLECULE
NONAME
57 59 1 0 0 
SMALL
USER_CHARGES


@<TRIPOS>ATOM
  1 O        1.4100     1.7040    -1.4500 O.2   1 <1>  -0.5700 
  2 C        0.8240     2.7610    -1.4790 C.2   1 <1>   0.5690 
  3 N        0.0350     3.1980    -0.4520 N.am  1 <1>  -0.6600 
  4 C        0.9590     3.6350    -2.7210 C.3   1 <1>   0.1810 
  5 C       -0.7200     4.4930    -0.5410 C.3   1 <1>   0.3640 
  6 C       -0.1510     2.4160     0.8030 C.3   1 <1>   0.0600 
  7 O        0.8540     4.9980    -2.4030 O.3   1 <1>  -0.5600 
  8 C       -2.2230     4.1830    -0.5000 C.ar  1 <1>  -0.1430 
  9 C       -0.3730     5.3660    -1.7830 C.3   1 <1>   0.2610 
 10 C       -3.0800     4.7220     0.4610 C.ar  1 <1>  -0.1430 
 11 C       -2.7470     3.3220    -1.4590 C.ar  1 <1>  -0.1500 
 12 C       -0.3030     6.8270    -1.3350 C.2   1 <1>   0.5690 
 13 C       -4.4300     4.4010     0.4320 C.ar  1 <1>  -0.1500 
 14 C       -2.6010     5.6640     1.5580 C.3   1 <1>  -0.0960 
 15 C       -4.0920     3.0060    -1.4780 C.ar  1 <1>  -0.1500 
 16 O       -1.3200     7.4450    -1.1280 O.2   1 <1>  -0.5700 
 17 N        0.9230     7.3720    -1.1230 N.am  1 <1>  -0.7300 
 18 C       -4.9370     3.5490    -0.5310 C.ar  1 <1>  -0.1500 
 19 C        1.2330     8.6430    -0.4260 C.3   1 <1>   0.1400 
 20 C        1.8750     8.3960     0.9640 C.3   1 <1>   0.0000 
 21 C        3.1050     7.4630     0.8750 C.3   1 <1>  -0.1600 
 22 C        0.8930     7.6720     1.9190 C.3   1 <1>  -0.1600 
 23 C        2.2750     9.7600     1.5650 C.3   1 <1>   0.1200 
 24 C        2.6370     6.0870     1.3460 C.3   1 <1>  -0.1600 
 25 C        1.5900     6.4000     2.4050 C.3   1 <1>  -0.1600 
 26 O        3.2070    10.3880     0.7400 O.3   1 <1>  -0.5600 
 27 C        3.6440    11.6190     1.2160 C.3   1 <1>   0.0400 
 28 H        0.1970     3.3840    -3.4350 H     1 <1>   0.0800 
 29 H        1.9250     3.4760    -3.1660 H     1 <1>   0.0800 
 30 H       -0.4480     5.0610     0.3290 H     1 <1>   0.0800 
 31 H        0.0920     3.0270     1.6550 H     1 <1>   0.0800 
 32 H        0.4880     1.5490     0.8090 H     1 <1>   0.0800 
 33 H       -1.1730     2.0880     0.8820 H     1 <1>   0.0800 
 34 H       -1.1480     5.2820    -2.5220 H     1 <1>   0.0800 
 35 H       -2.1060     2.8810    -2.2000 H     1 <1>   0.1500 
 36 H       -5.1020     4.8150     1.1620 H     1 <1>   0.1500 
 37 H       -3.3920     5.8820     2.2520 H     1 <1>   0.0800 
 38 H       -2.2740     6.5930     1.1290 H     1 <1>   0.0800 
 39 H       -1.7930     5.2190     2.1110 H     1 <1>   0.0800 
 40 H       -4.4800     2.3390    -2.2280 H     1 <1>   0.1500 
 41 H        1.7330     6.7960    -1.3710 H     1 <1>   0.3700 
 42 H       -5.9860     3.3100    -0.5420 H     1 <1>   0.1500 
 43 H        1.9080     9.2100    -1.0440 H     1 <1>   0.0800 
 44 H        0.3310     9.2210    -0.3120 H     1 <1>   0.0800 
 45 H        3.5280     7.4300    -0.1140 H     1 <1>   0.0800 
 46 H        3.8730     7.8050     1.5470 H     1 <1>   0.0800 
 47 H        0.6110     8.2860     2.7570 H     1 <1>   0.0800 
 48 H       -0.0090     7.4050     1.4000 H     1 <1>   0.0800 
 49 H        2.7160     9.6240     2.5380 H     1 <1>   0.0800 
 50 H        1.4110    10.3980     1.6510 H     1 <1>   0.0800 
 51 H        2.1820     5.5520     0.5300 H     1 <1>   0.0800 
 52 H        3.4480     5.4990     1.7400 H     1 <1>   0.0800 
 53 H        2.0850     6.6010     3.3400 H     1 <1>   0.0800 
 54 H        0.9000     5.5850     2.5420 H     1 <1>   0.0800 
 55 H        4.3530    12.0170     0.5110 H     1 <1>   0.0800 
 56 H        4.1210    11.4820     2.1710 H     1 <1>   0.0800 
 57 H        2.8050    12.2870     1.3020 H     1 <1>   0.0800 
@<TRIPOS>BOND
  1   1   2  2   
  2   2   3  am  
  3   2   4  1   
  4   3   5  1   
  5   3   6  1   
  6   4   7  1   
  7   4  28  1   
  8   4  29  1   
  9   5   8  1   
 10   5   9  1   
 11   5  30  1   
 12   6  31  1   
 13   6  32  1   
 14   6  33  1   
 15   7   9  1   
 16   8  10  ar  
 17   8  11  ar  
 18   9  12  1   
 19   9  34  1   
 20  10  13  ar  
 21  10  14  1   
 22  11  15  ar  
 23  11  35  1   
 24  12  16  2   
 25  12  17  am  
 26  13  18  ar  
 27  13  36  1   
 28  14  37  1   
 29  14  38  1   
 30  14  39  1   
 31  15  18  ar  
 32  15  40  1   
 33  17  19  1   
 34  17  41  1   
 35  18  42  1   
 36  19  20  1   
 37  19  43  1   
 38  19  44  1   
 39  20  21  1   
 40  20  22  1   
 41  20  23  1   
 42  21  24  1   
 43  21  45  1   
 44  21  46  1   
 45  22  25  1   
 46  22  47  1   
 47  22  48  1   
 48  23  26  1   
 49  23  49  1   
 50  23  50  1   
 51  24  25  1   
 52  24  51  1   
 53  24  52  1   
 54  25  53  1   
 55  25  54  1   
 56  26  27  1   
 57  27  55  1   
 58  27  56  1   
 59  27  57  1   
@<TRIPOS>SUBSTRUCTURE
  1 ****   5 GROUP 4 **** **** 0

# MOE 2024.06 (io_trps.svl 2023.06)
