@<TRIPOS>MOLECULE
NONAME
52 54 1 0 0 
SMALL
USER_CHARGES


@<TRIPOS>ATOM
  1 O       -3.7830    -2.3320    -1.8200 O.3   1 <1>  -0.3630 
  2 C       -2.7180    -3.1010    -1.5200 C.ar  1 <1>   0.0830 
  3 C       -3.7380    -0.9750    -1.4410 C.3   1 <1>   0.2000 
  4 C       -2.5160    -3.5160    -0.2150 C.ar  1 <1>  -0.1500 
  5 C       -1.8660    -3.5220    -2.5260 C.ar  1 <1>  -0.1500 
  6 C       -5.1780    -0.5120    -1.2360 C.3   1 <1>  -0.2400 
  7 C       -3.0450    -0.1840    -2.5510 C.3   1 <1>  -0.2400 
  8 C       -1.4800    -4.3870     0.0860 C.ar  1 <1>  -0.1430 
  9 C       -0.8120    -4.3650    -2.2240 C.ar  1 <1>  -0.1500 
 10 C       -0.6200    -4.8010    -0.9220 C.ar  1 <1>  -0.1500 
 11 C       -1.3440    -4.9010     1.5010 C.3   1 <1>   0.4860 
 12 N       -2.4640    -5.8450     1.6990 N.4   1 <1>  -0.9590 
 13 C       -3.1680    -5.7940     3.0070 C.3   1 <1>   0.3430 
 14 C       -2.2170    -7.2630     1.3610 C.3   1 <1>   0.3430 
 15 C       -3.7670    -7.1910     3.2130 C.3   1 <1>   0.2000 
 16 C       -3.4070    -8.0130     1.9680 C.3   1 <1>  -0.0800 
 17 O       -3.1790    -7.7790     4.3270 O.3   1 <1>  -0.6800 
 18 C       -4.5990    -8.1600     0.9900 C.3   1 <1>   0.0210 
 19 C       -4.8020    -7.0170     0.0040 C.2   1 <1>   0.1080 
 20 N       -4.9480    -5.7670     0.3350 N.2   1 <1>  -0.7070 
 21 C       -4.8470    -7.2030    -1.3730 C.2   1 <1>  -0.1500 
 22 N       -5.1170    -5.1230    -0.8480 N.pl3 1 <1>   0.3000 
 23 C       -5.0430    -5.9730    -1.8880 C.2   1 <1>  -0.3320 
 24 C       -5.1690    -5.5390    -3.3370 C.3   1 <1>  -0.0600 
 25 H       -3.1890    -0.8850    -0.5180 H     1 <1>   0.0800 
 26 H       -3.1930    -3.1730     0.5470 H     1 <1>   0.1500 
 27 H       -2.0340    -3.1920    -3.5360 H     1 <1>   0.1500 
 28 H       -5.7400    -0.6200    -2.1470 H     1 <1>   0.0800 
 29 H       -5.1920     0.5240    -0.9480 H     1 <1>   0.0800 
 30 H       -5.6440    -1.0860    -0.4570 H     1 <1>   0.0800 
 31 H       -3.5670    -0.3090    -3.4830 H     1 <1>   0.0800 
 32 H       -2.0280    -0.5120    -2.6630 H     1 <1>   0.0800 
 33 H       -3.0330     0.8620    -2.3020 H     1 <1>   0.0800 
 34 H       -0.1440    -4.6870    -3.0060 H     1 <1>   0.1500 
 35 H        0.2000    -5.4660    -0.7120 H     1 <1>   0.1500 
 36 H       -1.4240    -4.0740     2.1870 H     1 <1>   0.0800 
 37 H       -0.3960    -5.3910     1.6470 H     1 <1>   0.0800 
 38 H       -3.2000    -5.5630     1.0100 H     1 <1>   0.4500 
 39 H       -2.4880    -5.5660     3.8100 H     1 <1>   0.0800 
 40 H       -3.9530    -5.0570     2.9710 H     1 <1>   0.0800 
 41 H       -2.1570    -7.4070     0.2940 H     1 <1>   0.0800 
 42 H       -1.3020    -7.5950     1.8230 H     1 <1>   0.0800 
 43 H       -4.8280    -7.1370     3.3950 H     1 <1>   0.0800 
 44 H       -3.1090    -9.0080     2.2520 H     1 <1>   0.0800 
 45 H       -2.2450    -8.0260     4.1840 H     1 <1>   0.4000 
 46 H       -5.5130    -8.3060     1.5390 H     1 <1>   0.0800 
 47 H       -4.4460    -9.0560     0.4140 H     1 <1>   0.0800 
 48 H       -4.7490    -8.1360    -1.9000 H     1 <1>   0.1500 
 49 H       -5.2460    -4.1030    -0.9340 H     1 <1>   0.2700 
 50 H       -5.0610    -6.3870    -3.9910 H     1 <1>   0.0800 
 51 H       -4.4060    -4.8200    -3.5790 H     1 <1>   0.0800 
 52 H       -6.1330    -5.0950    -3.5100 H     1 <1>   0.0800 
@<TRIPOS>BOND
  1   1   2  1   
  2   1   3  1   
  3   2   4  ar  
  4   2   5  ar  
  5   3   6  1   
  6   3   7  1   
  7   3  25  1   
  8   4   8  ar  
  9   4  26  1   
 10   5   9  ar  
 11   5  27  1   
 12   6  28  1   
 13   6  29  1   
 14   6  30  1   
 15   7  31  1   
 16   7  32  1   
 17   7  33  1   
 18   8  10  ar  
 19   8  11  1   
 20   9  10  ar  
 21   9  34  1   
 22  10  35  1   
 23  11  12  1   
 24  11  36  1   
 25  11  37  1   
 26  12  13  1   
 27  12  14  1   
 28  12  38  1   
 29  13  15  1   
 30  13  39  1   
 31  13  40  1   
 32  14  16  1   
 33  14  41  1   
 34  14  42  1   
 35  15  16  1   
 36  15  17  1   
 37  15  43  1   
 38  16  18  1   
 39  16  44  1   
 40  17  45  1   
 41  18  19  1   
 42  18  46  1   
 43  18  47  1   
 44  19  20  2   
 45  19  21  1   
 46  20  22  1   
 47  21  23  2   
 48  21  48  1   
 49  22  23  1   
 50  22  49  1   
 51  23  24  1   
 52  24  50  1   
 53  24  51  1   
 54  24  52  1   
@<TRIPOS>SUBSTRUCTURE
  1 ****   4 GROUP 4 **** **** 0

# MOE 2024.06 (io_trps.svl 2023.06)
