@<TRIPOS>MOLECULE
NONAME
54 57 1 0 0 
SMALL
USER_CHARGES


@<TRIPOS>ATOM
  1 F       -2.6190    -0.0980    -3.1010 F     1 <1>  -0.1900 
  2 C       -3.1140     0.5490    -2.0830 C.ar  1 <1>   0.1900 
  3 C       -3.8490    -0.1260    -1.1490 C.ar  1 <1>  -0.1500 
  4 C       -2.8640     1.9170    -1.9930 C.ar  1 <1>  -0.1500 
  5 C       -4.4010     0.5630    -0.0460 C.ar  1 <1>   0.0000 
  6 C       -3.3740     2.5970    -0.9190 C.ar  1 <1>  -0.1500 
  7 C       -4.1350     1.9500     0.0730 C.ar  1 <1>   0.3100 
  8 C       -5.1920    -0.0500     0.9610 C.ar  1 <1>   0.0860 
  9 N       -4.5710     2.6970     1.1130 N.ar  1 <1>  -0.6200 
 10 C       -5.5890    -1.4430     0.9200 C.2   1 <1>   0.5440 
 11 C       -5.5810     0.7490     2.0050 C.ar  1 <1>  -0.1500 
 12 C       -5.2530     2.1050     2.0400 C.ar  1 <1>   0.1660 
 13 O       -5.4480    -2.1430     1.9060 O.2   1 <1>  -0.5700 
 14 N       -6.1990    -2.0170    -0.1770 N.am  1 <1>  -0.6600 
 15 C       -5.7060     2.9570     3.2070 C.3   1 <1>  -0.0970 
 16 C       -6.3620    -3.4930    -0.2410 C.3   1 <1>   0.1400 
 17 C       -7.2000    -1.2710    -0.9860 C.3   1 <1>   0.1400 
 18 C       -7.7430    -3.8590     0.3440 C.3   1 <1>   0.4230 
 19 C       -8.5970    -1.6150    -0.4470 C.3   1 <1>  -0.1600 
 20 N       -7.9570    -5.3530     0.5470 N.4   1 <1>  -0.9590 
 21 C       -8.9050    -3.1430    -0.4130 C.3   1 <1>   0.0000 
 22 C       -9.3930    -5.7470     0.7170 C.3   1 <1>   0.3430 
 23 C       -7.2930    -6.2470    -0.4580 C.3   1 <1>   0.2630 
 24 C      -10.2350    -3.3690     0.3660 C.3   1 <1>  -0.1600 
 25 C       -9.0220    -3.6990    -1.8610 C.3   1 <1>   0.1200 
 26 C      -10.2120    -4.5960     1.2980 C.3   1 <1>  -0.1600 
 27 O       -9.9240    -2.9730    -2.6200 O.3   1 <1>  -0.6800 
 28 H       -3.9930    -1.1830    -1.2660 H     1 <1>   0.1500 
 29 H       -2.2810     2.4030    -2.7550 H     1 <1>   0.1500 
 30 H       -3.2020     3.6520    -0.8020 H     1 <1>   0.1500 
 31 H       -6.1520     0.3290     2.8130 H     1 <1>   0.1500 
 32 H       -6.2460     2.3760     3.9310 H     1 <1>   0.0800 
 33 H       -6.3420     3.7470     2.8490 H     1 <1>   0.0800 
 34 H       -4.8490     3.3960     3.6840 H     1 <1>   0.0800 
 35 H       -6.2650    -3.8080    -1.2640 H     1 <1>   0.0800 
 36 H       -5.5840    -3.9650     0.3340 H     1 <1>   0.0800 
 37 H       -7.0340    -0.2090    -0.9140 H     1 <1>   0.0800 
 38 H       -7.1120    -1.5480    -2.0230 H     1 <1>   0.0800 
 39 H       -7.7420    -3.4230     1.3300 H     1 <1>   0.0800 
 40 H       -8.6600    -1.2090     0.5490 H     1 <1>   0.0800 
 41 H       -9.3320    -1.0920    -1.0340 H     1 <1>   0.0800 
 42 H       -7.5040    -5.5440     1.4550 H     1 <1>   0.4500 
 43 H       -9.8130    -6.0160    -0.2390 H     1 <1>   0.0800 
 44 H       -9.4620    -6.6080     1.3630 H     1 <1>   0.0800 
 45 H       -7.6900    -6.0690    -1.4440 H     1 <1>   0.0800 
 46 H       -7.4600    -7.2820    -0.2040 H     1 <1>   0.0800 
 47 H       -6.2290    -6.0730    -0.4760 H     1 <1>   0.0800 
 48 H      -10.4690    -2.5110     0.9750 H     1 <1>   0.0800 
 49 H      -11.0550    -3.4720    -0.3230 H     1 <1>   0.0800 
 50 H       -9.3510    -4.7230    -1.8670 H     1 <1>   0.0800 
 51 H       -8.0820    -3.6430    -2.3790 H     1 <1>   0.0800 
 52 H      -11.2230    -4.9300     1.4660 H     1 <1>   0.0800 
 53 H       -9.8080    -4.3260     2.2590 H     1 <1>   0.0800 
 54 H      -10.8390    -3.0440    -2.2820 H     1 <1>   0.4000 
@<TRIPOS>BOND
  1   1   2  1   
  2   2   3  ar  
  3   2   4  ar  
  4   3   5  ar  
  5   3  28  1   
  6   4   6  ar  
  7   4  29  1   
  8   5   7  ar  
  9   5   8  ar  
 10   6   7  ar  
 11   6  30  1   
 12   7   9  ar  
 13   8  10  1   
 14   8  11  ar  
 15   9  12  ar  
 16  10  13  2   
 17  10  14  am  
 18  11  12  ar  
 19  11  31  1   
 20  12  15  1   
 21  14  16  1   
 22  14  17  1   
 23  15  32  1   
 24  15  33  1   
 25  15  34  1   
 26  16  18  1   
 27  16  35  1   
 28  16  36  1   
 29  17  19  1   
 30  17  37  1   
 31  17  38  1   
 32  18  20  1   
 33  18  21  1   
 34  18  39  1   
 35  19  21  1   
 36  19  40  1   
 37  19  41  1   
 38  20  22  1   
 39  20  23  1   
 40  20  42  1   
 41  21  24  1   
 42  21  25  1   
 43  22  26  1   
 44  22  43  1   
 45  22  44  1   
 46  23  45  1   
 47  23  46  1   
 48  23  47  1   
 49  24  26  1   
 50  24  48  1   
 51  24  49  1   
 52  25  27  1   
 53  25  50  1   
 54  25  51  1   
 55  26  52  1   
 56  26  53  1   
 57  27  54  1   
@<TRIPOS>SUBSTRUCTURE
  1 ****  14 GROUP 4 **** **** 0

# MOE 2024.06 (io_trps.svl 2023.06)
