@<TRIPOS>MOLECULE
NONAME
66 70 1 0 0 
SMALL
USER_CHARGES


@<TRIPOS>ATOM
  1 O       -1.2890    -1.6220     1.3760 O.2   1 <1>  -0.5700 
  2 C       -1.1970    -2.0130     0.2360 C.2   1 <1>   0.5690 
  3 N       -0.1160    -2.7460    -0.1810 N.am  1 <1>  -0.6600 
  4 C       -2.3280    -1.6230    -0.7050 C.3   1 <1>  -0.0990 
  5 C        1.0270    -2.8960     0.7620 C.3   1 <1>   0.1400 
  6 C        0.0300    -3.3800    -1.5190 C.3   1 <1>   0.1400 
  7 C       -3.4210    -2.6900    -0.9190 C.3   1 <1>  -0.1600 
  8 C        2.1560    -3.7400     0.1600 C.3   1 <1>  -0.1600 
  9 C        0.4310    -4.8520    -1.3530 C.3   1 <1>  -0.1600 
 10 C       -3.8410    -3.4300     0.3680 C.3   1 <1>   0.0960 
 11 C        1.6470    -5.0840    -0.4050 C.3   1 <1>   0.0000 
 12 N       -3.2330    -4.7770     0.4480 N.pl3 1 <1>   0.3140 
 13 C        1.2230    -5.9770     0.7890 C.3   1 <1>   0.3430 
 14 C        2.8190    -5.7460    -1.1660 C.3   1 <1>  -0.1600 
 15 N       -2.3020    -5.1370     1.3390 N.2   1 <1>  -0.4180 
 16 C       -3.5530    -5.8330    -0.3040 C.2   1 <1>  -0.3020 
 17 N        1.0030    -7.4010     0.3900 N.4   1 <1>  -0.9590 
 18 C        2.5350    -7.2120    -1.5270 C.3   1 <1>  -0.1600 
 19 N       -2.0450    -6.3860     1.1760 N.2   1 <1>  -0.2270 
 20 C       -2.7970    -6.8360     0.1660 C.2   1 <1>   0.0460 
 21 C        0.5210    -8.2190     1.5310 C.3   1 <1>   0.4860 
 22 C        2.1640    -8.0280    -0.2920 C.3   1 <1>   0.3430 
 23 C       -2.7200    -8.2800    -0.2990 C.3   1 <1>   0.3010 
 24 C        0.0730    -9.5850     1.0320 C.ar  1 <1>  -0.1440 
 25 O       -1.3600    -8.5800    -0.5560 O.3   1 <1>  -0.3620 
 26 C       -0.8700    -9.7080     0.0160 C.ar  1 <1>   0.0820 
 27 C        0.6010   -10.7310     1.6070 C.ar  1 <1>  -0.1500 
 28 C       -1.2880   -10.9650    -0.4250 C.ar  1 <1>   0.0820 
 29 C        0.1940   -11.9810     1.1740 C.ar  1 <1>  -0.1500 
 30 O       -2.2150   -11.0190    -1.4240 O.3   1 <1>  -0.3620 
 31 C       -0.7460   -12.1020     0.1650 C.ar  1 <1>  -0.1500 
 32 C       -2.6210   -12.2480    -1.9880 C.3   1 <1>   0.0400 
 33 H       -1.9180    -1.3190    -1.6500 H     1 <1>   0.0800 
 34 H       -2.7950    -0.7490    -0.2830 H     1 <1>   0.0800 
 35 H        0.6640    -3.3500     1.6680 H     1 <1>   0.0800 
 36 H        1.4000    -1.9170     1.0160 H     1 <1>   0.0800 
 37 H        0.7860    -2.8520    -2.0750 H     1 <1>   0.0800 
 38 H       -0.8850    -3.3240    -2.0780 H     1 <1>   0.0800 
 39 H       -3.1050    -3.3990    -1.6630 H     1 <1>   0.0800 
 40 H       -4.2860    -2.1870    -1.3150 H     1 <1>   0.0800 
 41 H        2.9020    -3.9060     0.9170 H     1 <1>   0.0800 
 42 H        2.6290    -3.1640    -0.6170 H     1 <1>   0.0800 
 43 H        0.6310    -5.2400    -2.3350 H     1 <1>   0.0800 
 44 H       -0.4340    -5.3770    -0.9900 H     1 <1>   0.0800 
 45 H       -4.9080    -3.5610     0.3740 H     1 <1>   0.0800 
 46 H       -3.5760    -2.8710     1.2480 H     1 <1>   0.0800 
 47 H        0.3200    -5.5730     1.2210 H     1 <1>   0.0800 
 48 H        1.9950    -5.9380     1.5390 H     1 <1>   0.0800 
 49 H        3.7050    -5.7170    -0.5530 H     1 <1>   0.0800 
 50 H        3.0370    -5.1900    -2.0630 H     1 <1>   0.0800 
 51 H       -4.2770    -5.8060    -1.0970 H     1 <1>   0.1500 
 52 H        0.2070    -7.4170    -0.2700 H     1 <1>   0.4500 
 53 H        3.4130    -7.6430    -1.9760 H     1 <1>   0.0800 
 54 H        1.7420    -7.2830    -2.2490 H     1 <1>   0.0800 
 55 H       -0.3100    -7.7300     2.0110 H     1 <1>   0.0800 
 56 H        1.3070    -8.3340     2.2580 H     1 <1>   0.0800 
 57 H        1.9180    -9.0350    -0.5910 H     1 <1>   0.0800 
 58 H        3.0050    -8.0670     0.3810 H     1 <1>   0.0800 
 59 H       -3.2760    -8.4290    -1.2070 H     1 <1>   0.0800 
 60 H       -3.0970    -8.9360     0.4670 H     1 <1>   0.0800 
 61 H        1.3280   -10.6690     2.4000 H     1 <1>   0.1500 
 62 H        0.6070   -12.8680     1.6260 H     1 <1>   0.1500 
 63 H       -1.0400   -13.0880    -0.1420 H     1 <1>   0.1500 
 64 H       -3.3230   -12.0400    -2.7750 H     1 <1>   0.0800 
 65 H       -3.0940   -12.8440    -1.2270 H     1 <1>   0.0800 
 66 H       -1.7590   -12.7500    -2.3920 H     1 <1>   0.0800 
@<TRIPOS>BOND
  1   1   2  2   
  2   2   3  am  
  3   2   4  1   
  4   3   5  1   
  5   3   6  1   
  6   4   7  1   
  7   4  33  1   
  8   4  34  1   
  9   5   8  1   
 10   5  35  1   
 11   5  36  1   
 12   6   9  1   
 13   6  37  1   
 14   6  38  1   
 15   7  10  1   
 16   7  39  1   
 17   7  40  1   
 18   8  11  1   
 19   8  41  1   
 20   8  42  1   
 21   9  11  1   
 22   9  43  1   
 23   9  44  1   
 24  10  12  1   
 25  10  45  1   
 26  10  46  1   
 27  11  13  1   
 28  11  14  1   
 29  12  15  1   
 30  12  16  1   
 31  13  17  1   
 32  13  47  1   
 33  13  48  1   
 34  14  18  1   
 35  14  49  1   
 36  14  50  1   
 37  15  19  2   
 38  16  20  2   
 39  16  51  1   
 40  17  21  1   
 41  17  22  1   
 42  17  52  1   
 43  18  22  1   
 44  18  53  1   
 45  18  54  1   
 46  19  20  1   
 47  20  23  1   
 48  21  24  1   
 49  21  55  1   
 50  21  56  1   
 51  22  57  1   
 52  22  58  1   
 53  23  25  1   
 54  23  59  1   
 55  23  60  1   
 56  24  26  ar  
 57  24  27  ar  
 58  25  26  1   
 59  26  28  ar  
 60  27  29  ar  
 61  27  61  1   
 62  28  30  1   
 63  28  31  ar  
 64  29  31  ar  
 65  29  62  1   
 66  30  32  1   
 67  31  63  1   
 68  32  64  1   
 69  32  65  1   
 70  32  66  1   
@<TRIPOS>SUBSTRUCTURE
  1 ****  19 GROUP 4 **** **** 0

# MOE 2024.06 (io_trps.svl 2023.06)
