@<TRIPOS>MOLECULE
NONAME
55 57 1 0 0 
SMALL
USER_CHARGES


@<TRIPOS>ATOM
  1 O       -4.2100     2.5370    -3.4810 O.2   1 <1>  -0.5700 
  2 C       -3.4470     2.0610    -2.6590 C.2   1 <1>   0.7150 
  3 N       -3.5460     0.7140    -2.4000 N.am  1 <1>  -0.6600 
  4 C       -2.5000     2.9260    -1.9830 C.2   1 <1>   0.0550 
  5 C       -2.3440    -0.1480    -2.3560 C.3   1 <1>   0.3200 
  6 C       -4.8570     0.0040    -2.5160 C.3   1 <1>   0.1400 
  7 O       -1.9280     2.5990    -0.8240 O.3   1 <1>  -0.2800 
  8 C       -2.0850     4.1790    -2.3180 C.2   1 <1>  -0.1500 
  9 C       -2.0350    -0.5480    -0.9290 C.2   1 <1>  -0.3320 
 10 C       -5.9500     0.6390    -1.6360 C.3   1 <1>   0.1200 
 11 C       -1.2050     3.6120    -0.3980 C.2   1 <1>  -0.0400 
 12 C       -1.2510     4.6240    -1.2920 C.2   1 <1>  -0.1500 
 13 N       -2.8520    -0.2980     0.1100 N.pl3 1 <1>   0.0330 
 14 C       -0.9620    -1.1890    -0.4190 C.2   1 <1>   0.0770 
 15 O       -5.5570     0.6870    -0.2980 O.3   1 <1>  -0.6800 
 16 C       -0.5110     3.5260     0.9510 C.3   1 <1>   0.5230 
 17 C       -2.2060    -0.7740     1.1950 C.2   1 <1>   0.0060 
 18 N       -1.0560    -1.2990     0.9200 N.2   1 <1>  -0.5650 
 19 N        0.7850     2.8060     0.8310 N.4   1 <1>  -0.9590 
 20 C       -2.7980    -0.7050     2.5850 C.3   1 <1>  -0.0600 
 21 C        0.5670     1.3450     0.6260 C.3   1 <1>   0.3430 
 22 C        1.6650     3.0670     2.0020 C.3   1 <1>   0.3430 
 23 C        1.9110     0.6590     0.3720 C.3   1 <1>  -0.1600 
 24 C        3.0320     2.4220     1.7740 C.3   1 <1>  -0.1600 
 25 C        2.9040     0.9150     1.5130 C.3   1 <1>  -0.0800 
 26 C        4.2710     0.3020     1.1880 C.3   1 <1>  -0.2400 
 27 H       -1.5020     0.3780    -2.7720 H     1 <1>   0.0800 
 28 H       -2.5100    -1.0290    -2.9530 H     1 <1>   0.0800 
 29 H       -4.7430    -1.0270    -2.2310 H     1 <1>   0.0800 
 30 H       -5.1750     0.0290    -3.5450 H     1 <1>   0.0800 
 31 H       -2.3650     4.7400    -3.1940 H     1 <1>   0.1500 
 32 H       -6.8530     0.0560    -1.7000 H     1 <1>   0.0800 
 33 H       -6.1620     1.6410    -1.9680 H     1 <1>   0.0800 
 34 H       -0.7820     5.5930    -1.2600 H     1 <1>   0.1500 
 35 H       -3.7820     0.1490     0.0530 H     1 <1>   0.2700 
 36 H       -0.1080    -1.5770    -0.9510 H     1 <1>   0.1500 
 37 H       -6.2590     1.1170     0.2340 H     1 <1>   0.4000 
 38 H       -1.1550     3.0300     1.6590 H     1 <1>   0.0800 
 39 H       -0.3320     4.5290     1.3020 H     1 <1>   0.0800 
 40 H        1.2480     3.1570    -0.0150 H     1 <1>   0.4500 
 41 H       -3.7120    -1.2690     2.6190 H     1 <1>   0.0800 
 42 H       -3.0030     0.3150     2.8540 H     1 <1>   0.0800 
 43 H       -2.1100    -1.1240     3.2980 H     1 <1>   0.0800 
 44 H       -0.0850     1.1800    -0.2170 H     1 <1>   0.0800 
 45 H        0.1000     0.9090     1.4950 H     1 <1>   0.0800 
 46 H        1.2200     2.6520     2.8930 H     1 <1>   0.0800 
 47 H        1.7910     4.1280     2.1450 H     1 <1>   0.0800 
 48 H        2.3140     1.0030    -0.5650 H     1 <1>   0.0800 
 49 H        1.7440    -0.4000     0.2830 H     1 <1>   0.0800 
 50 H        3.6430     2.5820     2.6450 H     1 <1>   0.0800 
 51 H        3.5200     2.9040     0.9440 H     1 <1>   0.0800 
 52 H        2.5270     0.4390     2.4050 H     1 <1>   0.0800 
 53 H        4.6910     0.7420     0.3000 H     1 <1>   0.0800 
 54 H        4.1770    -0.7580     1.0310 H     1 <1>   0.0800 
 55 H        4.9560     0.4590     2.0030 H     1 <1>   0.0800 
@<TRIPOS>BOND
  1   1   2  2   
  2   2   3  am  
  3   2   4  1   
  4   3   5  1   
  5   3   6  1   
  6   4   7  1   
  7   4   8  2   
  8   5   9  1   
  9   5  27  1   
 10   5  28  1   
 11   6  10  1   
 12   6  29  1   
 13   6  30  1   
 14   7  11  1   
 15   8  12  1   
 16   8  31  1   
 17   9  13  1   
 18   9  14  2   
 19  10  15  1   
 20  10  32  1   
 21  10  33  1   
 22  11  12  2   
 23  11  16  1   
 24  12  34  1   
 25  13  17  1   
 26  13  35  1   
 27  14  18  1   
 28  14  36  1   
 29  15  37  1   
 30  16  19  1   
 31  16  38  1   
 32  16  39  1   
 33  17  18  2   
 34  17  20  1   
 35  19  21  1   
 36  19  22  1   
 37  19  40  1   
 38  20  41  1   
 39  20  42  1   
 40  20  43  1   
 41  21  23  1   
 42  21  44  1   
 43  21  45  1   
 44  22  24  1   
 45  22  46  1   
 46  22  47  1   
 47  23  25  1   
 48  23  48  1   
 49  23  49  1   
 50  24  25  1   
 51  24  50  1   
 52  24  51  1   
 53  25  26  1   
 54  25  52  1   
 55  26  53  1   
 56  26  54  1   
 57  26  55  1   
@<TRIPOS>SUBSTRUCTURE
  1 ****   7 GROUP 4 **** **** 0

# MOE 2024.06 (io_trps.svl 2023.06)
