@<TRIPOS>MOLECULE
NONAME
44 47 1 0 0 
SMALL
USER_CHARGES


@<TRIPOS>ATOM
  1 O       -0.6040     5.7600    -1.0910 O.2   1 <1>  -0.5700 
  2 C       -0.3920     4.6250    -0.7050 C.2   1 <1>   0.5440 
  3 N       -1.4640     3.7780    -0.5040 N.am  1 <1>  -0.6600 
  4 C        0.9670     4.2080    -0.4540 C.ar  1 <1>   0.0860 
  5 C       -2.8420     4.1440    -0.9610 C.3   1 <1>   0.1400 
  6 C       -1.3990     2.5820     0.3950 C.3   1 <1>   0.1400 
  7 C        1.4600     3.0040    -0.9520 C.ar  1 <1>   0.1600 
  8 C        1.8490     4.9880     0.2870 C.ar  1 <1>  -0.1500 
  9 C       -3.7540     4.4990     0.2360 C.3   1 <1>   0.1440 
 10 C       -2.7420     2.3130     1.0960 C.3   1 <1>  -0.1600 
 11 N        2.6760     2.5190    -0.7620 N.ar  1 <1>  -0.6200 
 12 C        3.1200     4.5070     0.4930 C.ar  1 <1>  -0.1500 
 13 C       -5.1940     4.3650    -0.2350 C.ar  1 <1>   0.1670 
 14 C       -3.4460     3.6250     1.4810 C.3   1 <1>  -0.1600 
 15 C       -3.6720     6.0090     0.5830 C.3   1 <1>  -0.1600 
 16 C        3.4840     3.2750    -0.0410 C.ar  1 <1>   0.4100 
 17 N       -5.8410     3.2350    -0.4120 N.ar  1 <1>  -0.6200 
 18 C       -5.7560     5.5840    -0.4770 C.ar  1 <1>  -0.1440 
 19 C       -4.7910     6.7100    -0.2050 C.3   1 <1>  -0.0170 
 20 N        4.7210     2.7620     0.1350 N.pl3 1 <1>  -0.9000 
 21 C       -7.0820     3.3870    -0.8460 C.ar  1 <1>   0.7200 
 22 C       -7.0570     5.6160    -0.9180 C.ar  1 <1>   0.1600 
 23 N       -7.7400     4.5090    -1.1030 N.ar  1 <1>  -0.6200 
 24 N       -7.7730     2.2610    -1.0270 N.pl3 1 <1>  -0.9000 
 25 H       -3.2550     3.2970    -1.4820 H     1 <1>   0.0800 
 26 H       -2.8120     4.9610    -1.6620 H     1 <1>   0.0800 
 27 H       -0.6460     2.7510     1.1470 H     1 <1>   0.0800 
 28 H       -1.1140     1.7160    -0.1780 H     1 <1>   0.0800 
 29 H        0.7940     2.4060    -1.5510 H     1 <1>   0.1500 
 30 H        1.5310     5.9380     0.6810 H     1 <1>   0.1500 
 31 H       -2.5700     1.7160     1.9740 H     1 <1>   0.0800 
 32 H       -3.3800     1.7440     0.4420 H     1 <1>   0.0800 
 33 H        3.8380     5.0650     1.0630 H     1 <1>   0.1500 
 34 H       -4.3550     3.4150     2.0170 H     1 <1>   0.0800 
 35 H       -2.7920     4.1620     2.1450 H     1 <1>   0.0800 
 36 H       -2.7050     6.4270     0.3670 H     1 <1>   0.0800 
 37 H       -3.8740     6.1470     1.6310 H     1 <1>   0.0800 
 38 H       -4.4120     7.0990    -1.1350 H     1 <1>   0.0800 
 39 H       -5.2440     7.5010     0.3670 H     1 <1>   0.0800 
 40 H        5.5180     3.3890     0.2370 H     1 <1>   0.4000 
 41 H        4.9100     1.9220    -0.4140 H     1 <1>   0.4000 
 42 H       -7.5410     6.5560    -1.1200 H     1 <1>   0.1500 
 43 H       -8.7810     2.3780    -1.0570 H     1 <1>   0.4000 
 44 H       -7.4180     1.4520    -0.5260 H     1 <1>   0.4000 
@<TRIPOS>BOND
  1   1   2  2   
  2   2   3  am  
  3   2   4  1   
  4   3   5  1   
  5   3   6  1   
  6   4   7  ar  
  7   4   8  ar  
  8   5   9  1   
  9   5  25  1   
 10   5  26  1   
 11   6  10  1   
 12   6  27  1   
 13   6  28  1   
 14   7  11  ar  
 15   7  29  1   
 16   8  12  ar  
 17   8  30  1   
 18   9  13  1   
 19   9  14  1   
 20   9  15  1   
 21  10  14  1   
 22  10  31  1   
 23  10  32  1   
 24  11  16  ar  
 25  12  16  ar  
 26  12  33  1   
 27  13  17  ar  
 28  13  18  ar  
 29  14  34  1   
 30  14  35  1   
 31  15  19  1   
 32  15  36  1   
 33  15  37  1   
 34  16  20  1   
 35  17  21  ar  
 36  18  19  1   
 37  18  22  ar  
 38  19  38  1   
 39  19  39  1   
 40  20  40  1   
 41  20  41  1   
 42  21  23  ar  
 43  21  24  1   
 44  22  23  ar  
 45  22  42  1   
 46  24  43  1   
 47  24  44  1   
@<TRIPOS>SUBSTRUCTURE
  1 ****   3 GROUP 4 **** **** 0

# MOE 2024.06 (io_trps.svl 2023.06)
