@<TRIPOS>MOLECULE
NONAME
42 44 1 0 0 
SMALL
USER_CHARGES


@<TRIPOS>ATOM
  1 S        2.8960    -0.5460    -0.9000 S.3   1 <1>  -0.0800 
  2 C        2.1870    -0.3290     0.6960 C.2   1 <1>  -0.1400 
  3 C        1.3930    -1.1950    -1.5300 C.2   1 <1>  -0.1100 
  4 C        0.9030    -0.7380     0.6960 C.2   1 <1>  -0.1500 
  5 C        3.0680     0.2450     1.7870 C.3   1 <1>   0.3890 
  6 C        0.4520    -1.2290    -0.5700 C.2   1 <1>  -0.1500 
  7 N        3.2860     1.6870     1.5340 N.pl3 1 <1>  -0.8690 
  8 C        4.2330     2.3020     0.8130 C.ar  1 <1>   0.4100 
  9 N        4.0500     3.5920     0.6560 N.ar  1 <1>  -0.6200 
 10 C        5.3310     1.6290     0.2480 C.ar  1 <1>  -0.1500 
 11 C        4.9280     4.2670    -0.0720 C.ar  1 <1>   0.7710 
 12 C        6.2140     2.3300    -0.5010 C.ar  1 <1>   0.2180 
 13 N        5.9800     3.6560    -0.6470 N.ar  1 <1>  -0.1790 
 14 N        4.7610     5.6070    -0.2480 N.pl3 1 <1>  -0.8380 
 15 C        7.4300     1.7090    -1.1780 C.3   1 <1>  -0.0170 
 16 C        5.7220     6.5790    -0.8810 C.3   1 <1>   0.2090 
 17 C        3.5170     6.3220     0.2280 C.3   1 <1>   0.2090 
 18 C        8.7480     2.2780    -0.6370 C.3   1 <1>  -0.2400 
 19 C        5.9580     7.7990     0.0300 C.3   1 <1>   0.1200 
 20 C        3.8720     7.5580     1.0720 C.3   1 <1>   0.1200 
 21 O        4.7450     8.3970     0.3700 O.3   1 <1>  -0.5600 
 22 H        1.3720    -1.4860    -2.5660 H     1 <1>   0.1500 
 23 H        0.2370    -0.7170     1.5410 H     1 <1>   0.1500 
 24 H        4.0030    -0.2850     1.8260 H     1 <1>   0.0800 
 25 H        2.5810     0.1280     2.7400 H     1 <1>   0.0800 
 26 H       -0.5570    -1.5830    -0.6970 H     1 <1>   0.1500 
 27 H        2.4830     2.2670     1.7920 H     1 <1>   0.4000 
 28 H        5.4440     0.5750     0.4130 H     1 <1>   0.1500 
 29 H        6.5780     4.2400    -1.2130 H     1 <1>   0.4570 
 30 H        7.3740     1.8680    -2.2420 H     1 <1>   0.0800 
 31 H        7.4220     0.6440    -1.0160 H     1 <1>   0.0800 
 32 H        5.3120     6.9270    -1.8150 H     1 <1>   0.0800 
 33 H        6.6720     6.1230    -1.0840 H     1 <1>   0.0800 
 34 H        2.8820     5.6830     0.8160 H     1 <1>   0.0800 
 35 H        2.9440     6.6410    -0.6260 H     1 <1>   0.0800 
 36 H        8.8410     3.3290    -0.8420 H     1 <1>   0.0800 
 37 H        9.5790     1.7730    -1.1010 H     1 <1>   0.0800 
 38 H        8.8170     2.1230     0.4270 H     1 <1>   0.0800 
 39 H        6.5520     8.5370    -0.4800 H     1 <1>   0.0800 
 40 H        6.4670     7.5130     0.9350 H     1 <1>   0.0800 
 41 H        4.3360     7.2680     1.9980 H     1 <1>   0.0800 
 42 H        2.9830     8.1220     1.2940 H     1 <1>   0.0800 
@<TRIPOS>BOND
  1   1   2  1   
  2   1   3  1   
  3   2   4  2   
  4   2   5  1   
  5   3   6  2   
  6   3  22  1   
  7   4   6  1   
  8   4  23  1   
  9   5   7  1   
 10   5  24  1   
 11   5  25  1   
 12   6  26  1   
 13   7   8  1   
 14   7  27  1   
 15   8   9  ar  
 16   8  10  ar  
 17   9  11  ar  
 18  10  12  ar  
 19  10  28  1   
 20  11  13  ar  
 21  11  14  1   
 22  12  13  ar  
 23  12  15  1   
 24  13  29  1   
 25  14  16  1   
 26  14  17  1   
 27  15  18  1   
 28  15  30  1   
 29  15  31  1   
 30  16  19  1   
 31  16  32  1   
 32  16  33  1   
 33  17  20  1   
 34  17  34  1   
 35  17  35  1   
 36  18  36  1   
 37  18  37  1   
 38  18  38  1   
 39  19  21  1   
 40  19  39  1   
 41  19  40  1   
 42  20  21  1   
 43  20  41  1   
 44  20  42  1   
@<TRIPOS>SUBSTRUCTURE
  1 ****   9 GROUP 4 **** **** 0

# MOE 2024.06 (io_trps.svl 2023.06)
