@<TRIPOS>MOLECULE
NONAME
59 61 1 0 0 
SMALL
USER_CHARGES


@<TRIPOS>ATOM
  1 O       -0.2660     0.6910     2.4330 O.2   1 <1>  -0.5700 
  2 C       -0.2910     1.8000     1.9510 C.2   1 <1>   0.5690 
  3 N       -1.4430     2.3080     1.3980 N.am  1 <1>  -0.6600 
  4 C        1.0060     2.5960     2.0150 C.3   1 <1>   0.0810 
  5 C       -1.5590     3.6780     0.8090 C.3   1 <1>   0.1400 
  6 C       -2.6540     1.4350     1.2910 C.3   1 <1>   0.1400 
  7 C        1.6210     2.8180     0.6450 C.2   1 <1>  -0.0400 
  8 C       -2.9910     4.1830     0.9730 C.3   1 <1>  -0.1600 
  9 C       -3.5130     1.8480     0.0940 C.3   1 <1>  -0.1600 
 10 O        1.3790     3.9180    -0.0160 O.3   1 <1>  -0.0190 
 11 C        2.4400     2.0620    -0.1000 C.2   1 <1>  -0.1500 
 12 C       -3.9990     3.3130     0.1840 C.3   1 <1>   0.2800 
 13 N        1.9860     3.9380    -1.1660 N.2   1 <1>  -0.4100 
 14 C        2.6340     2.8310    -1.2450 C.2   1 <1>   0.1080 
 15 O       -4.0000     3.7460    -1.1480 O.3   1 <1>  -0.5600 
 16 C       -5.4290     3.3830     0.7930 C.3   1 <1>  -0.1600 
 17 C        3.4870     2.4260    -2.4260 C.3   1 <1>  -0.0590 
 18 C       -4.6110     4.9570    -1.5290 C.3   1 <1>   0.1200 
 19 C       -6.5070     3.9440    -0.1520 C.3   1 <1>   0.3000 
 20 C       -5.9380     5.2350    -0.7970 C.3   1 <1>   0.2000 
 21 N       -6.7200     2.9140    -1.1990 N.am  1 <1>  -0.7300 
 22 C       -7.7870     4.2050     0.6550 C.3   1 <1>  -0.2400 
 23 O       -5.7060     6.2140     0.1730 O.3   1 <1>  -0.6800 
 24 C       -7.7120     2.4750    -2.0130 C.2   1 <1>   0.5690 
 25 O       -7.4300     1.6520    -2.8450 O.2   1 <1>  -0.5700 
 26 C       -9.1530     2.9550    -1.9700 C.3   1 <1>  -0.0990 
 27 C       -9.3500     4.3010    -2.6880 C.3   1 <1>  -0.1600 
 28 C      -10.8090     4.7620    -2.6180 C.3   1 <1>  -0.2400 
 29 H        0.8370     3.5350     2.5060 H     1 <1>   0.0800 
 30 H        1.7070     2.0450     2.6130 H     1 <1>   0.0800 
 31 H       -0.8890     4.3580     1.3030 H     1 <1>   0.0800 
 32 H       -1.3010     3.6410    -0.2370 H     1 <1>   0.0800 
 33 H       -2.3510     0.4080     1.1700 H     1 <1>   0.0800 
 34 H       -3.2230     1.5100     2.2010 H     1 <1>   0.0800 
 35 H       -3.0440     5.2100     0.6670 H     1 <1>   0.0800 
 36 H       -3.2120     4.1520     2.0250 H     1 <1>   0.0800 
 37 H       -4.3420     1.1710    -0.0010 H     1 <1>   0.0800 
 38 H       -2.9060     1.7180    -0.7860 H     1 <1>   0.0800 
 39 H        2.8590     1.0940     0.1030 H     1 <1>   0.1500 
 40 H       -5.7450     2.4190     1.1500 H     1 <1>   0.0800 
 41 H       -5.3980     3.9990     1.6730 H     1 <1>   0.0800 
 42 H        4.5060     2.2960    -2.1120 H     1 <1>   0.0800 
 43 H        3.4500     3.1880    -3.1840 H     1 <1>   0.0800 
 44 H        3.1210     1.5050    -2.8410 H     1 <1>   0.0800 
 45 H       -3.9100     5.7620    -1.3920 H     1 <1>   0.0800 
 46 H       -4.8100     4.8690    -2.5820 H     1 <1>   0.0800 
 47 H       -6.6510     5.6530    -1.4840 H     1 <1>   0.0800 
 48 H       -5.8090     2.5380    -1.4870 H     1 <1>   0.3700 
 49 H       -7.5700     4.8130     1.5150 H     1 <1>   0.0800 
 50 H       -8.2110     3.2800     1.0020 H     1 <1>   0.0800 
 51 H       -8.5050     4.7460     0.0710 H     1 <1>   0.0800 
 52 H       -5.0090     5.9180     0.7870 H     1 <1>   0.4000 
 53 H       -9.7560     2.2160    -2.4660 H     1 <1>   0.0800 
 54 H       -9.5000     2.9980    -0.9580 H     1 <1>   0.0800 
 55 H       -8.7210     5.0520    -2.2460 H     1 <1>   0.0800 
 56 H       -9.0580     4.1940    -3.7200 H     1 <1>   0.0800 
 57 H      -11.1140     4.8950    -1.5950 H     1 <1>   0.0800 
 58 H      -11.4550     4.0370    -3.0820 H     1 <1>   0.0800 
 59 H      -10.9230     5.6990    -3.1330 H     1 <1>   0.0800 
@<TRIPOS>BOND
  1   1   2  2   
  2   2   3  am  
  3   2   4  1   
  4   3   5  1   
  5   3   6  1   
  6   4   7  1   
  7   4  29  1   
  8   4  30  1   
  9   5   8  1   
 10   5  31  1   
 11   5  32  1   
 12   6   9  1   
 13   6  33  1   
 14   6  34  1   
 15   7  10  1   
 16   7  11  2   
 17   8  12  1   
 18   8  35  1   
 19   8  36  1   
 20   9  12  1   
 21   9  37  1   
 22   9  38  1   
 23  10  13  1   
 24  11  14  1   
 25  11  39  1   
 26  12  15  1   
 27  12  16  1   
 28  13  14  2   
 29  14  17  1   
 30  15  18  1   
 31  16  19  1   
 32  16  40  1   
 33  16  41  1   
 34  17  42  1   
 35  17  43  1   
 36  17  44  1   
 37  18  20  1   
 38  18  45  1   
 39  18  46  1   
 40  19  20  1   
 41  19  21  1   
 42  19  22  1   
 43  20  23  1   
 44  20  47  1   
 45  21  24  am  
 46  21  48  1   
 47  22  49  1   
 48  22  50  1   
 49  22  51  1   
 50  23  52  1   
 51  24  25  2   
 52  24  26  1   
 53  26  27  1   
 54  26  53  1   
 55  26  54  1   
 56  27  28  1   
 57  27  55  1   
 58  27  56  1   
 59  28  57  1   
 60  28  58  1   
 61  28  59  1   
@<TRIPOS>SUBSTRUCTURE
  1 ****  12 GROUP 4 **** **** 0

# MOE 2024.06 (io_trps.svl 2023.06)
