@<TRIPOS>MOLECULE
NONAME
50 52 1 0 0 
SMALL
USER_CHARGES


@<TRIPOS>ATOM
  1 O       -0.1040     0.4580    -0.0200 O.2   1 <1>  -0.5700 
  2 C        0.9440    -0.1190    -0.1730 C.2   1 <1>   0.5690 
  3 N        2.1230     0.5340    -0.1310 N.am  1 <1>  -0.7300 
  4 C        0.9440    -1.6110    -0.4300 C.3   1 <1>  -0.0990 
  5 C        2.2700     2.0020     0.0740 C.3   1 <1>   0.3210 
  6 C       -0.2930    -2.3110     0.1510 C.3   1 <1>   0.2000 
  7 C        3.7130     2.4630    -0.1280 C.2   1 <1>   0.3350 
  8 O       -0.0850    -3.6880     0.0080 O.3   1 <1>  -0.5600 
  9 C       -1.6170    -1.9130    -0.5540 C.3   1 <1>   0.3430 
 10 N        4.7050     1.7010    -0.3830 N.2   1 <1>  -0.4100 
 11 N        4.0420     3.7450    -0.0460 N.2   1 <1>  -0.5650 
 12 C       -1.0890    -4.5020     0.5450 C.3   1 <1>   0.1200 
 13 N       -2.7770    -2.7550    -0.0990 N.4   1 <1>  -0.9590 
 14 O        5.7540     2.4600    -0.4830 O.3   1 <1>  -0.0190 
 15 C        5.2930     3.6680    -0.2700 C.2   1 <1>   0.2980 
 16 C       -2.4350    -4.2190    -0.1460 C.3   1 <1>   0.3430 
 17 C       -4.0160    -2.4440    -0.8630 C.3   1 <1>   0.4860 
 18 C        6.2570     4.8400    -0.3110 C.3   1 <1>   0.0200 
 19 C       -5.1670    -3.2080    -0.2400 C.ar  1 <1>  -0.1440 
 20 C        7.2690     4.7920     0.8420 C.3   1 <1>  -0.2400 
 21 C       -5.6770    -4.3370    -0.8660 C.ar  1 <1>  -0.1500 
 22 C       -5.7160    -2.7900     0.9650 C.ar  1 <1>  -0.1500 
 23 C       -6.7140    -5.0470    -0.2870 C.ar  1 <1>  -0.1500 
 24 C       -6.7530    -3.5020     1.5420 C.ar  1 <1>  -0.1500 
 25 C       -7.2500    -4.6310     0.9180 C.ar  1 <1>  -0.1500 
 26 H        3.0200     0.0600    -0.2870 H     1 <1>   0.3700 
 27 H        1.8220    -2.0330     0.0250 H     1 <1>   0.0800 
 28 H        0.9950    -1.7770    -1.4900 H     1 <1>   0.0800 
 29 H        1.9590     2.2540     1.0720 H     1 <1>   0.0800 
 30 H        1.6350     2.5240    -0.6200 H     1 <1>   0.0800 
 31 H       -0.3550    -2.0890     1.2030 H     1 <1>   0.0800 
 32 H       -1.4780    -2.0250    -1.6160 H     1 <1>   0.0800 
 33 H       -1.8300    -0.8750    -0.3600 H     1 <1>   0.0800 
 34 H       -1.1500    -4.3280     1.6060 H     1 <1>   0.0800 
 35 H       -0.8000    -5.5270     0.3850 H     1 <1>   0.0800 
 36 H       -2.9770    -2.5250     0.8820 H     1 <1>   0.4500 
 37 H       -3.2110    -4.7950     0.3340 H     1 <1>   0.0800 
 38 H       -2.3670    -4.5460    -1.1700 H     1 <1>   0.0800 
 39 H       -3.9000    -2.7290    -1.8960 H     1 <1>   0.0800 
 40 H       -4.2240    -1.3870    -0.8200 H     1 <1>   0.0800 
 41 H        5.6940     5.7540    -0.2520 H     1 <1>   0.0800 
 42 H        6.7760     4.8290    -1.2520 H     1 <1>   0.0800 
 43 H        6.7540     4.8060     1.7860 H     1 <1>   0.0800 
 44 H        7.9260     5.6420     0.7930 H     1 <1>   0.0800 
 45 H        7.8610     3.8950     0.7840 H     1 <1>   0.0800 
 46 H       -5.2810    -4.6770    -1.8090 H     1 <1>   0.1500 
 47 H       -5.3540    -1.9090     1.4670 H     1 <1>   0.1500 
 48 H       -7.1100    -5.9230    -0.7740 H     1 <1>   0.1500 
 49 H       -7.1790    -3.1780     2.4770 H     1 <1>   0.1500 
 50 H       -8.0580    -5.1840     1.3670 H     1 <1>   0.1500 
@<TRIPOS>BOND
  1   1   2  2   
  2   2   3  am  
  3   2   4  1   
  4   3   5  1   
  5   3  26  1   
  6   4   6  1   
  7   4  27  1   
  8   4  28  1   
  9   5   7  1   
 10   5  29  1   
 11   5  30  1   
 12   6   8  1   
 13   6   9  1   
 14   6  31  1   
 15   7  10  2   
 16   7  11  1   
 17   8  12  1   
 18   9  13  1   
 19   9  32  1   
 20   9  33  1   
 21  10  14  1   
 22  11  15  2   
 23  12  16  1   
 24  12  34  1   
 25  12  35  1   
 26  13  16  1   
 27  13  17  1   
 28  13  36  1   
 29  14  15  1   
 30  15  18  1   
 31  16  37  1   
 32  16  38  1   
 33  17  19  1   
 34  17  39  1   
 35  17  40  1   
 36  18  20  1   
 37  18  41  1   
 38  18  42  1   
 39  19  21  ar  
 40  19  22  ar  
 41  20  43  1   
 42  20  44  1   
 43  20  45  1   
 44  21  23  ar  
 45  21  46  1   
 46  22  24  ar  
 47  22  47  1   
 48  23  25  ar  
 49  23  48  1   
 50  24  25  ar  
 51  24  49  1   
 52  25  50  1   
@<TRIPOS>SUBSTRUCTURE
  1 ****   1 GROUP 4 **** **** 0

# MOE 2024.06 (io_trps.svl 2023.06)
