@<TRIPOS>MOLECULE
NONAME
53 55 1 0 0 
SMALL
USER_CHARGES


@<TRIPOS>ATOM
  1 O        1.6240    -0.0700     1.3230 O.3   1 <1>  -0.3630 
  2 C        1.0360    -1.2950     1.3140 C.ar  1 <1>   0.0830 
  3 C        1.3140     0.9000     2.2990 C.3   1 <1>   0.0400 
  4 C        1.4280    -2.1900     0.3240 C.ar  1 <1>  -0.1440 
  5 C        0.0770    -1.6790     2.2490 C.ar  1 <1>  -0.1500 
  6 C        0.8660    -3.4560     0.2910 C.ar  1 <1>  -0.1500 
  7 C        2.4720    -1.7660    -0.7070 C.3   1 <1>   0.2640 
  8 C       -0.4900    -2.9390     2.1930 C.ar  1 <1>  -0.1500 
  9 C       -0.1040    -3.8330     1.2060 C.ar  1 <1>  -0.1440 
 10 O        2.3740    -2.5650    -1.8520 O.3   1 <1>  -0.5600 
 11 C       -0.7400    -5.2020     1.0980 C.3   1 <1>   0.4860 
 12 C        3.2770    -2.2160    -2.8530 C.3   1 <1>   0.0400 
 13 N       -1.3730    -5.2770    -0.2470 N.4   1 <1>  -0.9590 
 14 C       -2.8560    -5.1510    -0.2050 C.3   1 <1>   0.4230 
 15 C       -0.9030    -6.4890    -0.9860 C.3   1 <1>   0.2630 
 16 C       -3.4610    -5.1290    -1.6070 C.3   1 <1>  -0.1600 
 17 C       -3.3080    -3.8260     0.4050 C.3   1 <1>  -0.1600 
 18 C       -4.8050    -4.4060    -1.4550 C.3   1 <1>  -0.0800 
 19 C       -4.7070    -3.5750    -0.1670 C.3   1 <1>  -0.0800 
 20 C       -6.0010    -5.3520    -1.2720 C.3   1 <1>  -0.1600 
 21 C       -5.8460    -4.0530     0.7460 C.3   1 <1>  -0.1600 
 22 C       -6.8520    -4.6830    -0.2040 C.3   1 <1>   0.2000 
 23 O       -7.6170    -5.6180     0.4560 O.3   1 <1>  -0.6800 
 24 H        1.9080     1.7740     2.1010 H     1 <1>   0.0800 
 25 H        1.5560     0.5090     3.2710 H     1 <1>   0.0800 
 26 H        0.2700     1.1470     2.2290 H     1 <1>   0.0800 
 27 H       -0.2380    -1.0090     3.0260 H     1 <1>   0.1500 
 28 H        1.1980    -4.1480    -0.4650 H     1 <1>   0.1500 
 29 H        3.4590    -1.8720    -0.2930 H     1 <1>   0.0800 
 30 H        2.3120    -0.7410    -0.9970 H     1 <1>   0.0800 
 31 H       -1.2320    -3.2080     2.9260 H     1 <1>   0.1500 
 32 H       -1.4710    -5.3440     1.8760 H     1 <1>   0.0800 
 33 H        0.0260    -5.9540     1.2000 H     1 <1>   0.0800 
 34 H        3.1300    -2.8810    -3.6850 H     1 <1>   0.0800 
 35 H        4.2810    -2.3190    -2.4800 H     1 <1>   0.0800 
 36 H        3.0900    -1.2020    -3.1640 H     1 <1>   0.0800 
 37 H       -1.0220    -4.4370    -0.7350 H     1 <1>   0.4500 
 38 H       -3.2920    -5.9650     0.3520 H     1 <1>   0.0800 
 39 H       -1.2580    -7.3850    -0.5040 H     1 <1>   0.0800 
 40 H        0.1750    -6.5140    -1.0150 H     1 <1>   0.0800 
 41 H       -1.2670    -6.4750    -2.0010 H     1 <1>   0.0800 
 42 H       -2.8390    -4.5450    -2.2640 H     1 <1>   0.0800 
 43 H       -3.5850    -6.1160    -2.0160 H     1 <1>   0.0800 
 44 H       -3.3180    -3.8510     1.4800 H     1 <1>   0.0800 
 45 H       -2.6640    -3.0300     0.0730 H     1 <1>   0.0800 
 46 H       -4.9870    -3.7590    -2.2990 H     1 <1>   0.0800 
 47 H       -4.8440    -2.5290    -0.3910 H     1 <1>   0.0800 
 48 H       -5.6740    -6.3160    -0.9240 H     1 <1>   0.0800 
 49 H       -6.5540    -5.4690    -2.1880 H     1 <1>   0.0800 
 50 H       -6.2880    -3.2340     1.2860 H     1 <1>   0.0800 
 51 H       -5.4910    -4.7930     1.4410 H     1 <1>   0.0800 
 52 H       -7.5030    -3.9380    -0.6340 H     1 <1>   0.0800 
 53 H       -7.0600    -6.3120     0.8500 H     1 <1>   0.4000 
@<TRIPOS>BOND
  1   1   2  1   
  2   1   3  1   
  3   2   4  ar  
  4   2   5  ar  
  5   3  24  1   
  6   3  25  1   
  7   3  26  1   
  8   4   6  ar  
  9   4   7  1   
 10   5   8  ar  
 11   5  27  1   
 12   6   9  ar  
 13   6  28  1   
 14   7  10  1   
 15   7  29  1   
 16   7  30  1   
 17   8   9  ar  
 18   8  31  1   
 19   9  11  1   
 20  10  12  1   
 21  11  13  1   
 22  11  32  1   
 23  11  33  1   
 24  12  34  1   
 25  12  35  1   
 26  12  36  1   
 27  13  14  1   
 28  13  15  1   
 29  13  37  1   
 30  14  16  1   
 31  14  17  1   
 32  14  38  1   
 33  15  39  1   
 34  15  40  1   
 35  15  41  1   
 36  16  18  1   
 37  16  42  1   
 38  16  43  1   
 39  17  19  1   
 40  17  44  1   
 41  17  45  1   
 42  18  19  1   
 43  18  20  1   
 44  18  46  1   
 45  19  21  1   
 46  19  47  1   
 47  20  22  1   
 48  20  48  1   
 49  20  49  1   
 50  21  22  1   
 51  21  50  1   
 52  21  51  1   
 53  22  23  1   
 54  22  52  1   
 55  23  53  1   
@<TRIPOS>SUBSTRUCTURE
  1 ****   9 GROUP 4 **** **** 0

# MOE 2024.06 (io_trps.svl 2023.06)
