@<TRIPOS>MOLECULE
NONAME
55 59 1 0 0 
SMALL
USER_CHARGES


@<TRIPOS>ATOM
  1 O       -1.5510     1.9110     1.9150 O.2   1 <1>  -0.5700 
  2 C       -2.1100     1.7510     0.8440 C.2   1 <1>   0.7160 
  3 N       -2.8890     0.6280     0.6560 N.am  1 <1>  -0.6600 
  4 C       -1.9210     2.7200    -0.1860 C.2   1 <1>  -0.0860 
  5 C       -3.6700     0.3980    -0.6060 C.3   1 <1>   0.1400 
  6 C       -3.0200    -0.4170     1.7250 C.3   1 <1>   0.1400 
  7 C       -2.8910     3.6070    -0.6640 C.2   1 <1>   0.3720 
  8 C       -0.8200     3.0060    -0.9310 C.2   1 <1>   0.0870 
  9 C       -3.6620    -1.0890    -1.0160 C.3   1 <1>  -0.0800 
 10 C       -3.0640    -1.8400     1.1270 C.3   1 <1>  -0.0800 
 11 N       -2.4100     4.3410    -1.6060 N.2   1 <1>  -0.4100 
 12 N       -4.2130     3.6810    -0.1910 N.pl3 1 <1>  -0.8210 
 13 O       -1.1650     3.9700    -1.7470 O.3   1 <1>  -0.0190 
 14 C        0.5170     2.4610    -0.9740 C.ar  1 <1>   0.0530 
 15 C       -4.2200    -1.9160     0.1360 C.3   1 <1>  -0.1600 
 16 C       -2.2230    -1.6120    -1.1570 C.3   1 <1>  -0.1600 
 17 C       -1.8330    -2.1080     0.2460 C.3   1 <1>  -0.1600 
 18 C       -5.1780     4.5610    -0.9120 C.3   1 <1>   0.2090 
 19 C       -4.3520     3.9090     1.2730 C.3   1 <1>   0.2090 
 20 C        0.8340     1.2130    -0.4330 C.ar  1 <1>  -0.1500 
 21 C        1.5580     3.1710    -1.5770 C.ar  1 <1>  -0.1500 
 22 C       -5.6940     5.5420     0.1310 C.3   1 <1>  -0.1600 
 23 C       -5.5870     4.7820     1.4440 C.3   1 <1>  -0.1600 
 24 C        2.1170     0.6990    -0.4860 C.ar  1 <1>  -0.1500 
 25 C        2.8420     2.6650    -1.6360 C.ar  1 <1>  -0.1500 
 26 C        3.1360     1.4260    -1.0920 C.ar  1 <1>   0.0830 
 27 O        4.4170     0.9990    -1.1880 O.3   1 <1>  -0.3630 
 28 C        4.8260    -0.2340    -0.6410 C.3   1 <1>   0.0400 
 29 H       -4.6840     0.7260    -0.4490 H     1 <1>   0.0800 
 30 H       -3.2630     0.9770    -1.4160 H     1 <1>   0.0800 
 31 H       -2.1910    -0.3530     2.4100 H     1 <1>   0.0800 
 32 H       -3.9220    -0.2310     2.2810 H     1 <1>   0.0800 
 33 H       -4.2270    -1.2270    -1.9210 H     1 <1>   0.0800 
 34 H       -3.1600    -2.5690     1.9130 H     1 <1>   0.0800 
 35 H       -4.3810    -2.9340    -0.1760 H     1 <1>   0.0800 
 36 H       -5.1370    -1.5140     0.5310 H     1 <1>   0.0800 
 37 H       -2.2000    -2.4370    -1.8480 H     1 <1>   0.0800 
 38 H       -1.5530    -0.8470    -1.5090 H     1 <1>   0.0800 
 39 H       -0.9600    -1.6020     0.6200 H     1 <1>   0.0800 
 40 H       -1.6340    -3.1650     0.2110 H     1 <1>   0.0800 
 41 H       -4.7370     5.0820    -1.7440 H     1 <1>   0.0800 
 42 H       -5.9870     3.9520    -1.2760 H     1 <1>   0.0800 
 43 H       -4.4640     2.9740     1.7940 H     1 <1>   0.0800 
 44 H       -3.4810     4.4230     1.6460 H     1 <1>   0.0800 
 45 H        0.0710     0.6240     0.0380 H     1 <1>   0.1500 
 46 H        1.3600     4.1380    -2.0050 H     1 <1>   0.1500 
 47 H       -5.0440     6.4000     0.1480 H     1 <1>   0.0800 
 48 H       -6.6980     5.8630    -0.0830 H     1 <1>   0.0800 
 49 H       -6.4470     4.1480     1.5730 H     1 <1>   0.0800 
 50 H       -5.4990     5.4360     2.2930 H     1 <1>   0.0800 
 51 H        2.3040    -0.2650    -0.0530 H     1 <1>   0.1500 
 52 H        3.6290     3.2280    -2.1040 H     1 <1>   0.1500 
 53 H        5.8780    -0.3500    -0.8300 H     1 <1>   0.0800 
 54 H        4.2800    -1.0270    -1.1200 H     1 <1>   0.0800 
 55 H        4.6430    -0.2240     0.4190 H     1 <1>   0.0800 
@<TRIPOS>BOND
  1   1   2  2   
  2   2   3  am  
  3   2   4  1   
  4   3   5  1   
  5   3   6  1   
  6   4   7  1   
  7   4   8  2   
  8   5   9  1   
  9   5  29  1   
 10   5  30  1   
 11   6  10  1   
 12   6  31  1   
 13   6  32  1   
 14   7  11  2   
 15   7  12  1   
 16   8  13  1   
 17   8  14  1   
 18   9  15  1   
 19   9  16  1   
 20   9  33  1   
 21  10  15  1   
 22  10  17  1   
 23  10  34  1   
 24  11  13  1   
 25  12  18  1   
 26  12  19  1   
 27  14  20  ar  
 28  14  21  ar  
 29  15  35  1   
 30  15  36  1   
 31  16  17  1   
 32  16  37  1   
 33  16  38  1   
 34  17  39  1   
 35  17  40  1   
 36  18  22  1   
 37  18  41  1   
 38  18  42  1   
 39  19  23  1   
 40  19  43  1   
 41  19  44  1   
 42  20  24  ar  
 43  20  45  1   
 44  21  25  ar  
 45  21  46  1   
 46  22  23  1   
 47  22  47  1   
 48  22  48  1   
 49  23  49  1   
 50  23  50  1   
 51  24  26  ar  
 52  24  51  1   
 53  25  26  ar  
 54  25  52  1   
 55  26  27  1   
 56  27  28  1   
 57  28  53  1   
 58  28  54  1   
 59  28  55  1   
@<TRIPOS>SUBSTRUCTURE
  1 ****   4 GROUP 4 **** **** 0

# MOE 2024.06 (io_trps.svl 2023.06)
