@<TRIPOS>MOLECULE
NONAME
48 51 1 0 0 
SMALL
USER_CHARGES


@<TRIPOS>ATOM
  1 O        2.0280     0.5760    -1.0490 O.2   1 <1>  -0.5700 
  2 C        2.1510     1.7650    -0.9220 C.2   1 <1>   0.4230 
  3 C        3.3570     2.5220    -0.8090 C.ar  1 <1>   0.0860 
  4 C        0.9650     2.7040    -0.8530 C.3   1 <1>  -0.0990 
  5 C        3.0790     3.8660    -0.6650 C.ar  1 <1>  -0.1440 
  6 C        4.6780     2.0920    -0.8280 C.ar  1 <1>  -0.1500 
  7 C        1.5790     4.1090    -0.6830 C.3   1 <1>  -0.0160 
  8 C        4.0800     4.8250    -0.5330 C.ar  1 <1>   0.0860 
  9 C        5.6970     3.0190    -0.7070 C.ar  1 <1>  -0.1500 
 10 C        3.7610     6.2320    -0.3800 C.2   1 <1>   0.5440 
 11 C        5.3980     4.3650    -0.5660 C.ar  1 <1>  -0.1500 
 12 O        3.2390     6.8140    -1.3140 O.2   1 <1>  -0.5700 
 13 N        4.0040     6.9290     0.7880 N.am  1 <1>  -0.6600 
 14 C        4.6230     6.3100     2.0080 C.3   1 <1>   0.1400 
 15 C        3.7120     8.3880     0.8730 C.3   1 <1>   0.1400 
 16 C        5.7580     7.1520     2.6170 C.3   1 <1>   0.1400 
 17 C        4.8950     9.2030     0.3320 C.3   1 <1>  -0.1600 
 18 N        6.5850     7.8100     1.5630 N.am  1 <1>  -0.6600 
 19 C        6.1570     9.1920     1.2080 C.3   1 <1>   0.1400 
 20 C        7.6000     7.1250     0.9340 C.2   1 <1>   0.5440 
 21 O        7.8900     6.0100     1.3250 O.2   1 <1>  -0.5700 
 22 C        8.3210     7.6860    -0.1830 C.ar  1 <1>   0.0860 
 23 C        7.7180     7.7990    -1.4340 C.ar  1 <1>   0.1600 
 24 C        9.6300     8.1300    -0.0640 C.ar  1 <1>  -0.1500 
 25 N        8.2780     8.3140    -2.5170 N.ar  1 <1>  -0.6200 
 26 C       10.2350     8.6630    -1.1810 C.ar  1 <1>  -0.1500 
 27 C        9.5240     8.7340    -2.3680 C.ar  1 <1>   0.1600 
 28 H        0.3450     2.4450    -0.0140 H     1 <1>   0.0800 
 29 H        0.3950     2.6360    -1.7620 H     1 <1>   0.0800 
 30 H        4.8910     1.0420    -0.9390 H     1 <1>   0.1500 
 31 H        1.2590     4.5630     0.2380 H     1 <1>   0.0800 
 32 H        1.3140     4.7470    -1.5090 H     1 <1>   0.0800 
 33 H        6.7250     2.6990    -0.7220 H     1 <1>   0.1500 
 34 H        6.2010     5.0750    -0.4760 H     1 <1>   0.1500 
 35 H        5.0260     5.3420     1.7780 H     1 <1>   0.0800 
 36 H        3.8590     6.1640     2.7510 H     1 <1>   0.0800 
 37 H        3.4940     8.6650     1.8900 H     1 <1>   0.0800 
 38 H        2.8370     8.6080     0.2850 H     1 <1>   0.0800 
 39 H        6.3800     6.5170     3.2250 H     1 <1>   0.0800 
 40 H        5.3400     7.8990     3.2670 H     1 <1>   0.0800 
 41 H        4.5760    10.2250     0.2350 H     1 <1>   0.0800 
 42 H        5.1300     8.8640    -0.6590 H     1 <1>   0.0800 
 43 H        5.9660     9.7390     2.1150 H     1 <1>   0.0800 
 44 H        6.9510     9.7050     0.6920 H     1 <1>   0.0800 
 45 H        6.7090     7.4380    -1.5370 H     1 <1>   0.1500 
 46 H       10.1470     8.0510     0.8770 H     1 <1>   0.1500 
 47 H       11.2480     9.0210    -1.1380 H     1 <1>   0.1500 
 48 H       10.0040     9.1540    -3.2360 H     1 <1>   0.1500 
@<TRIPOS>BOND
  1   1   2  2   
  2   2   3  1   
  3   2   4  1   
  4   3   5  ar  
  5   3   6  ar  
  6   4   7  1   
  7   4  28  1   
  8   4  29  1   
  9   5   7  1   
 10   5   8  ar  
 11   6   9  ar  
 12   6  30  1   
 13   7  31  1   
 14   7  32  1   
 15   8  10  1   
 16   8  11  ar  
 17   9  11  ar  
 18   9  33  1   
 19  10  12  2   
 20  10  13  am  
 21  11  34  1   
 22  13  14  1   
 23  13  15  1   
 24  14  16  1   
 25  14  35  1   
 26  14  36  1   
 27  15  17  1   
 28  15  37  1   
 29  15  38  1   
 30  16  18  1   
 31  16  39  1   
 32  16  40  1   
 33  17  19  1   
 34  17  41  1   
 35  17  42  1   
 36  18  19  1   
 37  18  20  am  
 38  19  43  1   
 39  19  44  1   
 40  20  21  2   
 41  20  22  1   
 42  22  23  ar  
 43  22  24  ar  
 44  23  25  ar  
 45  23  45  1   
 46  24  26  ar  
 47  24  46  1   
 48  25  27  ar  
 49  26  27  ar  
 50  26  47  1   
 51  27  48  1   
@<TRIPOS>SUBSTRUCTURE
  1 ****  11 GROUP 4 **** **** 0

# MOE 2024.06 (io_trps.svl 2023.06)
