@<TRIPOS>MOLECULE
NONAME
46 47 1 0 0 
SMALL
USER_CHARGES


@<TRIPOS>ATOM
  1 S       -0.7420    -0.4170    -0.1120 S.3   1 <1>  -0.0800 
  2 C       -1.3180    -1.6380    -1.1970 C.2   1 <1>   0.4420 
  3 C       -0.6830     0.6560    -1.4690 C.2   1 <1>   0.1980 
  4 N       -1.4330    -1.2050    -2.3990 N.2   1 <1>  -0.3380 
  5 N       -1.5690    -2.8770    -0.6510 N.am  1 <1>  -0.4940 
  6 N       -1.0680     0.1050    -2.5480 N.2   1 <1>  -0.3380 
  7 C       -0.2010     2.0760    -1.2430 C.3   1 <1>   0.1640 
  8 C       -2.0720    -4.0090    -1.2300 C.2   1 <1>   0.5690 
  9 C        1.2120     2.0940    -0.6770 C.ar  1 <1>  -0.1440 
 10 O       -2.4410    -4.0650    -2.3760 O.2   1 <1>  -0.5700 
 11 C       -2.1870    -5.2720    -0.3580 C.3   1 <1>   0.2810 
 12 C        1.4500     2.5100     0.6250 C.ar  1 <1>  -0.1500 
 13 C        2.2760     1.6840    -1.4650 C.ar  1 <1>  -0.1500 
 14 N       -2.1930    -4.9580     1.1030 N.am  1 <1>  -0.7300 
 15 C       -1.0370    -6.2500    -0.6500 C.3   1 <1>  -0.1600 
 16 C        2.7370     2.5180     1.1390 C.ar  1 <1>  -0.1430 
 17 C        3.5630     1.6930    -0.9580 C.ar  1 <1>  -0.1500 
 18 C       -3.1990    -4.4420     1.8410 C.2   1 <1>   0.5690 
 19 C       -1.1620    -7.5860     0.1020 C.3   1 <1>  -0.1600 
 20 C        3.7920     2.1090     0.3410 C.ar  1 <1>  -0.1500 
 21 C        2.9890     2.9750     2.5640 C.3   1 <1>  -0.0970 
 22 O       -3.0230    -4.2190     3.0070 O.2   1 <1>  -0.5700 
 23 C       -4.5350    -4.1170     1.2170 C.3   1 <1>  -0.1790 
 24 C       -0.0260    -8.5380    -0.2830 C.3   1 <1>  -0.2400 
 25 H       -1.3760    -2.9630     0.3470 H     1 <1>   0.3700 
 26 H       -0.8810     2.5730    -0.5760 H     1 <1>   0.0800 
 27 H       -0.2150     2.6030    -2.1800 H     1 <1>   0.0800 
 28 H       -3.1150    -5.7550    -0.6130 H     1 <1>   0.0800 
 29 H        0.6330     2.8300     1.2470 H     1 <1>   0.1500 
 30 H        2.1070     1.3540    -2.4770 H     1 <1>   0.1500 
 31 H       -1.3690    -5.2620     1.6280 H     1 <1>   0.3700 
 32 H       -0.0970    -5.7790    -0.4150 H     1 <1>   0.0800 
 33 H       -1.0350    -6.4520    -1.7080 H     1 <1>   0.0800 
 34 H        4.3850     1.3740    -1.5740 H     1 <1>   0.1500 
 35 H       -2.1040    -8.0500    -0.1370 H     1 <1>   0.0800 
 36 H       -1.1330    -7.4250     1.1660 H     1 <1>   0.0800 
 37 H        4.7960     2.1130     0.7270 H     1 <1>   0.1500 
 38 H        2.1420     2.7520     3.1870 H     1 <1>   0.0800 
 39 H        3.1640     4.0360     2.5800 H     1 <1>   0.0800 
 40 H        3.8500     2.4760     2.9720 H     1 <1>   0.0800 
 41 H       -4.4190    -3.3700     0.4550 H     1 <1>   0.0800 
 42 H       -5.2010    -3.7390     1.9710 H     1 <1>   0.0800 
 43 H       -4.9670    -5.0040     0.7920 H     1 <1>   0.0800 
 44 H       -0.0480    -8.7460    -1.3390 H     1 <1>   0.0800 
 45 H       -0.1290    -9.4680     0.2480 H     1 <1>   0.0800 
 46 H        0.9290    -8.1080    -0.0350 H     1 <1>   0.0800 
@<TRIPOS>BOND
  1   1   2  1   
  2   1   3  1   
  3   2   4  2   
  4   2   5  1   
  5   3   6  2   
  6   3   7  1   
  7   4   6  1   
  8   5   8  am  
  9   5  25  1   
 10   7   9  1   
 11   7  26  1   
 12   7  27  1   
 13   8  10  2   
 14   8  11  1   
 15   9  12  ar  
 16   9  13  ar  
 17  11  14  1   
 18  11  15  1   
 19  11  28  1   
 20  12  16  ar  
 21  12  29  1   
 22  13  17  ar  
 23  13  30  1   
 24  14  18  am  
 25  14  31  1   
 26  15  19  1   
 27  15  32  1   
 28  15  33  1   
 29  16  20  ar  
 30  16  21  1   
 31  17  20  ar  
 32  17  34  1   
 33  18  22  2   
 34  18  23  1   
 35  19  24  1   
 36  19  35  1   
 37  19  36  1   
 38  20  37  1   
 39  21  38  1   
 40  21  39  1   
 41  21  40  1   
 42  23  41  1   
 43  23  42  1   
 44  23  43  1   
 45  24  44  1   
 46  24  45  1   
 47  24  46  1   
@<TRIPOS>SUBSTRUCTURE
  1 ****   2 GROUP 4 **** **** 0

# MOE 2024.06 (io_trps.svl 2023.06)
