@<TRIPOS>MOLECULE
NONAME
49 51 1 0 0 
SMALL
USER_CHARGES


@<TRIPOS>ATOM
  1 O       -1.6540     0.7900    -1.7050 O.2   1 <1>  -0.5700 
  2 C       -1.7140     1.4040    -0.6570 C.2   1 <1>   0.5440 
  3 N       -2.7180     1.0940     0.2380 N.am  1 <1>  -0.6600 
  4 C       -0.7480     2.4540    -0.4000 C.ar  1 <1>   0.0860 
  5 C       -3.5000    -0.1660     0.0880 C.3   1 <1>   0.1400 
  6 C       -3.3130     2.0980     1.1580 C.3   1 <1>   0.1400 
  7 C       -0.4490     3.4250    -1.3430 C.ar  1 <1>  -0.1500 
  8 C       -0.0450     2.5600     0.7920 C.ar  1 <1>  -0.1500 
  9 C       -4.8640     0.0810    -0.5730 C.3   1 <1>   0.1400 
 10 C       -4.4550     2.8230     0.4420 C.3   1 <1>  -0.1600 
 11 C        0.4700     4.4160    -1.0590 C.ar  1 <1>   0.1600 
 12 C        0.8570     3.5900     0.9810 C.ar  1 <1>   0.1600 
 13 N       -5.8610     0.6650     0.3890 N.am  1 <1>  -0.6600 
 14 C       -5.8250     2.1490     0.5960 C.3   1 <1>   0.1400 
 15 N        1.1250     4.5250     0.0850 N.ar  1 <1>  -0.6200 
 16 C       -6.9160    -0.0380     0.9420 C.2   1 <1>   0.5770 
 17 O       -7.7650     0.5430     1.5810 O.2   1 <1>  -0.5700 
 18 C       -7.1180    -1.5440     0.7310 C.3   1 <1>   0.0530 
 19 C       -7.8760    -2.2430     1.9080 C.3   1 <1>   0.0000 
 20 C       -5.8910    -2.4350     1.1070 C.3   1 <1>   0.0000 
 21 C       -7.7960    -1.7820    -0.6370 C.3   1 <1>   0.1200 
 22 C       -6.8560    -3.4060     1.8330 C.3   1 <1>   0.0000 
 23 O       -7.6970    -3.1110    -1.0480 O.3   1 <1>  -0.5600 
 24 C       -8.3540    -3.3850    -2.2420 C.3   1 <1>   0.0400 
 25 H       -3.6300    -0.6210     1.0530 H     1 <1>   0.0800 
 26 H       -2.9450    -0.8590    -0.5200 H     1 <1>   0.0800 
 27 H       -2.5700     2.8180     1.4480 H     1 <1>   0.0800 
 28 H       -3.6700     1.6150     2.0530 H     1 <1>   0.0800 
 29 H       -0.9370     3.3990    -2.3010 H     1 <1>   0.1500 
 30 H       -0.2030     1.8340     1.5680 H     1 <1>   0.1500 
 31 H       -5.2210    -0.8540    -0.9560 H     1 <1>   0.0800 
 32 H       -4.7390     0.7340    -1.4190 H     1 <1>   0.0800 
 33 H       -4.2200     2.9570    -0.5990 H     1 <1>   0.0800 
 34 H       -4.5420     3.8070     0.8660 H     1 <1>   0.0800 
 35 H        0.6810     5.1580    -1.8110 H     1 <1>   0.1500 
 36 H        1.3880     3.6500     1.9160 H     1 <1>   0.1500 
 37 H       -6.5200     2.6050    -0.0880 H     1 <1>   0.0800 
 38 H       -6.1790     2.3600     1.5920 H     1 <1>   0.0800 
 39 H       -8.8830    -2.5410     1.6760 H     1 <1>   0.0000 
 40 H       -7.7970    -1.7190     2.8450 H     1 <1>   0.0000 
 41 H       -5.2290    -1.9590     1.8080 H     1 <1>   0.0000 
 42 H       -5.3780    -2.8790     0.2730 H     1 <1>   0.0000 
 43 H       -7.3350    -1.1710    -1.3930 H     1 <1>   0.0800 
 44 H       -8.8370    -1.5170    -0.5700 H     1 <1>   0.0800 
 45 H       -7.1880    -4.2200     1.2130 H     1 <1>   0.0000 
 46 H       -6.4990    -3.7270     2.7950 H     1 <1>   0.0000 
 47 H       -8.2130    -4.4280    -2.4680 H     1 <1>   0.0800 
 48 H       -7.9330    -2.7830    -3.0280 H     1 <1>   0.0800 
 49 H       -9.4040    -3.1790    -2.1250 H     1 <1>   0.0800 
@<TRIPOS>BOND
  1   1   2  2   
  2   2   3  am  
  3   2   4  1   
  4   3   5  1   
  5   3   6  1   
  6   4   7  ar  
  7   4   8  ar  
  8   5   9  1   
  9   5  25  1   
 10   5  26  1   
 11   6  10  1   
 12   6  27  1   
 13   6  28  1   
 14   7  11  ar  
 15   7  29  1   
 16   8  12  ar  
 17   8  30  1   
 18   9  13  1   
 19   9  31  1   
 20   9  32  1   
 21  10  14  1   
 22  10  33  1   
 23  10  34  1   
 24  11  15  ar  
 25  11  35  1   
 26  12  15  ar  
 27  12  36  1   
 28  13  14  1   
 29  13  16  am  
 30  14  37  1   
 31  14  38  1   
 32  16  17  2   
 33  16  18  1   
 34  18  19  1   
 35  18  20  1   
 36  18  21  1   
 37  19  22  1   
 38  19  39  1   
 39  19  40  1   
 40  20  22  1   
 41  20  41  1   
 42  20  42  1   
 43  21  23  1   
 44  21  43  1   
 45  21  44  1   
 46  22  45  1   
 47  22  46  1   
 48  23  24  1   
 49  24  47  1   
 50  24  48  1   
 51  24  49  1   
@<TRIPOS>SUBSTRUCTURE
  1 ****   5 GROUP 4 **** **** 0

# MOE 2024.06 (io_trps.svl 2023.06)
