@<TRIPOS>MOLECULE
NONAME
45 47 1 0 0 
SMALL
USER_CHARGES


@<TRIPOS>ATOM
  1 O       -2.0380     0.5530    -2.0210 O.2   1 <1>  -0.5700 
  2 C       -1.6210     0.5820    -0.8800 C.2   1 <1>   0.7160 
  3 N       -1.6780    -0.5620    -0.1410 N.am  1 <1>  -0.7300 
  4 C       -1.0950     1.7970    -0.3110 C.2   1 <1>  -0.0860 
  5 C       -2.2120    -1.8550    -0.6200 C.3   1 <1>   0.2200 
  6 C       -0.4720     1.9520     0.9310 C.2   1 <1>   0.1390 
  7 C       -1.0700     3.0590    -0.8200 C.2   1 <1>  -0.3020 
  8 C       -3.6590    -1.9920    -0.1770 C.3   1 <1>  -0.0800 
  9 C       -1.5470    -2.9930     0.1450 C.3   1 <1>   0.1200 
 10 N       -0.1070     3.1710     1.1690 N.2   1 <1>  -0.7070 
 11 N       -0.4780     3.8650     0.0760 N.pl3 1 <1>   0.3140 
 12 C       -3.5180    -2.5460     1.2470 C.3   1 <1>   0.1200 
 13 C       -4.4440    -2.9420    -1.1010 C.3   1 <1>  -0.0160 
 14 O       -2.2290    -3.0800     1.3580 O.3   1 <1>  -0.5600 
 15 C       -0.2270     5.3270    -0.0440 C.3   1 <1>   0.1760 
 16 C       -5.9000    -3.0550    -0.6770 C.ar  1 <1>  -0.1430 
 17 C       -1.5490     6.0980    -0.1670 C.3   1 <1>  -0.2400 
 18 C        0.6960     5.6240    -1.2340 C.3   1 <1>  -0.2400 
 19 C       -6.3980    -4.1770    -0.0460 C.ar  1 <1>  -0.1500 
 20 C       -6.8000    -2.0340    -0.9040 C.ar  1 <1>  -0.1500 
 21 C       -7.7330    -4.2210     0.3200 C.ar  1 <1>   0.1600 
 22 C       -8.1170    -2.1780    -0.4980 C.ar  1 <1>   0.1600 
 23 N       -8.6040    -3.2470     0.1110 N.ar  1 <1>  -0.6200 
 24 H       -1.4550    -0.5400     0.8540 H     1 <1>   0.3700 
 25 H       -2.0790    -1.9450    -1.6860 H     1 <1>   0.0800 
 26 H       -0.3010     1.1510     1.6290 H     1 <1>   0.1500 
 27 H       -1.4450     3.3980    -1.7680 H     1 <1>   0.1500 
 28 H       -4.1540    -1.0360    -0.1700 H     1 <1>   0.0800 
 29 H       -0.5010    -2.8190     0.3260 H     1 <1>   0.0800 
 30 H       -1.6760    -3.9280    -0.3720 H     1 <1>   0.0800 
 31 H       -4.2340    -3.3170     1.4720 H     1 <1>   0.0800 
 32 H       -3.6060    -1.7570     1.9740 H     1 <1>   0.0800 
 33 H       -3.9920    -3.9190    -1.1050 H     1 <1>   0.0800 
 34 H       -4.4100    -2.5660    -2.1090 H     1 <1>   0.0800 
 35 H        0.2680     5.6380     0.8600 H     1 <1>   0.0800 
 36 H       -2.0680     5.8250    -1.0690 H     1 <1>   0.0800 
 37 H       -1.3570     7.1550    -0.1890 H     1 <1>   0.0800 
 38 H       -2.1760     5.8850     0.6810 H     1 <1>   0.0800 
 39 H        0.2300     5.3410    -2.1600 H     1 <1>   0.0800 
 40 H        1.6200     5.0850    -1.1230 H     1 <1>   0.0800 
 41 H        0.9210     6.6750    -1.2710 H     1 <1>   0.0800 
 42 H       -5.7640    -5.0190     0.1650 H     1 <1>   0.1500 
 43 H       -6.4920    -1.1280    -1.3940 H     1 <1>   0.1500 
 44 H       -8.1040    -5.1040     0.8120 H     1 <1>   0.1500 
 45 H       -8.8040    -1.3710    -0.6840 H     1 <1>   0.1500 
@<TRIPOS>BOND
  1   1   2  2   
  2   2   3  am  
  3   2   4  1   
  4   3   5  1   
  5   3  24  1   
  6   4   6  1   
  7   4   7  2   
  8   5   8  1   
  9   5   9  1   
 10   5  25  1   
 11   6  10  2   
 12   6  26  1   
 13   7  11  1   
 14   7  27  1   
 15   8  12  1   
 16   8  13  1   
 17   8  28  1   
 18   9  14  1   
 19   9  29  1   
 20   9  30  1   
 21  10  11  1   
 22  11  15  1   
 23  12  14  1   
 24  12  31  1   
 25  12  32  1   
 26  13  16  1   
 27  13  33  1   
 28  13  34  1   
 29  15  17  1   
 30  15  18  1   
 31  15  35  1   
 32  16  19  ar  
 33  16  20  ar  
 34  17  36  1   
 35  17  37  1   
 36  17  38  1   
 37  18  39  1   
 38  18  40  1   
 39  18  41  1   
 40  19  21  ar  
 41  19  42  1   
 42  20  22  ar  
 43  20  43  1   
 44  21  23  ar  
 45  21  44  1   
 46  22  23  ar  
 47  22  45  1   
@<TRIPOS>SUBSTRUCTURE
  1 ****   3 GROUP 4 **** **** 0

# MOE 2024.06 (io_trps.svl 2023.06)
