@<TRIPOS>MOLECULE
NONAME
47 49 1 0 0 
SMALL
USER_CHARGES


@<TRIPOS>ATOM
  1 O        0.4040     0.4610    -0.8810 O.2   1 <1>  -0.5700 
  2 C        1.5860     0.2690    -0.6980 C.2   1 <1>   0.7150 
  3 N        1.9680    -1.0330    -0.7650 N.am  1 <1>  -0.7300 
  4 C        2.4570     1.3790    -0.4400 C.2   1 <1>  -0.2370 
  5 C        3.1730    -1.7770    -0.3040 C.3   1 <1>   0.1400 
  6 N        3.8100     1.3770    -0.4890 N.pl3 1 <1>   0.3140 
  7 C        2.1190     2.6550    -0.1230 C.2   1 <1>  -0.1500 
  8 C        4.3540    -0.9150     0.1690 C.3   1 <1>   0.2000 
  9 N        4.3360     2.5750    -0.2160 N.2   1 <1>  -0.7070 
 10 C        4.6880     0.2350    -0.7770 C.3   1 <1>   0.0960 
 11 C        3.3040     3.3720     0.0120 C.2   1 <1>   0.2030 
 12 O        5.4680    -1.7380     0.2750 O.3   1 <1>  -0.6800 
 13 C        3.3890     4.7840     0.3530 C.2   1 <1>   0.7160 
 14 O        2.3950     5.4660     0.5420 O.2   1 <1>  -0.5700 
 15 N        4.6170     5.3730     0.4580 N.am  1 <1>  -0.7300 
 16 C        4.8830     6.7830     0.8220 C.3   1 <1>   0.1400 
 17 C        4.9550     7.6440    -0.4390 C.3   1 <1>  -0.0170 
 18 C        5.1290     9.1120    -0.0640 C.ar  1 <1>  -0.1430 
 19 C        4.0440     9.9500     0.1820 C.ar  1 <1>  -0.1430 
 20 C        6.4180     9.6150     0.0400 C.ar  1 <1>  -0.1500 
 21 C        4.2740    11.2740     0.5240 C.ar  1 <1>  -0.1500 
 22 C        2.6030     9.4620     0.0850 C.3   1 <1>  -0.0970 
 23 C        6.6440    10.9370     0.3840 C.ar  1 <1>  -0.1430 
 24 C        5.5630    11.7650     0.6240 C.ar  1 <1>  -0.1500 
 25 C        8.0600    11.4720     0.4900 C.3   1 <1>  -0.0970 
 26 H        1.1740    -1.6350    -0.9960 H     1 <1>   0.3700 
 27 H        3.5000    -2.3950    -1.1210 H     1 <1>   0.0800 
 28 H        2.8810    -2.4250     0.5060 H     1 <1>   0.0800 
 29 H        1.1300     3.0620     0.0020 H     1 <1>   0.1500 
 30 H        4.1610    -0.5340     1.1580 H     1 <1>   0.0800 
 31 H        5.7020     0.5550    -0.6190 H     1 <1>   0.0800 
 32 H        4.5570    -0.0520    -1.8040 H     1 <1>   0.0800 
 33 H        5.7470    -2.0910    -0.5930 H     1 <1>   0.4000 
 34 H        5.4170     4.7630     0.2680 H     1 <1>   0.3700 
 35 H        5.8090     6.8480     1.3670 H     1 <1>   0.0800 
 36 H        4.0950     7.1420     1.4610 H     1 <1>   0.0800 
 37 H        4.0600     7.5120    -1.0190 H     1 <1>   0.0800 
 38 H        5.7840     7.3250    -1.0430 H     1 <1>   0.0800 
 39 H        7.2580     8.9720    -0.1500 H     1 <1>   0.1500 
 40 H        3.4490    11.9360     0.7140 H     1 <1>   0.1500 
 41 H        2.4600     8.5790     0.6800 H     1 <1>   0.0800 
 42 H        2.3630     9.2350    -0.9380 H     1 <1>   0.0800 
 43 H        1.9180    10.2120     0.4340 H     1 <1>   0.0800 
 44 H        5.7190    12.7960     0.8890 H     1 <1>   0.1500 
 45 H        8.7330    10.6960     0.8060 H     1 <1>   0.0800 
 46 H        8.1060    12.2720     1.2070 H     1 <1>   0.0800 
 47 H        8.3800    11.8430    -0.4670 H     1 <1>   0.0800 
@<TRIPOS>BOND
  1   1   2  2   
  2   2   3  am  
  3   2   4  1   
  4   3   5  1   
  5   3  26  1   
  6   4   6  1   
  7   4   7  2   
  8   5   8  1   
  9   5  27  1   
 10   5  28  1   
 11   6   9  1   
 12   6  10  1   
 13   7  11  1   
 14   7  29  1   
 15   8  10  1   
 16   8  12  1   
 17   8  30  1   
 18   9  11  2   
 19  10  31  1   
 20  10  32  1   
 21  11  13  1   
 22  12  33  1   
 23  13  14  2   
 24  13  15  am  
 25  15  16  1   
 26  15  34  1   
 27  16  17  1   
 28  16  35  1   
 29  16  36  1   
 30  17  18  1   
 31  17  37  1   
 32  17  38  1   
 33  18  19  ar  
 34  18  20  ar  
 35  19  21  ar  
 36  19  22  1   
 37  20  23  ar  
 38  20  39  1   
 39  21  24  ar  
 40  21  40  1   
 41  22  41  1   
 42  22  42  1   
 43  22  43  1   
 44  23  24  ar  
 45  23  25  1   
 46  24  44  1   
 47  25  45  1   
 48  25  46  1   
 49  25  47  1   
@<TRIPOS>SUBSTRUCTURE
  1 ****  13 GROUP 4 **** **** 0

# MOE 2024.06 (io_trps.svl 2023.06)
