@<TRIPOS>MOLECULE
NONAME
47 50 1 0 0 
SMALL
USER_CHARGES


@<TRIPOS>ATOM
  1 O       -1.3550    -0.0140     0.5400 O.2   1 <1>  -0.5700 
  2 C       -2.2340     0.8050     0.7440 C.2   1 <1>   0.5440 
  3 N       -3.4030     0.3760     1.3380 N.am  1 <1>  -0.6600 
  4 C       -2.0230     2.1830     0.3540 C.ar  1 <1>   0.0860 
  5 C       -3.5480    -1.0420     1.7860 C.3   1 <1>   0.3200 
  6 C       -4.6000     1.2430     1.5610 C.3   1 <1>   0.1400 
  7 C       -1.0880     2.9710     1.0060 C.ar  1 <1>  -0.1500 
  8 C       -2.7610     2.7580    -0.7020 C.ar  1 <1>  -0.1500 
  9 C       -3.9340    -1.9290     0.6150 C.2   1 <1>   0.0070 
 10 C       -5.7120     0.9110     0.5580 C.3   1 <1>   0.1200 
 11 C       -0.9110     4.3030     0.6330 C.ar  1 <1>  -0.1520 
 12 C       -2.5930     4.0700    -1.0740 C.ar  1 <1>  -0.1500 
 13 N       -5.0400    -2.5950     0.5100 N.2   1 <1>  -0.5650 
 14 N       -3.1080    -2.0800    -0.4410 N.pl3 1 <1>   0.0330 
 15 O       -6.7610     1.8050     0.7260 O.3   1 <1>  -0.6800 
 16 N       -0.0650     5.2690     1.1250 N.pl3 1 <1>   0.0330 
 17 C       -1.6600     4.8620    -0.3980 C.ar  1 <1>   0.0000 
 18 C       -4.9270    -3.2150    -0.6820 C.2   1 <1>   0.0770 
 19 C       -3.7530    -2.9110    -1.2780 C.2   1 <1>  -0.3020 
 20 C       -0.2800     6.4150     0.4180 C.2   1 <1>  -0.3320 
 21 C       -1.2420     6.2040    -0.5060 C.2   1 <1>  -0.1810 
 22 C        0.4430     7.7310     0.6350 C.3   1 <1>   0.0200 
 23 C       -1.7420     7.2630    -1.4680 C.3   1 <1>   0.0210 
 24 C        0.1860     8.6720    -0.5560 C.3   1 <1>  -0.1600 
 25 C       -1.2910     8.6600    -1.0010 C.3   1 <1>  -0.1600 
 26 H       -4.3010    -1.1150     2.5500 H     1 <1>   0.0800 
 27 H       -2.6200    -1.3900     2.2050 H     1 <1>   0.0800 
 28 H       -4.3320     2.2800     1.4580 H     1 <1>   0.0800 
 29 H       -4.9620     1.0930     2.5620 H     1 <1>   0.0800 
 30 H       -0.4980     2.5540     1.8020 H     1 <1>   0.1500 
 31 H       -3.4710     2.1430    -1.2240 H     1 <1>   0.1500 
 32 H       -6.0920    -0.0860     0.7020 H     1 <1>   0.0800 
 33 H       -5.3530     1.0150    -0.4510 H     1 <1>   0.0800 
 34 H       -3.1610     4.5050    -1.8760 H     1 <1>   0.1500 
 35 H       -2.1950    -1.6110    -0.5390 H     1 <1>   0.2700 
 36 H       -7.2960     1.5690     1.5090 H     1 <1>   0.4000 
 37 H        0.6100     5.1390     1.8840 H     1 <1>   0.2700 
 38 H       -5.7080    -3.8570    -1.0540 H     1 <1>   0.1500 
 39 H       -3.3520    -3.2300    -2.2230 H     1 <1>   0.1500 
 40 H        1.5000     7.5630     0.7400 H     1 <1>   0.0800 
 41 H        0.0760     8.1820     1.5410 H     1 <1>   0.0800 
 42 H       -2.8150     7.2270    -1.5270 H     1 <1>   0.0800 
 43 H       -1.3390     7.0560    -2.4440 H     1 <1>   0.0800 
 44 H        0.7970     8.3550    -1.3840 H     1 <1>   0.0800 
 45 H        0.4810     9.6720    -0.2910 H     1 <1>   0.0800 
 46 H       -1.9050     8.9600    -0.1690 H     1 <1>   0.0800 
 47 H       -1.4420     9.3690    -1.7960 H     1 <1>   0.0800 
@<TRIPOS>BOND
  1   1   2  2   
  2   2   3  am  
  3   2   4  1   
  4   3   5  1   
  5   3   6  1   
  6   4   7  ar  
  7   4   8  ar  
  8   5   9  1   
  9   5  26  1   
 10   5  27  1   
 11   6  10  1   
 12   6  28  1   
 13   6  29  1   
 14   7  11  ar  
 15   7  30  1   
 16   8  12  ar  
 17   8  31  1   
 18   9  13  2   
 19   9  14  1   
 20  10  15  1   
 21  10  32  1   
 22  10  33  1   
 23  11  16  1   
 24  11  17  ar  
 25  12  17  ar  
 26  12  34  1   
 27  13  18  1   
 28  14  19  1   
 29  14  35  1   
 30  15  36  1   
 31  16  20  1   
 32  16  37  1   
 33  17  21  1   
 34  18  19  2   
 35  18  38  1   
 36  19  39  1   
 37  20  21  2   
 38  20  22  1   
 39  21  23  1   
 40  22  24  1   
 41  22  40  1   
 42  22  41  1   
 43  23  25  1   
 44  23  42  1   
 45  23  43  1   
 46  24  25  1   
 47  24  44  1   
 48  24  45  1   
 49  25  46  1   
 50  25  47  1   
@<TRIPOS>SUBSTRUCTURE
  1 ****   4 GROUP 4 **** **** 0

# MOE 2024.06 (io_trps.svl 2023.06)
