@<TRIPOS>MOLECULE
NONAME
47 50 1 0 0 
SMALL
USER_CHARGES


@<TRIPOS>ATOM
  1 O       -0.3640     0.2530    -0.2190 O.2   1 <1>  -0.5700 
  2 C       -1.3840     0.8380     0.0600 C.2   1 <1>   0.5690 
  3 N       -2.5280     0.1620     0.3920 N.am  1 <1>  -0.6600 
  4 C       -1.3740     2.3540     0.0370 C.3   1 <1>  -0.0990 
  5 C       -2.5740    -1.3360     0.4250 C.3   1 <1>   0.1400 
  6 C       -3.8650     0.7780     0.6710 C.3   1 <1>   0.1400 
  7 C       -0.0080     2.9320    -0.3620 C.3   1 <1>   0.0960 
  8 C       -3.7430    -1.8780    -0.4210 C.3   1 <1>   0.3440 
  9 C       -4.9600     0.1260    -0.1970 C.3   1 <1>   0.2950 
 10 N       -0.0290     4.4070    -0.3090 N.pl3 1 <1>   0.3140 
 11 O       -4.9460    -1.2620    -0.0380 O.3   1 <1>  -0.5600 
 12 C       -3.8660    -3.3900    -0.2590 C.ar  1 <1>  -0.1440 
 13 C       -6.3550     0.6200     0.1980 C.3   1 <1>  -0.1950 
 14 N       -0.9530     5.1370    -0.9640 N.2   1 <1>  -0.7070 
 15 C        0.8240     5.1990     0.3710 C.2   1 <1>  -0.3020 
 16 C       -4.6390    -3.9500     0.7500 C.ar  1 <1>  -0.1500 
 17 C       -3.1820    -4.2300    -1.1270 C.ar  1 <1>  -0.1500 
 18 C       -7.5020     0.5430    -0.7590 C.3   1 <1>  -0.2000 
 19 C       -6.9230     1.8780    -0.3820 C.3   1 <1>  -0.2000 
 20 C       -0.6610     6.3710    -0.6860 C.2   1 <1>   0.1390 
 21 C        0.4440     6.4740     0.1480 C.2   1 <1>  -0.1500 
 22 C       -4.7260    -5.3250     0.8890 C.ar  1 <1>  -0.1500 
 23 C       -3.2670    -5.6050    -0.9890 C.ar  1 <1>  -0.1500 
 24 C       -4.0390    -6.1530     0.0200 C.ar  1 <1>  -0.1500 
 25 H       -2.1080     2.6870    -0.6740 H     1 <1>   0.0800 
 26 H       -1.6380     2.7130     1.0140 H     1 <1>   0.0800 
 27 H       -1.6550    -1.7540     0.0550 H     1 <1>   0.0800 
 28 H       -2.6950    -1.6660     1.4410 H     1 <1>   0.0800 
 29 H       -4.1080     0.6330     1.7090 H     1 <1>   0.0800 
 30 H       -3.8580     1.8350     0.4800 H     1 <1>   0.0800 
 31 H        0.2410     2.6330    -1.3630 H     1 <1>   0.0800 
 32 H        0.7540     2.5730     0.3050 H     1 <1>   0.0800 
 33 H       -3.5710    -1.6490    -1.4590 H     1 <1>   0.0800 
 34 H       -4.7820     0.3470    -1.2350 H     1 <1>   0.0800 
 35 H       -6.5730     0.4180     1.2330 H     1 <1>   0.1000 
 36 H        1.6380     4.8200     0.9610 H     1 <1>   0.1500 
 37 H       -5.1810    -3.3150     1.4300 H     1 <1>   0.1500 
 38 H       -2.5770    -3.8200    -1.9160 H     1 <1>   0.1500 
 39 H       -7.3250     0.1520    -1.7460 H     1 <1>   0.1000 
 40 H       -8.4680     0.2630    -0.3750 H     1 <1>   0.1000 
 41 H       -7.5020     2.5280     0.2510 H     1 <1>   0.1000 
 42 H       -6.3720     2.4190    -1.1320 H     1 <1>   0.1000 
 43 H       -1.2190     7.2120    -1.0640 H     1 <1>   0.1500 
 44 H        0.8790     7.3860     0.5180 H     1 <1>   0.1500 
 45 H       -5.3290    -5.7480     1.6730 H     1 <1>   0.1500 
 46 H       -2.7330    -6.2470    -1.6660 H     1 <1>   0.1500 
 47 H       -4.1070    -7.2220     0.1270 H     1 <1>   0.1500 
@<TRIPOS>BOND
  1   1   2  2   
  2   2   3  am  
  3   2   4  1   
  4   3   5  1   
  5   3   6  1   
  6   4   7  1   
  7   4  25  1   
  8   4  26  1   
  9   5   8  1   
 10   5  27  1   
 11   5  28  1   
 12   6   9  1   
 13   6  29  1   
 14   6  30  1   
 15   7  10  1   
 16   7  31  1   
 17   7  32  1   
 18   8  11  1   
 19   8  12  1   
 20   8  33  1   
 21   9  11  1   
 22   9  13  1   
 23   9  34  1   
 24  10  14  1   
 25  10  15  1   
 26  12  16  ar  
 27  12  17  ar  
 28  13  18  1   
 29  13  19  1   
 30  13  35  1   
 31  14  20  2   
 32  15  21  2   
 33  15  36  1   
 34  16  22  ar  
 35  16  37  1   
 36  17  23  ar  
 37  17  38  1   
 38  18  19  1   
 39  18  39  1   
 40  18  40  1   
 41  19  41  1   
 42  19  42  1   
 43  20  21  1   
 44  20  43  1   
 45  21  44  1   
 46  22  24  ar  
 47  22  45  1   
 48  23  24  ar  
 49  23  46  1   
 50  24  47  1   
@<TRIPOS>SUBSTRUCTURE
  1 ****   3 GROUP 4 **** **** 0

# MOE 2024.06 (io_trps.svl 2023.06)
