@<TRIPOS>MOLECULE
NONAME
45 47 1 0 0 
SMALL
USER_CHARGES


@<TRIPOS>ATOM
  1 F        0.5300     0.3140     2.3050 F     1 <1>  -0.1900 
  2 C        1.4440     0.8180     1.5140 C.ar  1 <1>   0.1900 
  3 C        1.6240     2.1890     1.4440 C.ar  1 <1>   0.1900 
  4 C        2.2090    -0.0440     0.7490 C.ar  1 <1>  -0.1440 
  5 F        0.8890     2.9890     2.1740 F     1 <1>  -0.1900 
  6 C        2.5740     2.7340     0.6020 C.ar  1 <1>  -0.1500 
  7 C        3.1640     0.4960    -0.1080 C.ar  1 <1>   0.0830 
  8 C        2.0060    -1.5410     0.8580 C.3   1 <1>   0.4860 
  9 C        3.3440     1.8810    -0.1760 C.ar  1 <1>  -0.1500 
 10 O        3.8820    -0.3810    -0.8590 O.3   1 <1>  -0.3630 
 11 N        1.5390    -2.0650    -0.4530 N.4   1 <1>  -0.9590 
 12 C        5.0100     0.0430    -1.6000 C.3   1 <1>   0.0400 
 13 C        0.1980    -1.5350    -0.8510 C.3   1 <1>   0.3430 
 14 C        1.4090    -3.5450    -0.4400 C.3   1 <1>   0.3430 
 15 C       -0.8240    -2.6320    -0.5210 C.3   1 <1>   0.2000 
 16 C       -0.0250    -3.8240     0.0110 C.3   1 <1>  -0.0800 
 17 O       -1.7250    -2.2050     0.4430 O.3   1 <1>  -0.6800 
 18 C       -0.5710    -5.1750    -0.4850 C.3   1 <1>  -0.0170 
 19 C        0.2320    -6.3470     0.0590 C.ar  1 <1>   0.1670 
 20 N        1.4840    -6.4470    -0.3640 N.ar  1 <1>  -0.6200 
 21 C       -0.3620    -7.2370     0.9430 C.ar  1 <1>  -0.1500 
 22 C        2.1650    -7.4850     0.1030 C.ar  1 <1>   0.1600 
 23 C        0.3630    -8.3050     1.4270 C.ar  1 <1>  -0.1500 
 24 C        1.6620    -8.4240     0.9860 C.ar  1 <1>  -0.1500 
 25 H        2.7050     3.8020     0.5590 H     1 <1>   0.1500 
 26 H        1.2890    -1.7690     1.6290 H     1 <1>   0.0800 
 27 H        2.9460    -2.0010     1.1190 H     1 <1>   0.0800 
 28 H        4.0770     2.3190    -0.8300 H     1 <1>   0.1500 
 29 H        2.2610    -1.7620    -1.1290 H     1 <1>   0.4500 
 30 H        5.4720    -0.8240    -2.0410 H     1 <1>   0.0800 
 31 H        5.7080     0.5250    -0.9370 H     1 <1>   0.0800 
 32 H        4.6920     0.7170    -2.3760 H     1 <1>   0.0800 
 33 H       -0.0420    -0.6170    -0.3410 H     1 <1>   0.0800 
 34 H        0.1860    -1.3580    -1.9140 H     1 <1>   0.0800 
 35 H        1.5470    -3.9330    -1.4370 H     1 <1>   0.0800 
 36 H        2.1280    -4.0160     0.2130 H     1 <1>   0.0800 
 37 H       -1.3870    -2.8790    -1.4060 H     1 <1>   0.0800 
 38 H       -0.0320    -3.8270     1.0880 H     1 <1>   0.0800 
 39 H       -1.3200    -2.0750     1.3240 H     1 <1>   0.4000 
 40 H       -0.5450    -5.2170    -1.5600 H     1 <1>   0.0800 
 41 H       -1.6000    -5.2720    -0.1840 H     1 <1>   0.0800 
 42 H       -1.3830    -7.1060     1.2530 H     1 <1>   0.1500 
 43 H        3.1810    -7.5960    -0.2370 H     1 <1>   0.1500 
 44 H       -0.0670    -9.0150     2.1130 H     1 <1>   0.1500 
 45 H        2.2790    -9.2390     1.3190 H     1 <1>   0.1500 
@<TRIPOS>BOND
  1   1   2  1   
  2   2   3  ar  
  3   2   4  ar  
  4   3   5  1   
  5   3   6  ar  
  6   4   7  ar  
  7   4   8  1   
  8   6   9  ar  
  9   6  25  1   
 10   7   9  ar  
 11   7  10  1   
 12   8  11  1   
 13   8  26  1   
 14   8  27  1   
 15   9  28  1   
 16  10  12  1   
 17  11  13  1   
 18  11  14  1   
 19  11  29  1   
 20  12  30  1   
 21  12  31  1   
 22  12  32  1   
 23  13  15  1   
 24  13  33  1   
 25  13  34  1   
 26  14  16  1   
 27  14  35  1   
 28  14  36  1   
 29  15  16  1   
 30  15  17  1   
 31  15  37  1   
 32  16  18  1   
 33  16  38  1   
 34  17  39  1   
 35  18  19  1   
 36  18  40  1   
 37  18  41  1   
 38  19  20  ar  
 39  19  21  ar  
 40  20  22  ar  
 41  21  23  ar  
 42  21  42  1   
 43  22  24  ar  
 44  22  43  1   
 45  23  24  ar  
 46  23  44  1   
 47  24  45  1   
@<TRIPOS>SUBSTRUCTURE
  1 ****  11 GROUP 4 **** **** 0

# MOE 2024.06 (io_trps.svl 2023.06)
