@<TRIPOS>MOLECULE
NONAME
36 37 1 0 0 
SMALL
USER_CHARGES


@<TRIPOS>ATOM
  1 S       -0.9210     0.4420    -1.2340 S.o2  1 <1>   1.4470 
  2 O       -0.9500    -0.5650    -2.2750 O.2   1 <1>  -0.6500 
  3 O       -1.6940     1.6540    -1.4120 O.2   1 <1>  -0.6500 
  4 N       -1.4200    -0.2770     0.2200 N.am  1 <1>  -0.8490 
  5 C        0.8010     0.9070    -0.8960 C.ar  1 <1>  -0.0090 
  6 C       -0.8430    -1.6120     0.4960 C.3   1 <1>   0.1960 
  7 C       -2.8570    -0.2060     0.4900 C.3   1 <1>   0.1960 
  8 C        1.7800     0.7920    -1.8760 C.ar  1 <1>  -0.1500 
  9 C        1.1850     1.4080     0.3420 C.ar  1 <1>  -0.1500 
 10 C       -1.8490    -2.7760     0.4260 C.3   1 <1>  -0.1860 
 11 C       -3.6420    -1.1510    -0.4250 C.3   1 <1>  -0.1600 
 12 C        3.0930     1.1560    -1.6300 C.ar  1 <1>  -0.1500 
 13 C        2.4950     1.7730     0.5970 C.ar  1 <1>  -0.1500 
 14 C       -2.3700    -3.0910     1.8180 C.2   1 <1>   0.9060 
 15 C       -2.9360    -2.5010    -0.6240 C.3   1 <1>   0.2000 
 16 C        3.4580     1.6470    -0.3890 C.ar  1 <1>  -0.1440 
 17 O       -1.5450    -3.3180     2.7070 O.co2 1 <1>  -0.9000 
 18 O       -3.5900    -3.1360     2.0330 O.co2 1 <1>  -0.9000 
 19 O       -3.8840    -3.4980    -0.5520 O.3   1 <1>  -0.6800 
 20 C        4.8960     2.0490    -0.1120 C.3   1 <1>  -0.0970 
 21 H       -0.0490    -1.8100    -0.2030 H     1 <1>   0.0800 
 22 H       -0.3870    -1.5880     1.4720 H     1 <1>   0.0800 
 23 H       -3.0290    -0.4880     1.5170 H     1 <1>   0.0800 
 24 H       -3.2130     0.8030     0.3740 H     1 <1>   0.0800 
 25 H        1.5100     0.4100    -2.8470 H     1 <1>   0.1500 
 26 H        0.4440     1.5120     1.1180 H     1 <1>   0.1500 
 27 H       -1.3080    -3.6510     0.1230 H     1 <1>   0.0800 
 28 H       -3.7800    -0.6850    -1.3830 H     1 <1>   0.0800 
 29 H       -4.6140    -1.2970     0.0130 H     1 <1>   0.0800 
 30 H        3.8280     1.0550    -2.4100 H     1 <1>   0.1500 
 31 H        2.7590     2.1560     1.5680 H     1 <1>   0.1500 
 32 H       -2.5030    -2.5360    -1.6090 H     1 <1>   0.0800 
 33 H       -4.1010    -3.5720     0.4230 H     1 <1>   0.4000 
 34 H        5.5720     1.4710    -0.7170 H     1 <1>   0.0800 
 35 H        5.1400     1.8810     0.9210 H     1 <1>   0.0800 
 36 H        5.0320     3.0910    -0.3370 H     1 <1>   0.0800 
@<TRIPOS>BOND
  1   1   2  2   
  2   1   3  2   
  3   1   4  am  
  4   1   5  1   
  5   4   6  1   
  6   4   7  1   
  7   5   8  ar  
  8   5   9  ar  
  9   6  10  1   
 10   6  21  1   
 11   6  22  1   
 12   7  11  1   
 13   7  23  1   
 14   7  24  1   
 15   8  12  ar  
 16   8  25  1   
 17   9  13  ar  
 18   9  26  1   
 19  10  14  1   
 20  10  15  1   
 21  10  27  1   
 22  11  15  1   
 23  11  28  1   
 24  11  29  1   
 25  12  16  ar  
 26  12  30  1   
 27  13  16  ar  
 28  13  31  1   
 29  14  17  ar  
 30  14  18  ar  
 31  15  19  1   
 32  15  32  1   
 33  16  20  1   
 34  19  33  1   
 35  20  34  1   
 36  20  35  1   
 37  20  36  1   
@<TRIPOS>SUBSTRUCTURE
  1 ****   4 GROUP 4 **** **** 0

# MOE 2024.06 (io_trps.svl 2023.06)
