@<TRIPOS>MOLECULE
NONAME
46 48 1 0 0 
SMALL
USER_CHARGES


@<TRIPOS>ATOM
  1 S       -0.2020     0.2900     0.5540 S.o2  1 <1>   1.0900 
  2 O       -0.3140     1.3110     1.5680 O.2   1 <1>  -0.6500 
  3 O        1.0720    -0.0960    -0.0060 O.2   1 <1>  -0.6500 
  4 C       -1.0300    -1.1900     1.0590 C.3   1 <1>  -0.0550 
  5 C       -1.3180     0.6240    -0.8010 C.3   1 <1>  -0.0550 
  6 C       -1.5380    -1.7960    -0.2470 C.3   1 <1>   0.1760 
  7 C       -2.1440    -0.6460    -1.0790 C.3   1 <1>  -0.1600 
  8 N       -2.5240    -2.8770     0.0070 N.pl3 1 <1>   0.3140 
  9 N       -3.5940    -2.6640     0.7930 N.2   1 <1>  -0.7070 
 10 C       -2.5020    -4.1500    -0.4660 C.2   1 <1>  -0.3320 
 11 C       -4.2250    -3.7950     0.8190 C.2   1 <1>   0.1080 
 12 C       -3.5870    -4.7720     0.0460 C.2   1 <1>   0.0630 
 13 C       -1.4220    -4.7090    -1.3840 C.3   1 <1>  -0.0600 
 14 C       -5.5070    -3.9600     1.6070 C.3   1 <1>  -0.0590 
 15 N       -3.9620    -6.1160    -0.2040 N.am  1 <1>  -0.4930 
 16 C       -4.4220    -7.0680     0.6660 C.2   1 <1>   0.5440 
 17 O       -4.5490    -6.8180     1.8480 O.2   1 <1>  -0.5700 
 18 C       -4.7350    -8.3810     0.1650 C.ar  1 <1>   0.0860 
 19 C       -5.8400    -8.6250    -0.6420 C.ar  1 <1>   0.1670 
 20 C       -3.9350    -9.4800     0.4450 C.ar  1 <1>   0.1670 
 21 N       -6.0960    -9.8110    -1.1460 N.ar  1 <1>  -0.6200 
 22 C       -6.8360    -7.5340    -1.0020 C.3   1 <1>  -0.0970 
 23 N       -4.1800   -10.6750    -0.0450 N.ar  1 <1>  -0.6200 
 24 C       -2.7130    -9.3620     1.3410 C.3   1 <1>  -0.0970 
 25 C       -5.2490   -10.7710    -0.8150 C.ar  1 <1>   0.4700 
 26 H       -1.8600    -0.9390     1.6930 H     1 <1>   0.0800 
 27 H       -0.3670    -1.8570     1.5740 H     1 <1>   0.0800 
 28 H       -0.7580     0.9070    -1.6730 H     1 <1>   0.0800 
 29 H       -1.9780     1.4320    -0.5460 H     1 <1>   0.0800 
 30 H       -0.6970    -2.2050    -0.7780 H     1 <1>   0.0800 
 31 H       -2.1410    -0.8880    -2.1270 H     1 <1>   0.0800 
 32 H       -3.1590    -0.4680    -0.7650 H     1 <1>   0.0800 
 33 H       -1.3960    -4.1580    -2.3080 H     1 <1>   0.0800 
 34 H       -1.6110    -5.7420    -1.6110 H     1 <1>   0.0800 
 35 H       -0.4600    -4.6430    -0.9080 H     1 <1>   0.0800 
 36 H       -6.0060    -3.0130     1.6950 H     1 <1>   0.0800 
 37 H       -5.2760    -4.3260     2.5900 H     1 <1>   0.0800 
 38 H       -6.1600    -4.6550     1.1150 H     1 <1>   0.0800 
 39 H       -3.7540    -6.4320    -1.1500 H     1 <1>   0.3700 
 40 H       -6.9200    -6.8040    -0.2170 H     1 <1>   0.0800 
 41 H       -7.8100    -7.9640    -1.1570 H     1 <1>   0.0800 
 42 H       -6.5320    -7.0460    -1.9090 H     1 <1>   0.0800 
 43 H       -2.0730    -8.5670     1.0060 H     1 <1>   0.0800 
 44 H       -2.1500   -10.2790     1.3350 H     1 <1>   0.0800 
 45 H       -3.0230    -9.1600     2.3510 H     1 <1>   0.0800 
 46 H       -5.4570   -11.7480    -1.2210 H     1 <1>   0.1500 
@<TRIPOS>BOND
  1   1   2  2   
  2   1   3  2   
  3   1   4  1   
  4   1   5  1   
  5   4   6  1   
  6   4  26  1   
  7   4  27  1   
  8   5   7  1   
  9   5  28  1   
 10   5  29  1   
 11   6   7  1   
 12   6   8  1   
 13   6  30  1   
 14   7  31  1   
 15   7  32  1   
 16   8   9  1   
 17   8  10  1   
 18   9  11  2   
 19  10  12  2   
 20  10  13  1   
 21  11  12  1   
 22  11  14  1   
 23  12  15  1   
 24  13  33  1   
 25  13  34  1   
 26  13  35  1   
 27  14  36  1   
 28  14  37  1   
 29  14  38  1   
 30  15  16  am  
 31  15  39  1   
 32  16  17  2   
 33  16  18  1   
 34  18  19  ar  
 35  18  20  ar  
 36  19  21  ar  
 37  19  22  1   
 38  20  23  ar  
 39  20  24  1   
 40  21  25  ar  
 41  22  40  1   
 42  22  41  1   
 43  22  42  1   
 44  23  25  ar  
 45  24  43  1   
 46  24  44  1   
 47  24  45  1   
 48  25  46  1   
@<TRIPOS>SUBSTRUCTURE
  1 ****  12 GROUP 4 **** **** 0

# MOE 2024.06 (io_trps.svl 2023.06)
