@<TRIPOS>MOLECULE
NONAME
40 41 1 0 0 
SMALL
USER_CHARGES


@<TRIPOS>ATOM
  1 S        0.1670    -0.3100    -0.7030 S.3   1 <1>  -0.0800 
  2 C       -1.3710    -0.9380    -0.2030 C.2   1 <1>   0.4420 
  3 C       -0.3810     1.2450    -0.1820 C.2   1 <1>   0.1980 
  4 N       -2.1250    -0.0220     0.2900 N.2   1 <1>  -0.3380 
  5 N       -1.5790    -2.2910    -0.3720 N.am  1 <1>  -0.4940 
  6 N       -1.5560     1.2190     0.2970 N.2   1 <1>  -0.3380 
  7 C        0.5390     2.4360    -0.3380 C.3   1 <1>   0.0200 
  8 C       -2.7500    -3.0020    -0.2590 C.2   1 <1>   0.5440 
  9 C       -0.2040     3.6970     0.1210 C.3   1 <1>   0.3430 
 10 O       -3.8120    -2.4230    -0.2530 O.2   1 <1>  -0.5700 
 11 C       -2.7220    -4.4420    -0.2000 C.ar  1 <1>   0.0860 
 12 N        0.6010     4.9530    -0.0560 N.4   1 <1>  -0.9590 
 13 C       -1.6930    -5.1600     0.3800 C.ar  1 <1>   0.1600 
 14 C       -3.7430    -5.2090    -0.7300 C.ar  1 <1>   0.1600 
 15 C        1.7740     5.0200     0.8740 C.3   1 <1>   0.2630 
 16 C       -0.2820     6.1440     0.1510 C.3   1 <1>   0.2630 
 17 N       -1.6510    -6.4730     0.4060 N.ar  1 <1>  -0.6200 
 18 N       -3.7360    -6.5260    -0.7190 N.ar  1 <1>  -0.6200 
 19 C       -2.6840    -7.0910    -0.1480 C.ar  1 <1>   0.4770 
 20 C       -2.6620    -8.6110    -0.1210 C.3   1 <1>  -0.0170 
 21 C       -3.3140    -9.1760     1.1490 C.3   1 <1>  -0.2400 
 22 H       -0.7640    -2.8120    -0.6850 H     1 <1>   0.3700 
 23 H        0.8160     2.5250    -1.3720 H     1 <1>   0.0800 
 24 H        1.4150     2.2700     0.2600 H     1 <1>   0.0800 
 25 H       -0.4840     3.5850     1.1570 H     1 <1>   0.0800 
 26 H       -1.1160     3.7740    -0.4500 H     1 <1>   0.0800 
 27 H        0.9450     4.9870    -1.0290 H     1 <1>   0.4500 
 28 H       -0.8760    -4.6380     0.8470 H     1 <1>   0.1500 
 29 H       -4.5900    -4.7140    -1.1780 H     1 <1>   0.1500 
 30 H        1.4430     4.9730     1.8990 H     1 <1>   0.0800 
 31 H        2.3120     5.9440     0.7300 H     1 <1>   0.0800 
 32 H        2.4510     4.2020     0.6910 H     1 <1>   0.0800 
 33 H       -0.6730     6.1510     1.1560 H     1 <1>   0.0800 
 34 H       -1.1110     6.1210    -0.5400 H     1 <1>   0.0800 
 35 H        0.2720     7.0550    -0.0100 H     1 <1>   0.0800 
 36 H       -1.6420    -8.9460    -0.1810 H     1 <1>   0.0800 
 37 H       -3.1810    -8.9830    -0.9860 H     1 <1>   0.0800 
 38 H       -2.7920    -8.8220     2.0210 H     1 <1>   0.0800 
 39 H       -3.2820   -10.2510     1.1370 H     1 <1>   0.0800 
 40 H       -4.3410    -8.8590     1.2090 H     1 <1>   0.0800 
@<TRIPOS>BOND
  1   1   2  1   
  2   1   3  1   
  3   2   4  2   
  4   2   5  1   
  5   3   6  2   
  6   3   7  1   
  7   4   6  1   
  8   5   8  am  
  9   5  22  1   
 10   7   9  1   
 11   7  23  1   
 12   7  24  1   
 13   8  10  2   
 14   8  11  1   
 15   9  12  1   
 16   9  25  1   
 17   9  26  1   
 18  11  13  ar  
 19  11  14  ar  
 20  12  15  1   
 21  12  16  1   
 22  12  27  1   
 23  13  17  ar  
 24  13  28  1   
 25  14  18  ar  
 26  14  29  1   
 27  15  30  1   
 28  15  31  1   
 29  15  32  1   
 30  16  33  1   
 31  16  34  1   
 32  16  35  1   
 33  17  19  ar  
 34  18  19  ar  
 35  19  20  1   
 36  20  21  1   
 37  20  36  1   
 38  20  37  1   
 39  21  38  1   
 40  21  39  1   
 41  21  40  1   
@<TRIPOS>SUBSTRUCTURE
  1 ****   5 GROUP 4 **** **** 0

# MOE 2024.06 (io_trps.svl 2023.06)
