@<TRIPOS>MOLECULE
NONAME
48 50 1 0 0 
SMALL
USER_CHARGES


@<TRIPOS>ATOM
  1 S       -0.0960    -0.4610    -0.0790 S.3   1 <1>  -0.4600 
  2 C       -0.1410     1.3520    -0.0100 C.3   1 <1>   0.2140 
  3 C       -1.8210    -0.9140    -0.3830 C.3   1 <1>   0.0700 
  4 C        1.2640     1.8600     0.2630 C.ar  1 <1>  -0.1440 
  5 C       -1.9060    -2.4400    -0.3830 C.3   1 <1>  -0.1600 
  6 C        1.6440     2.2190     1.5470 C.ar  1 <1>  -0.1500 
  7 C        2.1780     1.9740    -0.7730 C.ar  1 <1>  -0.1500 
  8 C       -3.3330    -2.9020    -0.6700 C.3   1 <1>   0.1400 
  9 C        2.9210     2.6940     1.7920 C.ar  1 <1>  -0.1500 
 10 C        3.4550     2.4500    -0.5300 C.ar  1 <1>  -0.1500 
 11 N       -3.3890    -4.3730    -0.5970 N.am  1 <1>  -0.7300 
 12 C        3.8270     2.8110     0.7530 C.ar  1 <1>  -0.1500 
 13 C       -4.2430    -5.1260     0.1600 C.2   1 <1>   0.7160 
 14 O       -5.0760    -4.5570     0.8450 O.2   1 <1>  -0.5700 
 15 C       -4.1320    -6.5770     0.1240 C.2   1 <1>   0.2030 
 16 N       -3.2590    -7.2610    -0.5980 N.2   1 <1>  -0.7070 
 17 C       -4.9310    -7.4550     0.8490 C.2   1 <1>  -0.1500 
 18 N       -3.5040    -8.5470    -0.3320 N.pl3 1 <1>   0.3140 
 19 C       -4.5160    -8.7130     0.5520 C.2   1 <1>  -0.2370 
 20 C       -2.6930    -9.5960    -0.9650 C.3   1 <1>   0.0960 
 21 C       -5.0390    -9.9580     1.0360 C.2   1 <1>   0.7150 
 22 C       -2.0920   -10.4930     0.1130 C.3   1 <1>   0.2000 
 23 O       -6.1040    -9.9810     1.6110 O.2   1 <1>  -0.5700 
 24 N       -4.4360   -11.1680     0.9040 N.am  1 <1>  -0.7300 
 25 O       -0.9560   -11.1040    -0.4040 O.3   1 <1>  -0.6800 
 26 C       -3.0440   -11.5980     0.5960 C.3   1 <1>   0.1400 
 27 H       -0.8220     1.6280     0.7750 H     1 <1>   0.0800 
 28 H       -0.5070     1.7030    -0.9580 H     1 <1>   0.0800 
 29 H       -2.1000    -0.4980    -1.3350 H     1 <1>   0.0800 
 30 H       -2.4130    -0.4840     0.4060 H     1 <1>   0.0800 
 31 H       -1.6000    -2.8070     0.5820 H     1 <1>   0.0800 
 32 H       -1.2420    -2.8310    -1.1330 H     1 <1>   0.0800 
 33 H        0.9490     2.1260     2.3630 H     1 <1>   0.1500 
 34 H        1.8990     1.6880    -1.7720 H     1 <1>   0.1500 
 35 H       -3.6370    -2.5860    -1.6530 H     1 <1>   0.0800 
 36 H       -4.0100    -2.4740     0.0510 H     1 <1>   0.0800 
 37 H        3.2090     2.9710     2.7910 H     1 <1>   0.1500 
 38 H        4.1600     2.5350    -1.3390 H     1 <1>   0.1500 
 39 H       -2.7070    -4.9060    -1.1450 H     1 <1>   0.3700 
 40 H        4.8200     3.1800     0.9420 H     1 <1>   0.1500 
 41 H       -5.7270    -7.1640     1.5140 H     1 <1>   0.1500 
 42 H       -1.9080    -9.1130    -1.5180 H     1 <1>   0.0800 
 43 H       -3.3150   -10.1560    -1.6380 H     1 <1>   0.0800 
 44 H       -1.7640    -9.8960     0.9480 H     1 <1>   0.0800 
 45 H       -5.0210   -11.9100     1.2970 H     1 <1>   0.3700 
 46 H       -1.1550   -11.6340    -1.2000 H     1 <1>   0.4000 
 47 H       -2.6240   -12.0430     1.4820 H     1 <1>   0.0800 
 48 H       -3.1040   -12.3600    -0.1620 H     1 <1>   0.0800 
@<TRIPOS>BOND
  1   1   2  1   
  2   1   3  1   
  3   2   4  1   
  4   2  27  1   
  5   2  28  1   
  6   3   5  1   
  7   3  29  1   
  8   3  30  1   
  9   4   6  ar  
 10   4   7  ar  
 11   5   8  1   
 12   5  31  1   
 13   5  32  1   
 14   6   9  ar  
 15   6  33  1   
 16   7  10  ar  
 17   7  34  1   
 18   8  11  1   
 19   8  35  1   
 20   8  36  1   
 21   9  12  ar  
 22   9  37  1   
 23  10  12  ar  
 24  10  38  1   
 25  11  13  am  
 26  11  39  1   
 27  12  40  1   
 28  13  14  2   
 29  13  15  1   
 30  15  16  2   
 31  15  17  1   
 32  16  18  1   
 33  17  19  2   
 34  17  41  1   
 35  18  19  1   
 36  18  20  1   
 37  19  21  1   
 38  20  22  1   
 39  20  42  1   
 40  20  43  1   
 41  21  23  2   
 42  21  24  am  
 43  22  25  1   
 44  22  26  1   
 45  22  44  1   
 46  24  26  1   
 47  24  45  1   
 48  25  46  1   
 49  26  47  1   
 50  26  48  1   
@<TRIPOS>SUBSTRUCTURE
  1 ****  11 GROUP 4 **** **** 0

# MOE 2024.06 (io_trps.svl 2023.06)
