@<TRIPOS>MOLECULE
NONAME
52 54 1 0 0 
SMALL
USER_CHARGES


@<TRIPOS>ATOM
  1 F       -1.8530    -2.9270     3.1930 F     1 <1>  -0.1900 
  2 C       -2.1370    -3.7000     2.1760 C.ar  1 <1>   0.1900 
  3 C       -1.1520    -4.4310     1.5020 C.ar  1 <1>   0.0830 
  4 C       -3.4640    -3.7590     1.7990 C.ar  1 <1>  -0.1500 
  5 O        0.1840    -4.4580     1.7770 O.3   1 <1>  -0.3630 
  6 C       -1.5550    -5.2200     0.4370 C.ar  1 <1>  -0.1500 
  7 C       -3.8300    -4.5570     0.7310 C.ar  1 <1>  -0.1500 
  8 C        0.7680    -3.7230     2.8290 C.3   1 <1>   0.0400 
  9 C       -2.8880    -5.3090     0.0250 C.ar  1 <1>   0.0530 
 10 C       -3.2630    -6.1460    -1.0910 C.2   1 <1>   0.0870 
 11 O       -2.3520    -6.5390    -1.9540 O.3   1 <1>  -0.0190 
 12 C       -4.4370    -6.6980    -1.4960 C.2   1 <1>  -0.2330 
 13 N       -2.8350    -7.3060    -2.8970 N.2   1 <1>  -0.4100 
 14 C       -4.0900    -7.3890    -2.6530 C.2   1 <1>   0.3720 
 15 C       -5.7360    -6.7770    -0.9090 C.2   1 <1>   1.0330 
 16 N       -4.9960    -8.1090    -3.4200 N.pl3 1 <1>  -0.8520 
 17 O       -5.8640    -6.9210     0.3180 O.co2 1 <1>  -0.9000 
 18 O       -6.7480    -6.9730    -1.6060 O.co2 1 <1>  -0.9000 
 19 C       -4.8350    -9.5740    -3.4970 C.3   1 <1>   0.2090 
 20 C       -5.7930   -10.2540    -2.5120 C.3   1 <1>  -0.1600 
 21 C       -5.3620    -9.9800    -1.0680 C.3   1 <1>   0.3430 
 22 N       -6.4040   -10.2960    -0.0460 N.4   1 <1>  -0.9590 
 23 C       -7.6570    -9.4720    -0.2550 C.3   1 <1>   0.3430 
 24 C       -5.8300    -9.9500     1.2900 C.3   1 <1>   0.3430 
 25 C       -8.7130    -9.7290     0.8340 C.3   1 <1>   0.2000 
 26 C       -6.8290   -10.2730     2.4060 C.3   1 <1>  -0.1600 
 27 O       -9.7840    -8.8760     0.6540 O.3   1 <1>  -0.6800 
 28 C       -8.1380    -9.4880     2.2300 C.3   1 <1>  -0.1600 
 29 H       -4.2020    -3.1890     2.3350 H     1 <1>   0.1500 
 30 H       -0.8030    -5.7840    -0.0860 H     1 <1>   0.1500 
 31 H       -4.8660    -4.5960     0.4450 H     1 <1>   0.1500 
 32 H        1.8240    -3.9240     2.8310 H     1 <1>   0.0800 
 33 H        0.3360    -4.0410     3.7620 H     1 <1>   0.0800 
 34 H        0.5980    -2.6740     2.6620 H     1 <1>   0.0800 
 35 H       -5.9510    -7.8260    -3.1160 H     1 <1>   0.4000 
 36 H       -3.8110    -9.8460    -3.2920 H     1 <1>   0.0800 
 37 H       -5.0650    -9.8860    -4.5020 H     1 <1>   0.0800 
 38 H       -5.7800   -11.3140    -2.6890 H     1 <1>   0.0800 
 39 H       -6.7790    -9.8840    -2.7180 H     1 <1>   0.0800 
 40 H       -5.0960    -8.9480    -0.9720 H     1 <1>   0.0800 
 41 H       -4.4700   -10.5480    -0.8600 H     1 <1>   0.0800 
 42 H       -6.6440   -11.2900    -0.0780 H     1 <1>   0.4500 
 43 H       -8.0900    -9.6740    -1.2190 H     1 <1>   0.0800 
 44 H       -7.4060    -8.4320    -0.2040 H     1 <1>   0.0800 
 45 H       -5.5970    -8.8970     1.3220 H     1 <1>   0.0800 
 46 H       -4.9170   -10.4990     1.4530 H     1 <1>   0.0800 
 47 H       -9.0890   -10.7340     0.7480 H     1 <1>   0.0800 
 48 H       -6.3880   -10.0080     3.3510 H     1 <1>   0.0800 
 49 H       -7.0260   -11.3310     2.4230 H     1 <1>   0.0800 
 50 H       -9.4830    -7.9410     0.6580 H     1 <1>   0.4000 
 51 H       -8.8520    -9.7890     2.9770 H     1 <1>   0.0800 
 52 H       -7.9290    -8.4380     2.3540 H     1 <1>   0.0800 
@<TRIPOS>BOND
  1   1   2  1   
  2   2   3  ar  
  3   2   4  ar  
  4   3   5  1   
  5   3   6  ar  
  6   4   7  ar  
  7   4  29  1   
  8   5   8  1   
  9   6   9  ar  
 10   6  30  1   
 11   7   9  ar  
 12   7  31  1   
 13   8  32  1   
 14   8  33  1   
 15   8  34  1   
 16   9  10  1   
 17  10  11  1   
 18  10  12  2   
 19  11  13  1   
 20  12  14  1   
 21  12  15  1   
 22  13  14  2   
 23  14  16  1   
 24  15  17  ar  
 25  15  18  ar  
 26  16  19  1   
 27  16  35  1   
 28  19  20  1   
 29  19  36  1   
 30  19  37  1   
 31  20  21  1   
 32  20  38  1   
 33  20  39  1   
 34  21  22  1   
 35  21  40  1   
 36  21  41  1   
 37  22  23  1   
 38  22  24  1   
 39  22  42  1   
 40  23  25  1   
 41  23  43  1   
 42  23  44  1   
 43  24  26  1   
 44  24  45  1   
 45  24  46  1   
 46  25  27  1   
 47  25  28  1   
 48  25  47  1   
 49  26  28  1   
 50  26  48  1   
 51  26  49  1   
 52  27  50  1   
 53  28  51  1   
 54  28  52  1   
@<TRIPOS>SUBSTRUCTURE
  1 ****  17 GROUP 4 **** **** 0

# MOE 2024.06 (io_trps.svl 2023.06)
