@<TRIPOS>MOLECULE
NONAME
59 62 1 0 0 
SMALL
USER_CHARGES


@<TRIPOS>ATOM
  1 O        0.8250     0.7210     1.0040 O.2   1 <1>  -0.5700 
  2 C       -0.2460     1.1670     0.6350 C.2   1 <1>   0.7670 
  3 N       -0.9850     0.4750    -0.2810 N.2   1 <1>  -0.6610 
  4 C       -0.7120     2.4100     1.1380 C.2   1 <1>  -0.1360 
  5 C       -2.1000     0.9730    -0.6590 C.2   1 <1>   0.4390 
  6 C       -1.8860     2.9260     0.7040 C.2   1 <1>  -0.0380 
  7 N       -2.5870     2.1700    -0.2130 N.pl3 1 <1>  -0.5500 
  8 C       -2.9520     0.2230    -1.6530 C.3   1 <1>  -0.1790 
  9 C       -2.4250     4.2720     1.1800 C.3   1 <1>   0.4810 
 10 N       -1.7680     5.3820     0.4150 N.4   1 <1>  -0.9590 
 11 C       -2.1160     6.7300     0.9750 C.3   1 <1>   0.3430 
 12 C       -2.0520     5.2910    -1.0510 C.3   1 <1>   0.3430 
 13 C       -1.3040     7.8660     0.3000 C.3   1 <1>   0.0000 
 14 C       -1.2720     6.3750    -1.7960 C.3   1 <1>  -0.1600 
 15 C       -1.8160     9.2320     0.8270 C.3   1 <1>   0.3430 
 16 C       -1.5310     7.7830    -1.2320 C.3   1 <1>  -0.1600 
 17 C        0.1950     7.7280     0.6790 C.3   1 <1>  -0.1600 
 18 N       -0.9860    10.3700     0.3200 N.4   1 <1>  -0.9590 
 19 C        1.0330     8.9440     0.2450 C.3   1 <1>  -0.1600 
 20 C        0.4450    10.2690     0.7360 C.3   1 <1>   0.3430 
 21 C       -1.5560    11.6970     0.7020 C.3   1 <1>   0.4860 
 22 C       -0.8320    12.7680    -0.0860 C.ar  1 <1>  -0.1430 
 23 C        0.1170    13.5690     0.5330 C.ar  1 <1>  -0.1500 
 24 C       -1.1050    12.9520    -1.4350 C.ar  1 <1>  -0.1500 
 25 C        0.7960    14.5320    -0.1920 C.ar  1 <1>  -0.1500 
 26 C       -0.4240    13.9150    -2.1580 C.ar  1 <1>  -0.1500 
 27 C        0.5280    14.7030    -1.5370 C.ar  1 <1>  -0.1500 
 28 H       -0.0740     2.8820     1.8590 H     1 <1>   0.1500 
 29 H       -3.5230     2.4180    -0.5480 H     1 <1>   0.4000 
 30 H       -3.0950     0.8100    -2.5400 H     1 <1>   0.0800 
 31 H       -3.9060    -0.0140    -1.2190 H     1 <1>   0.0800 
 32 H       -2.4680    -0.6980    -1.9290 H     1 <1>   0.0800 
 33 H       -2.2060     4.3780     2.2300 H     1 <1>   0.0800 
 34 H       -3.4950     4.3050     1.0560 H     1 <1>   0.0800 
 35 H       -0.7540     5.2370     0.5160 H     1 <1>   0.4500 
 36 H       -1.9230     6.7400     2.0360 H     1 <1>   0.0800 
 37 H       -3.1690     6.9110     0.8270 H     1 <1>   0.0800 
 38 H       -3.1070     5.4200    -1.2300 H     1 <1>   0.0800 
 39 H       -1.7600     4.3230    -1.4300 H     1 <1>   0.0800 
 40 H       -1.5630     6.3530    -2.8330 H     1 <1>   0.0800 
 41 H       -0.2220     6.1420    -1.7700 H     1 <1>   0.0800 
 42 H       -1.7870     9.2330     1.9050 H     1 <1>   0.0800 
 43 H       -2.8410     9.3720     0.5220 H     1 <1>   0.0800 
 44 H       -0.9090     8.4840    -1.7610 H     1 <1>   0.0800 
 45 H       -2.5530     8.0450    -1.4550 H     1 <1>   0.0800 
 46 H        0.6310     6.8430     0.2500 H     1 <1>   0.0800 
 47 H        0.2840     7.6330     1.7500 H     1 <1>   0.0800 
 48 H       -0.9830    10.3670    -0.7080 H     1 <1>   0.4500 
 49 H        1.1320     8.9750    -0.8260 H     1 <1>   0.0800 
 50 H        2.0290     8.8470     0.6420 H     1 <1>   0.0800 
 51 H        0.5200    10.3210     1.8110 H     1 <1>   0.0800 
 52 H        1.0150    11.0860     0.3200 H     1 <1>   0.0800 
 53 H       -1.4360    11.8710     1.7590 H     1 <1>   0.0800 
 54 H       -2.6070    11.7370     0.4640 H     1 <1>   0.0800 
 55 H        0.3400    13.4620     1.5820 H     1 <1>   0.1500 
 56 H       -1.8480    12.3610    -1.9420 H     1 <1>   0.1500 
 57 H        1.5330    15.1550     0.2880 H     1 <1>   0.1500 
 58 H       -0.6350    14.0600    -3.2050 H     1 <1>   0.1500 
 59 H        1.0560    15.4540    -2.1010 H     1 <1>   0.1500 
@<TRIPOS>BOND
  1   1   2  2   
  2   2   3  1   
  3   2   4  1   
  4   3   5  2   
  5   4   6  2   
  6   4  28  1   
  7   5   7  1   
  8   5   8  1   
  9   6   7  1   
 10   6   9  1   
 11   7  29  1   
 12   8  30  1   
 13   8  31  1   
 14   8  32  1   
 15   9  10  1   
 16   9  33  1   
 17   9  34  1   
 18  10  11  1   
 19  10  12  1   
 20  10  35  1   
 21  11  13  1   
 22  11  36  1   
 23  11  37  1   
 24  12  14  1   
 25  12  38  1   
 26  12  39  1   
 27  13  15  1   
 28  13  16  1   
 29  13  17  1   
 30  14  16  1   
 31  14  40  1   
 32  14  41  1   
 33  15  18  1   
 34  15  42  1   
 35  15  43  1   
 36  16  44  1   
 37  16  45  1   
 38  17  19  1   
 39  17  46  1   
 40  17  47  1   
 41  18  20  1   
 42  18  21  1   
 43  18  48  1   
 44  19  20  1   
 45  19  49  1   
 46  19  50  1   
 47  20  51  1   
 48  20  52  1   
 49  21  22  1   
 50  21  53  1   
 51  21  54  1   
 52  22  23  ar  
 53  22  24  ar  
 54  23  25  ar  
 55  23  55  1   
 56  24  26  ar  
 57  24  56  1   
 58  25  27  ar  
 59  25  57  1   
 60  26  27  ar  
 61  26  58  1   
 62  27  59  1   
@<TRIPOS>SUBSTRUCTURE
  1 ****  13 GROUP 4 **** **** 0

# MOE 2024.06 (io_trps.svl 2023.06)
