@<TRIPOS>MOLECULE
NONAME
57 60 1 0 0 
SMALL
USER_CHARGES


@<TRIPOS>ATOM
  1 O        0.7760     1.7880    -0.8560 O.2   1 <1>  -0.5700 
  2 C       -0.0970     2.2600    -0.1560 C.2   1 <1>   0.5690 
  3 N       -1.4210     1.9900    -0.4010 N.am  1 <1>  -0.6600 
  4 C        0.3060     3.1830     1.0150 C.3   1 <1>   0.1710 
  5 C       -2.5800     2.5850     0.3470 C.3   1 <1>   0.1400 
  6 C       -1.8430     1.0480    -1.4800 C.3   1 <1>   0.1400 
  7 N        1.7580     3.3070     1.3510 N.3   1 <1>  -0.8100 
  8 C       -3.5350     3.3320    -0.6050 C.3   1 <1>   0.1430 
  9 C       -2.7840     1.7570    -2.4610 C.3   1 <1>  -0.1600 
 10 C        2.6480     3.9830     0.3840 C.3   1 <1>   0.1100 
 11 C        2.3160     2.4420     2.3950 C.3   1 <1>   0.1100 
 12 C       -4.7050     3.8570     0.2060 C.ar  1 <1>   0.1670 
 13 C       -3.9870     2.3860    -1.7390 C.3   1 <1>  -0.1600 
 14 C       -2.8980     4.6360    -1.1610 C.3   1 <1>  -0.1600 
 15 C        3.8630     3.1500    -0.0700 C.3   1 <1>   0.3430 
 16 C        2.5640     1.0190     1.8860 C.3   1 <1>  -0.1600 
 17 N       -5.6590     3.1220     0.7250 N.ar  1 <1>  -0.6200 
 18 C       -4.6460     5.2110     0.3580 C.ar  1 <1>  -0.1440 
 19 C       -3.4340     5.8040    -0.3140 C.3   1 <1>  -0.0170 
 20 N        3.4930     1.7260    -0.3090 N.4   1 <1>  -0.9590 
 21 C        3.7150     0.8800     0.8880 C.3   1 <1>   0.3430 
 22 C       -6.5630     3.8120     1.4040 C.ar  1 <1>   0.7200 
 23 C       -5.6480     5.8190     1.0760 C.ar  1 <1>   0.1600 
 24 C        4.1300     1.1640    -1.5310 C.3   1 <1>   0.2630 
 25 N       -6.6270     5.1200     1.6050 N.ar  1 <1>  -0.6200 
 26 N       -7.5550     3.0980     1.9360 N.pl3 1 <1>  -0.9000 
 27 H       -0.2130     2.8440     1.8940 H     1 <1>   0.0800 
 28 H       -0.0660     4.1660     0.7900 H     1 <1>   0.0800 
 29 H       -2.2530     3.2610     1.1150 H     1 <1>   0.0800 
 30 H       -3.1240     1.7890     0.8290 H     1 <1>   0.0800 
 31 H       -2.3510     0.2110    -1.0320 H     1 <1>   0.0800 
 32 H       -0.9890     0.6670    -2.0150 H     1 <1>   0.0800 
 33 H       -3.1360     1.0440    -3.1870 H     1 <1>   0.0800 
 34 H       -2.2310     2.5110    -2.9930 H     1 <1>   0.0800 
 35 H        3.0060     4.8970     0.8260 H     1 <1>   0.0800 
 36 H        2.0800     4.2580    -0.4880 H     1 <1>   0.0800 
 37 H        1.6230     2.4050     3.2200 H     1 <1>   0.0800 
 38 H        3.2320     2.8700     2.7700 H     1 <1>   0.0800 
 39 H       -4.6070     2.9160    -2.4400 H     1 <1>   0.0800 
 40 H       -4.5860     1.5970    -1.3150 H     1 <1>   0.0800 
 41 H       -3.2230     4.7890    -2.1750 H     1 <1>   0.0800 
 42 H       -1.8230     4.6050    -1.1600 H     1 <1>   0.0800 
 43 H        4.6330     3.2060     0.6810 H     1 <1>   0.0800 
 44 H        4.2540     3.5870    -0.9730 H     1 <1>   0.0800 
 45 H        1.6630     0.6130     1.4650 H     1 <1>   0.0800 
 46 H        2.8060     0.4070     2.7360 H     1 <1>   0.0800 
 47 H       -3.6940     6.6500    -0.9280 H     1 <1>   0.0800 
 48 H       -2.7150     6.1000     0.4300 H     1 <1>   0.0800 
 49 H        2.4580     1.7400    -0.4560 H     1 <1>   0.4500 
 50 H        3.7780    -0.1540     0.5890 H     1 <1>   0.0800 
 51 H        4.6470     1.1490     1.3590 H     1 <1>   0.0800 
 52 H       -5.6470     6.8860     1.2190 H     1 <1>   0.1500 
 53 H        5.2010     1.1390    -1.4200 H     1 <1>   0.0800 
 54 H        3.8800     1.7670    -2.3890 H     1 <1>   0.0800 
 55 H        3.7730     0.1620    -1.7060 H     1 <1>   0.0800 
 56 H       -8.3850     3.6310     2.1810 H     1 <1>   0.4000 
 57 H       -7.7050     2.1840     1.5190 H     1 <1>   0.4000 
@<TRIPOS>BOND
  1   1   2  2   
  2   2   3  am  
  3   2   4  1   
  4   3   5  1   
  5   3   6  1   
  6   4   7  1   
  7   4  27  1   
  8   4  28  1   
  9   5   8  1   
 10   5  29  1   
 11   5  30  1   
 12   6   9  1   
 13   6  31  1   
 14   6  32  1   
 15   7  10  1   
 16   7  11  1   
 17   8  12  1   
 18   8  13  1   
 19   8  14  1   
 20   9  13  1   
 21   9  33  1   
 22   9  34  1   
 23  10  15  1   
 24  10  35  1   
 25  10  36  1   
 26  11  16  1   
 27  11  37  1   
 28  11  38  1   
 29  12  17  ar  
 30  12  18  ar  
 31  13  39  1   
 32  13  40  1   
 33  14  19  1   
 34  14  41  1   
 35  14  42  1   
 36  15  20  1   
 37  15  43  1   
 38  15  44  1   
 39  16  21  1   
 40  16  45  1   
 41  16  46  1   
 42  17  22  ar  
 43  18  19  1   
 44  18  23  ar  
 45  19  47  1   
 46  19  48  1   
 47  20  21  1   
 48  20  24  1   
 49  20  49  1   
 50  21  50  1   
 51  21  51  1   
 52  22  25  ar  
 53  22  26  1   
 54  23  25  ar  
 55  23  52  1   
 56  24  53  1   
 57  24  54  1   
 58  24  55  1   
 59  26  56  1   
 60  26  57  1   
@<TRIPOS>SUBSTRUCTURE
  1 ****   3 GROUP 4 **** **** 0

# MOE 2024.06 (io_trps.svl 2023.06)
