@<TRIPOS>MOLECULE
NONAME
47 50 1 0 0 
SMALL
USER_CHARGES


@<TRIPOS>ATOM
  1 O       -3.8320     3.2010    -2.3230 O.2   1 <1>  -0.5700 
  2 C       -3.5570     2.5270    -1.3270 C.2   1 <1>   0.5440 
  3 N       -4.6220     1.8590    -0.7250 N.am  1 <1>  -0.6600 
  4 C       -2.2140     2.4970    -0.7820 C.ar  1 <1>   0.3960 
  5 C       -5.6190     1.1640    -1.5680 C.3   1 <1>   0.1400 
  6 C       -4.5530     1.3720     0.6770 C.3   1 <1>   0.1400 
  7 N       -1.7670     3.5800    -0.0970 N.ar  1 <1>  -0.6200 
  8 C       -1.3990     1.3320    -0.9370 C.ar  1 <1>  -0.1710 
  9 C       -5.2750    -0.3250    -1.5980 C.3   1 <1>  -0.1600 
 10 C       -4.2670    -0.1310     0.7080 C.3   1 <1>  -0.1600 
 11 C       -0.5540     3.5230     0.3950 C.ar  1 <1>   0.1600 
 12 O       -1.7660     0.2930    -1.5420 O.3   1 <1>  -0.8290 
 13 C       -0.1160     1.3240    -0.3880 C.ar  1 <1>  -0.1500 
 14 C       -5.2250    -0.9320    -0.1850 C.3   1 <1>   0.4240 
 15 C        0.3050     2.4330     0.2820 C.ar  1 <1>  -0.1500 
 16 O       -6.5000    -0.7780     0.4070 O.3   1 <1>  -0.5600 
 17 C       -4.8020    -2.4170    -0.2340 C.ar  1 <1>  -0.1430 
 18 C       -7.4690    -1.7260     0.0900 C.3   1 <1>   0.1200 
 19 C       -5.6610    -3.4330     0.1740 C.ar  1 <1>  -0.1430 
 20 C       -3.5400    -2.7640    -0.7040 C.ar  1 <1>  -0.1500 
 21 C       -7.0470    -3.0720     0.6710 C.3   1 <1>  -0.0170 
 22 C       -5.2620    -4.7590     0.1260 C.ar  1 <1>  -0.1500 
 23 C       -3.1410    -4.0870    -0.7560 C.ar  1 <1>  -0.1500 
 24 C       -3.9950    -5.0940    -0.3410 C.ar  1 <1>   0.0820 
 25 O       -3.5290    -6.3670    -0.4190 O.3   1 <1>  -0.3620 
 26 C       -4.3100    -7.4600     0.0040 C.3   1 <1>   0.0400 
 27 H       -5.6010     1.5590    -2.5690 H     1 <1>   0.0800 
 28 H       -6.6010     1.3180    -1.1570 H     1 <1>   0.0800 
 29 H       -5.4960     1.5710     1.1560 H     1 <1>   0.0800 
 30 H       -3.7870     1.9010     1.2170 H     1 <1>   0.0800 
 31 H       -4.3070    -0.4250    -2.0590 H     1 <1>   0.0800 
 32 H       -5.9720    -0.8580    -2.2140 H     1 <1>   0.0800 
 33 H       -4.3290    -0.4970     1.7140 H     1 <1>   0.0800 
 34 H       -3.2560    -0.2780     0.3820 H     1 <1>   0.0800 
 35 H       -0.2010     4.3870     0.9280 H     1 <1>   0.1500 
 36 H        0.4860     0.4430    -0.5180 H     1 <1>   0.1500 
 37 H        1.2840     2.4750     0.7180 H     1 <1>   0.1500 
 38 H       -7.5750    -1.7800    -0.9790 H     1 <1>   0.0800 
 39 H       -8.3980    -1.4030     0.5230 H     1 <1>   0.0800 
 40 H       -2.8520    -1.9980    -1.0370 H     1 <1>   0.1500 
 41 H       -7.7560    -3.8240     0.3760 H     1 <1>   0.0800 
 42 H       -7.0400    -3.0110     1.7450 H     1 <1>   0.0800 
 43 H       -5.9450    -5.5180     0.4520 H     1 <1>   0.1500 
 44 H       -2.1620    -4.3360    -1.1200 H     1 <1>   0.1500 
 45 H       -3.7350    -8.3570    -0.1400 H     1 <1>   0.0800 
 46 H       -5.2050    -7.4990    -0.5900 H     1 <1>   0.0800 
 47 H       -4.5430    -7.3380     1.0470 H     1 <1>   0.0800 
@<TRIPOS>BOND
  1   1   2  2   
  2   2   3  am  
  3   2   4  1   
  4   3   5  1   
  5   3   6  1   
  6   4   7  ar  
  7   4   8  ar  
  8   5   9  1   
  9   5  27  1   
 10   5  28  1   
 11   6  10  1   
 12   6  29  1   
 13   6  30  1   
 14   7  11  ar  
 15   8  12  1   
 16   8  13  ar  
 17   9  14  1   
 18   9  31  1   
 19   9  32  1   
 20  10  14  1   
 21  10  33  1   
 22  10  34  1   
 23  11  15  ar  
 24  11  35  1   
 25  13  15  ar  
 26  13  36  1   
 27  14  16  1   
 28  14  17  1   
 29  15  37  1   
 30  16  18  1   
 31  17  19  ar  
 32  17  20  ar  
 33  18  21  1   
 34  18  38  1   
 35  18  39  1   
 36  19  21  1   
 37  19  22  ar  
 38  20  23  ar  
 39  20  40  1   
 40  21  41  1   
 41  21  42  1   
 42  22  24  ar  
 43  22  43  1   
 44  23  24  ar  
 45  23  44  1   
 46  24  25  1   
 47  25  26  1   
 48  26  45  1   
 49  26  46  1   
 50  26  47  1   
@<TRIPOS>SUBSTRUCTURE
  1 ****  10 GROUP 4 **** **** 0

# MOE 2024.06 (io_trps.svl 2023.06)
