@<TRIPOS>MOLECULE
NONAME
53 55 1 0 0 
SMALL
USER_CHARGES


@<TRIPOS>ATOM
  1 O        2.3500     2.0100     2.3670 O.co2 1 <1>  -0.9000 
  2 C        1.9990     1.7220     1.2160 C.2   1 <1>   0.9470 
  3 O        0.8150     1.8260     0.8630 O.co2 1 <1>  -0.9000 
  4 C        3.0700     1.4380     0.1610 C.3   1 <1>  -0.2420 
  5 C        3.8230     0.1810    -0.2010 C.3   1 <1>  -0.2420 
  6 C        4.0450     2.5980     0.0690 C.3   1 <1>   0.2350 
  7 C        2.6800     0.6520    -1.0660 C.3   1 <1>  -0.2000 
  8 C        3.7740    -1.2300     0.3950 C.2   1 <1>   0.9470 
  9 C        5.2500     0.5800    -0.5350 C.3   1 <1>   0.2350 
 10 N        5.2130     2.0620    -0.6940 N.am  1 <1>  -0.6600 
 11 O        4.5880    -1.5350     1.2790 O.co2 1 <1>  -0.9000 
 12 O        3.0400    -2.0870    -0.1170 O.co2 1 <1>  -0.9000 
 13 C        6.0450     2.7340    -1.5560 C.2   1 <1>   0.5690 
 14 O        6.9450     2.1360    -2.1110 O.2   1 <1>  -0.5700 
 15 C        5.8710     4.2490    -1.8940 C.3   1 <1>   0.3410 
 16 O        5.5220     5.0420    -0.7570 O.3   1 <1>  -0.3630 
 17 C        4.7130     4.4280    -2.8900 C.3   1 <1>  -0.2400 
 18 C        7.1320     4.8680    -2.5420 C.3   1 <1>  -0.2400 
 19 C        6.4460     5.4330     0.1600 C.ar  1 <1>   0.0820 
 20 C        6.6700     6.7950     0.3700 C.ar  1 <1>  -0.1440 
 21 C        7.1520     4.4880     0.8940 C.ar  1 <1>  -0.1500 
 22 C        7.6270     7.1720     1.3030 C.ar  1 <1>  -0.1500 
 23 C        5.8870     7.8680    -0.3940 C.3   1 <1>   0.0630 
 24 C        8.1050     4.8770     1.8170 C.ar  1 <1>  -0.1440 
 25 C        8.3420     6.2250     2.0170 C.ar  1 <1>  -0.1500 
 26 C        6.8260     8.7900    -1.1810 C.3   1 <1>  -0.2400 
 27 C        5.0100     8.6800     0.5640 C.3   1 <1>  -0.2400 
 28 C        8.8650     3.8250     2.6040 C.3   1 <1>  -0.0970 
 29 H        4.3650     2.8850     1.0560 H     1 <1>   0.0800 
 30 H        3.5810     3.4370    -0.4130 H     1 <1>   0.0800 
 31 H        2.8830     1.0540    -2.0400 H     1 <1>   0.1000 
 32 H        1.7600     0.0930    -1.0310 H     1 <1>   0.1000 
 33 H        5.5820     0.0930    -1.4350 H     1 <1>   0.0800 
 34 H        5.9100     0.3270     0.2780 H     1 <1>   0.0800 
 35 H        4.9300     3.8960    -3.7980 H     1 <1>   0.0800 
 36 H        4.5730     5.4680    -3.1220 H     1 <1>   0.0800 
 37 H        3.8000     4.0300    -2.4880 H     1 <1>   0.0800 
 38 H        7.3370     4.3830    -3.4790 H     1 <1>   0.0800 
 39 H        7.9880     4.7230    -1.9090 H     1 <1>   0.0800 
 40 H        6.9910     5.9170    -2.7220 H     1 <1>   0.0800 
 41 H        6.9550     3.4410     0.7600 H     1 <1>   0.1500 
 42 H        7.8230     8.2130     1.4860 H     1 <1>   0.1500 
 43 H        5.2300     7.4020    -1.1070 H     1 <1>   0.0800 
 44 H        9.0780     6.5450     2.7330 H     1 <1>   0.1500 
 45 H        7.4500     9.3620    -0.5180 H     1 <1>   0.0800 
 46 H        6.2560     9.4710    -1.7870 H     1 <1>   0.0800 
 47 H        7.4570     8.2040    -1.8250 H     1 <1>   0.0800 
 48 H        5.6110     9.2170     1.2750 H     1 <1>   0.0800 
 49 H        4.3550     8.0160     1.1020 H     1 <1>   0.0800 
 50 H        4.4090     9.3820     0.0160 H     1 <1>   0.0800 
 51 H        9.7910     4.2230     2.9780 H     1 <1>   0.0800 
 52 H        9.0840     2.9800     1.9760 H     1 <1>   0.0800 
 53 H        8.2650     3.4920     3.4320 H     1 <1>   0.0800 
@<TRIPOS>BOND
  1   1   2  ar  
  2   2   3  ar  
  3   2   4  1   
  4   4   5  1   
  5   4   6  1   
  6   4   7  1   
  7   5   7  1   
  8   5   8  1   
  9   5   9  1   
 10   6  10  1   
 11   6  29  1   
 12   6  30  1   
 13   7  31  1   
 14   7  32  1   
 15   8  11  ar  
 16   8  12  ar  
 17   9  10  1   
 18   9  33  1   
 19   9  34  1   
 20  10  13  am  
 21  13  14  2   
 22  13  15  1   
 23  15  16  1   
 24  15  17  1   
 25  15  18  1   
 26  16  19  1   
 27  17  35  1   
 28  17  36  1   
 29  17  37  1   
 30  18  38  1   
 31  18  39  1   
 32  18  40  1   
 33  19  20  ar  
 34  19  21  ar  
 35  20  22  ar  
 36  20  23  1   
 37  21  24  ar  
 38  21  41  1   
 39  22  25  ar  
 40  22  42  1   
 41  23  26  1   
 42  23  27  1   
 43  23  43  1   
 44  24  25  ar  
 45  24  28  1   
 46  25  44  1   
 47  26  45  1   
 48  26  46  1   
 49  26  47  1   
 50  27  48  1   
 51  27  49  1   
 52  27  50  1   
 53  28  51  1   
 54  28  52  1   
 55  28  53  1   
@<TRIPOS>SUBSTRUCTURE
  1 ****   6 GROUP 4 **** **** 0

# MOE 2024.06 (io_trps.svl 2023.06)
