@<TRIPOS>MOLECULE
NONAME
49 52 1 0 0 
SMALL
USER_CHARGES


@<TRIPOS>ATOM
  1 O       -0.7830     0.5840    -1.1710 O.2   1 <1>  -0.5700 
  2 C       -1.8250     1.1500    -0.8970 C.2   1 <1>   0.5440 
  3 N       -3.0170     0.5890    -1.3090 N.am  1 <1>  -0.6600 
  4 C       -1.7750     2.3720    -0.1310 C.ar  1 <1>   0.0860 
  5 C       -4.3200     0.8230    -0.6270 C.3   1 <1>   0.1400 
  6 C       -3.0580    -0.5250    -2.2970 C.3   1 <1>   0.1400 
  7 C       -0.9890     2.4510     1.0160 C.ar  1 <1>   0.1600 
  8 C       -2.4890     3.5140    -0.4850 C.ar  1 <1>  -0.1500 
  9 C       -4.7280    -0.4530     0.1130 C.3   1 <1>  -0.1600 
 10 C       -3.4550    -1.8170    -1.5820 C.3   1 <1>  -0.1600 
 11 N       -0.8830     3.4980     1.8160 N.ar  1 <1>  -0.6200 
 12 C       -2.3870     4.6150     0.3300 C.ar  1 <1>  -0.1500 
 13 C       -4.7850    -1.6700    -0.8270 C.3   1 <1>   0.4240 
 14 C       -1.5850     4.5590     1.4650 C.ar  1 <1>   0.4100 
 15 O       -5.7480    -1.4040    -1.8220 O.3   1 <1>  -0.5600 
 16 C       -5.1060    -2.9630    -0.0460 C.ar  1 <1>  -0.1430 
 17 N       -1.4580     5.6150     2.2980 N.pl3 1 <1>  -0.9000 
 18 C       -7.0810    -1.6790    -1.5210 C.3   1 <1>   0.1200 
 19 C       -6.2710    -3.6820    -0.2910 C.ar  1 <1>  -0.1430 
 20 C       -4.2310    -3.4310     0.9280 C.ar  1 <1>  -0.1500 
 21 C       -7.2450    -3.1840    -1.3390 C.3   1 <1>  -0.0170 
 22 C       -6.5480    -4.8440     0.4130 C.ar  1 <1>  -0.1500 
 23 C       -4.5070    -4.5880     1.6340 C.ar  1 <1>  -0.1500 
 24 C       -5.6630    -5.3040     1.3830 C.ar  1 <1>   0.0830 
 25 O       -5.8590    -6.4280     2.1160 O.3   1 <1>  -0.3630 
 26 C       -6.9950    -7.2400     1.9240 C.3   1 <1>   0.0400 
 27 H       -5.0640     1.0770    -1.3640 H     1 <1>   0.0800 
 28 H       -4.2520     1.6310     0.0780 H     1 <1>   0.0800 
 29 H       -2.0990    -0.6490    -2.7710 H     1 <1>   0.0800 
 30 H       -3.7770    -0.2910    -3.0630 H     1 <1>   0.0800 
 31 H       -0.4140     1.5790     1.2800 H     1 <1>   0.1500 
 32 H       -3.0970     3.5220    -1.3730 H     1 <1>   0.1500 
 33 H       -5.6770    -0.3140     0.5940 H     1 <1>   0.0800 
 34 H       -4.0070    -0.6330     0.8880 H     1 <1>   0.0800 
 35 H       -2.6660    -2.0730    -0.9010 H     1 <1>   0.0800 
 36 H       -3.5410    -2.6180    -2.2930 H     1 <1>   0.0800 
 37 H       -2.9200     5.5200     0.1100 H     1 <1>   0.1500 
 38 H       -1.5170     6.5610     1.9240 H     1 <1>   0.4000 
 39 H       -0.7460     5.4900     3.0200 H     1 <1>   0.4000 
 40 H       -7.6830    -1.3310    -2.3420 H     1 <1>   0.0800 
 41 H       -7.3610    -1.1480    -0.6280 H     1 <1>   0.0800 
 42 H       -3.3220    -2.9000     1.1490 H     1 <1>   0.1500 
 43 H       -7.0560    -3.6800    -2.2750 H     1 <1>   0.0800 
 44 H       -8.2560    -3.3960    -1.0410 H     1 <1>   0.0800 
 45 H       -7.4520    -5.3780     0.1980 H     1 <1>   0.1500 
 46 H       -3.8250    -4.9450     2.3840 H     1 <1>   0.1500 
 47 H       -6.9300    -8.0710     2.6040 H     1 <1>   0.0800 
 48 H       -7.0010    -7.5980     0.9090 H     1 <1>   0.0800 
 49 H       -7.8770    -6.6620     2.1360 H     1 <1>   0.0800 
@<TRIPOS>BOND
  1   1   2  2   
  2   2   3  am  
  3   2   4  1   
  4   3   5  1   
  5   3   6  1   
  6   4   7  ar  
  7   4   8  ar  
  8   5   9  1   
  9   5  27  1   
 10   5  28  1   
 11   6  10  1   
 12   6  29  1   
 13   6  30  1   
 14   7  11  ar  
 15   7  31  1   
 16   8  12  ar  
 17   8  32  1   
 18   9  13  1   
 19   9  33  1   
 20   9  34  1   
 21  10  13  1   
 22  10  35  1   
 23  10  36  1   
 24  11  14  ar  
 25  12  14  ar  
 26  12  37  1   
 27  13  15  1   
 28  13  16  1   
 29  14  17  1   
 30  15  18  1   
 31  16  19  ar  
 32  16  20  ar  
 33  17  38  1   
 34  17  39  1   
 35  18  21  1   
 36  18  40  1   
 37  18  41  1   
 38  19  21  1   
 39  19  22  ar  
 40  20  23  ar  
 41  20  42  1   
 42  21  43  1   
 43  21  44  1   
 44  22  24  ar  
 45  22  45  1   
 46  23  24  ar  
 47  23  46  1   
 48  24  25  1   
 49  25  26  1   
 50  26  47  1   
 51  26  48  1   
 52  26  49  1   
@<TRIPOS>SUBSTRUCTURE
  1 ****   9 GROUP 4 **** **** 0

# MOE 2024.06 (io_trps.svl 2023.06)
