@<TRIPOS>MOLECULE
NONAME
41 42 1 0 0 
SMALL
USER_CHARGES


@<TRIPOS>ATOM
  1 O       -0.1410     0.6250     0.7270 O.3   1 <1>  -0.5600 
  2 C        1.1720     1.0970     0.7760 C.3   1 <1>   0.1200 
  3 C       -0.7630     0.7590    -0.5140 C.3   1 <1>   0.1200 
  4 C        1.1920     2.6130     0.5210 C.3   1 <1>  -0.0800 
  5 C       -0.8770     2.2460    -0.8690 C.3   1 <1>  -0.1600 
  6 C        0.4960     2.9280    -0.8170 C.3   1 <1>  -0.1600 
  7 C        2.6380     3.1230     0.5570 C.3   1 <1>   0.2090 
  8 N        2.6760     4.5920     0.3800 N.pl3 1 <1>  -0.8690 
  9 C        3.8140     5.3060     0.0920 C.ar  1 <1>   0.4100 
 10 N        4.9220     4.6170    -0.0860 N.ar  1 <1>  -0.6200 
 11 C        3.7960     6.6930    -0.0020 C.ar  1 <1>  -0.1430 
 12 C        6.0020     5.3180    -0.3530 C.ar  1 <1>   0.4770 
 13 C        4.9950     7.3010    -0.2860 C.ar  1 <1>   0.1600 
 14 C        2.4860     7.4620     0.2030 C.3   1 <1>  -0.0170 
 15 N        6.1130     6.6270    -0.4650 N.ar  1 <1>  -0.6200 
 16 C        7.2670     4.5200    -0.5580 C.3   1 <1>  -0.0970 
 17 C        2.5740     8.9820    -0.0010 C.3   1 <1>  -0.1600 
 18 C        1.2110     9.6510     0.2040 C.3   1 <1>  -0.2400 
 19 H        1.7530     0.5670     0.0400 H     1 <1>   0.0800 
 20 H        1.5600     0.8730     1.7550 H     1 <1>   0.0800 
 21 H       -1.7390     0.3110    -0.4420 H     1 <1>   0.0800 
 22 H       -0.1840     0.2240    -1.2490 H     1 <1>   0.0800 
 23 H        0.6510     3.0790     1.3250 H     1 <1>   0.0800 
 24 H       -1.5460     2.7160    -0.1690 H     1 <1>   0.0800 
 25 H       -1.3010     2.3500    -1.8520 H     1 <1>   0.0800 
 26 H        1.1020     2.5670    -1.6300 H     1 <1>   0.0800 
 27 H        0.3780     3.9910    -0.9400 H     1 <1>   0.0800 
 28 H        3.2110     2.6540    -0.2260 H     1 <1>   0.0800 
 29 H        3.0940     2.8760     1.5020 H     1 <1>   0.0800 
 30 H        1.8670     5.0980     0.7380 H     1 <1>   0.4000 
 31 H        5.0680     8.3690    -0.3750 H     1 <1>   0.1500 
 32 H        2.1350     7.2690     1.2020 H     1 <1>   0.0800 
 33 H        1.7550     7.0680    -0.4830 H     1 <1>   0.0800 
 34 H        7.3920     3.8300     0.2550 H     1 <1>   0.0800 
 35 H        8.1210     5.1700    -0.6010 H     1 <1>   0.0800 
 36 H        7.1940     3.9720    -1.4780 H     1 <1>   0.0800 
 37 H        2.9190     9.1920    -0.9990 H     1 <1>   0.0800 
 38 H        3.2760     9.4010     0.7000 H     1 <1>   0.0800 
 39 H        0.4920     9.2690    -0.4990 H     1 <1>   0.0800 
 40 H        1.2980    10.7140     0.0560 H     1 <1>   0.0800 
 41 H        0.8490     9.4750     1.2020 H     1 <1>   0.0800 
@<TRIPOS>BOND
  1   1   2  1   
  2   1   3  1   
  3   2   4  1   
  4   2  19  1   
  5   2  20  1   
  6   3   5  1   
  7   3  21  1   
  8   3  22  1   
  9   4   6  1   
 10   4   7  1   
 11   4  23  1   
 12   5   6  1   
 13   5  24  1   
 14   5  25  1   
 15   6  26  1   
 16   6  27  1   
 17   7   8  1   
 18   7  28  1   
 19   7  29  1   
 20   8   9  1   
 21   8  30  1   
 22   9  10  ar  
 23   9  11  ar  
 24  10  12  ar  
 25  11  13  ar  
 26  11  14  1   
 27  12  15  ar  
 28  12  16  1   
 29  13  15  ar  
 30  13  31  1   
 31  14  17  1   
 32  14  32  1   
 33  14  33  1   
 34  16  34  1   
 35  16  35  1   
 36  16  36  1   
 37  17  18  1   
 38  17  37  1   
 39  17  38  1   
 40  18  39  1   
 41  18  40  1   
 42  18  41  1   
@<TRIPOS>SUBSTRUCTURE
  1 ****   8 GROUP 4 **** **** 0

# MOE 2024.06 (io_trps.svl 2023.06)
