@<TRIPOS>MOLECULE
NONAME
51 53 1 0 0 
SMALL
USER_CHARGES


@<TRIPOS>ATOM
  1 S       -0.2580     0.8560    -0.7150 S.3   1 <1>  -0.0800 
  2 C       -1.6630     0.2160     0.1460 C.2   1 <1>  -0.0450 
  3 C        0.1530     1.9460     0.5930 C.2   1 <1>  -0.1400 
  4 C       -2.4660    -0.8030    -0.4880 C.2   1 <1>   0.7150 
  5 C       -1.7500     0.8480     1.3460 C.2   1 <1>  -0.1500 
  6 C       -0.7330     1.8140     1.5980 C.2   1 <1>  -0.1500 
  7 C        1.3790     2.8170     0.3860 C.3   1 <1>   0.0200 
  8 O       -2.3790    -1.0090    -1.6860 O.2   1 <1>  -0.5700 
  9 N       -3.3500    -1.5680     0.2520 N.am  1 <1>  -0.6600 
 10 C        1.6510     3.7300     1.5850 C.3   1 <1>  -0.2400 
 11 C       -4.5200    -2.2250    -0.4070 C.3   1 <1>   0.2200 
 12 C       -2.8610    -2.2020     1.5140 C.3   1 <1>   0.0600 
 13 C       -5.3190    -1.2560    -1.2790 C.3   1 <1>  -0.1600 
 14 C       -5.5730    -2.7080     0.5930 C.3   1 <1>  -0.1600 
 15 C       -6.7120    -1.8830    -1.4170 C.3   1 <1>  -0.0800 
 16 C       -6.8840    -2.8040    -0.2010 C.3   1 <1>  -0.0800 
 17 C       -7.8490    -0.8570    -1.3580 C.3   1 <1>  -0.1600 
 18 C       -8.1090    -2.2880     0.5660 C.3   1 <1>  -0.1600 
 19 C       -8.2570    -0.8380     0.1140 C.3   1 <1>   0.4230 
 20 N       -9.6170    -0.2750     0.3790 N.4   1 <1>  -0.9590 
 21 C      -10.7420    -0.9390    -0.3590 C.3   1 <1>   0.2630 
 22 C       -9.6330     1.1980     0.1190 C.3   1 <1>   0.2630 
 23 H       -2.5170     0.6640     2.0760 H     1 <1>   0.1500 
 24 H       -0.7140     2.3660     2.5210 H     1 <1>   0.1500 
 25 H        2.2330     2.1840     0.2180 H     1 <1>   0.0800 
 26 H        1.2340     3.4180    -0.4950 H     1 <1>   0.0800 
 27 H        1.8190     3.1420     2.4690 H     1 <1>   0.0800 
 28 H        0.8140     4.3840     1.7510 H     1 <1>   0.0800 
 29 H        2.5250     4.3290     1.3990 H     1 <1>   0.0800 
 30 H       -4.1790    -3.0530    -1.0080 H     1 <1>   0.0800 
 31 H       -3.4580    -1.8730     2.3460 H     1 <1>   0.0800 
 32 H       -1.8340    -1.9390     1.7010 H     1 <1>   0.0800 
 33 H       -2.9190    -3.2730     1.4340 H     1 <1>   0.0800 
 34 H       -5.3750    -0.3030    -0.7830 H     1 <1>   0.0800 
 35 H       -4.8640    -1.1290    -2.2460 H     1 <1>   0.0800 
 36 H       -5.3080    -3.6620     1.0130 H     1 <1>   0.0800 
 37 H       -5.6700    -1.9800     1.3790 H     1 <1>   0.0800 
 38 H       -6.7560    -2.4570    -2.3290 H     1 <1>   0.0800 
 39 H       -7.0350    -3.8220    -0.5260 H     1 <1>   0.0800 
 40 H       -8.6480    -1.2160    -1.9800 H     1 <1>   0.0800 
 41 H       -7.5310     0.1100    -1.7060 H     1 <1>   0.0800 
 42 H       -7.9800    -2.3670     1.6310 H     1 <1>   0.0800 
 43 H       -8.9560    -2.8760     0.2670 H     1 <1>   0.0800 
 44 H       -7.5210    -0.2580     0.6480 H     1 <1>   0.0800 
 45 H       -9.7880    -0.4140     1.3860 H     1 <1>   0.4500 
 46 H      -10.6270    -0.8060    -1.4220 H     1 <1>   0.0800 
 47 H      -11.6850    -0.5110    -0.0620 H     1 <1>   0.0800 
 48 H      -10.7680    -1.9950    -0.1440 H     1 <1>   0.0800 
 49 H       -9.4590     1.3950    -0.9270 H     1 <1>   0.0800 
 50 H       -8.8640     1.6890     0.6940 H     1 <1>   0.0800 
 51 H      -10.5870     1.6170     0.3950 H     1 <1>   0.0800 
@<TRIPOS>BOND
  1   1   2  1   
  2   1   3  1   
  3   2   4  1   
  4   2   5  2   
  5   3   6  2   
  6   3   7  1   
  7   4   8  2   
  8   4   9  am  
  9   5   6  1   
 10   5  23  1   
 11   6  24  1   
 12   7  10  1   
 13   7  25  1   
 14   7  26  1   
 15   9  11  1   
 16   9  12  1   
 17  10  27  1   
 18  10  28  1   
 19  10  29  1   
 20  11  13  1   
 21  11  14  1   
 22  11  30  1   
 23  12  31  1   
 24  12  32  1   
 25  12  33  1   
 26  13  15  1   
 27  13  34  1   
 28  13  35  1   
 29  14  16  1   
 30  14  36  1   
 31  14  37  1   
 32  15  16  1   
 33  15  17  1   
 34  15  38  1   
 35  16  18  1   
 36  16  39  1   
 37  17  19  1   
 38  17  40  1   
 39  17  41  1   
 40  18  19  1   
 41  18  42  1   
 42  18  43  1   
 43  19  20  1   
 44  19  44  1   
 45  20  21  1   
 46  20  22  1   
 47  20  45  1   
 48  21  46  1   
 49  21  47  1   
 50  21  48  1   
 51  22  49  1   
 52  22  50  1   
 53  22  51  1   
@<TRIPOS>SUBSTRUCTURE
  1 ****   9 GROUP 4 **** **** 0

# MOE 2024.06 (io_trps.svl 2023.06)
