@<TRIPOS>MOLECULE
NONAME
40 42 1 0 0 
SMALL
USER_CHARGES


@<TRIPOS>ATOM
  1 F       -2.0050     0.3140     3.0990 F     1 <1>  -0.1900 
  2 C       -2.4500    -0.3550     2.0630 C.ar  1 <1>   0.1900 
  3 C       -2.4640    -1.7380     2.1210 C.ar  1 <1>   0.1900 
  4 C       -2.9040     0.3270     0.9430 C.ar  1 <1>  -0.1440 
  5 F       -2.0180    -2.3610     3.1840 F     1 <1>  -0.1900 
  6 C       -2.9470    -2.4890     1.0690 C.ar  1 <1>  -0.1500 
  7 C       -3.4180    -0.4300    -0.1150 C.ar  1 <1>   0.0830 
  8 C       -2.8660     1.8580     0.8910 C.3   1 <1>   0.2540 
  9 C       -3.4280    -1.8270    -0.0490 C.ar  1 <1>  -0.1500 
 10 O       -3.9100     0.2420    -1.1900 O.3   1 <1>  -0.3630 
 11 N       -1.6060     2.4060     0.3410 N.3   1 <1>  -0.8100 
 12 C       -4.4380    -0.4230    -2.3170 C.3   1 <1>   0.0400 
 13 C       -0.4270     2.1140     1.1960 C.3   1 <1>   0.1100 
 14 C       -1.4320     2.0790    -1.0900 C.3   1 <1>   0.1100 
 15 C        0.8730     2.8920     0.8590 C.3   1 <1>   0.2200 
 16 C       -0.3270     2.8840    -1.8050 C.3   1 <1>  -0.0190 
 17 N        0.6190     4.1480     0.1060 N.am  1 <1>  -0.7300 
 18 C        1.8950     2.0130     0.1060 C.3   1 <1>   0.1200 
 19 C        0.0180     4.1830    -1.1010 C.2   1 <1>   0.5690 
 20 C        0.9440     2.0600    -2.0720 C.3   1 <1>   0.1200 
 21 O        1.3360     1.3060    -0.9650 O.3   1 <1>  -0.5600 
 22 O       -0.2140     5.2390    -1.6370 O.2   1 <1>  -0.5700 
 23 H       -2.9490    -3.5630     1.1290 H     1 <1>   0.1500 
 24 H       -3.0110     2.2550     1.8800 H     1 <1>   0.0800 
 25 H       -3.6880     2.2190     0.2970 H     1 <1>   0.0800 
 26 H       -3.8090    -2.4200    -0.8590 H     1 <1>   0.1500 
 27 H       -4.7520     0.3220    -3.0260 H     1 <1>   0.0800 
 28 H       -5.2840    -1.0130    -2.0110 H     1 <1>   0.0800 
 29 H       -3.6710    -1.0390    -2.7510 H     1 <1>   0.0800 
 30 H       -0.6840     2.3640     2.2100 H     1 <1>   0.0800 
 31 H       -0.2200     1.0580     1.1750 H     1 <1>   0.0800 
 32 H       -1.2490     1.0240    -1.2040 H     1 <1>   0.0800 
 33 H       -2.3590     2.3010    -1.5910 H     1 <1>   0.0800 
 34 H        1.3370     3.1650     1.7900 H     1 <1>   0.0800 
 35 H       -0.7100     3.1550    -2.7710 H     1 <1>   0.0800 
 36 H        0.6750     5.0320     0.6100 H     1 <1>   0.3700 
 37 H        2.2830     1.2750     0.7850 H     1 <1>   0.0800 
 38 H        2.7190     2.6050    -0.2540 H     1 <1>   0.0800 
 39 H        1.7610     2.6930    -2.3750 H     1 <1>   0.0800 
 40 H        0.7470     1.3600    -2.8640 H     1 <1>   0.0800 
@<TRIPOS>BOND
  1   1   2  1   
  2   2   3  ar  
  3   2   4  ar  
  4   3   5  1   
  5   3   6  ar  
  6   4   7  ar  
  7   4   8  1   
  8   6   9  ar  
  9   6  23  1   
 10   7   9  ar  
 11   7  10  1   
 12   8  11  1   
 13   8  24  1   
 14   8  25  1   
 15   9  26  1   
 16  10  12  1   
 17  11  13  1   
 18  11  14  1   
 19  12  27  1   
 20  12  28  1   
 21  12  29  1   
 22  13  15  1   
 23  13  30  1   
 24  13  31  1   
 25  14  16  1   
 26  14  32  1   
 27  14  33  1   
 28  15  17  1   
 29  15  18  1   
 30  15  34  1   
 31  16  19  1   
 32  16  20  1   
 33  16  35  1   
 34  17  19  am  
 35  17  36  1   
 36  18  21  1   
 37  18  37  1   
 38  18  38  1   
 39  19  22  2   
 40  20  21  1   
 41  20  39  1   
 42  20  40  1   
@<TRIPOS>SUBSTRUCTURE
  1 ****  11 GROUP 4 **** **** 0

# MOE 2024.06 (io_trps.svl 2023.06)
