@<TRIPOS>MOLECULE
NONAME
29 30 1 0 0 
SMALL
USER_CHARGES


@<TRIPOS>ATOM
  1 O        5.2110    -1.8960    -1.0550 O.3   1 <1>  -0.5600 
  2 C        5.7440    -0.6590    -1.4060 C.3   1 <1>   0.1200 
  3 C        6.2140    -2.6240    -0.4180 C.3   1 <1>   0.1200 
  4 C        6.4790    -0.2220    -0.1370 C.3   1 <1>   0.1440 
  5 C        7.0560    -1.5740     0.3150 C.3   1 <1>  -0.1600 
  6 C        7.5540     0.8450    -0.3660 C.ar  1 <1>  -0.1440 
  7 C        5.4590     0.3610     0.8720 C.3   1 <1>   0.3430 
  8 C        7.5010     1.7110    -1.4530 C.ar  1 <1>  -0.1500 
  9 C        8.5970     0.9840     0.5440 C.ar  1 <1>  -0.1500 
 10 N        4.3390    -0.5780     1.1830 N.4   1 <1>  -0.8530 
 11 C        8.4700     2.6840    -1.6280 C.ar  1 <1>  -0.1500 
 12 C        9.5640     1.9570     0.3690 C.ar  1 <1>  -0.1500 
 13 C        9.5020     2.8080    -0.7180 C.ar  1 <1>  -0.1500 
 14 H        4.9530     0.0080    -1.7030 H     1 <1>   0.0800 
 15 H        6.4270    -0.8070    -2.2280 H     1 <1>   0.0800 
 16 H        6.7930    -3.1330    -1.1730 H     1 <1>   0.0800 
 17 H        5.7660    -3.3450     0.2440 H     1 <1>   0.0800 
 18 H        8.0780    -1.6840    -0.0090 H     1 <1>   0.0800 
 19 H        7.0280    -1.7110     1.3810 H     1 <1>   0.0800 
 20 H        5.0560     1.2650     0.4440 H     1 <1>   0.0800 
 21 H        5.9730     0.6350     1.7800 H     1 <1>   0.0800 
 22 H        6.7160     1.6570    -2.1860 H     1 <1>   0.1500 
 23 H        8.6790     0.3420     1.4030 H     1 <1>   0.1500 
 24 H        4.2080    -1.1890     0.3510 H     1 <1>   0.4500 
 25 H        3.4580    -0.0930     1.3800 H     1 <1>   0.4500 
 26 H        4.5670    -1.1970     1.9670 H     1 <1>   0.4500 
 27 H        8.4230     3.3480    -2.4740 H     1 <1>   0.1500 
 28 H       10.3700     2.0540     1.0770 H     1 <1>   0.1500 
 29 H       10.2560     3.5650    -0.8560 H     1 <1>   0.1500 
@<TRIPOS>BOND
  1   1   2  1   
  2   1   3  1   
  3   2   4  1   
  4   2  14  1   
  5   2  15  1   
  6   3   5  1   
  7   3  16  1   
  8   3  17  1   
  9   4   5  1   
 10   4   6  1   
 11   4   7  1   
 12   5  18  1   
 13   5  19  1   
 14   6   8  ar  
 15   6   9  ar  
 16   7  10  1   
 17   7  20  1   
 18   7  21  1   
 19   8  11  ar  
 20   8  22  1   
 21   9  12  ar  
 22   9  23  1   
 23  10  24  1   
 24  10  25  1   
 25  10  26  1   
 26  11  13  ar  
 27  11  27  1   
 28  12  13  ar  
 29  12  28  1   
 30  13  29  1   
@<TRIPOS>SUBSTRUCTURE
  1 ****   6 GROUP 4 **** **** 0

# MOE 2024.06 (io_trps.svl 2023.06)
