@<TRIPOS>MOLECULE
NONAME
58 60 1 0 0 
SMALL
USER_CHARGES


@<TRIPOS>ATOM
  1 O        0.2920    -1.5060    -1.7170 O.3   1 <1>  -0.6800 
  2 C        0.1130    -2.1200    -0.4850 C.3   1 <1>   0.1200 
  3 C        1.4020    -2.0540     0.3850 C.3   1 <1>   0.0000 
  4 C        2.6930    -2.4870    -0.3710 C.3   1 <1>   0.4230 
  5 C        1.5860    -0.6050     0.9160 C.3   1 <1>  -0.1600 
  6 C        1.2110    -2.9970     1.6070 C.3   1 <1>  -0.1600 
  7 N        2.6330    -3.9180    -0.9060 N.4   1 <1>  -0.9590 
  8 C        3.1810    -1.4060    -1.3890 C.3   1 <1>   0.3430 
  9 C        1.9920     0.4070    -0.1600 C.3   1 <1>   0.3430 
 10 C        1.8430    -4.3930     1.4220 C.3   1 <1>  -0.1600 
 11 C        1.8450    -4.8580    -0.0350 C.3   1 <1>   0.3430 
 12 C        2.1440    -4.0470    -2.3220 C.3   1 <1>   0.2630 
 13 N        3.2720    -0.0290    -0.7900 N.4   1 <1>  -0.9590 
 14 C        3.7230     0.9910    -1.7780 C.3   1 <1>   0.4810 
 15 C        4.2070     2.1940    -0.9910 C.2   1 <1>  -0.1670 
 16 C        5.2440     1.8680    -0.0380 C.ar  1 <1>   0.0280 
 17 C        3.6660     3.4090    -1.1950 C.2   1 <1>  -0.2880 
 18 C        5.0190     2.0100     1.3280 C.ar  1 <1>  -0.1500 
 19 C        6.4690     1.3530    -0.4520 C.ar  1 <1>  -0.1500 
 20 C        4.0540     4.6990    -0.4900 C.3   1 <1>  -0.0220 
 21 C        5.9710     1.6240     2.2520 C.ar  1 <1>  -0.1500 
 22 C        7.4250     0.9640     0.4680 C.ar  1 <1>  -0.1500 
 23 C        2.8790     5.2200     0.3380 C.3   1 <1>  -0.2400 
 24 C        7.1750     1.0940     1.8230 C.ar  1 <1>  -0.1500 
 25 H       -0.5750    -1.4080    -2.1760 H     1 <1>   0.4000 
 26 H       -0.7040    -1.6260     0.0170 H     1 <1>   0.0800 
 27 H       -0.1870    -3.1370    -0.6710 H     1 <1>   0.0800 
 28 H        3.4560    -2.4990     0.3900 H     1 <1>   0.0800 
 29 H        2.3370    -0.5780     1.6880 H     1 <1>   0.0800 
 30 H        0.6690    -0.2670     1.3680 H     1 <1>   0.0800 
 31 H        1.6440    -2.5710     2.4970 H     1 <1>   0.0800 
 32 H        0.1600    -3.1100     1.8200 H     1 <1>   0.0800 
 33 H        3.5980    -4.2830    -0.8880 H     1 <1>   0.4500 
 34 H        2.4970    -1.3750    -2.2200 H     1 <1>   0.0800 
 35 H        4.1500    -1.6920    -1.7610 H     1 <1>   0.0800 
 36 H        2.1170     1.3810     0.2900 H     1 <1>   0.0800 
 37 H        1.2180     0.4830    -0.9060 H     1 <1>   0.0800 
 38 H        1.2980    -5.1060     2.0170 H     1 <1>   0.0800 
 39 H        2.8550    -4.3940     1.7900 H     1 <1>   0.0800 
 40 H        0.8250    -4.9060    -0.3790 H     1 <1>   0.0800 
 41 H        2.2590    -5.8520    -0.1000 H     1 <1>   0.0800 
 42 H        1.1360    -3.6760    -2.4100 H     1 <1>   0.0800 
 43 H        2.1520    -5.0810    -2.6270 H     1 <1>   0.0800 
 44 H        2.7750    -3.4940    -2.9980 H     1 <1>   0.0800 
 45 H        4.0010     0.0070    -0.0580 H     1 <1>   0.4500 
 46 H        4.5380     0.6070    -2.3690 H     1 <1>   0.0800 
 47 H        2.9160     1.2690    -2.4370 H     1 <1>   0.0800 
 48 H        2.8830     3.5820    -1.9160 H     1 <1>   0.1500 
 49 H        4.0930     2.4350     1.6730 H     1 <1>   0.1500 
 50 H        6.6900     1.2660    -1.5020 H     1 <1>   0.1500 
 51 H        4.9050     4.5490     0.1520 H     1 <1>   0.0800 
 52 H        4.3310     5.4370    -1.2240 H     1 <1>   0.0800 
 53 H        5.7860     1.7430     3.3070 H     1 <1>   0.1500 
 54 H        8.3710     0.5700     0.1360 H     1 <1>   0.1500 
 55 H        2.5960     4.4990     1.0830 H     1 <1>   0.0800 
 56 H        2.0330     5.4210    -0.2940 H     1 <1>   0.0800 
 57 H        3.1590     6.1330     0.8340 H     1 <1>   0.0800 
 58 H        7.9210     0.7960     2.5410 H     1 <1>   0.1500 
@<TRIPOS>BOND
  1   1   2  1   
  2   1  25  1   
  3   2   3  1   
  4   2  26  1   
  5   2  27  1   
  6   3   4  1   
  7   3   5  1   
  8   3   6  1   
  9   4   7  1   
 10   4   8  1   
 11   4  28  1   
 12   5   9  1   
 13   5  29  1   
 14   5  30  1   
 15   6  10  1   
 16   6  31  1   
 17   6  32  1   
 18   7  11  1   
 19   7  12  1   
 20   7  33  1   
 21   8  13  1   
 22   8  34  1   
 23   8  35  1   
 24   9  13  1   
 25   9  36  1   
 26   9  37  1   
 27  10  11  1   
 28  10  38  1   
 29  10  39  1   
 30  11  40  1   
 31  11  41  1   
 32  12  42  1   
 33  12  43  1   
 34  12  44  1   
 35  13  14  1   
 36  13  45  1   
 37  14  15  1   
 38  14  46  1   
 39  14  47  1   
 40  15  16  1   
 41  15  17  2   
 42  16  18  ar  
 43  16  19  ar  
 44  17  20  1   
 45  17  48  1   
 46  18  21  ar  
 47  18  49  1   
 48  19  22  ar  
 49  19  50  1   
 50  20  23  1   
 51  20  51  1   
 52  20  52  1   
 53  21  24  ar  
 54  21  53  1   
 55  22  24  ar  
 56  22  54  1   
 57  23  55  1   
 58  23  56  1   
 59  23  57  1   
 60  24  58  1   
@<TRIPOS>SUBSTRUCTURE
  1 ****  13 GROUP 4 **** **** 0

# MOE 2024.06 (io_trps.svl 2023.06)
