@<TRIPOS>MOLECULE
NONAME
52 54 1 0 0 
SMALL
USER_CHARGES


@<TRIPOS>ATOM
  1 O        2.0800    -0.6790     2.6790 O.2   1 <1>  -0.5700 
  2 C        2.5280    -1.1560     1.6580 C.2   1 <1>   0.5690 
  3 N        3.2810    -0.3850     0.8010 N.am  1 <1>  -0.6600 
  4 C        2.2630    -2.6370     1.3760 C.3   1 <1>   0.2370 
  5 C        3.8490    -0.8320    -0.5170 C.3   1 <1>   0.1400 
  6 C        3.5600     1.0430     1.1090 C.3   1 <1>   0.1400 
  7 N        1.2060    -2.7440     0.3500 N.pl3 1 <1>   0.3140 
  8 C        1.8900    -3.4740     2.6180 C.3   1 <1>  -0.2400 
  9 C        5.3680    -1.0580    -0.4540 C.3   1 <1>   0.1400 
 10 C        4.8200     1.1840     1.9720 C.3   1 <1>  -0.1600 
 11 N        1.3990    -3.4450    -0.7890 N.2   1 <1>  -0.7070 
 12 C       -0.0290    -2.2020     0.3810 C.2   1 <1>  -0.3020 
 13 N        6.1040     0.1260     0.0970 N.am  1 <1>  -0.6600 
 14 C        5.9940     0.2770     1.5760 C.3   1 <1>   0.1400 
 15 C        0.2830    -3.3280    -1.4430 C.2   1 <1>   0.1390 
 16 C       -0.6510    -2.5580    -0.7600 C.2   1 <1>  -0.1810 
 17 C        6.7770     0.9840    -0.7340 C.2   1 <1>   0.5690 
 18 C       -2.0520    -2.2100    -1.2170 C.3   1 <1>  -0.0590 
 19 O        6.7510     0.8450    -1.9350 O.2   1 <1>  -0.5700 
 20 C        7.5700     2.1460    -0.1520 C.3   1 <1>  -0.0990 
 21 C        8.2830     3.0010    -1.2090 C.3   1 <1>   0.0210 
 22 C        9.0460     4.1300    -0.5440 C.2   1 <1>  -0.1810 
 23 C        8.5050     5.2870     0.0110 C.2   1 <1>   0.1390 
 24 C       10.3760     4.2490    -0.3510 C.2   1 <1>  -0.3020 
 25 N        9.4150     6.0640     0.5140 N.2   1 <1>  -0.7070 
 26 N       10.5750     5.4200     0.2850 N.pl3 1 <1>   0.3000 
 27 H        3.1580    -3.0570     0.9610 H     1 <1>   0.0800 
 28 H        3.6430    -0.0850    -1.2640 H     1 <1>   0.0800 
 29 H        3.3790    -1.7360    -0.8530 H     1 <1>   0.0800 
 30 H        2.7190     1.4800     1.6220 H     1 <1>   0.0800 
 31 H        3.6940     1.5880     0.1900 H     1 <1>   0.0800 
 32 H        0.9830    -3.1040     3.0630 H     1 <1>   0.0800 
 33 H        2.6760    -3.4100     3.3490 H     1 <1>   0.0800 
 34 H        1.7580    -4.5050     2.3430 H     1 <1>   0.0800 
 35 H        5.7220    -1.2800    -1.4460 H     1 <1>   0.0800 
 36 H        5.5750    -1.9210     0.1520 H     1 <1>   0.0800 
 37 H        4.5580     0.9720     2.9930 H     1 <1>   0.0800 
 38 H        5.1370     2.2100     1.9440 H     1 <1>   0.0800 
 39 H       -0.3830    -1.6030     1.2020 H     1 <1>   0.1500 
 40 H        5.8400    -0.6960     2.0130 H     1 <1>   0.0800 
 41 H        6.9110     0.6630     1.9860 H     1 <1>   0.0800 
 42 H        0.1120    -3.7810    -2.4060 H     1 <1>   0.1500 
 43 H       -2.5410    -1.6000    -0.4790 H     1 <1>   0.0800 
 44 H       -2.6250    -3.1080    -1.3610 H     1 <1>   0.0800 
 45 H       -2.0110    -1.6670    -2.1440 H     1 <1>   0.0800 
 46 H        8.3090     1.7530     0.5210 H     1 <1>   0.0800 
 47 H        6.9000     2.7730     0.4040 H     1 <1>   0.0800 
 48 H        7.5650     3.4110    -1.8990 H     1 <1>   0.0800 
 49 H        8.9670     2.3870    -1.7690 H     1 <1>   0.0800 
 50 H        7.4540     5.5220     0.0270 H     1 <1>   0.1500 
 51 H       11.1740     3.5840    -0.6250 H     1 <1>   0.1500 
 52 H       11.4810     5.8080     0.5750 H     1 <1>   0.2700 
@<TRIPOS>BOND
  1   1   2  2   
  2   2   3  am  
  3   2   4  1   
  4   3   5  1   
  5   3   6  1   
  6   4   7  1   
  7   4   8  1   
  8   4  27  1   
  9   5   9  1   
 10   5  28  1   
 11   5  29  1   
 12   6  10  1   
 13   6  30  1   
 14   6  31  1   
 15   7  11  1   
 16   7  12  1   
 17   8  32  1   
 18   8  33  1   
 19   8  34  1   
 20   9  13  1   
 21   9  35  1   
 22   9  36  1   
 23  10  14  1   
 24  10  37  1   
 25  10  38  1   
 26  11  15  2   
 27  12  16  2   
 28  12  39  1   
 29  13  14  1   
 30  13  17  am  
 31  14  40  1   
 32  14  41  1   
 33  15  16  1   
 34  15  42  1   
 35  16  18  1   
 36  17  19  2   
 37  17  20  1   
 38  18  43  1   
 39  18  44  1   
 40  18  45  1   
 41  20  21  1   
 42  20  46  1   
 43  20  47  1   
 44  21  22  1   
 45  21  48  1   
 46  21  49  1   
 47  22  23  1   
 48  22  24  2   
 49  23  25  2   
 50  23  50  1   
 51  24  26  1   
 52  24  51  1   
 53  25  26  1   
 54  26  52  1   
@<TRIPOS>SUBSTRUCTURE
  1 ****  13 GROUP 4 **** **** 0

# MOE 2024.06 (io_trps.svl 2023.06)
