@<TRIPOS>MOLECULE
NONAME
59 62 1 0 0 
SMALL
USER_CHARGES


@<TRIPOS>ATOM
  1 O        1.5270    -0.0130    -2.9000 O.2   1 <1>  -0.5700 
  2 C        1.2850    -0.6300    -1.8900 C.2   1 <1>   0.5690 
  3 N        1.3400    -0.0610    -0.6580 N.am  1 <1>  -0.7300 
  4 C        0.9090    -2.1120    -1.9940 C.3   1 <1>   0.1710 
  5 C        1.7380     1.3310    -0.3540 C.3   1 <1>   0.1400 
  6 N        0.0300    -2.6180    -0.8970 N.3   1 <1>  -0.8100 
  7 C        2.8810     1.3570     0.6740 C.3   1 <1>  -0.0800 
  8 C       -1.3120    -2.0120    -0.9270 C.3   1 <1>   0.1100 
  9 C       -0.1750    -4.0760    -0.9710 C.3   1 <1>   0.1100 
 10 C        3.2020     2.8130     1.0600 C.3   1 <1>  -0.1600 
 11 C        4.1460     0.6540     0.1430 C.3   1 <1>  -0.1600 
 12 C       -2.1760    -2.9910    -0.1440 C.3   1 <1>   0.2000 
 13 C       -1.6550    -4.3410    -0.6430 C.3   1 <1>  -0.0800 
 14 C        4.3560     2.8890     2.0690 C.3   1 <1>  -0.1600 
 15 C        5.3030     0.7330     1.1480 C.3   1 <1>  -0.1600 
 16 O       -1.8620    -2.8340     1.1940 O.3   1 <1>  -0.6800 
 17 C       -1.8780    -5.5250     0.3230 C.3   1 <1>  -0.0170 
 18 C        5.6080     2.1860     1.5320 C.3   1 <1>  -0.1600 
 19 C       -1.4570    -6.9090    -0.1870 C.ar  1 <1>  -0.1440 
 20 C       -1.3650    -7.9970     0.7180 C.ar  1 <1>   0.0000 
 21 C       -1.1640    -7.1720    -1.4970 C.ar  1 <1>  -0.1500 
 22 C       -0.9450    -9.2510     0.2120 C.ar  1 <1>   0.3100 
 23 C       -1.6730    -7.9160     2.0980 C.ar  1 <1>  -0.1500 
 24 C       -0.7670    -8.4530    -1.8950 C.ar  1 <1>   0.1600 
 25 N       -0.6480    -9.4620    -1.0940 N.ar  1 <1>  -0.6200 
 26 C       -0.8310   -10.3400     1.0910 C.ar  1 <1>  -0.1500 
 27 C       -1.5550    -8.9970     2.9280 C.ar  1 <1>  -0.1500 
 28 C       -1.1260   -10.2260     2.4220 C.ar  1 <1>  -0.1500 
 29 H        1.0800    -0.6570     0.1320 H     1 <1>   0.3700 
 30 H        1.8270    -2.6710    -1.9880 H     1 <1>   0.0800 
 31 H        0.4330    -2.2720    -2.9450 H     1 <1>   0.0800 
 32 H        2.0500     1.8240    -1.2590 H     1 <1>   0.0800 
 33 H        0.8830     1.8570     0.0360 H     1 <1>   0.0800 
 34 H        2.5470     0.8470     1.5610 H     1 <1>   0.0800 
 35 H       -1.3210    -1.0290    -0.4870 H     1 <1>   0.0800 
 36 H       -1.6710    -1.9510    -1.9410 H     1 <1>   0.0800 
 37 H        0.0570    -4.4520    -1.9530 H     1 <1>   0.0800 
 38 H        0.4720    -4.5570    -0.2560 H     1 <1>   0.0800 
 39 H        3.4730     3.3660     0.1760 H     1 <1>   0.0800 
 40 H        2.3300     3.2780     1.4860 H     1 <1>   0.0800 
 41 H        3.9340    -0.3810    -0.0620 H     1 <1>   0.0800 
 42 H        4.4480     1.1140    -0.7830 H     1 <1>   0.0800 
 43 H       -3.2350    -2.8500    -0.2790 H     1 <1>   0.0800 
 44 H       -2.1710    -4.5450    -1.5630 H     1 <1>   0.0800 
 45 H        4.5840     3.9200     2.2780 H     1 <1>   0.0800 
 46 H        4.0540     2.4240     2.9920 H     1 <1>   0.0800 
 47 H        5.0430     0.1780     2.0340 H     1 <1>   0.0800 
 48 H        6.1810     0.2810     0.7220 H     1 <1>   0.0800 
 49 H       -0.8840    -2.7710     1.2390 H     1 <1>   0.4000 
 50 H       -2.9210    -5.5640     0.5870 H     1 <1>   0.0800 
 51 H       -1.3250    -5.3200     1.2220 H     1 <1>   0.0800 
 52 H        6.3830     2.2070     2.2790 H     1 <1>   0.0800 
 53 H        5.9700     2.7140     0.6660 H     1 <1>   0.0800 
 54 H       -1.2240    -6.4290    -2.2670 H     1 <1>   0.1500 
 55 H       -2.0140    -6.9860     2.5130 H     1 <1>   0.1500 
 56 H       -0.5440    -8.6100    -2.9370 H     1 <1>   0.1500 
 57 H       -0.5030   -11.2750     0.6780 H     1 <1>   0.1500 
 58 H       -1.7910    -8.9170     3.9750 H     1 <1>   0.1500 
 59 H       -1.0350   -11.0690     3.0850 H     1 <1>   0.1500 
@<TRIPOS>BOND
  1   1   2  2   
  2   2   3  am  
  3   2   4  1   
  4   3   5  1   
  5   3  29  1   
  6   4   6  1   
  7   4  30  1   
  8   4  31  1   
  9   5   7  1   
 10   5  32  1   
 11   5  33  1   
 12   6   8  1   
 13   6   9  1   
 14   7  10  1   
 15   7  11  1   
 16   7  34  1   
 17   8  12  1   
 18   8  35  1   
 19   8  36  1   
 20   9  13  1   
 21   9  37  1   
 22   9  38  1   
 23  10  14  1   
 24  10  39  1   
 25  10  40  1   
 26  11  15  1   
 27  11  41  1   
 28  11  42  1   
 29  12  13  1   
 30  12  16  1   
 31  12  43  1   
 32  13  17  1   
 33  13  44  1   
 34  14  18  1   
 35  14  45  1   
 36  14  46  1   
 37  15  18  1   
 38  15  47  1   
 39  15  48  1   
 40  16  49  1   
 41  17  19  1   
 42  17  50  1   
 43  17  51  1   
 44  18  52  1   
 45  18  53  1   
 46  19  20  ar  
 47  19  21  ar  
 48  20  22  ar  
 49  20  23  ar  
 50  21  24  ar  
 51  21  54  1   
 52  22  25  ar  
 53  22  26  ar  
 54  23  27  ar  
 55  23  55  1   
 56  24  25  ar  
 57  24  56  1   
 58  26  28  ar  
 59  26  57  1   
 60  27  28  ar  
 61  27  58  1   
 62  28  59  1   
@<TRIPOS>SUBSTRUCTURE
  1 ****   9 GROUP 4 **** **** 0

# MOE 2024.06 (io_trps.svl 2023.06)
