@<TRIPOS>MOLECULE
NONAME
52 54 1 0 0 
SMALL
USER_CHARGES


@<TRIPOS>ATOM
  1 O       -3.9080    -2.6650    -3.0860 O.2   1 <1>  -0.5700 
  2 C       -3.4010    -2.4620    -2.0060 C.2   1 <1>   0.5690 
  3 N       -3.3000    -1.1990    -1.4820 N.am  1 <1>  -0.6600 
  4 C       -2.8160    -3.6530    -1.2600 C.3   1 <1>  -0.0190 
  5 C       -2.5640    -0.9330    -0.2050 C.3   1 <1>   0.2200 
  6 C       -4.1010    -0.0660    -2.0180 C.3   1 <1>   0.0600 
  7 C       -1.2860    -3.5330    -1.2150 C.3   1 <1>   0.1200 
  8 C       -3.4310    -3.9080     0.1350 C.3   1 <1>   0.1400 
  9 C       -1.0790    -1.3330    -0.3400 C.3   1 <1>   0.1200 
 10 C       -3.2420    -1.5780     1.0310 C.3   1 <1>   0.1400 
 11 O       -0.8570    -2.7060    -0.1740 O.3   1 <1>  -0.5600 
 12 N       -4.1530    -2.7200     0.6890 N.am  1 <1>  -0.6600 
 13 C       -5.5290    -2.5390     0.6910 C.2   1 <1>   0.5690 
 14 O       -5.9840    -1.5040     1.1380 O.2   1 <1>  -0.5700 
 15 C       -6.5520    -3.6100     0.1780 C.3   1 <1>   0.3410 
 16 O       -6.0640    -4.1800    -1.0430 O.3   1 <1>  -0.3630 
 17 C       -6.7360    -4.7010     1.2490 C.3   1 <1>  -0.2400 
 18 C       -7.9290    -2.9790    -0.1190 C.3   1 <1>  -0.2400 
 19 C       -6.6910    -5.1980    -1.6930 C.ar  1 <1>   0.0820 
 20 C       -6.3500    -6.5340    -1.4560 C.ar  1 <1>   0.0820 
 21 C       -7.6390    -4.8820    -2.6530 C.ar  1 <1>  -0.1500 
 22 O       -5.3610    -6.8060    -0.5560 O.3   1 <1>  -0.3630 
 23 C       -7.0210    -7.5350    -2.1560 C.ar  1 <1>  -0.1500 
 24 C       -8.2950    -5.8840    -3.3450 C.ar  1 <1>  -0.1500 
 25 C       -4.9330    -8.1260    -0.3060 C.3   1 <1>   0.0400 
 26 C       -7.9910    -7.2090    -3.0900 C.ar  1 <1>  -0.1500 
 27 H       -3.0310    -4.5210    -1.8560 H     1 <1>   0.0800 
 28 H       -2.5650     0.1310    -0.0440 H     1 <1>   0.0800 
 29 H       -3.4540     0.7580    -2.2600 H     1 <1>   0.0800 
 30 H       -4.8220     0.2440    -1.2820 H     1 <1>   0.0800 
 31 H       -4.6300    -0.3610    -2.9080 H     1 <1>   0.0800 
 32 H       -0.8960    -3.1610    -2.1480 H     1 <1>   0.0800 
 33 H       -0.8590    -4.5030    -1.0330 H     1 <1>   0.0800 
 34 H       -2.6580    -4.1920     0.8270 H     1 <1>   0.0800 
 35 H       -4.0900    -4.7490     0.0770 H     1 <1>   0.0800 
 36 H       -0.5170    -0.8420     0.4330 H     1 <1>   0.0800 
 37 H       -0.6830    -1.0210    -1.2910 H     1 <1>   0.0800 
 38 H       -3.7910    -0.8100     1.5460 H     1 <1>   0.0800 
 39 H       -2.4910    -1.9210     1.7200 H     1 <1>   0.0800 
 40 H       -7.0980    -4.2520     2.1560 H     1 <1>   0.0800 
 41 H       -5.8010    -5.1790     1.4700 H     1 <1>   0.0800 
 42 H       -7.4510    -5.4380     0.9330 H     1 <1>   0.0800 
 43 H       -8.3100    -2.4930     0.7610 H     1 <1>   0.0800 
 44 H       -8.6450    -3.7230    -0.4140 H     1 <1>   0.0800 
 45 H       -7.8310    -2.2380    -0.8920 H     1 <1>   0.0800 
 46 H       -7.8560    -3.8500    -2.8600 H     1 <1>   0.1500 
 47 H       -6.8030    -8.5720    -1.9940 H     1 <1>   0.1500 
 48 H       -9.0370    -5.6310    -4.0820 H     1 <1>   0.1500 
 49 H       -4.1400    -8.0870     0.4190 H     1 <1>   0.0800 
 50 H       -4.5700    -8.5550    -1.2230 H     1 <1>   0.0800 
 51 H       -5.7590    -8.6920     0.0870 H     1 <1>   0.0800 
 52 H       -8.5040    -7.9880    -3.6270 H     1 <1>   0.1500 
@<TRIPOS>BOND
  1   1   2  2   
  2   2   3  am  
  3   2   4  1   
  4   3   5  1   
  5   3   6  1   
  6   4   7  1   
  7   4   8  1   
  8   4  27  1   
  9   5   9  1   
 10   5  10  1   
 11   5  28  1   
 12   6  29  1   
 13   6  30  1   
 14   6  31  1   
 15   7  11  1   
 16   7  32  1   
 17   7  33  1   
 18   8  12  1   
 19   8  34  1   
 20   8  35  1   
 21   9  11  1   
 22   9  36  1   
 23   9  37  1   
 24  10  12  1   
 25  10  38  1   
 26  10  39  1   
 27  12  13  am  
 28  13  14  2   
 29  13  15  1   
 30  15  16  1   
 31  15  17  1   
 32  15  18  1   
 33  16  19  1   
 34  17  40  1   
 35  17  41  1   
 36  17  42  1   
 37  18  43  1   
 38  18  44  1   
 39  18  45  1   
 40  19  20  ar  
 41  19  21  ar  
 42  20  22  1   
 43  20  23  ar  
 44  21  24  ar  
 45  21  46  1   
 46  22  25  1   
 47  23  26  ar  
 48  23  47  1   
 49  24  26  ar  
 50  24  48  1   
 51  25  49  1   
 52  25  50  1   
 53  25  51  1   
 54  26  52  1   
@<TRIPOS>SUBSTRUCTURE
  1 ****  16 GROUP 4 **** **** 0

# MOE 2024.06 (io_trps.svl 2023.06)
