@<TRIPOS>MOLECULE
NONAME
46 48 1 0 0 
SMALL
USER_CHARGES


@<TRIPOS>ATOM
  1 F       -1.4700    -0.5230     2.3790 F     1 <1>  -0.3400 
  2 C       -1.9840    -1.3330     1.4590 C.3   1 <1>   1.1640 
  3 F       -0.9680    -2.0470     1.0030 F     1 <1>  -0.3400 
  4 F       -2.7760    -2.1630     2.1260 F     1 <1>  -0.3400 
  5 C       -2.7310    -0.5650     0.3530 C.ar  1 <1>  -0.1440 
  6 C       -3.4160    -1.2730    -0.6420 C.ar  1 <1>   0.0860 
  7 C       -2.7370     0.8280     0.3290 C.ar  1 <1>  -0.1500 
  8 C       -3.4740    -2.7200    -0.6970 C.2   1 <1>   0.5440 
  9 C       -4.0790    -0.5480    -1.6290 C.ar  1 <1>  -0.1500 
 10 C       -3.4060     1.5440    -0.6590 C.ar  1 <1>  -0.1440 
 11 O       -2.5680    -3.3400    -1.2120 O.2   1 <1>  -0.5700 
 12 N       -4.5480    -3.4010    -0.1850 N.am  1 <1>  -0.6600 
 13 C       -4.0810     0.8320    -1.6410 C.ar  1 <1>  -0.1500 
 14 C       -3.3950     3.0840    -0.6460 C.3   1 <1>   1.1640 
 15 C       -5.7150    -2.7910     0.4980 C.3   1 <1>   0.1400 
 16 C       -4.6330    -4.8810    -0.1650 C.3   1 <1>   0.1400 
 17 F       -2.1940     3.5770    -0.3740 F     1 <1>  -0.3400 
 18 F       -4.2170     3.5730     0.2730 F     1 <1>  -0.3400 
 19 F       -3.7640     3.6210    -1.8030 F     1 <1>  -0.3400 
 20 C       -6.6710    -3.9570     0.7450 C.3   1 <1>   0.2000 
 21 C       -5.7900    -5.2040     0.7840 C.3   1 <1>  -0.0800 
 22 O       -7.3520    -3.8080     1.9410 O.3   1 <1>  -0.6800 
 23 C       -6.5480    -6.4870     0.4150 C.3   1 <1>   0.0210 
 24 C       -5.6120    -7.6790     0.3930 C.2   1 <1>   0.1080 
 25 N       -5.0840    -8.1750     1.4680 N.2   1 <1>  -0.7070 
 26 C       -5.2090    -8.3560    -0.7530 C.2   1 <1>  -0.1500 
 27 N       -4.3200    -9.1950     1.0310 N.pl3 1 <1>   0.3000 
 28 C       -4.3780    -9.3230    -0.3110 C.2   1 <1>  -0.3320 
 29 C       -3.6220   -10.3750    -1.1000 C.3   1 <1>  -0.0600 
 30 H       -2.2120     1.3820     1.0920 H     1 <1>   0.1500 
 31 H       -4.6000    -1.0870    -2.4030 H     1 <1>   0.1500 
 32 H       -4.6120     1.3460    -2.4270 H     1 <1>   0.1500 
 33 H       -5.3960    -2.3580     1.4290 H     1 <1>   0.0800 
 34 H       -6.1750    -2.0460    -0.1260 H     1 <1>   0.0800 
 35 H       -4.8380    -5.2320    -1.1620 H     1 <1>   0.0800 
 36 H       -3.7100    -5.3170     0.1810 H     1 <1>   0.0800 
 37 H       -7.3920    -4.0070    -0.0530 H     1 <1>   0.0800 
 38 H       -5.3660    -5.3180     1.7670 H     1 <1>   0.0800 
 39 H       -6.7560    -3.9870     2.6950 H     1 <1>   0.4000 
 40 H       -7.0130    -6.3810    -0.5480 H     1 <1>   0.0800 
 41 H       -7.3200    -6.6700     1.1410 H     1 <1>   0.0800 
 42 H       -5.5080    -8.1350    -1.7620 H     1 <1>   0.1500 
 43 H       -3.7740    -9.7820     1.6730 H     1 <1>   0.2700 
 44 H       -3.8320   -10.2720    -2.1500 H     1 <1>   0.0800 
 45 H       -3.9190   -11.3610    -0.7870 H     1 <1>   0.0800 
 46 H       -2.5630   -10.2620    -0.9510 H     1 <1>   0.0800 
@<TRIPOS>BOND
  1   1   2  1   
  2   2   3  1   
  3   2   4  1   
  4   2   5  1   
  5   5   6  ar  
  6   5   7  ar  
  7   6   8  1   
  8   6   9  ar  
  9   7  10  ar  
 10   7  30  1   
 11   8  11  2   
 12   8  12  am  
 13   9  13  ar  
 14   9  31  1   
 15  10  13  ar  
 16  10  14  1   
 17  12  15  1   
 18  12  16  1   
 19  13  32  1   
 20  14  17  1   
 21  14  18  1   
 22  14  19  1   
 23  15  20  1   
 24  15  33  1   
 25  15  34  1   
 26  16  21  1   
 27  16  35  1   
 28  16  36  1   
 29  20  21  1   
 30  20  22  1   
 31  20  37  1   
 32  21  23  1   
 33  21  38  1   
 34  22  39  1   
 35  23  24  1   
 36  23  40  1   
 37  23  41  1   
 38  24  25  2   
 39  24  26  1   
 40  25  27  1   
 41  26  28  2   
 42  26  42  1   
 43  27  28  1   
 44  27  43  1   
 45  28  29  1   
 46  29  44  1   
 47  29  45  1   
 48  29  46  1   
@<TRIPOS>SUBSTRUCTURE
  1 ****  12 GROUP 4 **** **** 0

# MOE 2024.06 (io_trps.svl 2023.06)
