@<TRIPOS>MOLECULE
NONAME
54 57 1 0 0 
SMALL
USER_CHARGES


@<TRIPOS>ATOM
  1 O        1.8340    -0.1780     2.8230 O.2   1 <1>  -0.5700 
  2 C        2.1040    -0.6750     1.7530 C.2   1 <1>   0.5690 
  3 N        2.6360     0.0660     0.7100 N.am  1 <1>  -0.4770 
  4 C        1.8320    -2.1830     1.5940 C.3   1 <1>   0.1710 
  5 C        2.2660     1.4070     0.4280 C.ar  1 <1>   0.1170 
  6 C        3.7320    -0.5100    -0.1150 C.3   1 <1>   0.1400 
  7 N        0.5950    -2.5230     0.8370 N.3   1 <1>  -0.8100 
  8 C        3.1050     2.2550    -0.3030 C.ar  1 <1>  -0.1430 
  9 C        1.0380     1.9140     0.8490 C.ar  1 <1>  -0.1500 
 10 C        4.8950     0.4790    -0.1770 C.3   1 <1>  -0.1600 
 11 C        0.5570    -2.0480    -0.5510 C.3   1 <1>   0.1100 
 12 C        0.2950    -3.9610     0.8000 C.3   1 <1>   0.1100 
 13 C        2.7190     3.5580    -0.5770 C.ar  1 <1>  -0.1500 
 14 C        4.4480     1.7820    -0.8390 C.3   1 <1>  -0.0170 
 15 C        0.6590     3.2140     0.5730 C.ar  1 <1>  -0.1500 
 16 C       -0.5910    -2.8380    -1.1640 C.3   1 <1>   0.2000 
 17 C       -0.3910    -4.2280    -0.5520 C.3   1 <1>  -0.0800 
 18 C        1.5010     4.0470    -0.1410 C.ar  1 <1>  -0.1430 
 19 O       -1.7630    -2.2850    -0.6840 O.3   1 <1>  -0.6800 
 20 C       -1.6690    -5.0810    -0.4370 C.3   1 <1>   0.0200 
 21 C        1.0920     5.4760    -0.4480 C.3   1 <1>  -0.0970 
 22 C       -1.3970    -6.5010     0.0310 C.2   1 <1>  -0.0400 
 23 O       -2.4120    -7.2680     0.3290 O.3   1 <1>  -0.0190 
 24 C       -0.2760    -7.2160     0.2250 C.2   1 <1>  -0.1500 
 25 N       -2.0320    -8.4520     0.7140 N.2   1 <1>  -0.4100 
 26 C       -0.7500    -8.4500     0.6610 C.2   1 <1>   0.1080 
 27 C        0.1160    -9.6360     1.0240 C.3   1 <1>  -0.0590 
 28 H        1.7340    -2.5870     2.5860 H     1 <1>   0.0800 
 29 H        2.6730    -2.6680     1.1400 H     1 <1>   0.0800 
 30 H        4.0930    -1.4260     0.3140 H     1 <1>   0.0800 
 31 H        3.3610    -0.7080    -1.1050 H     1 <1>   0.0800 
 32 H        0.3620     1.2900     1.4040 H     1 <1>   0.1500 
 33 H        5.2370     0.6800     0.8240 H     1 <1>   0.0800 
 34 H        5.7120     0.0530    -0.7310 H     1 <1>   0.0800 
 35 H        0.3860    -0.9850    -0.6070 H     1 <1>   0.0800 
 36 H        1.4750    -2.2950    -1.0540 H     1 <1>   0.0800 
 37 H        1.1970    -4.5450     0.8760 H     1 <1>   0.0800 
 38 H       -0.3520    -4.2070     1.6250 H     1 <1>   0.0800 
 39 H        3.3730     4.2000    -1.1400 H     1 <1>   0.1500 
 40 H        4.3540     1.6290    -1.9000 H     1 <1>   0.0800 
 41 H        5.1950     2.5390    -0.6760 H     1 <1>   0.0800 
 42 H       -0.2940     3.5710     0.9180 H     1 <1>   0.1500 
 43 H       -0.6100    -2.8270    -2.2400 H     1 <1>   0.0800 
 44 H        0.3100    -4.7530    -1.1770 H     1 <1>   0.0800 
 45 H       -1.5990    -2.0740     0.2620 H     1 <1>   0.4000 
 46 H       -2.1590    -5.1240    -1.3940 H     1 <1>   0.0800 
 47 H       -2.3520    -4.6210     0.2560 H     1 <1>   0.0800 
 48 H        0.3980     5.8350     0.2910 H     1 <1>   0.0800 
 49 H        0.6240     5.5200    -1.4150 H     1 <1>   0.0800 
 50 H        1.9520     6.1210    -0.4460 H     1 <1>   0.0800 
 51 H        0.7540    -6.9480     0.0890 H     1 <1>   0.1500 
 52 H        0.7860    -9.8610     0.2150 H     1 <1>   0.0800 
 53 H       -0.5020   -10.4960     1.2130 H     1 <1>   0.0800 
 54 H        0.6850    -9.4150     1.9080 H     1 <1>   0.0800 
@<TRIPOS>BOND
  1   1   2  2   
  2   2   3  am  
  3   2   4  1   
  4   3   5  1   
  5   3   6  1   
  6   4   7  1   
  7   4  28  1   
  8   4  29  1   
  9   5   8  ar  
 10   5   9  ar  
 11   6  10  1   
 12   6  30  1   
 13   6  31  1   
 14   7  11  1   
 15   7  12  1   
 16   8  13  ar  
 17   8  14  1   
 18   9  15  ar  
 19   9  32  1   
 20  10  14  1   
 21  10  33  1   
 22  10  34  1   
 23  11  16  1   
 24  11  35  1   
 25  11  36  1   
 26  12  17  1   
 27  12  37  1   
 28  12  38  1   
 29  13  18  ar  
 30  13  39  1   
 31  14  40  1   
 32  14  41  1   
 33  15  18  ar  
 34  15  42  1   
 35  16  17  1   
 36  16  19  1   
 37  16  43  1   
 38  17  20  1   
 39  17  44  1   
 40  18  21  1   
 41  19  45  1   
 42  20  22  1   
 43  20  46  1   
 44  20  47  1   
 45  21  48  1   
 46  21  49  1   
 47  21  50  1   
 48  22  23  1   
 49  22  24  2   
 50  23  25  1   
 51  24  26  1   
 52  24  51  1   
 53  25  26  2   
 54  26  27  1   
 55  27  52  1   
 56  27  53  1   
 57  27  54  1   
@<TRIPOS>SUBSTRUCTURE
  1 ****  11 GROUP 4 **** **** 0

# MOE 2024.06 (io_trps.svl 2023.06)
