@<TRIPOS>MOLECULE
NONAME
59 63 1 0 0 
SMALL
USER_CHARGES


@<TRIPOS>ATOM
  1 O       -0.1970     0.4830     2.8740 O.2   1 <1>  -0.5700 
  2 C       -0.4380     1.3290     2.0320 C.2   1 <1>   0.5440 
  3 N       -1.7140     1.3990     1.5070 N.am  1 <1>  -0.6600 
  4 C        0.6130     2.2450     1.6360 C.ar  1 <1>   0.0860 
  5 C       -2.2100     2.5330     0.6650 C.3   1 <1>   0.1400 
  6 C       -2.7670     0.4160     1.9170 C.3   1 <1>   0.1400 
  7 C        1.0110     2.3810     0.3150 C.ar  1 <1>  -0.1500 
  8 C        1.2610     3.0310     2.6120 C.ar  1 <1>  -0.1500 
  9 C       -3.2740     3.3590     1.4200 C.3   1 <1>   0.1440 
 10 C       -4.1860     0.9990     1.7980 C.3   1 <1>  -0.1600 
 11 C        2.0020     3.2950    -0.0420 C.ar  1 <1>   0.0000 
 12 C        2.2440     3.9310     2.2820 C.ar  1 <1>  -0.1500 
 13 C       -4.0130     4.1880     0.3830 C.ar  1 <1>   0.1660 
 14 C       -4.2210     2.4640     2.2620 C.3   1 <1>  -0.1600 
 15 C       -2.6110     4.4560     2.2940 C.3   1 <1>  -0.1600 
 16 C        2.6120     4.0640     0.9410 C.ar  1 <1>  -0.1520 
 17 C        2.5990     3.6670    -1.2690 C.2   1 <1>  -0.1810 
 18 N       -4.9220     3.7360    -0.4440 N.ar  1 <1>  -0.6200 
 19 C       -3.5990     5.4860     0.3930 C.ar  1 <1>  -0.1430 
 20 C       -2.5320     5.7270     1.4310 C.3   1 <1>  -0.0170 
 21 N        3.5430     4.8660     0.3420 N.pl3 1 <1>   0.0330 
 22 C        3.5280     4.6190    -1.0040 C.2   1 <1>  -0.3320 
 23 C        2.2030     3.0470    -2.5960 C.3   1 <1>  -0.0590 
 24 C       -5.4360     4.6420    -1.2790 C.ar  1 <1>   0.7200 
 25 C       -4.1800     6.3460    -0.5030 C.ar  1 <1>   0.1600 
 26 C        4.4640     5.3650    -1.9390 C.3   1 <1>  -0.0600 
 27 N       -5.1010     5.9360    -1.3430 N.ar  1 <1>  -0.6200 
 28 N       -6.4030     4.2010    -2.1620 N.pl3 1 <1>  -0.8380 
 29 C       -7.2580     5.1470    -2.9320 C.3   1 <1>   0.1290 
 30 C       -6.6900     2.7550    -2.3660 C.3   1 <1>   0.1290 
 31 H       -2.6490     2.1190    -0.2270 H     1 <1>   0.0800 
 32 H       -1.4130     3.1810     0.3530 H     1 <1>   0.0800 
 33 H       -2.5990     0.1330     2.9430 H     1 <1>   0.0800 
 34 H       -2.6790    -0.4700     1.3130 H     1 <1>   0.0800 
 35 H        0.5550     1.7800    -0.4490 H     1 <1>   0.1500 
 36 H        0.9650     2.9020     3.6380 H     1 <1>   0.1500 
 37 H       -4.8610     0.4080     2.3910 H     1 <1>   0.0800 
 38 H       -4.5180     0.9360     0.7750 H     1 <1>   0.0800 
 39 H        2.7320     4.5250     3.0350 H     1 <1>   0.1500 
 40 H       -5.2280     2.8430     2.2150 H     1 <1>   0.0800 
 41 H       -3.9140     2.4820     3.2930 H     1 <1>   0.0800 
 42 H       -1.6460     4.1570     2.6640 H     1 <1>   0.0800 
 43 H       -3.2450     4.6730     3.1370 H     1 <1>   0.0800 
 44 H       -1.5700     5.8040     0.9530 H     1 <1>   0.0800 
 45 H       -2.7270     6.6130     2.0100 H     1 <1>   0.0800 
 46 H        4.1580     5.5260     0.8280 H     1 <1>   0.2700 
 47 H        1.1610     3.2290    -2.7840 H     1 <1>   0.0800 
 48 H        2.3730     1.9860    -2.5640 H     1 <1>   0.0800 
 49 H        2.7750     3.4620    -3.4030 H     1 <1>   0.0800 
 50 H       -3.8870     7.3810    -0.5330 H     1 <1>   0.1500 
 51 H        4.3220     5.0530    -2.9570 H     1 <1>   0.0800 
 52 H        5.4860     5.1740    -1.6660 H     1 <1>   0.0800 
 53 H        4.2780     6.4230    -1.8800 H     1 <1>   0.0800 
 54 H       -7.3920     6.0650    -2.3870 H     1 <1>   0.0800 
 55 H       -8.2270     4.7140    -3.1060 H     1 <1>   0.0800 
 56 H       -6.7900     5.3660    -3.8760 H     1 <1>   0.0800 
 57 H       -5.7990     2.1690    -2.2200 H     1 <1>   0.0800 
 58 H       -7.0460     2.5850    -3.3670 H     1 <1>   0.0800 
 59 H       -7.4390     2.4350    -1.6620 H     1 <1>   0.0800 
@<TRIPOS>BOND
  1   1   2  2   
  2   2   3  am  
  3   2   4  1   
  4   3   5  1   
  5   3   6  1   
  6   4   7  ar  
  7   4   8  ar  
  8   5   9  1   
  9   5  31  1   
 10   5  32  1   
 11   6  10  1   
 12   6  33  1   
 13   6  34  1   
 14   7  11  ar  
 15   7  35  1   
 16   8  12  ar  
 17   8  36  1   
 18   9  13  1   
 19   9  14  1   
 20   9  15  1   
 21  10  14  1   
 22  10  37  1   
 23  10  38  1   
 24  11  16  ar  
 25  11  17  1   
 26  12  16  ar  
 27  12  39  1   
 28  13  18  ar  
 29  13  19  ar  
 30  14  40  1   
 31  14  41  1   
 32  15  20  1   
 33  15  42  1   
 34  15  43  1   
 35  16  21  1   
 36  17  22  2   
 37  17  23  1   
 38  18  24  ar  
 39  19  20  1   
 40  19  25  ar  
 41  20  44  1   
 42  20  45  1   
 43  21  22  1   
 44  21  46  1   
 45  22  26  1   
 46  23  47  1   
 47  23  48  1   
 48  23  49  1   
 49  24  27  ar  
 50  24  28  1   
 51  25  27  ar  
 52  25  50  1   
 53  26  51  1   
 54  26  52  1   
 55  26  53  1   
 56  28  29  1   
 57  28  30  1   
 58  29  54  1   
 59  29  55  1   
 60  29  56  1   
 61  30  57  1   
 62  30  58  1   
 63  30  59  1   
@<TRIPOS>SUBSTRUCTURE
  1 ****   5 GROUP 4 **** **** 0

# MOE 2024.06 (io_trps.svl 2023.06)
