@<TRIPOS>MOLECULE
NONAME
51 54 1 0 0 
SMALL
USER_CHARGES


@<TRIPOS>ATOM
  1 O       -0.5950     0.0860     0.7360 O.2   1 <1>  -0.5700 
  2 C       -1.5630     0.5800     0.2090 C.2   1 <1>   0.5690 
  3 N       -2.5220    -0.1920    -0.3830 N.am  1 <1>  -0.6600 
  4 C       -1.7170     2.0890     0.2220 C.3   1 <1>  -0.0990 
  5 C       -3.7530     0.2880    -1.0610 C.3   1 <1>   0.1400 
  6 C       -2.4560    -1.6720    -0.3940 C.3   1 <1>   0.1400 
  7 C       -0.4210     2.8030     0.6310 C.3   1 <1>   0.0960 
  8 C       -4.4350    -0.9760    -1.5870 C.3   1 <1>   0.2000 
  9 C       -3.8660    -2.1310    -0.7650 C.3   1 <1>  -0.0800 
 10 N       -0.6270     4.2620     0.6720 N.pl3 1 <1>   0.3140 
 11 O       -5.8100    -0.9160    -1.4280 O.3   1 <1>  -0.6800 
 12 C       -3.8970    -3.4720    -1.5170 C.3   1 <1>  -0.0160 
 13 N       -0.9830     4.9670    -0.4190 N.2   1 <1>  -0.7070 
 14 C       -0.5120     5.0600     1.7520 C.2   1 <1>  -0.3020 
 15 C       -3.3590    -4.6040    -0.6490 C.ar  1 <1>  -0.1440 
 16 C       -1.0810     6.1930    -0.0050 C.2   1 <1>   0.1390 
 17 C       -0.7980     6.3150     1.3500 C.2   1 <1>  -0.1810 
 18 C       -4.1320    -5.2070     0.3730 C.ar  1 <1>   0.0000 
 19 C       -2.0900    -5.0690    -0.8360 C.ar  1 <1>  -0.1500 
 20 C       -0.8130     7.5900     2.1690 C.3   1 <1>  -0.0590 
 21 C       -3.5260    -6.2350     1.1360 C.ar  1 <1>   0.3100 
 22 C       -5.4670    -4.8530     0.6810 C.ar  1 <1>  -0.1500 
 23 C       -1.5890    -6.0970    -0.0290 C.ar  1 <1>   0.1600 
 24 N       -2.2580    -6.6680     0.9220 N.ar  1 <1>  -0.6200 
 25 C       -4.2630    -6.8420     2.1660 C.ar  1 <1>  -0.1500 
 26 C       -6.1580    -5.4670     1.6890 C.ar  1 <1>  -0.1500 
 27 C       -5.5510    -6.4730     2.4440 C.ar  1 <1>  -0.1500 
 28 H       -1.9940     2.4200    -0.7620 H     1 <1>   0.0800 
 29 H       -2.4990     2.3440     0.9120 H     1 <1>   0.0800 
 30 H       -4.3780     0.7970    -0.3490 H     1 <1>   0.0800 
 31 H       -3.5020     0.9450    -1.8750 H     1 <1>   0.0800 
 32 H       -1.7390    -1.9800    -1.1350 H     1 <1>   0.0800 
 33 H       -2.1570    -2.0520     0.5690 H     1 <1>   0.0800 
 34 H        0.3570     2.5920    -0.0790 H     1 <1>   0.0800 
 35 H       -0.1020     2.4710     1.6010 H     1 <1>   0.0800 
 36 H       -4.2200    -1.0960    -2.6360 H     1 <1>   0.0800 
 37 H       -4.4170    -2.2180     0.1550 H     1 <1>   0.0800 
 38 H       -6.0400    -0.8230    -0.4830 H     1 <1>   0.4000 
 39 H       -3.3060    -3.3920    -2.4130 H     1 <1>   0.0800 
 40 H       -4.9010    -3.6980    -1.8310 H     1 <1>   0.0800 
 41 H       -0.2390     4.6970     2.7260 H     1 <1>   0.1500 
 42 H       -1.3510     7.0140    -0.6480 H     1 <1>   0.1500 
 43 H       -1.4450    -4.6650    -1.5940 H     1 <1>   0.1500 
 44 H       -0.1040     8.2910     1.7680 H     1 <1>   0.0800 
 45 H       -0.5530     7.3770     3.1900 H     1 <1>   0.0800 
 46 H       -1.7940     8.0280     2.1450 H     1 <1>   0.0800 
 47 H       -5.9560    -4.0870     0.1100 H     1 <1>   0.1500 
 48 H       -0.5820    -6.4330    -0.2090 H     1 <1>   0.1500 
 49 H       -3.7750    -7.6140     2.7310 H     1 <1>   0.1500 
 50 H       -7.1740    -5.1880     1.9130 H     1 <1>   0.1500 
 51 H       -6.1040    -6.9480     3.2370 H     1 <1>   0.1500 
@<TRIPOS>BOND
  1   1   2  2   
  2   2   3  am  
  3   2   4  1   
  4   3   5  1   
  5   3   6  1   
  6   4   7  1   
  7   4  28  1   
  8   4  29  1   
  9   5   8  1   
 10   5  30  1   
 11   5  31  1   
 12   6   9  1   
 13   6  32  1   
 14   6  33  1   
 15   7  10  1   
 16   7  34  1   
 17   7  35  1   
 18   8   9  1   
 19   8  11  1   
 20   8  36  1   
 21   9  12  1   
 22   9  37  1   
 23  10  13  1   
 24  10  14  1   
 25  11  38  1   
 26  12  15  1   
 27  12  39  1   
 28  12  40  1   
 29  13  16  2   
 30  14  17  2   
 31  14  41  1   
 32  15  18  ar  
 33  15  19  ar  
 34  16  17  1   
 35  16  42  1   
 36  17  20  1   
 37  18  21  ar  
 38  18  22  ar  
 39  19  23  ar  
 40  19  43  1   
 41  20  44  1   
 42  20  45  1   
 43  20  46  1   
 44  21  24  ar  
 45  21  25  ar  
 46  22  26  ar  
 47  22  47  1   
 48  23  24  ar  
 49  23  48  1   
 50  25  27  ar  
 51  25  49  1   
 52  26  27  ar  
 53  26  50  1   
 54  27  51  1   
@<TRIPOS>SUBSTRUCTURE
  1 ****   6 GROUP 4 **** **** 0

# MOE 2024.06 (io_trps.svl 2023.06)
