@<TRIPOS>MOLECULE
NONAME
53 56 1 0 0 
SMALL
USER_CHARGES


@<TRIPOS>ATOM
  1 O       -1.4240     0.4280    -1.6280 O.2   1 <1>  -0.5700 
  2 C       -2.2120     1.2040    -1.1000 C.2   1 <1>   0.4690 
  3 C       -1.8400     2.0350     0.0110 C.ar  1 <1>   0.0860 
  4 C       -3.5400     1.2880    -1.5720 C.2   1 <1>  -0.1360 
  5 C       -2.7820     2.9440     0.5340 C.ar  1 <1>   0.1000 
  6 C       -0.5720     1.9460     0.5990 C.ar  1 <1>  -0.1500 
  7 C       -4.4240     2.1910    -1.0840 C.2   1 <1>  -0.0380 
  8 N       -4.0390     3.0860    -0.0960 N.pl3 1 <1>  -0.5690 
  9 C       -2.4230     3.6690     1.6800 C.ar  1 <1>  -0.1500 
 10 C       -0.2370     2.6980     1.7000 C.ar  1 <1>  -0.1500 
 11 C       -5.8500     2.2080    -1.6190 C.3   1 <1>  -0.1020 
 12 C       -4.9010     4.2900     0.2230 C.3   1 <1>   0.2700 
 13 C       -1.1750     3.5580     2.2490 C.ar  1 <1>  -0.1500 
 14 C       -5.9790     4.0520     1.2950 C.2   1 <1>   0.5690 
 15 O       -5.6150     3.7540     2.4110 O.2   1 <1>  -0.5700 
 16 N       -7.3200     4.2130     1.0170 N.am  1 <1>  -0.6600 
 17 C       -7.8370     4.9380    -0.1850 C.3   1 <1>   0.1400 
 18 C       -8.3400     3.6810     1.9690 C.3   1 <1>   0.1400 
 19 C       -9.3340     5.2230    -0.0640 C.3   1 <1>  -0.1600 
 20 C       -9.4920     3.0190     1.2070 C.3   1 <1>  -0.1600 
 21 C      -10.1160     3.9150     0.1170 C.3   1 <1>   0.4180 
 22 O      -10.0240     3.1790    -1.0800 O.3   1 <1>  -0.5600 
 23 C      -11.5760     4.2120     0.4570 C.2   1 <1>  -0.2880 
 24 C      -10.9130     3.4940    -2.1180 C.3   1 <1>   0.1200 
 25 C      -12.6090     3.9120    -0.3330 C.2   1 <1>  -0.2760 
 26 C      -12.3650     3.2630    -1.6820 C.3   1 <1>  -0.0220 
 27 C      -14.0640     4.1650     0.0170 C.3   1 <1>  -0.1020 
 28 H       -3.8020     0.5890    -2.3420 H     1 <1>   0.1500 
 29 H        0.1480     1.2650     0.1770 H     1 <1>   0.1500 
 30 H       -3.1280     4.3240     2.1550 H     1 <1>   0.1500 
 31 H        0.7420     2.6170     2.1420 H     1 <1>   0.1500 
 32 H       -6.5530     2.1330    -0.8090 H     1 <1>   0.0800 
 33 H       -6.0180     1.3730    -2.2740 H     1 <1>   0.0800 
 34 H       -6.0320     3.1060    -2.1790 H     1 <1>   0.0800 
 35 H       -5.3530     4.6300    -0.6850 H     1 <1>   0.0800 
 36 H       -4.2790     5.0990     0.5510 H     1 <1>   0.0800 
 37 H       -0.9250     4.1310     3.1250 H     1 <1>   0.1500 
 38 H       -7.6700     4.3370    -1.0610 H     1 <1>   0.0800 
 39 H       -7.3070     5.8680    -0.2980 H     1 <1>   0.0800 
 40 H       -8.7120     4.4910     2.5740 H     1 <1>   0.0800 
 41 H       -7.8940     2.9560     2.6290 H     1 <1>   0.0800 
 42 H       -9.6830     5.7490    -0.9320 H     1 <1>   0.0800 
 43 H       -9.5020     5.8690     0.7780 H     1 <1>   0.0800 
 44 H      -10.2450     2.7310     1.9180 H     1 <1>   0.0800 
 45 H       -9.1190     2.1120     0.7660 H     1 <1>   0.0800 
 46 H      -11.6910     4.6840     1.4160 H     1 <1>   0.1500 
 47 H      -10.6730     2.8670    -2.9580 H     1 <1>   0.0800 
 48 H      -10.7660     4.5210    -2.3990 H     1 <1>   0.0800 
 49 H      -12.5660     2.2080    -1.6220 H     1 <1>   0.0800 
 50 H      -13.0160     3.6880    -2.4240 H     1 <1>   0.0800 
 51 H      -14.6100     3.2390     0.0190 H     1 <1>   0.0800 
 52 H      -14.5100     4.8310    -0.6990 H     1 <1>   0.0800 
 53 H      -14.1450     4.6100     0.9930 H     1 <1>   0.0800 
@<TRIPOS>BOND
  1   1   2  2   
  2   2   3  1   
  3   2   4  1   
  4   3   5  ar  
  5   3   6  ar  
  6   4   7  2   
  7   4  28  1   
  8   5   8  1   
  9   5   9  ar  
 10   6  10  ar  
 11   6  29  1   
 12   7   8  1   
 13   7  11  1   
 14   8  12  1   
 15   9  13  ar  
 16   9  30  1   
 17  10  13  ar  
 18  10  31  1   
 19  11  32  1   
 20  11  33  1   
 21  11  34  1   
 22  12  14  1   
 23  12  35  1   
 24  12  36  1   
 25  13  37  1   
 26  14  15  2   
 27  14  16  am  
 28  16  17  1   
 29  16  18  1   
 30  17  19  1   
 31  17  38  1   
 32  17  39  1   
 33  18  20  1   
 34  18  40  1   
 35  18  41  1   
 36  19  21  1   
 37  19  42  1   
 38  19  43  1   
 39  20  21  1   
 40  20  44  1   
 41  20  45  1   
 42  21  22  1   
 43  21  23  1   
 44  22  24  1   
 45  23  25  2   
 46  23  46  1   
 47  24  26  1   
 48  24  47  1   
 49  24  48  1   
 50  25  26  1   
 51  25  27  1   
 52  26  49  1   
 53  26  50  1   
 54  27  51  1   
 55  27  52  1   
 56  27  53  1   
@<TRIPOS>SUBSTRUCTURE
  1 ****  14 GROUP 4 **** **** 0

# MOE 2024.06 (io_trps.svl 2023.06)
