@<TRIPOS>MOLECULE
NONAME
51 53 1 0 0 
SMALL
USER_CHARGES


@<TRIPOS>ATOM
  1 O        0.1460     0.1250    -1.0990 O.2   1 <1>  -0.5700 
  2 C        0.9900    -0.5540    -0.5680 C.2   1 <1>   0.5690 
  3 N        2.0490    -0.0520     0.1340 N.am  1 <1>  -0.4940 
  4 C        0.8770    -2.0560    -0.6770 C.3   1 <1>  -0.0990 
  5 C        2.3530     1.2940     0.4520 C.2   1 <1>  -0.0880 
  6 C       -0.0920    -2.6040     0.3720 C.3   1 <1>   0.0210 
  7 N        3.5960     1.8470     0.3700 N.pl3 1 <1>   0.3140 
  8 C        1.5300     2.2730     0.9000 C.2   1 <1>  -0.1810 
  9 C       -0.0520    -4.1210     0.3540 C.2   1 <1>  -0.1810 
 10 N        3.5850     3.1420     0.7730 N.2   1 <1>  -0.7070 
 11 C        4.8310     1.1710    -0.1240 C.3   1 <1>   0.1760 
 12 C        2.3480     3.3830     1.0750 C.2   1 <1>   0.1390 
 13 C        0.0380     2.2300     1.1750 C.3   1 <1>  -0.0590 
 14 C        0.7210    -4.9430     1.1700 C.2   1 <1>   0.1080 
 15 C       -0.7320    -4.9710    -0.4450 C.2   1 <1>  -0.3320 
 16 C        5.8790     0.9690     0.9720 C.3   1 <1>  -0.1600 
 17 C        5.5770     1.9590    -1.2020 C.3   1 <1>  -0.1600 
 18 N        0.5470    -6.1970     0.9040 N.2   1 <1>  -0.7070 
 19 C        1.6680    -4.4850     2.2560 C.3   1 <1>  -0.0590 
 20 N       -0.3530    -6.2200    -0.0900 N.pl3 1 <1>   0.3140 
 21 C       -1.7350    -4.6690    -1.5480 C.3   1 <1>  -0.0600 
 22 C        7.2170     0.8370     0.2350 C.3   1 <1>  -0.1600 
 23 C        6.9960     1.3880    -1.1800 C.3   1 <1>  -0.1600 
 24 C       -0.8130    -7.4890    -0.6640 C.3   1 <1>   0.0160 
 25 H        2.7090    -0.7450     0.4820 H     1 <1>   0.3700 
 26 H        1.8430    -2.5080    -0.5530 H     1 <1>   0.0800 
 27 H        0.5190    -2.3090    -1.6590 H     1 <1>   0.0800 
 28 H       -1.0900    -2.2620     0.1590 H     1 <1>   0.0800 
 29 H        0.1730    -2.2470     1.3510 H     1 <1>   0.0800 
 30 H        4.5670     0.2150    -0.5340 H     1 <1>   0.0800 
 31 H        2.0040     4.3410     1.4250 H     1 <1>   0.1500 
 32 H       -0.2710     1.2270     1.4020 H     1 <1>   0.0800 
 33 H       -0.4980     2.5660     0.3060 H     1 <1>   0.0800 
 34 H       -0.2070     2.8630     2.0080 H     1 <1>   0.0800 
 35 H        5.6660     0.1030     1.5740 H     1 <1>   0.0800 
 36 H        5.9120     1.8440     1.6000 H     1 <1>   0.0800 
 37 H        5.6170     3.0010    -0.9320 H     1 <1>   0.0800 
 38 H        5.1150     1.8560    -2.1670 H     1 <1>   0.0800 
 39 H        2.3450    -3.7490     1.8690 H     1 <1>   0.0800 
 40 H        2.2350    -5.3230     2.6190 H     1 <1>   0.0800 
 41 H        1.1060    -4.0680     3.0710 H     1 <1>   0.0800 
 42 H       -1.8650    -3.6090    -1.6660 H     1 <1>   0.0800 
 43 H       -2.6900    -5.1020    -1.3080 H     1 <1>   0.0800 
 44 H       -1.3910    -5.0730    -2.4830 H     1 <1>   0.0800 
 45 H        7.5180    -0.1960     0.1820 H     1 <1>   0.0800 
 46 H        7.9820     1.3930     0.7490 H     1 <1>   0.0800 
 47 H        7.7210     2.1450    -1.4270 H     1 <1>   0.0800 
 48 H        7.0760     0.5860    -1.8950 H     1 <1>   0.0800 
 49 H       -1.8760    -7.5670    -0.5380 H     1 <1>   0.0800 
 50 H       -0.3280    -8.3010    -0.1550 H     1 <1>   0.0800 
 51 H       -0.5610    -7.5160    -1.7070 H     1 <1>   0.0800 
@<TRIPOS>BOND
  1   1   2  2   
  2   2   3  am  
  3   2   4  1   
  4   3   5  1   
  5   3  25  1   
  6   4   6  1   
  7   4  26  1   
  8   4  27  1   
  9   5   7  1   
 10   5   8  2   
 11   6   9  1   
 12   6  28  1   
 13   6  29  1   
 14   7  10  1   
 15   7  11  1   
 16   8  12  1   
 17   8  13  1   
 18   9  14  1   
 19   9  15  2   
 20  10  12  2   
 21  11  16  1   
 22  11  17  1   
 23  11  30  1   
 24  12  31  1   
 25  13  32  1   
 26  13  33  1   
 27  13  34  1   
 28  14  18  2   
 29  14  19  1   
 30  15  20  1   
 31  15  21  1   
 32  16  22  1   
 33  16  35  1   
 34  16  36  1   
 35  17  23  1   
 36  17  37  1   
 37  17  38  1   
 38  18  20  1   
 39  19  39  1   
 40  19  40  1   
 41  19  41  1   
 42  20  24  1   
 43  21  42  1   
 44  21  43  1   
 45  21  44  1   
 46  22  23  1   
 47  22  45  1   
 48  22  46  1   
 49  23  47  1   
 50  23  48  1   
 51  24  49  1   
 52  24  50  1   
 53  24  51  1   
@<TRIPOS>SUBSTRUCTURE
  1 ****   3 GROUP 4 **** **** 0

# MOE 2024.06 (io_trps.svl 2023.06)
