@<TRIPOS>MOLECULE
NONAME
54 57 1 0 0 
SMALL
USER_CHARGES


@<TRIPOS>ATOM
  1 O       -0.5630    -0.1990     0.4580 O.2   1 <1>  -0.5700 
  2 C       -1.4690     0.5490     0.7730 C.2   1 <1>   0.6900 
  3 N       -2.7110     0.0420     1.0410 N.am  1 <1>  -0.6600 
  4 N       -1.2940     1.8950     0.8690 N.am  1 <1>  -0.5470 
  5 C       -2.8870    -1.4240     1.2750 C.3   1 <1>   0.1400 
  6 C       -3.9430     0.6680     0.4730 C.3   1 <1>   0.1400 
  7 C       -0.2320     2.7610     0.5570 C.ar  1 <1>   0.1170 
  8 C       -3.4180    -2.1130     0.0060 C.3   1 <1>   0.3440 
  9 C       -4.4430    -0.1290    -0.7570 C.3   1 <1>   0.2950 
 10 C       -0.2840     4.0720     1.0440 C.ar  1 <1>   0.0820 
 11 C        0.8530     2.3790    -0.2230 C.ar  1 <1>  -0.1500 
 12 O       -4.5970    -1.4790    -0.4240 O.3   1 <1>  -0.5600 
 13 C       -3.6920    -3.5900     0.2730 C.ar  1 <1>  -0.1430 
 14 C       -5.7920     0.3450    -1.3250 C.3   1 <1>  -0.1950 
 15 O       -1.3760     4.4160     1.7970 O.3   1 <1>  -0.3630 
 16 C        0.7440     4.9640     0.7550 C.ar  1 <1>  -0.1500 
 17 C        1.8760     3.2650    -0.5130 C.ar  1 <1>   0.0820 
 18 C       -4.9330    -4.0350     0.7090 C.ar  1 <1>  -0.1500 
 19 C       -2.6730    -4.5150     0.0890 C.ar  1 <1>  -0.1500 
 20 C       -6.2580     1.7700    -1.2860 C.3   1 <1>  -0.2000 
 21 C       -6.9700     0.7190    -0.4790 C.3   1 <1>  -0.2000 
 22 C       -1.4530     5.6740     2.4310 C.3   1 <1>   0.0400 
 23 C        1.8200     4.5640    -0.0180 C.ar  1 <1>  -0.1500 
 24 O        2.8910     2.7940    -1.2830 O.3   1 <1>  -0.3620 
 25 C       -5.1520    -5.3790     0.9580 C.ar  1 <1>  -0.1500 
 26 C       -2.8900    -5.8590     0.3380 C.ar  1 <1>  -0.1500 
 27 C        4.0070     3.5980    -1.5930 C.3   1 <1>   0.0400 
 28 C       -4.1300    -6.2920     0.7730 C.ar  1 <1>  -0.1500 
 29 H       -2.0260     2.3570     1.4040 H     1 <1>   0.3700 
 30 H       -1.9530    -1.8750     1.5620 H     1 <1>   0.0800 
 31 H       -3.5840    -1.5780     2.0790 H     1 <1>   0.0800 
 32 H       -4.7060     0.6850     1.2290 H     1 <1>   0.0800 
 33 H       -3.7460     1.6810     0.1740 H     1 <1>   0.0800 
 34 H       -2.6880    -2.0260    -0.7810 H     1 <1>   0.0800 
 35 H       -3.7040    -0.0610    -1.5370 H     1 <1>   0.0800 
 36 H        0.9170     1.3830    -0.6180 H     1 <1>   0.1500 
 37 H       -6.0150    -0.1930    -2.2310 H     1 <1>   0.1000 
 38 H        0.7290     5.9740     1.1180 H     1 <1>   0.1500 
 39 H       -5.7360    -3.3320     0.8540 H     1 <1>   0.1500 
 40 H       -1.7030    -4.1910    -0.2470 H     1 <1>   0.1500 
 41 H       -5.7010     2.5210    -0.7550 H     1 <1>   0.1000 
 42 H       -6.7530     2.1710    -2.1540 H     1 <1>   0.1000 
 43 H       -7.9440     0.3880    -0.7950 H     1 <1>   0.1000 
 44 H       -6.8750     0.7260     0.5930 H     1 <1>   0.1000 
 45 H       -2.3620     5.7060     3.0040 H     1 <1>   0.0800 
 46 H       -1.4700     6.4450     1.6800 H     1 <1>   0.0800 
 47 H       -0.6070     5.7890     3.0850 H     1 <1>   0.0800 
 48 H        2.5990     5.2730    -0.2260 H     1 <1>   0.1500 
 49 H       -6.1180    -5.7120     1.2940 H     1 <1>   0.1500 
 50 H       -2.0940    -6.5680     0.1920 H     1 <1>   0.1500 
 51 H        4.6830     3.0130    -2.1900 H     1 <1>   0.0800 
 52 H        4.4880     3.8940    -0.6790 H     1 <1>   0.0800 
 53 H        3.6740     4.4550    -2.1520 H     1 <1>   0.0800 
 54 H       -4.2990    -7.3370     0.9660 H     1 <1>   0.1500 
@<TRIPOS>BOND
  1   1   2  2   
  2   2   3  am  
  3   2   4  am  
  4   3   5  1   
  5   3   6  1   
  6   4   7  1   
  7   4  29  1   
  8   5   8  1   
  9   5  30  1   
 10   5  31  1   
 11   6   9  1   
 12   6  32  1   
 13   6  33  1   
 14   7  10  ar  
 15   7  11  ar  
 16   8  12  1   
 17   8  13  1   
 18   8  34  1   
 19   9  12  1   
 20   9  14  1   
 21   9  35  1   
 22  10  15  1   
 23  10  16  ar  
 24  11  17  ar  
 25  11  36  1   
 26  13  18  ar  
 27  13  19  ar  
 28  14  20  1   
 29  14  21  1   
 30  14  37  1   
 31  15  22  1   
 32  16  23  ar  
 33  16  38  1   
 34  17  23  ar  
 35  17  24  1   
 36  18  25  ar  
 37  18  39  1   
 38  19  26  ar  
 39  19  40  1   
 40  20  21  1   
 41  20  41  1   
 42  20  42  1   
 43  21  43  1   
 44  21  44  1   
 45  22  45  1   
 46  22  46  1   
 47  22  47  1   
 48  23  48  1   
 49  24  27  1   
 50  25  28  ar  
 51  25  49  1   
 52  26  28  ar  
 53  26  50  1   
 54  27  51  1   
 55  27  52  1   
 56  27  53  1   
 57  28  54  1   
@<TRIPOS>SUBSTRUCTURE
  1 ****   2 GROUP 4 **** **** 0

# MOE 2024.06 (io_trps.svl 2023.06)
