@<TRIPOS>MOLECULE
NONAME
49 52 1 0 0 
SMALL
USER_CHARGES


@<TRIPOS>ATOM
  1 O        0.4920    -0.2340     0.1590 O.2   1 <1>  -0.5700 
  2 C       -0.5530     0.3260    -0.0830 C.2   1 <1>   0.5690 
  3 N       -1.7570    -0.3350     0.0160 N.am  1 <1>  -0.6600 
  4 C       -0.4660     1.7900    -0.5330 C.3   1 <1>   0.1810 
  5 C       -1.8090    -1.7090     0.6000 C.3   1 <1>   0.1400 
  6 C       -3.0600     0.2930    -0.3610 C.3   1 <1>   0.1400 
  7 O       -1.3300     2.6300     0.1930 O.3   1 <1>  -0.5600 
  8 C       -3.1070    -1.9130     1.3830 C.3   1 <1>  -0.1600 
  9 C       -4.0860    -0.7850    -0.6940 C.3   1 <1>  -0.1600 
 10 C       -1.2500     3.9900    -0.1590 C.3   1 <1>   0.1810 
 11 C       -4.3670    -1.6690     0.5320 C.3   1 <1>   0.4600 
 12 C       -2.2620     4.8330     0.6170 C.2   1 <1>   0.5690 
 13 O       -5.2620    -0.9810     1.3790 O.3   1 <1>  -0.5600 
 14 C       -4.9870    -2.9970     0.1070 C.2   1 <1>  -0.3320 
 15 O       -2.4560     5.9770     0.2920 O.2   1 <1>  -0.5700 
 16 N       -2.9320     4.2980     1.6560 N.am  1 <1>  -0.8000 
 17 C       -6.6430    -1.0550     1.1090 C.3   1 <1>   0.1200 
 18 N       -4.3800    -3.9790    -0.6280 N.pl3 1 <1>   0.0330 
 19 C       -6.2400    -3.3850     0.4150 C.2   1 <1>  -0.1810 
 20 C       -7.1580    -2.4990     1.2180 C.3   1 <1>   0.0210 
 21 C       -5.2750    -5.0110    -0.7780 C.ar  1 <1>  -0.1520 
 22 C       -6.4570    -4.6680    -0.1290 C.ar  1 <1>   0.0000 
 23 C       -5.1500    -6.2370    -1.4370 C.ar  1 <1>  -0.1500 
 24 C       -7.5340    -5.5600    -0.1330 C.ar  1 <1>  -0.1500 
 25 C       -6.2170    -7.1050    -1.4350 C.ar  1 <1>  -0.1500 
 26 C       -7.4090    -6.7670    -0.7820 C.ar  1 <1>  -0.1500 
 27 H       -0.7170     1.8530    -1.5760 H     1 <1>   0.0800 
 28 H        0.5420     2.1360    -0.3890 H     1 <1>   0.0800 
 29 H       -0.9710    -1.8590     1.2610 H     1 <1>   0.0800 
 30 H       -1.7370    -2.4300    -0.1960 H     1 <1>   0.0800 
 31 H       -2.9270     0.9340    -1.2140 H     1 <1>   0.0800 
 32 H       -3.4150     0.8910     0.4630 H     1 <1>   0.0800 
 33 H       -3.0930    -1.2300     2.2140 H     1 <1>   0.0800 
 34 H       -3.1280    -2.9070     1.7880 H     1 <1>   0.0800 
 35 H       -3.6960    -1.3820    -1.4970 H     1 <1>   0.0800 
 36 H       -4.9930    -0.3360    -1.0480 H     1 <1>   0.0800 
 37 H       -1.4490     4.0890    -1.2110 H     1 <1>   0.0800 
 38 H       -0.2580     4.3440     0.0570 H     1 <1>   0.0800 
 39 H       -3.6090     4.8460     2.1850 H     1 <1>   0.3700 
 40 H       -2.7800     3.3250     1.9320 H     1 <1>   0.3700 
 41 H       -6.8210    -0.6730     0.1200 H     1 <1>   0.0800 
 42 H       -7.1500    -0.4260     1.8190 H     1 <1>   0.0800 
 43 H       -3.4280    -3.9690    -1.0030 H     1 <1>   0.2700 
 44 H       -8.1590    -2.5570     0.8330 H     1 <1>   0.0800 
 45 H       -7.1620    -2.8130     2.2460 H     1 <1>   0.0800 
 46 H       -4.2310    -6.4890    -1.9360 H     1 <1>   0.1500 
 47 H       -8.4410    -5.2880     0.3730 H     1 <1>   0.1500 
 48 H       -6.1460    -8.0550    -1.9350 H     1 <1>   0.1500 
 49 H       -8.2280    -7.4640    -0.7940 H     1 <1>   0.1500 
@<TRIPOS>BOND
  1   1   2  2   
  2   2   3  am  
  3   2   4  1   
  4   3   5  1   
  5   3   6  1   
  6   4   7  1   
  7   4  27  1   
  8   4  28  1   
  9   5   8  1   
 10   5  29  1   
 11   5  30  1   
 12   6   9  1   
 13   6  31  1   
 14   6  32  1   
 15   7  10  1   
 16   8  11  1   
 17   8  33  1   
 18   8  34  1   
 19   9  11  1   
 20   9  35  1   
 21   9  36  1   
 22  10  12  1   
 23  10  37  1   
 24  10  38  1   
 25  11  13  1   
 26  11  14  1   
 27  12  15  2   
 28  12  16  am  
 29  13  17  1   
 30  14  18  1   
 31  14  19  2   
 32  16  39  1   
 33  16  40  1   
 34  17  20  1   
 35  17  41  1   
 36  17  42  1   
 37  18  21  1   
 38  18  43  1   
 39  19  20  1   
 40  19  22  1   
 41  20  44  1   
 42  20  45  1   
 43  21  22  ar  
 44  21  23  ar  
 45  22  24  ar  
 46  23  25  ar  
 47  23  46  1   
 48  24  26  ar  
 49  24  47  1   
 50  25  26  ar  
 51  25  48  1   
 52  26  49  1   
@<TRIPOS>SUBSTRUCTURE
  1 ****  11 GROUP 4 **** **** 0

# MOE 2024.06 (io_trps.svl 2023.06)
