@<TRIPOS>MOLECULE
NONAME
48 50 1 0 0 
SMALL
USER_CHARGES


@<TRIPOS>ATOM
  1 S        0.8740     0.6160    -1.6470 S.o2  1 <1>   1.3330 
  2 O        1.1240    -0.7160    -2.1530 O.2   1 <1>  -0.6500 
  3 O        0.2220     1.5910    -2.4920 O.2   1 <1>  -0.6500 
  4 N       -0.0670     0.4660    -0.2390 N.am  1 <1>  -0.8490 
  5 C        2.4280     1.2860    -1.0530 C.3   1 <1>  -0.0550 
  6 C       -1.0780    -0.5890    -0.3610 C.3   1 <1>   0.1160 
  7 C       -0.7100     1.7220     0.1640 C.3   1 <1>   0.1160 
  8 C        3.2530     0.3050    -0.1910 C.3   1 <1>  -0.0800 
  9 C        4.6490     0.7890     0.1690 C.3   1 <1>   0.2200 
 10 C        2.6490    -0.0340     1.1780 C.3   1 <1>   0.1200 
 11 N        4.6240     2.2120     0.5850 N.am  1 <1>  -0.7300 
 12 C        4.9280    -0.0680     1.3950 C.3   1 <1>   0.1200 
 13 O        3.7150    -0.1070     2.0830 O.3   1 <1>  -0.5600 
 14 C        5.0130     3.2700    -0.1850 C.2   1 <1>   0.5440 
 15 O        5.3240     3.0450    -1.3370 O.2   1 <1>  -0.5700 
 16 C        5.0480     4.6230     0.3530 C.ar  1 <1>   0.0860 
 17 C        5.7600     5.6290    -0.3000 C.ar  1 <1>  -0.1500 
 18 C        4.3820     4.9760     1.5290 C.ar  1 <1>  -0.1500 
 19 C        5.8360     6.9330     0.1750 C.ar  1 <1>   0.0540 
 20 C        4.4400     6.2640     2.0260 C.ar  1 <1>  -0.1500 
 21 C        6.5950     7.9390    -0.5370 C.2   1 <1>  -0.0540 
 22 C        5.1630     7.2320     1.3560 C.ar  1 <1>  -0.1500 
 23 C        6.3990     9.3250    -0.5310 C.2   1 <1>   0.1390 
 24 C        7.6570     7.7820    -1.3680 C.2   1 <1>  -0.3020 
 25 N        7.2490     9.9650    -1.2720 N.2   1 <1>  -0.7070 
 26 N        8.0290     9.0020    -1.7920 N.pl3 1 <1>   0.3000 
 27 H        3.0240     1.5550    -1.9050 H     1 <1>   0.0800 
 28 H        2.2400     2.1860    -0.5030 H     1 <1>   0.0800 
 29 H       -1.6500    -0.6660     0.5480 H     1 <1>   0.0800 
 30 H       -0.6010    -1.5390    -0.5380 H     1 <1>   0.0800 
 31 H       -1.7420    -0.3780    -1.1830 H     1 <1>   0.0800 
 32 H       -1.2150     1.5920     1.1060 H     1 <1>   0.0800 
 33 H       -1.4280     2.0330    -0.5780 H     1 <1>   0.0800 
 34 H        0.0260     2.4980     0.2770 H     1 <1>   0.0800 
 35 H        3.3570    -0.6170    -0.7360 H     1 <1>   0.0800 
 36 H        5.3660     0.6290    -0.6190 H     1 <1>   0.0800 
 37 H        2.1330    -0.9790     1.1640 H     1 <1>   0.0800 
 38 H        1.9830     0.7370     1.5260 H     1 <1>   0.0800 
 39 H        4.3740     2.3430     1.5670 H     1 <1>   0.3700 
 40 H        5.6950     0.3420     2.0280 H     1 <1>   0.0800 
 41 H        5.1820    -1.0740     1.1110 H     1 <1>   0.0800 
 42 H        6.2700     5.3830    -1.2140 H     1 <1>   0.1500 
 43 H        3.8080     4.2430     2.0650 H     1 <1>   0.1500 
 44 H        3.9230     6.5160     2.9360 H     1 <1>   0.1500 
 45 H        5.2080     8.2290     1.7570 H     1 <1>   0.1500 
 46 H        5.6220     9.8200     0.0260 H     1 <1>   0.1500 
 47 H        8.1560     6.8790    -1.6670 H     1 <1>   0.1500 
 48 H        8.8040     9.2140    -2.4330 H     1 <1>   0.2700 
@<TRIPOS>BOND
  1   1   2  2   
  2   1   3  2   
  3   1   4  am  
  4   1   5  1   
  5   4   6  1   
  6   4   7  1   
  7   5   8  1   
  8   5  27  1   
  9   5  28  1   
 10   6  29  1   
 11   6  30  1   
 12   6  31  1   
 13   7  32  1   
 14   7  33  1   
 15   7  34  1   
 16   8   9  1   
 17   8  10  1   
 18   8  35  1   
 19   9  11  1   
 20   9  12  1   
 21   9  36  1   
 22  10  13  1   
 23  10  37  1   
 24  10  38  1   
 25  11  14  am  
 26  11  39  1   
 27  12  13  1   
 28  12  40  1   
 29  12  41  1   
 30  14  15  2   
 31  14  16  1   
 32  16  17  ar  
 33  16  18  ar  
 34  17  19  ar  
 35  17  42  1   
 36  18  20  ar  
 37  18  43  1   
 38  19  21  1   
 39  19  22  ar  
 40  20  22  ar  
 41  20  44  1   
 42  21  23  1   
 43  21  24  2   
 44  22  45  1   
 45  23  25  2   
 46  23  46  1   
 47  24  26  1   
 48  24  47  1   
 49  25  26  1   
 50  26  48  1   
@<TRIPOS>SUBSTRUCTURE
  1 ****  14 GROUP 4 **** **** 0

# MOE 2024.06 (io_trps.svl 2023.06)
