@<TRIPOS>MOLECULE
NONAME
55 57 1 0 0 
SMALL
USER_CHARGES


@<TRIPOS>ATOM
  1 O       -1.9780     0.6370     0.7100 O.2   1 <1>  -0.5700 
  2 C       -2.7580     1.5830     0.6720 C.2   1 <1>   0.6160 
  3 N       -2.2450     2.8620     0.4810 N.am  1 <1>  -0.4690 
  4 C       -4.1770     1.4210     0.8130 C.2   1 <1>   0.0290 
  5 C       -3.0750     3.9570     0.4560 C.2   1 <1>  -0.0410 
  6 C       -0.7760     3.0470     0.3340 C.3   1 <1>   0.0600 
  7 C       -4.7200     0.1010     0.9930 C.2   1 <1>   0.6160 
  8 C       -4.9760     2.5380     0.7950 C.2   1 <1>  -0.1500 
  9 C       -4.4190     3.8170     0.6110 C.2   1 <1>  -0.1500 
 10 O       -5.5800    -0.0810     1.8410 O.2   1 <1>  -0.5700 
 11 N       -4.3830    -0.9710     0.1970 N.am  1 <1>  -0.6600 
 12 C       -4.1300    -2.3100     0.8150 C.3   1 <1>   0.1400 
 13 C       -4.0400    -0.8420    -1.2460 C.3   1 <1>   0.1400 
 14 C       -4.5400    -3.4770    -0.0950 C.3   1 <1>   0.1400 
 15 C       -5.2740    -1.1690    -2.1000 C.3   1 <1>  -0.1600 
 16 N       -5.8760    -3.2130    -0.7180 N.am  1 <1>  -0.6600 
 17 C       -5.7620    -2.6360    -2.0890 C.3   1 <1>   0.1400 
 18 C       -7.0060    -3.5820    -0.0220 C.2   1 <1>   0.5690 
 19 O       -6.8910    -4.2920     0.9530 O.2   1 <1>  -0.5700 
 20 C       -8.4540    -3.1370    -0.3560 C.3   1 <1>   0.0610 
 21 C       -9.2140    -3.0880     0.9800 C.3   1 <1>   0.3430 
 22 C       -8.6380    -1.6740    -0.7790 C.3   1 <1>  -0.1600 
 23 C       -9.1180    -4.1050    -1.3540 C.3   1 <1>  -0.2400 
 24 N       -8.9100    -1.7470     1.5870 N.4   1 <1>  -0.9590 
 25 C       -8.3630    -0.8930     0.4950 C.3   1 <1>   0.3430 
 26 C       -7.8970    -1.8580     2.6860 C.3   1 <1>   0.2630 
 27 H       -2.6280     4.9280     0.3140 H     1 <1>   0.1500 
 28 H       -0.4250     2.4870    -0.5150 H     1 <1>   0.0800 
 29 H       -0.2790     2.6870     1.2180 H     1 <1>   0.0800 
 30 H       -0.5340     4.0860     0.1950 H     1 <1>   0.0800 
 31 H       -6.0410     2.4570     0.9250 H     1 <1>   0.1500 
 32 H       -5.0720     4.6740     0.5980 H     1 <1>   0.1500 
 33 H       -4.6730    -2.3910     1.7410 H     1 <1>   0.0800 
 34 H       -3.0830    -2.3940     1.0490 H     1 <1>   0.0800 
 35 H       -3.2170    -1.4910    -1.4930 H     1 <1>   0.0800 
 36 H       -3.7270     0.1650    -1.4600 H     1 <1>   0.0800 
 37 H       -4.5610    -4.3850     0.4840 H     1 <1>   0.0800 
 38 H       -3.7940    -3.6190    -0.8570 H     1 <1>   0.0800 
 39 H       -5.0380    -0.9200    -3.1190 H     1 <1>   0.0800 
 40 H       -6.0620    -0.5050    -1.8050 H     1 <1>   0.0800 
 41 H       -5.0600    -3.2340    -2.6460 H     1 <1>   0.0800 
 42 H       -6.7000    -2.7170    -2.6070 H     1 <1>   0.0800 
 43 H       -8.9410    -3.8970     1.6370 H     1 <1>   0.0800 
 44 H      -10.2700    -3.1540     0.7790 H     1 <1>   0.0800 
 45 H       -9.6590    -1.4960    -1.0720 H     1 <1>   0.0800 
 46 H       -8.0220    -1.3590    -1.5890 H     1 <1>   0.0800 
 47 H       -9.0690    -5.1130    -0.9800 H     1 <1>   0.0800 
 48 H       -8.6080    -4.0770    -2.3000 H     1 <1>   0.0800 
 49 H      -10.1510    -3.8510    -1.5170 H     1 <1>   0.0800 
 50 H       -9.7720    -1.3300     1.9610 H     1 <1>   0.4500 
 51 H       -8.8220     0.0820     0.4800 H     1 <1>   0.0800 
 52 H       -7.2970    -0.7860     0.6110 H     1 <1>   0.0800 
 53 H       -6.9780    -2.2780     2.3080 H     1 <1>   0.0800 
 54 H       -8.2650    -2.4910     3.4770 H     1 <1>   0.0800 
 55 H       -7.6750    -0.8840     3.0930 H     1 <1>   0.0800 
@<TRIPOS>BOND
  1   1   2  2   
  2   2   3  am  
  3   2   4  1   
  4   3   5  1   
  5   3   6  1   
  6   4   7  1   
  7   4   8  2   
  8   5   9  2   
  9   5  27  1   
 10   6  28  1   
 11   6  29  1   
 12   6  30  1   
 13   7  10  2   
 14   7  11  am  
 15   8   9  1   
 16   8  31  1   
 17   9  32  1   
 18  11  12  1   
 19  11  13  1   
 20  12  14  1   
 21  12  33  1   
 22  12  34  1   
 23  13  15  1   
 24  13  35  1   
 25  13  36  1   
 26  14  16  1   
 27  14  37  1   
 28  14  38  1   
 29  15  17  1   
 30  15  39  1   
 31  15  40  1   
 32  16  17  1   
 33  16  18  am  
 34  17  41  1   
 35  17  42  1   
 36  18  19  2   
 37  18  20  1   
 38  20  21  1   
 39  20  22  1   
 40  20  23  1   
 41  21  24  1   
 42  21  43  1   
 43  21  44  1   
 44  22  25  1   
 45  22  45  1   
 46  22  46  1   
 47  23  47  1   
 48  23  48  1   
 49  23  49  1   
 50  24  25  1   
 51  24  26  1   
 52  24  50  1   
 53  25  51  1   
 54  25  52  1   
 55  26  53  1   
 56  26  54  1   
 57  26  55  1   
@<TRIPOS>SUBSTRUCTURE
  1 ****  11 GROUP 4 **** **** 0

# MOE 2024.06 (io_trps.svl 2023.06)
