@<TRIPOS>MOLECULE
NONAME
52 56 1 0 0 
SMALL
USER_CHARGES


@<TRIPOS>ATOM
  1 S        1.7440     1.1700    -0.5070 S.3   1 <1>  -0.0800 
  2 C        0.1230     1.5710     0.0400 C.2   1 <1>  -0.1400 
  3 C        1.5450    -0.4950     0.0240 C.2   1 <1>  -0.1100 
  4 C       -0.4810     0.4960     0.5620 C.2   1 <1>  -0.1810 
  5 C       -0.4670     2.9710    -0.0850 C.3   1 <1>   0.4600 
  6 C        0.3250    -0.6860     0.5630 C.2   1 <1>  -0.1500 
  7 C       -1.8950     0.6140     1.0820 C.3   1 <1>   0.0210 
  8 O       -1.7060     2.9980     0.6010 O.3   1 <1>  -0.5600 
  9 C       -0.6970     3.3650    -1.5510 C.3   1 <1>  -0.1600 
 10 C        0.4280     3.9990     0.6170 C.3   1 <1>  -0.1600 
 11 C       -2.5500     1.8750     0.4840 C.3   1 <1>   0.1200 
 12 C       -1.2350     4.7920    -1.6760 C.3   1 <1>   0.1400 
 13 C       -0.1180     5.4190     0.4630 C.3   1 <1>   0.1400 
 14 N       -0.3050     5.7230    -0.9820 N.am  1 <1>  -0.6600 
 15 C        0.3900     6.6920    -1.6730 C.2   1 <1>   0.5440 
 16 O        0.0290     7.0180    -2.7870 O.2   1 <1>  -0.5700 
 17 C        1.5110     7.3840    -1.0830 C.ar  1 <1>   0.0860 
 18 C        2.8090     6.8700    -1.0060 C.ar  1 <1>   0.0860 
 19 C        1.3090     8.6450    -0.5520 C.ar  1 <1>  -0.1500 
 20 C        3.7970     7.6470    -0.3760 C.ar  1 <1>   0.4270 
 21 C        3.2150     5.5890    -1.5300 C.2   1 <1>   0.5440 
 22 C        2.3470     9.3310     0.0410 C.ar  1 <1>   0.1660 
 23 N        3.5660     8.8530     0.1430 N.ar  1 <1>  -0.6200 
 24 N        5.1070     7.1640    -0.2640 N.am  1 <1>  -0.4770 
 25 O        2.4900     4.8160    -2.1130 O.2   1 <1>  -0.5700 
 26 N        4.4980     5.1900    -1.3670 N.am  1 <1>  -0.4900 
 27 C        2.1210    10.7110     0.6210 C.3   1 <1>  -0.0970 
 28 C        5.4510     5.9260    -0.7610 C.2   1 <1>   0.6900 
 29 C        6.1560     8.0070     0.3930 C.3   1 <1>   0.0600 
 30 O        6.5710     5.4690    -0.6820 O.2   1 <1>  -0.5700 
 31 H        2.3750    -1.1620    -0.1260 H     1 <1>   0.1500 
 32 H       -0.0440    -1.6140     0.9630 H     1 <1>   0.1500 
 33 H       -1.8840     0.6820     2.1550 H     1 <1>   0.0800 
 34 H       -2.4670    -0.2510     0.8010 H     1 <1>   0.0800 
 35 H       -1.3660     2.6730    -2.0240 H     1 <1>   0.0800 
 36 H        0.2370     3.3110    -2.0800 H     1 <1>   0.0800 
 37 H        1.4140     3.9610     0.1970 H     1 <1>   0.0800 
 38 H        0.5070     3.7450     1.6570 H     1 <1>   0.0800 
 39 H       -3.4660     2.0990     1.0020 H     1 <1>   0.0800 
 40 H       -2.7720     1.7230    -0.5570 H     1 <1>   0.0800 
 41 H       -2.2100     4.8630    -1.2240 H     1 <1>   0.0800 
 42 H       -1.3270     5.0500    -2.7170 H     1 <1>   0.0800 
 43 H        0.5520     6.1210     0.9250 H     1 <1>   0.0800 
 44 H       -1.0710     5.4960     0.9600 H     1 <1>   0.0800 
 45 H        0.3290     9.0840    -0.6120 H     1 <1>   0.1500 
 46 H        4.7690     4.2850    -1.7400 H     1 <1>   0.3700 
 47 H        1.1010    11.0260     0.4950 H     1 <1>   0.0800 
 48 H        2.7640    11.4180     0.1290 H     1 <1>   0.0800 
 49 H        2.3550    10.7050     1.6700 H     1 <1>   0.0800 
 50 H        5.8700     8.2110     1.4090 H     1 <1>   0.0800 
 51 H        6.2520     8.9390    -0.1370 H     1 <1>   0.0800 
 52 H        7.1140     7.5170     0.3980 H     1 <1>   0.0800 
@<TRIPOS>BOND
  1   1   2  1   
  2   1   3  1   
  3   2   4  2   
  4   2   5  1   
  5   3   6  2   
  6   3  31  1   
  7   4   6  1   
  8   4   7  1   
  9   5   8  1   
 10   5   9  1   
 11   5  10  1   
 12   6  32  1   
 13   7  11  1   
 14   7  33  1   
 15   7  34  1   
 16   8  11  1   
 17   9  12  1   
 18   9  35  1   
 19   9  36  1   
 20  10  13  1   
 21  10  37  1   
 22  10  38  1   
 23  11  39  1   
 24  11  40  1   
 25  12  14  1   
 26  12  41  1   
 27  12  42  1   
 28  13  14  1   
 29  13  43  1   
 30  13  44  1   
 31  14  15  am  
 32  15  16  2   
 33  15  17  1   
 34  17  18  ar  
 35  17  19  ar  
 36  18  20  ar  
 37  18  21  1   
 38  19  22  ar  
 39  19  45  1   
 40  20  23  ar  
 41  20  24  1   
 42  21  25  2   
 43  21  26  am  
 44  22  23  ar  
 45  22  27  1   
 46  24  28  am  
 47  24  29  1   
 48  26  28  am  
 49  26  46  1   
 50  27  47  1   
 51  27  48  1   
 52  27  49  1   
 53  28  30  2   
 54  29  50  1   
 55  29  51  1   
 56  29  52  1   
@<TRIPOS>SUBSTRUCTURE
  1 ****  10 GROUP 4 **** **** 0

# MOE 2024.06 (io_trps.svl 2023.06)
