@<TRIPOS>MOLECULE
NONAME
49 52 1 0 0 
SMALL
USER_CHARGES


@<TRIPOS>ATOM
  1 F        0.3010    -0.1990     0.4910 F     1 <1>  -0.1900 
  2 C        1.3480    -0.9900     0.4260 C.ar  1 <1>   0.1900 
  3 C        1.2160    -2.3310     0.0180 C.ar  1 <1>   0.4100 
  4 C        2.5640    -0.4470     0.7600 C.ar  1 <1>  -0.1500 
  5 N        2.2790    -3.1320    -0.0700 N.ar  1 <1>  -0.6200 
  6 N       -0.0110    -2.9100    -0.3170 N.pl3 1 <1>  -0.8380 
  7 C        3.6490    -1.2970     0.6680 C.ar  1 <1>  -0.1500 
  8 C        3.4510    -2.6030     0.2540 C.ar  1 <1>   0.1600 
  9 C       -1.1840    -2.7210     0.5870 C.3   1 <1>   0.2090 
 10 C       -0.0350    -4.0840    -1.2360 C.3   1 <1>   0.2090 
 11 C       -1.8800    -4.0570     0.8250 C.3   1 <1>  -0.1600 
 12 C       -1.4660    -4.3820    -1.6810 C.3   1 <1>  -0.1600 
 13 C       -2.4210    -4.6320    -0.4930 C.3   1 <1>   0.4240 
 14 O       -3.5920    -3.8910    -0.7410 O.3   1 <1>  -0.5600 
 15 C       -2.7350    -6.1380    -0.3340 C.ar  1 <1>  -0.1430 
 16 C       -4.5120    -4.4400    -1.6320 C.3   1 <1>   0.1200 
 17 C       -4.0130    -6.6350    -0.5700 C.ar  1 <1>  -0.1430 
 18 C       -1.7330    -7.0320     0.0290 C.ar  1 <1>  -0.1500 
 19 C       -5.1180    -5.6890    -0.9980 C.3   1 <1>  -0.0170 
 20 C       -4.2850    -7.9850    -0.4160 C.ar  1 <1>  -0.1500 
 21 C       -1.9910    -8.3850     0.1660 C.ar  1 <1>   0.0830 
 22 C       -3.2890    -8.8640    -0.0320 C.ar  1 <1>   0.0830 
 23 O       -0.9480    -9.1890     0.4880 O.3   1 <1>  -0.3630 
 24 O       -3.6310   -10.1650     0.1370 O.3   1 <1>  -0.3630 
 25 C       -0.5600   -10.1310    -0.4870 C.3   1 <1>   0.0400 
 26 C       -3.5470   -10.6640     1.4540 C.3   1 <1>   0.0400 
 27 H        2.6570     0.5770     1.0710 H     1 <1>   0.1500 
 28 H        4.6370    -0.9500     0.9130 H     1 <1>   0.1500 
 29 H        4.3060    -3.2540     0.1850 H     1 <1>   0.1500 
 30 H       -1.8700    -2.0250     0.1360 H     1 <1>   0.0800 
 31 H       -0.8590    -2.3160     1.5310 H     1 <1>   0.0800 
 32 H        0.3870    -4.9370    -0.7330 H     1 <1>   0.0800 
 33 H        0.5770    -3.8700    -2.0970 H     1 <1>   0.0800 
 34 H       -2.6900    -3.9370     1.5210 H     1 <1>   0.0800 
 35 H       -1.1680    -4.7210     1.2770 H     1 <1>   0.0800 
 36 H       -1.4580    -5.2370    -2.3300 H     1 <1>   0.0800 
 37 H       -1.8030    -3.5360    -2.2520 H     1 <1>   0.0800 
 38 H       -4.0140    -4.6750    -2.5560 H     1 <1>   0.0800 
 39 H       -5.2730    -3.7030    -1.8170 H     1 <1>   0.0800 
 40 H       -0.7290    -6.6940     0.2060 H     1 <1>   0.1500 
 41 H       -5.7640    -6.1690    -1.7090 H     1 <1>   0.0800 
 42 H       -5.7040    -5.4060    -0.1420 H     1 <1>   0.0800 
 43 H       -5.2750    -8.3680    -0.5870 H     1 <1>   0.1500 
 44 H        0.3350   -10.6180    -0.1460 H     1 <1>   0.0800 
 45 H       -0.3720    -9.6160    -1.4120 H     1 <1>   0.0800 
 46 H       -1.3440   -10.8550    -0.6160 H     1 <1>   0.0800 
 47 H       -3.9440   -11.6630     1.4610 H     1 <1>   0.0800 
 48 H       -4.1280   -10.0310     2.1020 H     1 <1>   0.0800 
 49 H       -2.5190   -10.6750     1.7670 H     1 <1>   0.0800 
@<TRIPOS>BOND
  1   1   2  1   
  2   2   3  ar  
  3   2   4  ar  
  4   3   5  ar  
  5   3   6  1   
  6   4   7  ar  
  7   4  27  1   
  8   5   8  ar  
  9   6   9  1   
 10   6  10  1   
 11   7   8  ar  
 12   7  28  1   
 13   8  29  1   
 14   9  11  1   
 15   9  30  1   
 16   9  31  1   
 17  10  12  1   
 18  10  32  1   
 19  10  33  1   
 20  11  13  1   
 21  11  34  1   
 22  11  35  1   
 23  12  13  1   
 24  12  36  1   
 25  12  37  1   
 26  13  14  1   
 27  13  15  1   
 28  14  16  1   
 29  15  17  ar  
 30  15  18  ar  
 31  16  19  1   
 32  16  38  1   
 33  16  39  1   
 34  17  19  1   
 35  17  20  ar  
 36  18  21  ar  
 37  18  40  1   
 38  19  41  1   
 39  19  42  1   
 40  20  22  ar  
 41  20  43  1   
 42  21  22  ar  
 43  21  23  1   
 44  22  24  1   
 45  23  25  1   
 46  24  26  1   
 47  25  44  1   
 48  25  45  1   
 49  25  46  1   
 50  26  47  1   
 51  26  48  1   
 52  26  49  1   
@<TRIPOS>SUBSTRUCTURE
  1 ****  13 GROUP 4 **** **** 0

# MOE 2024.06 (io_trps.svl 2023.06)
