@<TRIPOS>MOLECULE
NONAME
49 50 1 0 0 
SMALL
USER_CHARGES


@<TRIPOS>ATOM
  1 S        0.3860     1.2020    -0.1900 S.o2  1 <1>   1.3330 
  2 O        0.0570    -0.1890    -0.4080 O.2   1 <1>  -0.6500 
  3 O       -0.5700     2.2280    -0.5380 O.2   1 <1>  -0.6500 
  4 N        0.7460     1.3960     1.4590 N.am  1 <1>  -0.8490 
  5 C        1.9440     1.5400    -1.0130 C.3   1 <1>  -0.0550 
  6 C       -0.2000     0.6740     2.3140 C.3   1 <1>   0.1160 
  7 C        0.8180     2.8020     1.8770 C.3   1 <1>   0.1160 
  8 C        3.0250     0.4550    -0.8080 C.3   1 <1>  -0.0800 
  9 C        4.3140     0.6810    -1.5840 C.3   1 <1>   0.2200 
 10 C        3.5270     0.2950     0.6330 C.3   1 <1>   0.1200 
 11 N        4.7300     2.0990    -1.4920 N.am  1 <1>  -0.7300 
 12 C        5.2800    -0.1710    -0.7740 C.3   1 <1>   0.1200 
 13 O        4.8930     0.0050     0.5550 O.3   1 <1>  -0.5600 
 14 C        4.5330     3.0440    -2.4440 C.2   1 <1>   0.5690 
 15 O        4.0590     2.7690    -3.5190 O.2   1 <1>  -0.5700 
 16 C        4.8950     4.4890    -2.1460 C.3   1 <1>   0.1310 
 17 S        4.4990     4.9070    -0.3760 S.3   1 <1>  -0.3310 
 18 C        4.9940     6.6220    -0.1290 C.ar  1 <1>   0.1010 
 19 C        4.8720     7.1340     1.1490 C.ar  1 <1>  -0.1500 
 20 C        5.4760     7.4070    -1.1660 C.ar  1 <1>  -0.1500 
 21 C        5.2360     8.4450     1.4080 C.ar  1 <1>   0.0820 
 22 C        5.8410     8.7180    -0.9090 C.ar  1 <1>  -0.1500 
 23 O        5.0910     8.8800     2.6850 O.3   1 <1>  -0.3620 
 24 C        5.7230     9.2380     0.3700 C.ar  1 <1>  -0.1500 
 25 C        5.4370    10.1960     3.0560 C.3   1 <1>   0.0400 
 26 H        1.7570     1.6220    -2.0660 H     1 <1>   0.0800 
 27 H        2.3120     2.4910    -0.6830 H     1 <1>   0.0800 
 28 H        0.0610     0.8000     3.3510 H     1 <1>   0.0800 
 29 H       -0.1740    -0.3780     2.0870 H     1 <1>   0.0800 
 30 H       -1.2020     1.0380     2.1530 H     1 <1>   0.0800 
 31 H        1.1220     2.8660     2.9080 H     1 <1>   0.0800 
 32 H       -0.1420     3.2800     1.7650 H     1 <1>   0.0800 
 33 H        1.5390     3.3350     1.2800 H     1 <1>   0.0800 
 34 H        2.6150    -0.4920    -1.1140 H     1 <1>   0.0800 
 35 H        4.2470     0.3670    -2.6130 H     1 <1>   0.0800 
 36 H        3.0240    -0.5060     1.1470 H     1 <1>   0.0800 
 37 H        3.4250     1.2070     1.1940 H     1 <1>   0.0800 
 38 H        5.0690     2.3760    -0.5640 H     1 <1>   0.3700 
 39 H        6.3060     0.1270    -0.8980 H     1 <1>   0.0800 
 40 H        5.1660    -1.2130    -1.0160 H     1 <1>   0.0800 
 41 H        4.3220     5.1500    -2.7690 H     1 <1>   0.0800 
 42 H        5.9470     4.6490    -2.2920 H     1 <1>   0.0800 
 43 H        4.4970     6.5200     1.9460 H     1 <1>   0.1500 
 44 H        5.5730     7.0270    -2.1630 H     1 <1>   0.1500 
 45 H        6.2170     9.3370    -1.7060 H     1 <1>   0.1500 
 46 H        6.0130    10.2570     0.5390 H     1 <1>   0.1500 
 47 H        5.2400    10.3080     4.1070 H     1 <1>   0.0800 
 48 H        4.8330    10.8880     2.4960 H     1 <1>   0.0800 
 49 H        6.4840    10.3500     2.8630 H     1 <1>   0.0800 
@<TRIPOS>BOND
  1   1   2  2   
  2   1   3  2   
  3   1   4  am  
  4   1   5  1   
  5   4   6  1   
  6   4   7  1   
  7   5   8  1   
  8   5  26  1   
  9   5  27  1   
 10   6  28  1   
 11   6  29  1   
 12   6  30  1   
 13   7  31  1   
 14   7  32  1   
 15   7  33  1   
 16   8   9  1   
 17   8  10  1   
 18   8  34  1   
 19   9  11  1   
 20   9  12  1   
 21   9  35  1   
 22  10  13  1   
 23  10  36  1   
 24  10  37  1   
 25  11  14  am  
 26  11  38  1   
 27  12  13  1   
 28  12  39  1   
 29  12  40  1   
 30  14  15  2   
 31  14  16  1   
 32  16  17  1   
 33  16  41  1   
 34  16  42  1   
 35  17  18  1   
 36  18  19  ar  
 37  18  20  ar  
 38  19  21  ar  
 39  19  43  1   
 40  20  22  ar  
 41  20  44  1   
 42  21  23  1   
 43  21  24  ar  
 44  22  24  ar  
 45  22  45  1   
 46  23  25  1   
 47  24  46  1   
 48  25  47  1   
 49  25  48  1   
 50  25  49  1   
@<TRIPOS>SUBSTRUCTURE
  1 ****  17 GROUP 4 **** **** 0

# MOE 2024.06 (io_trps.svl 2023.06)
