@<TRIPOS>MOLECULE
NONAME
52 54 1 0 0 
SMALL
USER_CHARGES


@<TRIPOS>ATOM
  1 CL      -0.4860    -1.8520    -1.7820 Cl    1 <1>  -0.1230 
  2 C       -1.3190    -2.9580    -0.6980 C.2   1 <1>   0.1230 
  3 C       -1.1990    -4.3410    -0.6950 C.2   1 <1>   0.1080 
  4 C       -2.1890    -2.6420     0.2800 C.2   1 <1>  -0.3320 
  5 N       -1.9520    -4.8730     0.2200 N.2   1 <1>  -0.7070 
  6 C       -0.3190    -5.1590    -1.6140 C.3   1 <1>  -0.0590 
  7 N       -2.5580    -3.8250     0.8300 N.pl3 1 <1>   0.3140 
  8 C       -2.6870    -1.2720     0.7200 C.3   1 <1>  -0.0600 
  9 C       -3.4830    -4.0400     1.9510 C.3   1 <1>   0.1570 
 10 C       -4.9170    -3.8420     1.4970 C.2   1 <1>   0.5690 
 11 O       -5.5380    -2.9540     2.0280 O.2   1 <1>  -0.5700 
 12 N       -5.5170    -4.6360     0.5430 N.am  1 <1>  -0.6600 
 13 C       -6.8680    -4.2810    -0.0110 C.3   1 <1>   0.1400 
 14 C       -4.8590    -5.8170    -0.1150 C.3   1 <1>   0.1400 
 15 C       -7.8470    -5.4830    -0.0220 C.3   1 <1>   0.4230 
 16 C       -5.8730    -6.8880    -0.5690 C.3   1 <1>   0.3430 
 17 N       -7.1460    -6.8050     0.2320 N.4   1 <1>  -0.9590 
 18 C       -8.6420    -5.5090    -1.3500 C.3   1 <1>   0.1200 
 19 C       -8.1040    -7.9510     0.0600 C.3   1 <1>   0.4230 
 20 O       -9.4890    -6.6200    -1.4060 O.3   1 <1>  -0.5600 
 21 C       -8.8520    -7.8600    -1.2900 C.3   1 <1>   0.1200 
 22 C       -7.3840    -9.2960     0.2580 C.3   1 <1>  -0.1600 
 23 C       -8.3650   -10.4580     0.4780 C.3   1 <1>  -0.1600 
 24 C       -7.6110   -11.7620     0.7530 C.3   1 <1>  -0.2400 
 25 H        0.4670    -4.5510    -2.0220 H     1 <1>   0.0800 
 26 H       -0.9070    -5.5600    -2.4180 H     1 <1>   0.0800 
 27 H        0.1230    -5.9700    -1.0640 H     1 <1>   0.0800 
 28 H       -2.2320    -0.5010     0.1240 H     1 <1>   0.0800 
 29 H       -2.4360    -1.0950     1.7510 H     1 <1>   0.0800 
 30 H       -3.7540    -1.2030     0.6040 H     1 <1>   0.0800 
 31 H       -3.3480    -5.0320     2.3340 H     1 <1>   0.0800 
 32 H       -3.2490    -3.3380     2.7280 H     1 <1>   0.0800 
 33 H       -7.3170    -3.4800     0.5510 H     1 <1>   0.0800 
 34 H       -6.7290    -3.9100    -1.0120 H     1 <1>   0.0800 
 35 H       -4.2880    -5.4850    -0.9650 H     1 <1>   0.0800 
 36 H       -4.1720    -6.2780     0.5730 H     1 <1>   0.0800 
 37 H       -8.5630    -5.3190     0.7660 H     1 <1>   0.0800 
 38 H       -5.4160    -7.8570    -0.4630 H     1 <1>   0.0800 
 39 H       -6.0930    -6.7440    -1.6140 H     1 <1>   0.0800 
 40 H       -6.8600    -6.7740     1.2190 H     1 <1>   0.4500 
 41 H       -7.9850    -5.5380    -2.2010 H     1 <1>   0.0800 
 42 H       -9.2590    -4.6300    -1.4280 H     1 <1>   0.0800 
 43 H       -8.8530    -7.8760     0.8320 H     1 <1>   0.0800 
 44 H       -9.6170    -8.6150    -1.3450 H     1 <1>   0.0800 
 45 H       -8.1840    -7.9910    -2.1230 H     1 <1>   0.0800 
 46 H       -6.7740    -9.5220    -0.5980 H     1 <1>   0.0800 
 47 H       -6.7510    -9.2300     1.1260 H     1 <1>   0.0800 
 48 H       -9.0090   -10.2460     1.3160 H     1 <1>   0.0800 
 49 H       -8.9870   -10.6010    -0.3910 H     1 <1>   0.0800 
 50 H       -7.0030   -11.6730     1.6370 H     1 <1>   0.0800 
 51 H       -6.9790   -12.0210    -0.0780 H     1 <1>   0.0800 
 52 H       -8.3110   -12.5650     0.9060 H     1 <1>   0.0800 
@<TRIPOS>BOND
  1   1   2  1   
  2   2   3  1   
  3   2   4  2   
  4   3   5  2   
  5   3   6  1   
  6   4   7  1   
  7   4   8  1   
  8   5   7  1   
  9   6  25  1   
 10   6  26  1   
 11   6  27  1   
 12   7   9  1   
 13   8  28  1   
 14   8  29  1   
 15   8  30  1   
 16   9  10  1   
 17   9  31  1   
 18   9  32  1   
 19  10  11  2   
 20  10  12  am  
 21  12  13  1   
 22  12  14  1   
 23  13  15  1   
 24  13  33  1   
 25  13  34  1   
 26  14  16  1   
 27  14  35  1   
 28  14  36  1   
 29  15  17  1   
 30  15  18  1   
 31  15  37  1   
 32  16  17  1   
 33  16  38  1   
 34  16  39  1   
 35  17  19  1   
 36  17  40  1   
 37  18  20  1   
 38  18  41  1   
 39  18  42  1   
 40  19  21  1   
 41  19  22  1   
 42  19  43  1   
 43  20  21  1   
 44  21  44  1   
 45  21  45  1   
 46  22  23  1   
 47  22  46  1   
 48  22  47  1   
 49  23  24  1   
 50  23  48  1   
 51  23  49  1   
 52  24  50  1   
 53  24  51  1   
 54  24  52  1   
@<TRIPOS>SUBSTRUCTURE
  1 ****  14 GROUP 4 **** **** 0

# MOE 2024.06 (io_trps.svl 2023.06)
