@<TRIPOS>MOLECULE
NONAME
51 53 1 0 0 
SMALL
USER_CHARGES


@<TRIPOS>ATOM
  1 O        0.6090     1.8230    -0.6320 O.2   1 <1>  -0.5700 
  2 C       -0.2320     2.6590    -0.9100 C.2   1 <1>   0.8410 
  3 N       -0.5710     2.8410    -2.2250 N.2   1 <1>  -0.6610 
  4 N       -0.8130     3.4280     0.0860 N.am  1 <1>  -0.4690 
  5 C       -1.4430     3.7410    -2.5010 C.2   1 <1>   0.3760 
  6 C       -1.7380     4.3900    -0.2310 C.2   1 <1>  -0.0410 
  7 C       -0.4200     3.2410     1.5190 C.3   1 <1>   0.2010 
  8 C       -2.0660     4.5570    -1.5330 C.2   1 <1>  -0.1360 
  9 C        0.3370     4.4480     2.0720 C.2   1 <1>   0.5690 
 10 O       -0.3220     5.2760     2.6610 O.2   1 <1>  -0.5700 
 11 N        1.6920     4.6100     1.8980 N.am  1 <1>  -0.6600 
 12 C        2.6070     3.6670     1.1720 C.3   1 <1>   0.1400 
 13 C        2.3760     5.8330     2.3990 C.3   1 <1>   0.1400 
 14 C        2.9690     4.1560    -0.2400 C.3   1 <1>   0.1400 
 15 C        2.2500     6.9860     1.3940 C.3   1 <1>  -0.1600 
 16 N        3.4960     5.5590    -0.2400 N.am  1 <1>  -0.6600 
 17 C        2.4410     6.5980    -0.0800 C.3   1 <1>   0.1400 
 18 C        4.8420     5.8030    -0.3280 C.2   1 <1>   0.5690 
 19 O        5.6450     4.9000    -0.3180 O.2   1 <1>  -0.5700 
 20 C        5.3520     7.2380    -0.4310 C.3   1 <1>  -0.0990 
 21 C        6.8850     7.3610    -0.5300 C.3   1 <1>  -0.1600 
 22 C        7.3420     8.8220    -0.6380 C.3   1 <1>   0.0210 
 23 C        8.8540     8.9460    -0.7260 C.2   1 <1>  -0.1810 
 24 C        9.5610    10.1410    -0.8400 C.2   1 <1>   0.1390 
 25 C        9.8090     7.9910    -0.7150 C.2   1 <1>  -0.3020 
 26 N       10.8440     9.9550    -0.8950 N.2   1 <1>  -0.7070 
 27 N       10.9950     8.6200    -0.8180 N.pl3 1 <1>   0.3000 
 28 H       -1.7230     3.8940    -3.5290 H     1 <1>   0.0600 
 29 H       -2.1670     4.9800     0.5660 H     1 <1>   0.1500 
 30 H        0.1630     2.3500     1.6520 H     1 <1>   0.0800 
 31 H       -1.3150     3.1170     2.1010 H     1 <1>   0.0800 
 32 H       -2.7830     5.2880    -1.8580 H     1 <1>   0.1500 
 33 H        2.1720     2.6890     1.1020 H     1 <1>   0.0800 
 34 H        3.5180     3.5560     1.7340 H     1 <1>   0.0800 
 35 H        3.4170     5.6160     2.5670 H     1 <1>   0.0800 
 36 H        1.9500     6.1280     3.3430 H     1 <1>   0.0800 
 37 H        2.1030     4.1010    -0.8740 H     1 <1>   0.0800 
 38 H        3.7020     3.4880    -0.6590 H     1 <1>   0.0800 
 39 H        2.9630     7.7450     1.6590 H     1 <1>   0.0800 
 40 H        1.2760     7.4290     1.5030 H     1 <1>   0.0800 
 41 H        2.6780     7.4690    -0.6630 H     1 <1>   0.0800 
 42 H        1.5100     6.2080    -0.4560 H     1 <1>   0.0800 
 43 H        5.0180     7.7780     0.4340 H     1 <1>   0.0800 
 44 H        4.9120     7.6850    -1.3030 H     1 <1>   0.0800 
 45 H        7.2280     6.8170    -1.3940 H     1 <1>   0.0800 
 46 H        7.3310     6.9130     0.3420 H     1 <1>   0.0800 
 47 H        7.0020     9.3710     0.2230 H     1 <1>   0.0800 
 48 H        6.9090     9.2700    -1.5150 H     1 <1>   0.0800 
 49 H        9.1060    11.1160    -0.8780 H     1 <1>   0.1500 
 50 H        9.7160     6.9220    -0.6420 H     1 <1>   0.1500 
 51 H       11.9190     8.1710    -0.8380 H     1 <1>   0.2700 
@<TRIPOS>BOND
  1   1   2  2   
  2   2   3  1   
  3   2   4  am  
  4   3   5  2   
  5   4   6  1   
  6   4   7  1   
  7   5   8  1   
  8   5  28  1   
  9   6   8  2   
 10   6  29  1   
 11   7   9  1   
 12   7  30  1   
 13   7  31  1   
 14   8  32  1   
 15   9  10  2   
 16   9  11  am  
 17  11  12  1   
 18  11  13  1   
 19  12  14  1   
 20  12  33  1   
 21  12  34  1   
 22  13  15  1   
 23  13  35  1   
 24  13  36  1   
 25  14  16  1   
 26  14  37  1   
 27  14  38  1   
 28  15  17  1   
 29  15  39  1   
 30  15  40  1   
 31  16  17  1   
 32  16  18  am  
 33  17  41  1   
 34  17  42  1   
 35  18  19  2   
 36  18  20  1   
 37  20  21  1   
 38  20  43  1   
 39  20  44  1   
 40  21  22  1   
 41  21  45  1   
 42  21  46  1   
 43  22  23  1   
 44  22  47  1   
 45  22  48  1   
 46  23  24  1   
 47  23  25  2   
 48  24  26  2   
 49  24  49  1   
 50  25  27  1   
 51  25  50  1   
 52  26  27  1   
 53  27  51  1   
@<TRIPOS>SUBSTRUCTURE
  1 ****  16 GROUP 4 **** **** 0

# MOE 2024.06 (io_trps.svl 2023.06)
