@<TRIPOS>MOLECULE
NONAME
42 44 1 0 0 
SMALL
USER_CHARGES


@<TRIPOS>ATOM
  1 O        1.4070     0.4970     1.5260 O.2   1 <1>  -0.5700 
  2 C        2.0680    -0.0850     0.6860 C.2   1 <1>   0.7150 
  3 N        3.4070     0.1350     0.6570 N.am  1 <1>  -0.7300 
  4 C        1.4780    -0.9480    -0.3030 C.2   1 <1>  -0.2370 
  5 C        4.1340     1.1530     1.4440 C.3   1 <1>   0.3200 
  6 N        0.1480    -1.3020    -0.3500 N.pl3 1 <1>   0.0480 
  7 C        2.0970    -1.5580    -1.3680 C.2   1 <1>  -0.1500 
  8 C        4.7130     2.1940     0.5030 C.2   1 <1>   0.0070 
  9 C       -0.0370    -2.1080    -1.4230 C.2   1 <1>  -0.3020 
 10 C       -0.9290    -0.9110     0.5830 C.3   1 <1>   0.0160 
 11 C        1.1430    -2.2850    -2.0700 C.2   1 <1>  -0.1500 
 12 N        5.9750     2.3250     0.2730 N.2   1 <1>  -0.3380 
 13 N        3.9890     3.0780    -0.1980 N.pl3 1 <1>   0.0480 
 14 N        6.1130     3.3170    -0.6060 N.2   1 <1>  -0.3380 
 15 C        4.9290     3.7450    -0.8730 C.2   1 <1>   0.0370 
 16 C        2.5160     3.2590    -0.2510 C.3   1 <1>   0.1760 
 17 C        1.9560     2.6930    -1.5670 C.3   1 <1>  -0.1600 
 18 C        2.1200     4.7350    -0.0760 C.3   1 <1>  -0.1600 
 19 C        0.4300     2.8430    -1.6140 C.3   1 <1>  -0.1600 
 20 C        0.5930     4.8940    -0.1250 C.3   1 <1>  -0.1600 
 21 C        0.0130     4.3070    -1.4200 C.3   1 <1>  -0.1600 
 22 H        3.9560    -0.3120    -0.0750 H     1 <1>   0.3700 
 23 H        4.9340     0.6750     1.9840 H     1 <1>   0.0800 
 24 H        3.4830     1.6250     2.1600 H     1 <1>   0.0800 
 25 H        3.1350    -1.5060    -1.6470 H     1 <1>   0.1500 
 26 H       -0.9970    -2.5210    -1.6790 H     1 <1>   0.1500 
 27 H       -0.6600    -1.2090     1.5800 H     1 <1>   0.0800 
 28 H       -1.8470    -1.3910     0.3010 H     1 <1>   0.0800 
 29 H       -1.0560     0.1560     0.5510 H     1 <1>   0.0800 
 30 H        1.3250    -2.8710    -2.9560 H     1 <1>   0.1500 
 31 H        4.7070     4.5420    -1.5580 H     1 <1>   0.1500 
 32 H        2.0830     2.7120     0.5650 H     1 <1>   0.0800 
 33 H        2.2100     1.6520    -1.6550 H     1 <1>   0.0800 
 34 H        2.3880     3.2180    -2.4020 H     1 <1>   0.0800 
 35 H        2.5550     5.3300    -0.8600 H     1 <1>   0.0800 
 36 H        2.4840     5.0960     0.8710 H     1 <1>   0.0800 
 37 H       -0.0120     2.2380    -0.8390 H     1 <1>   0.0800 
 38 H        0.0610     2.4830    -2.5600 H     1 <1>   0.0800 
 39 H        0.3360     5.9370    -0.0550 H     1 <1>   0.0800 
 40 H        0.1540     4.3900     0.7200 H     1 <1>   0.0800 
 41 H       -1.0620     4.3740    -1.3940 H     1 <1>   0.0800 
 42 H        0.3550     4.8890    -2.2590 H     1 <1>   0.0800 
@<TRIPOS>BOND
  1   1   2  2   
  2   2   3  am  
  3   2   4  1   
  4   3   5  1   
  5   3  22  1   
  6   4   6  1   
  7   4   7  2   
  8   5   8  1   
  9   5  23  1   
 10   5  24  1   
 11   6   9  1   
 12   6  10  1   
 13   7  11  1   
 14   7  25  1   
 15   8  12  2   
 16   8  13  1   
 17   9  11  2   
 18   9  26  1   
 19  10  27  1   
 20  10  28  1   
 21  10  29  1   
 22  11  30  1   
 23  12  14  1   
 24  13  15  1   
 25  13  16  1   
 26  14  15  2   
 27  15  31  1   
 28  16  17  1   
 29  16  18  1   
 30  16  32  1   
 31  17  19  1   
 32  17  33  1   
 33  17  34  1   
 34  18  20  1   
 35  18  35  1   
 36  18  36  1   
 37  19  21  1   
 38  19  37  1   
 39  19  38  1   
 40  20  21  1   
 41  20  39  1   
 42  20  40  1   
 43  21  41  1   
 44  21  42  1   
@<TRIPOS>SUBSTRUCTURE
  1 ****  17 GROUP 4 **** **** 0

# MOE 2024.06 (io_trps.svl 2023.06)
