@<TRIPOS>MOLECULE
NONAME
42 43 1 0 0 
SMALL
USER_CHARGES


@<TRIPOS>ATOM
  1 F        0.4310     0.4520    -0.0280 F     1 <1>  -0.1900 
  2 C        0.4250     1.7610    -0.0270 C.ar  1 <1>   0.1900 
  3 C        1.5680     2.4500     0.3640 C.ar  1 <1>   0.0860 
  4 C       -0.7170     2.4260    -0.4320 C.ar  1 <1>   0.1900 
  5 C        1.5200     3.8520     0.3170 C.ar  1 <1>   0.0830 
  6 C        2.7440     1.7400     0.8010 C.2   1 <1>   0.5440 
  7 F       -1.7810     1.7550    -0.7970 F     1 <1>  -0.1900 
  8 C       -0.7670     3.8050    -0.4710 C.ar  1 <1>  -0.1500 
  9 O        2.6380     4.5270     0.6840 O.3   1 <1>  -0.3630 
 10 C        0.3610     4.5160    -0.0950 C.ar  1 <1>  -0.1500 
 11 O        2.7570     1.2410     1.9110 O.2   1 <1>  -0.5700 
 12 N        3.8490     1.6040    -0.0120 N.am  1 <1>  -0.6600 
 13 C        2.6920     5.9330     0.7750 C.3   1 <1>   0.0400 
 14 C        5.1540     1.1440     0.5420 C.3   1 <1>   0.3210 
 15 C        3.8820     2.0710    -1.4270 C.3   1 <1>   0.0600 
 16 C        6.2170     2.2050     0.3110 C.2   1 <1>  -0.1810 
 17 C        7.3860     2.0960    -0.4360 C.2   1 <1>   0.1080 
 18 C        6.2310     3.4720     0.7760 C.2   1 <1>  -0.3020 
 19 N        8.0680     3.1970    -0.4400 N.2   1 <1>  -0.7070 
 20 C        7.8510     0.8630    -1.1770 C.3   1 <1>  -0.0590 
 21 N        7.3530     4.0520     0.3130 N.pl3 1 <1>   0.3140 
 22 C        7.7930     5.4390     0.5590 C.3   1 <1>   0.0960 
 23 C        7.0230     6.4280    -0.3250 C.3   1 <1>  -0.2400 
 24 H       -1.6660     4.3050    -0.7880 H     1 <1>   0.1500 
 25 H        0.3170     5.5890    -0.1300 H     1 <1>   0.1500 
 26 H        3.6690     6.2060     1.1300 H     1 <1>   0.0800 
 27 H        1.9450     6.2680     1.4730 H     1 <1>   0.0800 
 28 H        2.5280     6.3540    -0.2010 H     1 <1>   0.0800 
 29 H        5.4310     0.2230     0.0650 H     1 <1>   0.0800 
 30 H        5.0780     0.9590     1.5990 H     1 <1>   0.0800 
 31 H        2.8990     2.0420    -1.8620 H     1 <1>   0.0800 
 32 H        4.5300     1.4380    -2.0070 H     1 <1>   0.0800 
 33 H        4.2560     3.0800    -1.4640 H     1 <1>   0.0800 
 34 H        5.5090     3.9740     1.3930 H     1 <1>   0.1500 
 35 H        7.0950     0.5440    -1.8690 H     1 <1>   0.0800 
 36 H        8.0550     0.0740    -0.4770 H     1 <1>   0.0800 
 37 H        8.7510     1.0840    -1.7220 H     1 <1>   0.0800 
 38 H        8.8460     5.4980     0.3480 H     1 <1>   0.0800 
 39 H        7.6370     5.6640     1.5980 H     1 <1>   0.0800 
 40 H        7.1930     6.1970    -1.3630 H     1 <1>   0.0800 
 41 H        7.3650     7.4290    -0.1360 H     1 <1>   0.0800 
 42 H        5.9700     6.3760    -0.1170 H     1 <1>   0.0800 
@<TRIPOS>BOND
  1   1   2  1   
  2   2   3  ar  
  3   2   4  ar  
  4   3   5  ar  
  5   3   6  1   
  6   4   7  1   
  7   4   8  ar  
  8   5   9  1   
  9   5  10  ar  
 10   6  11  2   
 11   6  12  am  
 12   8  10  ar  
 13   8  24  1   
 14   9  13  1   
 15  10  25  1   
 16  12  14  1   
 17  12  15  1   
 18  13  26  1   
 19  13  27  1   
 20  13  28  1   
 21  14  16  1   
 22  14  29  1   
 23  14  30  1   
 24  15  31  1   
 25  15  32  1   
 26  15  33  1   
 27  16  17  1   
 28  16  18  2   
 29  17  19  2   
 30  17  20  1   
 31  18  21  1   
 32  18  34  1   
 33  19  21  1   
 34  20  35  1   
 35  20  36  1   
 36  20  37  1   
 37  21  22  1   
 38  22  23  1   
 39  22  38  1   
 40  22  39  1   
 41  23  40  1   
 42  23  41  1   
 43  23  42  1   
@<TRIPOS>SUBSTRUCTURE
  1 ****  12 GROUP 4 **** **** 0

# MOE 2024.06 (io_trps.svl 2023.06)
