@<TRIPOS>MOLECULE
NONAME
39 40 1 0 0 
SMALL
USER_CHARGES


@<TRIPOS>ATOM
  1 S       -0.2240     0.0330     0.5650 S.o2  1 <1>   1.3330 
  2 O       -0.8860     1.2930     0.8120 O.2   1 <1>  -0.6500 
  3 O        0.0560    -0.8550     1.6710 O.2   1 <1>  -0.6500 
  4 N       -1.1270    -0.8320    -0.5840 N.am  1 <1>  -0.8490 
  5 C        1.2960     0.3850    -0.3180 C.3   1 <1>  -0.0550 
  6 C       -0.8270    -2.2680    -0.6010 C.3   1 <1>   0.1160 
  7 C       -2.5700    -0.6270    -0.4270 C.3   1 <1>   0.1160 
  8 C        2.2810     1.2540     0.4880 C.3   1 <1>  -0.0800 
  9 C        3.4480     1.7080    -0.3740 C.3   1 <1>   0.2200 
 10 C        2.9690     0.4620     1.6130 C.3   1 <1>   0.1200 
 11 N        3.9630     2.9870     0.1580 N.am  1 <1>  -0.7300 
 12 C        4.4700     0.6110    -0.1160 C.3   1 <1>   0.1200 
 13 O        4.2950     0.2630     1.2220 O.3   1 <1>  -0.5600 
 14 C        4.2440     4.0880    -0.5920 C.2   1 <1>   0.7150 
 15 O        4.0810     4.0380    -1.7950 O.2   1 <1>  -0.5700 
 16 C        4.7370     5.2730     0.0480 C.2   1 <1>  -0.2370 
 17 N        4.5050     5.5780     1.3630 N.pl3 1 <1>   0.0330 
 18 C        5.4800     6.2960    -0.4810 C.2   1 <1>  -0.1500 
 19 C        5.1030     6.7600     1.6460 C.2   1 <1>  -0.3020 
 20 C        5.7150     7.2290     0.5260 C.2   1 <1>  -0.1500 
 21 H        1.7710    -0.5350    -0.5990 H     1 <1>   0.0800 
 22 H        1.0380     0.9080    -1.2190 H     1 <1>   0.0800 
 23 H       -1.3560    -2.7470    -1.4070 H     1 <1>   0.0800 
 24 H       -1.1190    -2.7260     0.3310 H     1 <1>   0.0800 
 25 H        0.2280    -2.4260    -0.7470 H     1 <1>   0.0800 
 26 H       -3.1090    -1.1760    -1.1800 H     1 <1>   0.0800 
 27 H       -2.8090     0.4170    -0.5380 H     1 <1>   0.0800 
 28 H       -2.8910    -0.9530     0.5490 H     1 <1>   0.0800 
 29 H        1.7440     2.1000     0.8830 H     1 <1>   0.0800 
 30 H        3.2000     1.7970    -1.4190 H     1 <1>   0.0800 
 31 H        2.5220    -0.5020     1.7850 H     1 <1>   0.0800 
 32 H        2.9770     1.0190     2.5340 H     1 <1>   0.0800 
 33 H        4.4180     2.8930     1.0660 H     1 <1>   0.3700 
 34 H        5.4820     0.9360    -0.2800 H     1 <1>   0.0800 
 35 H        4.2620    -0.2590    -0.7150 H     1 <1>   0.0800 
 36 H        3.9420     5.0170     2.0120 H     1 <1>   0.2700 
 37 H        5.8260     6.3750    -1.4990 H     1 <1>   0.1500 
 38 H        5.0630     7.2140     2.6200 H     1 <1>   0.1500 
 39 H        6.2750     8.1410     0.4130 H     1 <1>   0.1500 
@<TRIPOS>BOND
  1   1   2  2   
  2   1   3  2   
  3   1   4  am  
  4   1   5  1   
  5   4   6  1   
  6   4   7  1   
  7   5   8  1   
  8   5  21  1   
  9   5  22  1   
 10   6  23  1   
 11   6  24  1   
 12   6  25  1   
 13   7  26  1   
 14   7  27  1   
 15   7  28  1   
 16   8   9  1   
 17   8  10  1   
 18   8  29  1   
 19   9  11  1   
 20   9  12  1   
 21   9  30  1   
 22  10  13  1   
 23  10  31  1   
 24  10  32  1   
 25  11  14  am  
 26  11  33  1   
 27  12  13  1   
 28  12  34  1   
 29  12  35  1   
 30  14  15  2   
 31  14  16  1   
 32  16  17  1   
 33  16  18  2   
 34  17  19  1   
 35  17  36  1   
 36  18  20  1   
 37  18  37  1   
 38  19  20  2   
 39  19  38  1   
 40  20  39  1   
@<TRIPOS>SUBSTRUCTURE
  1 ****   8 GROUP 4 **** **** 0

# MOE 2024.06 (io_trps.svl 2023.06)
