@<TRIPOS>MOLECULE
NONAME
47 49 1 0 0 
SMALL
USER_CHARGES


@<TRIPOS>ATOM
  1 S        0.9760     1.7220    -1.4550 S.3   1 <1>  -0.0800 
  2 C       -0.1120     1.2410    -0.1700 C.2   1 <1>   0.1980 
  3 C        0.9930     3.3270    -0.8040 C.2   1 <1>  -0.1100 
  4 N       -0.4130     2.1840     0.6290 N.2   1 <1>  -0.5650 
  5 C       -0.5870    -0.2080    -0.1190 C.3   1 <1>   0.1000 
  6 C        0.2100     3.3970     0.2950 C.2   1 <1>   0.1410 
  7 C        0.5850    -1.1770     0.0820 C.3   1 <1>  -0.2400 
  8 C       -1.3900    -0.5830    -1.3720 C.3   1 <1>  -0.2400 
  9 C        0.0000     4.6030     1.0800 C.2   1 <1>   0.7160 
 10 O        0.0550     4.6060     2.2980 O.2   1 <1>  -0.5700 
 11 N       -0.2460     5.7780     0.4120 N.am  1 <1>  -0.4940 
 12 C       -0.1610     7.1170     0.8560 C.2   1 <1>  -0.0880 
 13 N        0.7960     7.6500     1.6720 N.pl3 1 <1>   0.3140 
 14 C       -0.9890     8.1350     0.5190 C.2   1 <1>  -0.1810 
 15 N        0.5950     8.9810     1.8500 N.2   1 <1>  -0.7070 
 16 C        1.9860     6.9930     2.2680 C.3   1 <1>   0.2390 
 17 C       -0.4710     9.2510     1.1650 C.2   1 <1>   0.1390 
 18 C       -2.2260     8.1190    -0.3590 C.3   1 <1>  -0.0590 
 19 C        2.8230     6.2420     1.2320 C.ar  1 <1>  -0.1430 
 20 C        3.1950     6.8530     0.0430 C.ar  1 <1>  -0.1500 
 21 C        3.2190     4.9350     1.4740 C.ar  1 <1>  -0.1500 
 22 C        3.9450     6.1690    -0.9000 C.ar  1 <1>  -0.1430 
 23 C        3.9720     4.2490     0.5390 C.ar  1 <1>  -0.1500 
 24 C        4.3340     4.8640    -0.6460 C.ar  1 <1>  -0.1500 
 25 C        4.3440     6.8500    -2.1960 C.3   1 <1>  -0.0970 
 26 H        1.5990     4.0680    -1.2960 H     1 <1>   0.1500 
 27 H       -1.2410    -0.2970     0.7320 H     1 <1>   0.0800 
 28 H        1.2520    -1.1520    -0.7610 H     1 <1>   0.0800 
 29 H        0.2210    -2.1820     0.2040 H     1 <1>   0.0800 
 30 H        1.1360    -0.9040     0.9650 H     1 <1>   0.0800 
 31 H       -0.7700    -0.5430    -2.2500 H     1 <1>   0.0800 
 32 H       -2.2100     0.1010    -1.4990 H     1 <1>   0.0800 
 33 H       -1.7860    -1.5780    -1.2760 H     1 <1>   0.0800 
 34 H       -0.5390     5.6560    -0.5550 H     1 <1>   0.3700 
 35 H        1.6510     6.3310     3.0430 H     1 <1>   0.0800 
 36 H        2.5930     7.7530     2.7230 H     1 <1>   0.0800 
 37 H       -0.8980    10.2390     1.1090 H     1 <1>   0.1500 
 38 H       -2.4910     7.1120    -0.6240 H     1 <1>   0.0800 
 39 H       -2.0450     8.6820    -1.2570 H     1 <1>   0.0800 
 40 H       -3.0520     8.5610     0.1690 H     1 <1>   0.0800 
 41 H        2.8970     7.8710    -0.1480 H     1 <1>   0.1500 
 42 H        2.9380     4.4430     2.3910 H     1 <1>   0.1500 
 43 H        4.2750     3.2340     0.7330 H     1 <1>   0.1500 
 44 H        4.9220     4.3240    -1.3670 H     1 <1>   0.1500 
 45 H        3.5970     7.5660    -2.4900 H     1 <1>   0.0800 
 46 H        4.4520     6.1280    -2.9850 H     1 <1>   0.0800 
 47 H        5.2800     7.3620    -2.0630 H     1 <1>   0.0800 
@<TRIPOS>BOND
  1   1   2  1   
  2   1   3  1   
  3   2   4  2   
  4   2   5  1   
  5   3   6  2   
  6   3  26  1   
  7   4   6  1   
  8   5   7  1   
  9   5   8  1   
 10   5  27  1   
 11   6   9  1   
 12   7  28  1   
 13   7  29  1   
 14   7  30  1   
 15   8  31  1   
 16   8  32  1   
 17   8  33  1   
 18   9  10  2   
 19   9  11  am  
 20  11  12  1   
 21  11  34  1   
 22  12  13  1   
 23  12  14  2   
 24  13  15  1   
 25  13  16  1   
 26  14  17  1   
 27  14  18  1   
 28  15  17  2   
 29  16  19  1   
 30  16  35  1   
 31  16  36  1   
 32  17  37  1   
 33  18  38  1   
 34  18  39  1   
 35  18  40  1   
 36  19  20  ar  
 37  19  21  ar  
 38  20  22  ar  
 39  20  41  1   
 40  21  23  ar  
 41  21  42  1   
 42  22  24  ar  
 43  22  25  1   
 44  23  24  ar  
 45  23  43  1   
 46  24  44  1   
 47  25  45  1   
 48  25  46  1   
 49  25  47  1   
@<TRIPOS>SUBSTRUCTURE
  1 ****   9 GROUP 4 **** **** 0

# MOE 2024.06 (io_trps.svl 2023.06)
