@<TRIPOS>MOLECULE
NONAME
45 46 1 0 0 
SMALL
USER_CHARGES


@<TRIPOS>ATOM
  1 F       -0.8430    -0.7500    -1.0060 F     1 <1>  -0.1900 
  2 C       -1.3010    -1.9270    -0.6620 C.ar  1 <1>   0.1900 
  3 C       -0.4750    -2.9120    -0.1070 C.ar  1 <1>   0.0820 
  4 C       -2.6460    -2.1520    -0.8820 C.ar  1 <1>  -0.1500 
  5 O        0.8600    -2.8090     0.1570 O.3   1 <1>  -0.3630 
  6 C       -1.0550    -4.1280     0.2160 C.ar  1 <1>  -0.1500 
  7 C       -3.1890    -3.3790    -0.5500 C.ar  1 <1>  -0.1500 
  8 C        1.5860    -1.6110    -0.0060 C.3   1 <1>   0.0400 
  9 C       -2.4110    -4.3940     0.0080 C.ar  1 <1>   0.0530 
 10 C       -2.9640    -5.6850     0.3430 C.2   1 <1>   0.0870 
 11 O       -2.2070    -6.7520     0.2140 O.3   1 <1>  -0.0190 
 12 C       -4.1790    -6.1180     0.7770 C.2   1 <1>  -0.2330 
 13 N       -2.8280    -7.8600     0.5180 N.2   1 <1>  -0.4100 
 14 C       -4.0130    -7.5000     0.8610 C.2   1 <1>   0.3720 
 15 C       -5.3960    -5.4300     1.0960 C.2   1 <1>   1.0330 
 16 N       -5.0140    -8.3720     1.2630 N.pl3 1 <1>  -0.8520 
 17 O       -5.4050    -4.2100     1.3210 O.co2 1 <1>  -0.9000 
 18 O       -6.4850    -6.0400     1.1280 O.co2 1 <1>  -0.9000 
 19 C       -5.2430    -9.5990     0.4560 C.3   1 <1>   0.2090 
 20 C       -6.3170    -9.4280    -0.6500 C.3   1 <1>   0.0000 
 21 C       -7.6760    -9.0490    -0.0250 C.3   1 <1>   0.1200 
 22 C       -5.9100    -8.3350    -1.6580 C.3   1 <1>  -0.2400 
 23 C       -6.4430   -10.7520    -1.4290 C.3   1 <1>  -0.2400 
 24 O       -8.1290   -10.0660     0.8230 O.3   1 <1>  -0.5600 
 25 C       -9.0900    -9.6340     1.7290 C.3   1 <1>   0.0400 
 26 H       -3.2630    -1.3790    -1.3030 H     1 <1>   0.1500 
 27 H       -0.4340    -4.8930     0.6450 H     1 <1>   0.1500 
 28 H       -4.2380    -3.5530    -0.7190 H     1 <1>   0.1500 
 29 H        2.5930    -1.7820     0.3270 H     1 <1>   0.0800 
 30 H        1.1300    -0.8410     0.5920 H     1 <1>   0.0800 
 31 H        1.5880    -1.3420    -1.0470 H     1 <1>   0.0800 
 32 H       -5.8850    -7.8090     1.3420 H     1 <1>   0.4000 
 33 H       -5.5540   -10.3820     1.1260 H     1 <1>   0.0800 
 34 H       -4.3160    -9.9120     0.0080 H     1 <1>   0.0800 
 35 H       -8.4170    -8.9030    -0.7910 H     1 <1>   0.0800 
 36 H       -7.5820    -8.1360     0.5370 H     1 <1>   0.0800 
 37 H       -5.9200    -7.3670    -1.1900 H     1 <1>   0.0800 
 38 H       -6.5950    -8.3060    -2.4860 H     1 <1>   0.0800 
 39 H       -4.9190    -8.5160    -2.0330 H     1 <1>   0.0800 
 40 H       -6.7040   -11.5560    -0.7640 H     1 <1>   0.0800 
 41 H       -5.5130   -10.9980    -1.9100 H     1 <1>   0.0800 
 42 H       -7.2090   -10.6760    -2.1800 H     1 <1>   0.0800 
 43 H       -9.3980   -10.4780     2.3200 H     1 <1>   0.0800 
 44 H       -9.9320    -9.2360     1.1910 H     1 <1>   0.0800 
 45 H       -8.6590    -8.8810     2.3670 H     1 <1>   0.0800 
@<TRIPOS>BOND
  1   1   2  1   
  2   2   3  ar  
  3   2   4  ar  
  4   3   5  1   
  5   3   6  ar  
  6   4   7  ar  
  7   4  26  1   
  8   5   8  1   
  9   6   9  ar  
 10   6  27  1   
 11   7   9  ar  
 12   7  28  1   
 13   8  29  1   
 14   8  30  1   
 15   8  31  1   
 16   9  10  1   
 17  10  11  1   
 18  10  12  2   
 19  11  13  1   
 20  12  14  1   
 21  12  15  1   
 22  13  14  2   
 23  14  16  1   
 24  15  17  ar  
 25  15  18  ar  
 26  16  19  1   
 27  16  32  1   
 28  19  20  1   
 29  19  33  1   
 30  19  34  1   
 31  20  21  1   
 32  20  22  1   
 33  20  23  1   
 34  21  24  1   
 35  21  35  1   
 36  21  36  1   
 37  22  37  1   
 38  22  38  1   
 39  22  39  1   
 40  23  40  1   
 41  23  41  1   
 42  23  42  1   
 43  24  25  1   
 44  25  43  1   
 45  25  44  1   
 46  25  45  1   
@<TRIPOS>SUBSTRUCTURE
  1 ****  12 GROUP 4 **** **** 0

# MOE 2024.06 (io_trps.svl 2023.06)
