@<TRIPOS>MOLECULE
NONAME
43 45 1 0 0 
SMALL
USER_CHARGES


@<TRIPOS>ATOM
  1 F       -1.6080    -2.3420    -0.9240 F     1 <1>  -0.1900 
  2 C       -2.0270    -1.1060    -0.8590 C.ar  1 <1>   0.1900 
  3 C       -2.8040    -0.7190     0.2190 C.ar  1 <1>  -0.1440 
  4 C       -1.6810    -0.2390    -1.8760 C.ar  1 <1>  -0.1500 
  5 C       -3.2440     0.5970     0.2690 C.ar  1 <1>  -0.1500 
  6 C       -3.1560    -1.7160     1.3010 C.3   1 <1>   0.4870 
  7 C       -2.1330     1.0680    -1.8120 C.ar  1 <1>  -0.1500 
  8 C       -2.9140     1.4870    -0.7440 C.ar  1 <1>  -0.1440 
  9 N       -4.2480    -2.5920     0.8070 N.4   1 <1>  -0.9590 
 10 C       -3.3970     2.9260    -0.6840 C.3   1 <1>  -0.0970 
 11 C       -5.5050    -1.8860     0.4170 C.3   1 <1>   0.3430 
 12 C       -4.6290    -3.7220     1.6830 C.3   1 <1>   0.3430 
 13 C       -6.6440    -2.8900     0.6410 C.3   1 <1>   0.2000 
 14 C       -5.9950    -4.1800     1.1630 C.3   1 <1>  -0.0800 
 15 O       -7.5090    -2.3960     1.6100 O.3   1 <1>  -0.6800 
 16 C       -5.9040    -5.2900     0.0840 C.3   1 <1>  -0.0170 
 17 C       -4.7740    -5.1590    -0.9370 C.ar  1 <1>   0.1670 
 18 N       -4.7230    -4.0410    -1.6480 N.ar  1 <1>  -0.6200 
 19 C       -3.8580    -6.2000    -1.0850 C.ar  1 <1>   0.1600 
 20 C       -3.7300    -4.0490    -2.5270 C.ar  1 <1>   0.1600 
 21 N       -2.8450    -6.1890    -1.9320 N.ar  1 <1>  -0.6200 
 22 C       -2.8170    -5.0870    -2.6600 C.ar  1 <1>   0.1600 
 23 H       -1.0710    -0.5730    -2.6960 H     1 <1>   0.1500 
 24 H       -3.8430     0.9430     1.0950 H     1 <1>   0.1500 
 25 H       -3.4680    -1.1960     2.1920 H     1 <1>   0.0800 
 26 H       -2.2860    -2.3080     1.5350 H     1 <1>   0.0800 
 27 H       -1.8720     1.7600    -2.5950 H     1 <1>   0.1500 
 28 H       -3.9230    -3.0170    -0.0850 H     1 <1>   0.4500 
 29 H       -3.5770     3.3040    -1.6750 H     1 <1>   0.0800 
 30 H       -2.6510     3.5410    -0.2120 H     1 <1>   0.0800 
 31 H       -4.3120     3.0010    -0.1240 H     1 <1>   0.0800 
 32 H       -5.6650    -1.0100     1.0230 H     1 <1>   0.0800 
 33 H       -5.4580    -1.6000    -0.6220 H     1 <1>   0.0800 
 34 H       -3.9000    -4.5150     1.6470 H     1 <1>   0.0800 
 35 H       -4.7300    -3.3750     2.6990 H     1 <1>   0.0800 
 36 H       -7.2140    -3.0390    -0.2610 H     1 <1>   0.0800 
 37 H       -6.5760    -4.5830     1.9760 H     1 <1>   0.0800 
 38 H       -7.1220    -2.3780     2.5060 H     1 <1>   0.4000 
 39 H       -6.8370    -5.3430    -0.4510 H     1 <1>   0.0800 
 40 H       -5.7960    -6.2330     0.5900 H     1 <1>   0.0800 
 41 H       -3.9600    -7.0840    -0.4800 H     1 <1>   0.1500 
 42 H       -3.6260    -3.1930    -3.1720 H     1 <1>   0.1500 
 43 H       -2.0350    -5.0030    -3.3950 H     1 <1>   0.1500 
@<TRIPOS>BOND
  1   1   2  1   
  2   2   3  ar  
  3   2   4  ar  
  4   3   5  ar  
  5   3   6  1   
  6   4   7  ar  
  7   4  23  1   
  8   5   8  ar  
  9   5  24  1   
 10   6   9  1   
 11   6  25  1   
 12   6  26  1   
 13   7   8  ar  
 14   7  27  1   
 15   8  10  1   
 16   9  11  1   
 17   9  12  1   
 18   9  28  1   
 19  10  29  1   
 20  10  30  1   
 21  10  31  1   
 22  11  13  1   
 23  11  32  1   
 24  11  33  1   
 25  12  14  1   
 26  12  34  1   
 27  12  35  1   
 28  13  14  1   
 29  13  15  1   
 30  13  36  1   
 31  14  16  1   
 32  14  37  1   
 33  15  38  1   
 34  16  17  1   
 35  16  39  1   
 36  16  40  1   
 37  17  18  ar  
 38  17  19  ar  
 39  18  20  ar  
 40  19  21  ar  
 41  19  41  1   
 42  20  22  ar  
 43  20  42  1   
 44  21  22  ar  
 45  22  43  1   
@<TRIPOS>SUBSTRUCTURE
  1 ****   9 GROUP 4 **** **** 0

# MOE 2024.06 (io_trps.svl 2023.06)
