@<TRIPOS>MOLECULE
NONAME
47 49 1 0 0 
SMALL
USER_CHARGES


@<TRIPOS>ATOM
  1 S       -0.2190    -0.9340     0.1290 S.3   1 <1>  -0.0800 
  2 C       -1.6500    -1.2430     1.0600 C.2   1 <1>   0.4420 
  3 C       -0.5070     0.7520     0.3850 C.2   1 <1>   0.1980 
  4 N       -2.2020    -0.1580     1.4650 N.2   1 <1>  -0.3380 
  5 N       -2.0010    -2.5650     1.2400 N.am  1 <1>  -0.4940 
  6 N       -1.5460     0.9750     1.0770 N.2   1 <1>  -0.3380 
  7 C        0.4560     1.7570    -0.2070 C.3   1 <1>   0.0200 
  8 C       -3.0520    -3.0840     1.9410 C.2   1 <1>   0.5690 
  9 C        0.0030     3.1670     0.1910 C.3   1 <1>   0.3430 
 10 O       -3.8510    -2.4190     2.5430 O.2   1 <1>  -0.5700 
 11 C       -3.2250    -4.5880     1.9610 C.3   1 <1>  -0.0990 
 12 N        0.9310     4.2430    -0.2940 N.4   1 <1>  -0.9590 
 13 C       -4.5890    -4.9920     1.3860 C.3   1 <1>   0.0200 
 14 C        0.5750     5.5410     0.3620 C.3   1 <1>   0.2630 
 15 C        0.9010     4.4000    -1.7840 C.3   1 <1>   0.2630 
 16 C       -4.7290    -6.5000     1.3430 C.2   1 <1>   0.2980 
 17 O       -4.9260    -7.1480     2.4600 O.3   1 <1>  -0.0190 
 18 N       -4.6580    -7.2160     0.3000 N.2   1 <1>  -0.5650 
 19 N       -4.9870    -8.3890     2.0960 N.2   1 <1>  -0.4100 
 20 C       -4.8340    -8.4370     0.8190 C.2   1 <1>   0.4620 
 21 C       -4.8400    -9.6440     0.0080 C.ar  1 <1>   0.0540 
 22 C       -4.7120    -9.5970    -1.3820 C.ar  1 <1>  -0.1500 
 23 C       -4.9750   -10.9060     0.5910 C.ar  1 <1>  -0.1500 
 24 C       -4.7160   -10.7480    -2.1500 C.ar  1 <1>  -0.1500 
 25 C       -4.9800   -12.0610    -0.1710 C.ar  1 <1>  -0.1500 
 26 C       -4.8500   -11.9840    -1.5450 C.ar  1 <1>  -0.1500 
 27 H       -1.3870    -3.2370     0.7900 H     1 <1>   0.3700 
 28 H        0.4530     1.6420    -1.2750 H     1 <1>   0.0800 
 29 H        1.4400     1.5600     0.1770 H     1 <1>   0.0800 
 30 H       -0.0580     3.2060     1.2680 H     1 <1>   0.0800 
 31 H       -0.9910     3.3390    -0.1920 H     1 <1>   0.0800 
 32 H       -3.1520    -4.9230     2.9800 H     1 <1>   0.0800 
 33 H       -2.4430    -5.0620     1.3960 H     1 <1>   0.0800 
 34 H        1.8930     4.0030    -0.0040 H     1 <1>   0.4500 
 35 H       -4.6920    -4.6050     0.3870 H     1 <1>   0.0800 
 36 H       -5.3830    -4.5820     1.9850 H     1 <1>   0.0800 
 37 H       -0.4280     5.8340     0.0940 H     1 <1>   0.0800 
 38 H        1.2550     6.3180     0.0520 H     1 <1>   0.0800 
 39 H        0.6290     5.4470     1.4350 H     1 <1>   0.0800 
 40 H       -0.0970     4.6390    -2.1160 H     1 <1>   0.0800 
 41 H        1.2180     3.4910    -2.2680 H     1 <1>   0.0800 
 42 H        1.5630     5.1950    -2.0900 H     1 <1>   0.0800 
 43 H       -4.6080    -8.6450    -1.8710 H     1 <1>   0.1500 
 44 H       -5.0770   -10.9860     1.6590 H     1 <1>   0.1500 
 45 H       -4.6160   -10.6820    -3.2200 H     1 <1>   0.1500 
 46 H       -5.0850   -13.0200     0.3060 H     1 <1>   0.1500 
 47 H       -4.8540   -12.8800    -2.1410 H     1 <1>   0.1500 
@<TRIPOS>BOND
  1   1   2  1   
  2   1   3  1   
  3   2   4  2   
  4   2   5  1   
  5   3   6  2   
  6   3   7  1   
  7   4   6  1   
  8   5   8  am  
  9   5  27  1   
 10   7   9  1   
 11   7  28  1   
 12   7  29  1   
 13   8  10  2   
 14   8  11  1   
 15   9  12  1   
 16   9  30  1   
 17   9  31  1   
 18  11  13  1   
 19  11  32  1   
 20  11  33  1   
 21  12  14  1   
 22  12  15  1   
 23  12  34  1   
 24  13  16  1   
 25  13  35  1   
 26  13  36  1   
 27  14  37  1   
 28  14  38  1   
 29  14  39  1   
 30  15  40  1   
 31  15  41  1   
 32  15  42  1   
 33  16  17  1   
 34  16  18  2   
 35  17  19  1   
 36  18  20  1   
 37  19  20  2   
 38  20  21  1   
 39  21  22  ar  
 40  21  23  ar  
 41  22  24  ar  
 42  22  43  1   
 43  23  25  ar  
 44  23  44  1   
 45  24  26  ar  
 46  24  45  1   
 47  25  26  ar  
 48  25  46  1   
 49  26  47  1   
@<TRIPOS>SUBSTRUCTURE
  1 ****  11 GROUP 4 **** **** 0

# MOE 2024.06 (io_trps.svl 2023.06)
