@<TRIPOS>MOLECULE
NONAME
61 62 1 0 0 
SMALL
USER_CHARGES


@<TRIPOS>ATOM
  1 O        0.8920    -0.6650     1.0150 O.2   1 <1>  -0.5700 
  2 C        1.8750    -1.2350     0.6030 C.2   1 <1>   0.5690 
  3 N        3.1040    -0.6280     0.6580 N.am  1 <1>  -0.6600 
  4 C        1.7330    -2.6260    -0.0060 C.3   1 <1>  -0.0990 
  5 C        3.2510     0.6940     1.3180 C.3   1 <1>   0.1400 
  6 C        4.3580    -1.1030    -0.0110 C.3   1 <1>   0.1400 
  7 C        0.3040    -3.2010     0.0350 C.3   1 <1>  -0.1600 
  8 C        2.8610     1.8370     0.3640 C.3   1 <1>  -0.0800 
  9 C        4.6990    -0.3080    -1.2920 C.3   1 <1>   0.1200 
 10 C        0.2400    -4.6060    -0.5750 C.3   1 <1>  -0.0160 
 11 C        3.2370     1.5280    -1.0940 C.3   1 <1>   0.1200 
 12 C        3.5520     3.1210     0.8350 C.3   1 <1>   0.3430 
 13 O        4.5580     1.0830    -1.1350 O.3   1 <1>  -0.5600 
 14 C       -1.1810    -5.1440    -0.5340 C.ar  1 <1>  -0.1440 
 15 N        2.6660     4.3280     0.7330 N.4   1 <1>  -0.9590 
 16 C       -2.0400    -4.9370    -1.6010 C.ar  1 <1>  -0.1500 
 17 C       -1.6310    -5.8460     0.5720 C.ar  1 <1>  -0.1500 
 18 C        2.3810     4.7270    -0.6810 C.3   1 <1>   0.2630 
 19 C        3.2770     5.4740     1.4730 C.3   1 <1>   0.2630 
 20 C       -3.3370    -5.4260    -1.5760 C.ar  1 <1>  -0.1440 
 21 C       -2.9230    -6.3390     0.6100 C.ar  1 <1>  -0.1500 
 22 C       -3.7850    -6.1330    -0.4640 C.ar  1 <1>   0.0820 
 23 C       -4.2590    -5.1850    -2.7620 C.3   1 <1>  -0.0970 
 24 O       -5.0650    -6.5950    -0.4840 O.3   1 <1>  -0.3620 
 25 C       -5.6140    -7.3000     0.6030 C.3   1 <1>   0.1200 
 26 C       -7.0570    -7.6520     0.2560 C.3   1 <1>  -0.2400 
 27 H        2.3870    -3.2900     0.5300 H     1 <1>   0.0800 
 28 H        2.0580    -2.5800    -1.0280 H     1 <1>   0.0800 
 29 H        4.2750     0.8060     1.6340 H     1 <1>   0.0800 
 30 H        2.6340     0.7250     2.2020 H     1 <1>   0.0800 
 31 H        4.2830    -2.1460    -0.2600 H     1 <1>   0.0800 
 32 H        5.1780    -1.0120     0.6800 H     1 <1>   0.0800 
 33 H       -0.3610    -2.5480    -0.5060 H     1 <1>   0.0800 
 34 H       -0.0380    -3.2400     1.0550 H     1 <1>   0.0800 
 35 H        1.7930     1.9540     0.4280 H     1 <1>   0.0800 
 36 H        4.0830    -0.6320    -2.1130 H     1 <1>   0.0800 
 37 H        5.7240    -0.4970    -1.5600 H     1 <1>   0.0800 
 38 H        0.8880    -5.2710    -0.0320 H     1 <1>   0.0800 
 39 H        0.5800    -4.5790    -1.5950 H     1 <1>   0.0800 
 40 H        3.1710     2.4000    -1.7170 H     1 <1>   0.0800 
 41 H        2.5790     0.7790    -1.5070 H     1 <1>   0.0800 
 42 H        4.4590     3.2680     0.2690 H     1 <1>   0.0800 
 43 H        3.8340     2.9930     1.8680 H     1 <1>   0.0800 
 44 H        1.7700     4.0950     1.1890 H     1 <1>   0.4500 
 45 H       -1.6940    -4.3880    -2.4590 H     1 <1>   0.1500 
 46 H       -0.9770    -6.0100     1.4100 H     1 <1>   0.1500 
 47 H        3.3010     4.9150    -1.2110 H     1 <1>   0.0800 
 48 H        1.7810     5.6230    -0.7030 H     1 <1>   0.0800 
 49 H        1.8410     3.9460    -1.1900 H     1 <1>   0.0800 
 50 H        4.2220     5.7450     1.0320 H     1 <1>   0.0800 
 51 H        3.4420     5.2090     2.5050 H     1 <1>   0.0800 
 52 H        2.6230     6.3320     1.4410 H     1 <1>   0.0800 
 53 H       -3.2360    -6.8770     1.4830 H     1 <1>   0.1500 
 54 H       -3.7680    -4.6160    -3.5300 H     1 <1>   0.0800 
 55 H       -5.1310    -4.6450    -2.4380 H     1 <1>   0.0800 
 56 H       -4.5710    -6.1270    -3.1760 H     1 <1>   0.0800 
 57 H       -5.5750    -6.6670     1.4730 H     1 <1>   0.0800 
 58 H       -5.0310    -8.1910     0.7600 H     1 <1>   0.0800 
 59 H       -7.6240    -6.7550     0.0840 H     1 <1>   0.0800 
 60 H       -7.5050    -8.1930     1.0690 H     1 <1>   0.0800 
 61 H       -7.0830    -8.2690    -0.6240 H     1 <1>   0.0800 
@<TRIPOS>BOND
  1   1   2  2   
  2   2   3  am  
  3   2   4  1   
  4   3   5  1   
  5   3   6  1   
  6   4   7  1   
  7   4  27  1   
  8   4  28  1   
  9   5   8  1   
 10   5  29  1   
 11   5  30  1   
 12   6   9  1   
 13   6  31  1   
 14   6  32  1   
 15   7  10  1   
 16   7  33  1   
 17   7  34  1   
 18   8  11  1   
 19   8  12  1   
 20   8  35  1   
 21   9  13  1   
 22   9  36  1   
 23   9  37  1   
 24  10  14  1   
 25  10  38  1   
 26  10  39  1   
 27  11  13  1   
 28  11  40  1   
 29  11  41  1   
 30  12  15  1   
 31  12  42  1   
 32  12  43  1   
 33  14  16  ar  
 34  14  17  ar  
 35  15  18  1   
 36  15  19  1   
 37  15  44  1   
 38  16  20  ar  
 39  16  45  1   
 40  17  21  ar  
 41  17  46  1   
 42  18  47  1   
 43  18  48  1   
 44  18  49  1   
 45  19  50  1   
 46  19  51  1   
 47  19  52  1   
 48  20  22  ar  
 49  20  23  1   
 50  21  22  ar  
 51  21  53  1   
 52  22  24  1   
 53  23  54  1   
 54  23  55  1   
 55  23  56  1   
 56  24  25  1   
 57  25  26  1   
 58  25  57  1   
 59  25  58  1   
 60  26  59  1   
 61  26  60  1   
 62  26  61  1   
@<TRIPOS>SUBSTRUCTURE
  1 ****   7 GROUP 4 **** **** 0

# MOE 2024.06 (io_trps.svl 2023.06)
