@<TRIPOS>MOLECULE
NONAME
47 49 1 0 0 
SMALL
USER_CHARGES


@<TRIPOS>ATOM
  1 O       -0.3120     0.1950     0.4060 O.2   1 <1>  -0.5700 
  2 C       -1.3490     0.7670     0.1670 C.2   1 <1>   0.5690 
  3 N       -2.5070     0.0770    -0.0480 N.am  1 <1>  -0.6600 
  4 C       -1.3640     2.2830     0.1150 C.3   1 <1>  -0.0990 
  5 C       -3.8720     0.6410    -0.2130 C.3   1 <1>   0.1400 
  6 C       -2.5690    -1.4080    -0.0340 C.3   1 <1>   0.1400 
  7 C        0.0450     2.8740     0.0960 C.3   1 <1>   0.1200 
  8 C       -4.7970    -0.4870     0.2410 C.3   1 <1>   0.2000 
  9 C       -4.0540    -1.7510    -0.2010 C.3   1 <1>  -0.0800 
 10 O       -0.0670     4.2770     0.0140 O.3   1 <1>  -0.3630 
 11 O       -4.8660    -0.4470     1.6260 O.3   1 <1>  -0.6800 
 12 C       -4.4730    -3.0540     0.5030 C.3   1 <1>   0.0210 
 13 C        1.0360     5.0660    -0.0140 C.ar  1 <1>   0.0820 
 14 C       -3.6460    -4.2250     0.0060 C.2   1 <1>   0.1080 
 15 C        2.3400     4.5780     0.0380 C.ar  1 <1>  -0.1500 
 16 C        0.8250     6.4330    -0.0990 C.ar  1 <1>  -0.1500 
 17 N       -3.5780    -4.5600    -1.2450 N.2   1 <1>  -0.7070 
 18 C       -2.8710    -5.0500     0.8140 C.2   1 <1>  -0.1500 
 19 C        3.4100     5.4560     0.0040 C.ar  1 <1>  -0.1500 
 20 C        1.8950     7.3090    -0.1330 C.ar  1 <1>  -0.1500 
 21 N       -2.7490    -5.6200    -1.2680 N.pl3 1 <1>   0.3000 
 22 C       -2.3060    -5.9360    -0.0330 C.2   1 <1>  -0.3320 
 23 C        3.1900     6.8200    -0.0810 C.ar  1 <1>  -0.1500 
 24 C       -1.3550    -7.0800     0.2660 C.3   1 <1>  -0.0600 
 25 H       -1.8800     2.5940    -0.7740 H     1 <1>   0.0800 
 26 H       -1.8870     2.6490     0.9790 H     1 <1>   0.0800 
 27 H       -4.0220     1.5330     0.3690 H     1 <1>   0.0800 
 28 H       -4.0380     0.8530    -1.2550 H     1 <1>   0.0800 
 29 H       -1.9800    -1.8230    -0.8350 H     1 <1>   0.0800 
 30 H       -2.1890    -1.7690     0.9070 H     1 <1>   0.0800 
 31 H        0.5920     2.5220    -0.7610 H     1 <1>   0.0800 
 32 H        0.5730     2.6230     1.0010 H     1 <1>   0.0800 
 33 H       -5.7940    -0.4100    -0.1580 H     1 <1>   0.0800 
 34 H       -4.2300    -1.8770    -1.2550 H     1 <1>   0.0800 
 35 H       -3.9540    -0.4050     1.9790 H     1 <1>   0.4000 
 36 H       -5.5090    -3.2550     0.3020 H     1 <1>   0.0800 
 37 H       -4.3500    -2.9680     1.5670 H     1 <1>   0.0800 
 38 H        2.5410     3.5260     0.1050 H     1 <1>   0.1500 
 39 H       -0.1830     6.8050    -0.1380 H     1 <1>   0.1500 
 40 H       -2.7630    -4.9750     1.8810 H     1 <1>   0.1500 
 41 H        4.4160     5.0770     0.0440 H     1 <1>   0.1500 
 42 H        1.7220     8.3690    -0.1990 H     1 <1>   0.1500 
 43 H       -2.5050    -6.1040    -2.1410 H     1 <1>   0.2700 
 44 H        4.0230     7.5000    -0.1070 H     1 <1>   0.1500 
 45 H       -1.1530    -7.1260     1.3220 H     1 <1>   0.0800 
 46 H       -0.4250    -6.9370    -0.2540 H     1 <1>   0.0800 
 47 H       -1.7900    -8.0150    -0.0400 H     1 <1>   0.0800 
@<TRIPOS>BOND
  1   1   2  2   
  2   2   3  am  
  3   2   4  1   
  4   3   5  1   
  5   3   6  1   
  6   4   7  1   
  7   4  25  1   
  8   4  26  1   
  9   5   8  1   
 10   5  27  1   
 11   5  28  1   
 12   6   9  1   
 13   6  29  1   
 14   6  30  1   
 15   7  10  1   
 16   7  31  1   
 17   7  32  1   
 18   8   9  1   
 19   8  11  1   
 20   8  33  1   
 21   9  12  1   
 22   9  34  1   
 23  10  13  1   
 24  11  35  1   
 25  12  14  1   
 26  12  36  1   
 27  12  37  1   
 28  13  15  ar  
 29  13  16  ar  
 30  14  17  2   
 31  14  18  1   
 32  15  19  ar  
 33  15  38  1   
 34  16  20  ar  
 35  16  39  1   
 36  17  21  1   
 37  18  22  2   
 38  18  40  1   
 39  19  23  ar  
 40  19  41  1   
 41  20  23  ar  
 42  20  42  1   
 43  21  22  1   
 44  21  43  1   
 45  22  24  1   
 46  23  44  1   
 47  24  45  1   
 48  24  46  1   
 49  24  47  1   
@<TRIPOS>SUBSTRUCTURE
  1 ****   2 GROUP 4 **** **** 0

# MOE 2024.06 (io_trps.svl 2023.06)
