@<TRIPOS>MOLECULE
NONAME
49 50 1 0 0 
SMALL
USER_CHARGES


@<TRIPOS>ATOM
  1 S        1.1850    -0.7300    -1.1310 S.o2  1 <1>   1.3330 
  2 O        2.3840    -1.1120    -0.4200 O.2   1 <1>  -0.6500 
  3 O        1.0240    -1.1180    -2.5140 O.2   1 <1>  -0.6500 
  4 N       -0.1470    -1.3640    -0.2870 N.am  1 <1>  -0.8490 
  5 C        0.9580     1.0510    -0.9940 C.3   1 <1>  -0.0550 
  6 C       -1.3720    -1.4330    -1.0930 C.3   1 <1>   0.1160 
  7 C        0.1380    -2.6820     0.2900 C.3   1 <1>   0.1160 
  8 C        1.3900     1.7330     0.3250 C.3   1 <1>  -0.0800 
  9 C        2.9040     1.7140     0.5500 C.3   1 <1>   0.2200 
 10 C        0.8160     1.1620     1.6280 C.3   1 <1>   0.1200 
 11 N        3.4070     3.1050     0.5910 N.am  1 <1>  -0.7300 
 12 C        3.0440     1.0530     1.9200 C.3   1 <1>   0.1200 
 13 O        1.8360     1.2990     2.5630 O.3   1 <1>  -0.5600 
 14 C        3.7380     3.8430    -0.5090 C.2   1 <1>   0.5440 
 15 O        3.6010     3.3280    -1.6010 O.2   1 <1>  -0.5700 
 16 C        4.2300     5.2040    -0.3770 C.ar  1 <1>   0.0860 
 17 C        3.9290     5.9950     0.7320 C.ar  1 <1>  -0.1500 
 18 C        5.0300     5.7740    -1.3640 C.ar  1 <1>  -0.1500 
 19 C        4.4090     7.2860     0.8600 C.ar  1 <1>   0.0820 
 20 C        5.5210     7.0630    -1.2570 C.ar  1 <1>   0.0820 
 21 O        4.0510     7.9520     1.9860 O.3   1 <1>  -0.3630 
 22 C        5.2120     7.8270    -0.1370 C.ar  1 <1>  -0.1500 
 23 O        6.2930     7.5050    -2.2810 O.3   1 <1>  -0.3620 
 24 C        4.4600     9.2810     2.2200 C.3   1 <1>   0.0400 
 25 C        6.8300     8.8090    -2.2950 C.3   1 <1>   0.0400 
 26 H        1.5180     1.5170    -1.7830 H     1 <1>   0.0800 
 27 H       -0.0730     1.2810    -1.1740 H     1 <1>   0.0800 
 28 H       -2.2000    -1.7490    -0.4820 H     1 <1>   0.0800 
 29 H       -1.2490    -2.1310    -1.9050 H     1 <1>   0.0800 
 30 H       -1.6030    -0.4650    -1.5040 H     1 <1>   0.0800 
 31 H       -0.7210    -3.0510     0.8240 H     1 <1>   0.0800 
 32 H        0.9580    -2.6110     0.9850 H     1 <1>   0.0800 
 33 H        0.4020    -3.3810    -0.4860 H     1 <1>   0.0800 
 34 H        1.0600     2.7550     0.2630 H     1 <1>   0.0800 
 35 H        3.4440     1.1590    -0.1990 H     1 <1>   0.0800 
 36 H        0.5870     0.1150     1.5650 H     1 <1>   0.0800 
 37 H       -0.0480     1.7040     1.9700 H     1 <1>   0.0800 
 38 H        3.4320     3.5230     1.5230 H     1 <1>   0.3700 
 39 H        3.8560     1.4520     2.5010 H     1 <1>   0.0800 
 40 H        3.1540    -0.0130     1.8180 H     1 <1>   0.0800 
 41 H        3.3010     5.6120     1.5150 H     1 <1>   0.1500 
 42 H        5.2770     5.1970    -2.2380 H     1 <1>   0.1500 
 43 H        5.5880     8.8240    -0.0440 H     1 <1>   0.1500 
 44 H        4.0490     9.5950     3.1630 H     1 <1>   0.0800 
 45 H        4.0820     9.9070     1.4320 H     1 <1>   0.0800 
 46 H        5.5340     9.3140     2.2620 H     1 <1>   0.0800 
 47 H        7.3920     8.9280    -3.2040 H     1 <1>   0.0800 
 48 H        7.4800     8.9290    -1.4460 H     1 <1>   0.0800 
 49 H        6.0230     9.5200    -2.2690 H     1 <1>   0.0800 
@<TRIPOS>BOND
  1   1   2  2   
  2   1   3  2   
  3   1   4  am  
  4   1   5  1   
  5   4   6  1   
  6   4   7  1   
  7   5   8  1   
  8   5  26  1   
  9   5  27  1   
 10   6  28  1   
 11   6  29  1   
 12   6  30  1   
 13   7  31  1   
 14   7  32  1   
 15   7  33  1   
 16   8   9  1   
 17   8  10  1   
 18   8  34  1   
 19   9  11  1   
 20   9  12  1   
 21   9  35  1   
 22  10  13  1   
 23  10  36  1   
 24  10  37  1   
 25  11  14  am  
 26  11  38  1   
 27  12  13  1   
 28  12  39  1   
 29  12  40  1   
 30  14  15  2   
 31  14  16  1   
 32  16  17  ar  
 33  16  18  ar  
 34  17  19  ar  
 35  17  41  1   
 36  18  20  ar  
 37  18  42  1   
 38  19  21  1   
 39  19  22  ar  
 40  20  22  ar  
 41  20  23  1   
 42  21  24  1   
 43  22  43  1   
 44  23  25  1   
 45  24  44  1   
 46  24  45  1   
 47  24  46  1   
 48  25  47  1   
 49  25  48  1   
 50  25  49  1   
@<TRIPOS>SUBSTRUCTURE
  1 ****  11 GROUP 4 **** **** 0

# MOE 2024.06 (io_trps.svl 2023.06)
