@<TRIPOS>MOLECULE
NONAME
53 55 1 0 0 
SMALL
USER_CHARGES


@<TRIPOS>ATOM
  1 O       -0.2150     0.3210    -0.5020 O.2   1 <1>  -0.5700 
  2 C        0.6850    -0.4660    -0.3350 C.2   1 <1>   0.5690 
  3 N        1.9170    -0.0700     0.0820 N.am  1 <1>  -0.5100 
  4 C        0.4090    -1.9310    -0.5850 C.3   1 <1>  -0.0990 
  5 C        2.5020     1.3050     0.0670 C.3   1 <1>   0.2250 
  6 C        3.2790    -0.6700    -0.0940 C.3   1 <1>   0.2250 
  7 C        0.3780    -2.7230     0.7290 C.3   1 <1>   0.1760 
  8 C        3.7230     0.7020    -0.6580 C.3   1 <1>   0.0850 
  9 N        0.2990    -4.1840     0.4350 N.pl3 1 <1>   0.3140 
 10 C       -0.7100    -2.2460     1.7100 C.3   1 <1>  -0.2400 
 11 N        4.9990     1.2130    -0.1180 N.pl3 1 <1>   0.4850 
 12 N        1.4400    -4.8890     0.4790 N.2   1 <1>  -0.7070 
 13 C       -0.7380    -4.9750     0.0700 C.2   1 <1>  -0.3320 
 14 N        5.8680     0.4410     0.5680 N.2   1 <1>  -0.7070 
 15 C        5.4830     2.4720    -0.2620 C.2   1 <1>  -0.3320 
 16 C        1.1160    -6.0970     0.1630 C.2   1 <1>   0.1080 
 17 C       -0.2530    -6.2470    -0.0970 C.2   1 <1>  -0.0860 
 18 C       -2.1680    -4.4870    -0.1400 C.3   1 <1>  -0.0600 
 19 C        6.8630     1.2180     0.8490 C.2   1 <1>   0.1080 
 20 C        6.6820     2.5040     0.3570 C.2   1 <1>  -0.1500 
 21 C        4.7840     3.6080    -0.9950 C.3   1 <1>  -0.0600 
 22 C        2.1560    -7.1960     0.1050 C.3   1 <1>  -0.0590 
 23 C       -0.8880    -7.4960    -0.4370 C.2   1 <1>   0.5950 
 24 C        8.0680     0.7400     1.6250 C.3   1 <1>  -0.0590 
 25 O       -0.3460    -8.3830    -1.0470 O.2   1 <1>  -0.5700 
 26 C       -2.3080    -7.7650     0.0110 C.3   1 <1>  -0.1790 
 27 H        1.1740    -2.3260    -1.2260 H     1 <1>   0.0800 
 28 H       -0.5310    -2.0190    -1.0950 H     1 <1>   0.0800 
 29 H        2.7020     1.6480     1.0670 H     1 <1>   0.0000 
 30 H        1.9270     1.9840    -0.5370 H     1 <1>   0.0000 
 31 H        3.2830    -1.4610    -0.8220 H     1 <1>   0.0000 
 32 H        3.6930    -0.9390     0.8610 H     1 <1>   0.0000 
 33 H        1.3240    -2.5750     1.2200 H     1 <1>   0.0800 
 34 H        3.6660     0.7700    -1.7310 H     1 <1>   0.0000 
 35 H       -1.6670    -2.1690     1.2310 H     1 <1>   0.0800 
 36 H       -0.4560    -1.2710     2.0870 H     1 <1>   0.0800 
 37 H       -0.7740    -2.9190     2.5460 H     1 <1>   0.0800 
 38 H       -2.1800    -3.5490    -0.6630 H     1 <1>   0.0800 
 39 H       -2.6620    -4.3660     0.8080 H     1 <1>   0.0800 
 40 H       -2.7300    -5.1820    -0.7340 H     1 <1>   0.0800 
 41 H        7.3700     3.3240     0.4600 H     1 <1>   0.1500 
 42 H        4.5690     3.3220    -2.0090 H     1 <1>   0.0800 
 43 H        5.4160     4.4780    -1.0140 H     1 <1>   0.0800 
 44 H        3.8660     3.8680    -0.4990 H     1 <1>   0.0800 
 45 H        3.0970    -6.8330     0.4740 H     1 <1>   0.0800 
 46 H        2.2810    -7.5210    -0.9110 H     1 <1>   0.0800 
 47 H        1.8440    -8.0300     0.7060 H     1 <1>   0.0800 
 48 H        7.7550     0.3910     2.5920 H     1 <1>   0.0800 
 49 H        8.7770     1.5360     1.7500 H     1 <1>   0.0800 
 50 H        8.5350    -0.0710     1.0970 H     1 <1>   0.0800 
 51 H       -2.5570    -7.1550     0.8580 H     1 <1>   0.0800 
 52 H       -2.4030    -8.7970     0.2930 H     1 <1>   0.0800 
 53 H       -2.9850    -7.5640    -0.7980 H     1 <1>   0.0800 
@<TRIPOS>BOND
  1   1   2  2   
  2   2   3  am  
  3   2   4  1   
  4   3   5  1   
  5   3   6  1   
  6   4   7  1   
  7   4  27  1   
  8   4  28  1   
  9   5   8  1   
 10   5  29  1   
 11   5  30  1   
 12   6   8  1   
 13   6  31  1   
 14   6  32  1   
 15   7   9  1   
 16   7  10  1   
 17   7  33  1   
 18   8  11  1   
 19   8  34  1   
 20   9  12  1   
 21   9  13  1   
 22  10  35  1   
 23  10  36  1   
 24  10  37  1   
 25  11  14  1   
 26  11  15  1   
 27  12  16  2   
 28  13  17  2   
 29  13  18  1   
 30  14  19  2   
 31  15  20  2   
 32  15  21  1   
 33  16  17  1   
 34  16  22  1   
 35  17  23  1   
 36  18  38  1   
 37  18  39  1   
 38  18  40  1   
 39  19  20  1   
 40  19  24  1   
 41  20  41  1   
 42  21  42  1   
 43  21  43  1   
 44  21  44  1   
 45  22  45  1   
 46  22  46  1   
 47  22  47  1   
 48  23  25  2   
 49  23  26  1   
 50  24  48  1   
 51  24  49  1   
 52  24  50  1   
 53  26  51  1   
 54  26  52  1   
 55  26  53  1   
@<TRIPOS>SUBSTRUCTURE
  1 ****   4 GROUP 4 **** **** 0

# MOE 2024.06 (io_trps.svl 2023.06)
