@<TRIPOS>MOLECULE
NONAME
37 38 1 0 0 
SMALL
USER_CHARGES


@<TRIPOS>ATOM
  1 O       -0.0220    -0.0500     0.7270 O.2   1 <1>  -0.5700 
  2 C        1.0000    -0.5650     0.3120 C.2   1 <1>   0.7150 
  3 N        2.0730     0.2090    -0.0600 N.am  1 <1>  -0.4940 
  4 C        1.1010    -1.9950     0.2130 C.2   1 <1>   0.0550 
  5 C        2.3130     1.6040    -0.0060 C.2   1 <1>  -0.0880 
  6 O        2.1970    -2.5710    -0.2270 O.3   1 <1>  -0.0190 
  7 C        0.2400    -2.9980     0.4990 C.2   1 <1>  -0.1500 
  8 N        1.4260     2.6240    -0.1870 N.pl3 1 <1>   0.3140 
  9 C        3.5180     2.1850     0.2100 C.2   1 <1>  -0.1810 
 10 N        2.1180    -3.8650    -0.2500 N.2   1 <1>  -0.4100 
 11 C        0.9400    -4.1530     0.1840 C.2   1 <1>   0.1080 
 12 N        2.0350     3.8260    -0.0930 N.2   1 <1>  -0.7070 
 13 C        0.0030     2.5630    -0.5460 C.3   1 <1>   0.0160 
 14 C        3.2770     3.5540     0.1440 C.2   1 <1>   0.1080 
 15 C        4.8510     1.5050     0.4750 C.3   1 <1>   0.0210 
 16 C        0.4080    -5.5660     0.3260 C.3   1 <1>   0.0210 
 17 C        4.3080     4.6460     0.3240 C.3   1 <1>  -0.0590 
 18 C        5.5840     1.2310    -0.8400 C.3   1 <1>  -0.2400 
 19 C       -0.4930    -5.9390    -0.8560 C.3   1 <1>  -0.2400 
 20 H        2.8950    -0.3430    -0.3100 H     1 <1>   0.3700 
 21 H       -0.7620    -2.9290     0.8820 H     1 <1>   0.1500 
 22 H       -0.1620     1.7390    -1.2130 H     1 <1>   0.0800 
 23 H       -0.2780     3.4800    -1.0280 H     1 <1>   0.0800 
 24 H       -0.5770     2.4350     0.3490 H     1 <1>   0.0800 
 25 H        4.6840     0.5790     0.9960 H     1 <1>   0.0800 
 26 H        5.4560     2.1280     1.1090 H     1 <1>   0.0800 
 27 H       -0.1450    -5.6470     1.2440 H     1 <1>   0.0800 
 28 H        1.2370    -6.2500     0.3750 H     1 <1>   0.0800 
 29 H        5.2000     4.4070    -0.2220 H     1 <1>   0.0800 
 30 H        4.5410     4.7530     1.3660 H     1 <1>   0.0800 
 31 H        3.9160     5.5780    -0.0420 H     1 <1>   0.0800 
 32 H        4.9910     0.5950    -1.4720 H     1 <1>   0.0800 
 33 H        6.5250     0.7480    -0.6460 H     1 <1>   0.0800 
 34 H        5.7690     2.1540    -1.3600 H     1 <1>   0.0800 
 35 H       -1.3380    -5.2770    -0.9080 H     1 <1>   0.0800 
 36 H       -0.8490    -6.9480    -0.7470 H     1 <1>   0.0800 
 37 H        0.0600    -5.8670    -1.7770 H     1 <1>   0.0800 
@<TRIPOS>BOND
  1   1   2  2   
  2   2   3  am  
  3   2   4  1   
  4   3   5  1   
  5   3  20  1   
  6   4   6  1   
  7   4   7  2   
  8   5   8  1   
  9   5   9  2   
 10   6  10  1   
 11   7  11  1   
 12   7  21  1   
 13   8  12  1   
 14   8  13  1   
 15   9  14  1   
 16   9  15  1   
 17  10  11  2   
 18  11  16  1   
 19  12  14  2   
 20  13  22  1   
 21  13  23  1   
 22  13  24  1   
 23  14  17  1   
 24  15  18  1   
 25  15  25  1   
 26  15  26  1   
 27  16  19  1   
 28  16  27  1   
 29  16  28  1   
 30  17  29  1   
 31  17  30  1   
 32  17  31  1   
 33  18  32  1   
 34  18  33  1   
 35  18  34  1   
 36  19  35  1   
 37  19  36  1   
 38  19  37  1   
@<TRIPOS>SUBSTRUCTURE
  1 ****   3 GROUP 4 **** **** 0

# MOE 2024.06 (io_trps.svl 2023.06)
