@<TRIPOS>MOLECULE
NONAME
54 57 1 0 0 
SMALL
USER_CHARGES


@<TRIPOS>ATOM
  1 O       -3.1570     0.8990    -2.1730 O.2   1 <1>  -0.5700 
  2 C       -2.7190     1.0740    -1.0520 C.2   1 <1>   0.5440 
  3 N       -2.6390    -0.0190    -0.2150 N.am  1 <1>  -0.6600 
  4 C       -2.3420     2.4080    -0.6190 C.ar  1 <1>   0.0860 
  5 C       -3.1240     0.0340     1.1830 C.3   1 <1>   0.1400 
  6 C       -2.5250    -1.3850    -0.7800 C.3   1 <1>   0.1400 
  7 C       -2.9890     3.5440    -1.0830 C.ar  1 <1>  -0.1500 
  8 C       -1.3090     2.6510     0.2770 C.ar  1 <1>  -0.1500 
  9 C       -4.5300    -0.5690     1.2120 C.3   1 <1>  -0.1600 
 10 C       -3.9150    -2.0180    -0.7940 C.3   1 <1>  -0.1600 
 11 C       -2.6110     4.7960    -0.6380 C.ar  1 <1>   0.1600 
 12 C       -1.0060     3.9440     0.6610 C.ar  1 <1>   0.1600 
 13 C       -4.5550    -1.9740     0.5990 C.3   1 <1>   0.4230 
 14 N       -1.6390     5.0210     0.2300 N.ar  1 <1>  -0.6200 
 15 N       -5.9660    -2.3990     0.5040 N.4   1 <1>  -0.9060 
 16 C       -6.1990    -3.8370     0.1950 C.3   1 <1>   0.4230 
 17 C       -7.7000    -4.0480     0.0130 C.3   1 <1>  -0.0800 
 18 C       -5.9530    -4.6500     1.4610 C.3   1 <1>   0.1200 
 19 C       -8.1910    -4.2930     1.4530 C.3   1 <1>   0.1200 
 20 C       -8.0000    -5.2440    -0.9130 C.3   1 <1>  -0.0170 
 21 O       -7.0430    -4.3160     2.2500 O.3   1 <1>  -0.5600 
 22 C       -9.4980    -5.4360    -1.0870 C.ar  1 <1>  -0.1430 
 23 C      -10.1900    -6.4350    -0.4300 C.ar  1 <1>  -0.1500 
 24 C      -10.2460    -4.6210    -1.9140 C.ar  1 <1>  -0.1500 
 25 C      -11.5570    -6.5590    -0.6180 C.ar  1 <1>   0.1600 
 26 C      -11.6100    -4.8310    -2.0330 C.ar  1 <1>   0.1600 
 27 N      -12.2820    -5.7770    -1.3990 N.ar  1 <1>  -0.6200 
 28 H       -2.4530    -0.5210     1.8170 H     1 <1>   0.0800 
 29 H       -3.1580     1.0520     1.5350 H     1 <1>   0.0800 
 30 H       -2.1280    -1.3380    -1.7820 H     1 <1>   0.0800 
 31 H       -1.8430    -1.9640    -0.1800 H     1 <1>   0.0800 
 32 H       -3.7870     3.4470    -1.7970 H     1 <1>   0.1500 
 33 H       -0.7360     1.8320     0.6700 H     1 <1>   0.1500 
 34 H       -5.1820     0.0900     0.6640 H     1 <1>   0.0800 
 35 H       -4.8640    -0.6070     2.2340 H     1 <1>   0.0800 
 36 H       -3.8160    -3.0320    -1.1360 H     1 <1>   0.0800 
 37 H       -4.5160    -1.4740    -1.5030 H     1 <1>   0.0800 
 38 H       -3.1330     5.6590    -1.0150 H     1 <1>   0.1500 
 39 H       -0.2010     4.1030     1.3580 H     1 <1>   0.1500 
 40 H       -4.0110    -2.6370     1.2530 H     1 <1>   0.0800 
 41 H       -6.4460    -1.8020    -0.1770 H     1 <1>   0.4500 
 42 H       -6.4210    -2.2500     1.4180 H     1 <1>   0.4500 
 43 H       -5.6200    -4.1680    -0.6510 H     1 <1>   0.0800 
 44 H       -8.1770    -3.1770    -0.4020 H     1 <1>   0.0800 
 45 H       -5.0410    -4.4010     1.9740 H     1 <1>   0.0800 
 46 H       -5.9840    -5.7090     1.2680 H     1 <1>   0.0800 
 47 H       -8.6960    -5.2380     1.5650 H     1 <1>   0.0800 
 48 H       -8.8360    -3.5050     1.8040 H     1 <1>   0.0800 
 49 H       -7.5690    -6.1490    -0.5200 H     1 <1>   0.0800 
 50 H       -7.5650    -5.0740    -1.8830 H     1 <1>   0.0800 
 51 H       -9.6880    -7.1240     0.2250 H     1 <1>   0.1500 
 52 H       -9.7890    -3.8260    -2.4740 H     1 <1>   0.1500 
 53 H      -12.0810    -7.3430    -0.0980 H     1 <1>   0.1500 
 54 H      -12.1790    -4.1880    -2.6830 H     1 <1>   0.1500 
@<TRIPOS>BOND
  1   1   2  2   
  2   2   3  am  
  3   2   4  1   
  4   3   5  1   
  5   3   6  1   
  6   4   7  ar  
  7   4   8  ar  
  8   5   9  1   
  9   5  28  1   
 10   5  29  1   
 11   6  10  1   
 12   6  30  1   
 13   6  31  1   
 14   7  11  ar  
 15   7  32  1   
 16   8  12  ar  
 17   8  33  1   
 18   9  13  1   
 19   9  34  1   
 20   9  35  1   
 21  10  13  1   
 22  10  36  1   
 23  10  37  1   
 24  11  14  ar  
 25  11  38  1   
 26  12  14  ar  
 27  12  39  1   
 28  13  15  1   
 29  13  40  1   
 30  15  16  1   
 31  15  41  1   
 32  15  42  1   
 33  16  17  1   
 34  16  18  1   
 35  16  43  1   
 36  17  19  1   
 37  17  20  1   
 38  17  44  1   
 39  18  21  1   
 40  18  45  1   
 41  18  46  1   
 42  19  21  1   
 43  19  47  1   
 44  19  48  1   
 45  20  22  1   
 46  20  49  1   
 47  20  50  1   
 48  22  23  ar  
 49  22  24  ar  
 50  23  25  ar  
 51  23  51  1   
 52  24  26  ar  
 53  24  52  1   
 54  25  27  ar  
 55  25  53  1   
 56  26  27  ar  
 57  26  54  1   
@<TRIPOS>SUBSTRUCTURE
  1 ****  15 GROUP 4 **** **** 0

# MOE 2024.06 (io_trps.svl 2023.06)
