@<TRIPOS>MOLECULE
NONAME
23 22 1 0 0 
SMALL
USER_CHARGES


@<TRIPOS>ATOM
  1 N       -0.4750    -5.0290     0.0160 N.4   1 <1>  -0.9060 
  2 C       -1.6550    -4.2920     0.5100 C.3   1 <1>   0.4230 
  3 C        0.8330    -4.3440     0.3210 C.3   1 <1>   0.3430 
  4 C       -2.8470    -5.2350     0.4200 C.3   1 <1>  -0.2400 
  5 C       -1.8810    -3.0550    -0.3550 C.3   1 <1>  -0.2400 
  6 C        2.0910    -5.1210    -0.1790 C.3   1 <1>   0.3430 
  7 N        3.4030    -4.4420     0.1160 N.4   1 <1>  -0.8530 
  8 H       -0.6290    -5.1580    -0.9950 H     1 <1>   0.4500 
  9 H       -0.5310    -5.9660     0.4410 H     1 <1>   0.4500 
 10 H       -1.5150    -3.9990     1.5400 H     1 <1>   0.0800 
 11 H        0.9100    -4.2090     1.3880 H     1 <1>   0.0800 
 12 H        0.8280    -3.3680    -0.1380 H     1 <1>   0.0800 
 13 H       -3.0310    -5.5470    -0.5940 H     1 <1>   0.0800 
 14 H       -3.7310    -4.7300     0.7720 H     1 <1>   0.0800 
 15 H       -2.7040    -6.1000     1.0430 H     1 <1>   0.0800 
 16 H       -2.0080    -3.3160    -1.3910 H     1 <1>   0.0800 
 17 H       -1.0780    -2.3480    -0.2550 H     1 <1>   0.0800 
 18 H       -2.7800    -2.5570    -0.0330 H     1 <1>   0.0800 
 19 H        2.0070    -5.2590    -1.2460 H     1 <1>   0.0800 
 20 H        2.0970    -6.0970     0.2810 H     1 <1>   0.0800 
 21 H        3.5020    -3.5210    -0.3360 H     1 <1>   0.4500 
 22 H        4.1890    -5.0100    -0.2420 H     1 <1>   0.4500 
 23 H        3.5890    -4.3200     1.1220 H     1 <1>   0.4500 
@<TRIPOS>BOND
  1   1   2  1   
  2   1   3  1   
  3   1   8  1   
  4   1   9  1   
  5   2   4  1   
  6   2   5  1   
  7   2  10  1   
  8   3   6  1   
  9   3  11  1   
 10   3  12  1   
 11   4  13  1   
 12   4  14  1   
 13   4  15  1   
 14   5  16  1   
 15   5  17  1   
 16   5  18  1   
 17   6   7  1   
 18   6  19  1   
 19   6  20  1   
 20   7  21  1   
 21   7  22  1   
 22   7  23  1   
@<TRIPOS>SUBSTRUCTURE
  1 ****   1 GROUP 4 **** **** 0

# MOE 2024.06 (io_trps.svl 2023.06)
