@<TRIPOS>MOLECULE
NONAME
47 50 1 0 0 
SMALL
USER_CHARGES


@<TRIPOS>ATOM
  1 S        0.3860     0.1570     1.8500 S.o2  1 <1>   1.4470 
  2 O       -0.2070     1.3120     2.4860 O.2   1 <1>  -0.6500 
  3 O        1.0090    -0.8730     2.6490 O.2   1 <1>  -0.6500 
  4 N        1.6250     0.7870     0.8710 N.am  1 <1>  -0.8490 
  5 C       -0.8070    -0.5690     0.6900 C.ar  1 <1>  -0.0090 
  6 C        2.5760     1.5460     1.7250 C.3   1 <1>   0.1960 
  7 C        2.3310    -0.2660     0.1220 C.3   1 <1>   0.1960 
  8 C       -1.0630    -1.9380     0.6950 C.ar  1 <1>  -0.1500 
  9 C       -1.4910     0.2380    -0.2280 C.ar  1 <1>  -0.1500 
 10 C        3.6420     2.4060     0.9850 C.3   1 <1>   0.4230 
 11 C        3.2470     0.3140    -0.9790 C.3   1 <1>  -0.0800 
 12 C       -1.9780    -2.4700    -0.1990 C.ar  1 <1>   0.1170 
 13 C       -2.4050    -0.2910    -1.1280 C.ar  1 <1>  -0.1500 
 14 N        3.2580     2.8420    -0.4180 N.4   1 <1>  -0.9590 
 15 C        5.0420     1.7540     1.0210 C.3   1 <1>   0.1200 
 16 C        4.7450     0.1350    -0.6900 C.3   1 <1>   0.1200 
 17 C        2.8660     1.7480    -1.3770 C.3   1 <1>   0.3430 
 18 N       -2.4390    -3.7490    -0.4270 N.am  1 <1>  -0.4770 
 19 C       -2.6310    -1.6530    -1.0920 C.ar  1 <1>   0.0830 
 20 C        2.1400     3.8340    -0.3430 C.3   1 <1>   0.2630 
 21 O        5.0280     0.4160     0.6400 O.3   1 <1>  -0.5600 
 22 C       -3.3540    -3.6520    -1.4420 C.2   1 <1>   0.7800 
 23 C       -2.0790    -4.9720     0.3250 C.3   1 <1>   0.0600 
 24 O       -3.4670    -2.3860    -1.8520 O.3   1 <1>  -0.2320 
 25 O       -3.9960    -4.5610    -1.9310 O.2   1 <1>  -0.5700 
 26 H        2.0170     2.2330     2.3380 H     1 <1>   0.0800 
 27 H        3.0680     0.8720     2.4080 H     1 <1>   0.0800 
 28 H        2.8890    -0.8990     0.7960 H     1 <1>   0.0800 
 29 H        1.6020    -0.8940    -0.3620 H     1 <1>   0.0800 
 30 H       -0.5620    -2.5880     1.3920 H     1 <1>   0.1500 
 31 H       -1.3090     1.2990    -0.2270 H     1 <1>   0.1500 
 32 H        3.7510     3.3030     1.5700 H     1 <1>   0.0800 
 33 H        3.0610    -0.2820    -1.8550 H     1 <1>   0.0800 
 34 H       -2.9350     0.3280    -1.8310 H     1 <1>   0.1500 
 35 H        4.0790     3.3160    -0.8160 H     1 <1>   0.4500 
 36 H        5.4050     1.7720     2.0340 H     1 <1>   0.0800 
 37 H        5.7460     2.2890     0.4090 H     1 <1>   0.0800 
 38 H        5.3640     0.7450    -1.3270 H     1 <1>   0.0800 
 39 H        5.0180    -0.8950    -0.8460 H     1 <1>   0.0800 
 40 H        1.7950     1.7650    -1.5030 H     1 <1>   0.0800 
 41 H        3.2990     1.9640    -2.3400 H     1 <1>   0.0800 
 42 H        1.2620     3.3690     0.0790 H     1 <1>   0.0800 
 43 H        1.8950     4.2000    -1.3270 H     1 <1>   0.0800 
 44 H        2.4170     4.6710     0.2760 H     1 <1>   0.0800 
 45 H       -1.0200    -5.1450     0.2520 H     1 <1>   0.0800 
 46 H       -2.6020    -5.8200    -0.0840 H     1 <1>   0.0800 
 47 H       -2.3540    -4.8560     1.3580 H     1 <1>   0.0800 
@<TRIPOS>BOND
  1   1   2  2   
  2   1   3  2   
  3   1   4  am  
  4   1   5  1   
  5   4   6  1   
  6   4   7  1   
  7   5   8  ar  
  8   5   9  ar  
  9   6  10  1   
 10   6  26  1   
 11   6  27  1   
 12   7  11  1   
 13   7  28  1   
 14   7  29  1   
 15   8  12  ar  
 16   8  30  1   
 17   9  13  ar  
 18   9  31  1   
 19  10  14  1   
 20  10  15  1   
 21  10  32  1   
 22  11  16  1   
 23  11  17  1   
 24  11  33  1   
 25  12  18  1   
 26  12  19  ar  
 27  13  19  ar  
 28  13  34  1   
 29  14  17  1   
 30  14  20  1   
 31  14  35  1   
 32  15  21  1   
 33  15  36  1   
 34  15  37  1   
 35  16  21  1   
 36  16  38  1   
 37  16  39  1   
 38  17  40  1   
 39  17  41  1   
 40  18  22  am  
 41  18  23  1   
 42  19  24  1   
 43  20  42  1   
 44  20  43  1   
 45  20  44  1   
 46  22  24  1   
 47  22  25  2   
 48  23  45  1   
 49  23  46  1   
 50  23  47  1   
@<TRIPOS>SUBSTRUCTURE
  1 ****   5 GROUP 4 **** **** 0

# MOE 2024.06 (io_trps.svl 2023.06)
