@<TRIPOS>MOLECULE
NONAME
49 51 1 0 0 
SMALL
USER_CHARGES


@<TRIPOS>ATOM
  1 O       -0.9320     1.6690    -0.2650 O.2   1 <1>  -0.5700 
  2 C       -1.4650     0.5780    -0.1150 C.2   1 <1>   0.5440 
  3 N       -2.8050     0.5140     0.2020 N.am  1 <1>  -0.4200 
  4 C       -0.7370    -0.6530    -0.2390 C.ar  1 <1>   0.0860 
  5 C       -3.3890    -0.7120     0.4160 C.2   1 <1>   0.4500 
  6 C       -3.6310     1.7480     0.2810 C.3   1 <1>   0.1400 
  7 C       -1.4390    -1.8410    -0.0010 C.ar  1 <1>   0.1790 
  8 C        0.6180    -0.7250    -0.5760 C.ar  1 <1>  -0.1500 
  9 N       -2.7790    -1.8310     0.3320 N.2   1 <1>  -0.6290 
 10 C       -3.2950     2.5550     1.5430 C.3   1 <1>  -0.0990 
 11 C       -0.7770    -3.0590    -0.1040 C.ar  1 <1>  -0.1500 
 12 C        1.2620    -1.9410    -0.6750 C.ar  1 <1>  -0.1500 
 13 C       -3.0100     4.0000     1.1990 C.2   1 <1>   0.5690 
 14 C        0.5610    -3.1150    -0.4370 C.ar  1 <1>  -0.1500 
 15 O       -3.7740     4.8360     1.6140 O.2   1 <1>  -0.5700 
 16 N       -1.9100     4.2610     0.4420 N.am  1 <1>  -0.4930 
 17 C       -1.3400     5.4830    -0.0010 C.2   1 <1>   0.0630 
 18 C       -1.9320     6.7000    -0.3590 C.2   1 <1>   0.1080 
 19 C       -0.0170     5.6760    -0.1980 C.2   1 <1>  -0.3320 
 20 N       -1.0550     7.5770    -0.7380 N.2   1 <1>  -0.7070 
 21 C       -3.4070     7.0330    -0.3560 C.3   1 <1>  -0.0590 
 22 N        0.1290     6.9520    -0.6340 N.pl3 1 <1>   0.3140 
 23 C        1.1360     4.7030     0.0090 C.3   1 <1>  -0.0600 
 24 C        1.3850     7.6480    -0.9830 C.3   1 <1>   0.0960 
 25 C        1.9940     8.3330     0.2490 C.3   1 <1>  -0.1600 
 26 C        3.3040     9.0510    -0.1000 C.3   1 <1>  -0.2400 
 27 H       -4.4350    -0.7050     0.6710 H     1 <1>   0.0600 
 28 H       -4.6770     1.4940     0.2840 H     1 <1>   0.0800 
 29 H       -3.4500     2.3350    -0.6050 H     1 <1>   0.0800 
 30 H        1.1610     0.1860    -0.7610 H     1 <1>   0.1500 
 31 H       -2.4380     2.1550     2.0520 H     1 <1>   0.0800 
 32 H       -4.1280     2.5190     2.2210 H     1 <1>   0.0800 
 33 H       -1.3300    -3.9630     0.0820 H     1 <1>   0.1500 
 34 H        2.3060    -1.9870    -0.9360 H     1 <1>   0.1500 
 35 H        1.0620    -4.0650    -0.5140 H     1 <1>   0.1500 
 36 H       -1.3520     3.4380     0.1760 H     1 <1>   0.3700 
 37 H       -3.9780     6.1860    -0.6860 H     1 <1>   0.0800 
 38 H       -3.5960     7.8590    -1.0160 H     1 <1>   0.0800 
 39 H       -3.7120     7.3040     0.6370 H     1 <1>   0.0800 
 40 H        0.7810     3.7670     0.4020 H     1 <1>   0.0800 
 41 H        1.8460     5.1100     0.7060 H     1 <1>   0.0800 
 42 H        1.6300     4.5110    -0.9260 H     1 <1>   0.0800 
 43 H        1.1580     8.3820    -1.7350 H     1 <1>   0.0800 
 44 H        2.0720     6.9350    -1.3980 H     1 <1>   0.0800 
 45 H        2.1830     7.6000     1.0130 H     1 <1>   0.0800 
 46 H        1.2880     9.0500     0.6340 H     1 <1>   0.0800 
 47 H        4.0320     8.3510    -0.4720 H     1 <1>   0.0800 
 48 H        3.7050     9.5270     0.7780 H     1 <1>   0.0800 
 49 H        3.1320     9.8060    -0.8470 H     1 <1>   0.0800 
@<TRIPOS>BOND
  1   1   2  2   
  2   2   3  am  
  3   2   4  1   
  4   3   5  1   
  5   3   6  1   
  6   4   7  ar  
  7   4   8  ar  
  8   5   9  2   
  9   5  27  1   
 10   6  10  1   
 11   6  28  1   
 12   6  29  1   
 13   7   9  1   
 14   7  11  ar  
 15   8  12  ar  
 16   8  30  1   
 17  10  13  1   
 18  10  31  1   
 19  10  32  1   
 20  11  14  ar  
 21  11  33  1   
 22  12  14  ar  
 23  12  34  1   
 24  13  15  2   
 25  13  16  am  
 26  14  35  1   
 27  16  17  1   
 28  16  36  1   
 29  17  18  1   
 30  17  19  2   
 31  18  20  2   
 32  18  21  1   
 33  19  22  1   
 34  19  23  1   
 35  20  22  1   
 36  21  37  1   
 37  21  38  1   
 38  21  39  1   
 39  22  24  1   
 40  23  40  1   
 41  23  41  1   
 42  23  42  1   
 43  24  25  1   
 44  24  43  1   
 45  24  44  1   
 46  25  26  1   
 47  25  45  1   
 48  25  46  1   
 49  26  47  1   
 50  26  48  1   
 51  26  49  1   
@<TRIPOS>SUBSTRUCTURE
  1 ****   1 GROUP 4 **** **** 0

# MOE 2024.06 (io_trps.svl 2023.06)
