@<TRIPOS>MOLECULE
NONAME
50 51 1 0 0 
SMALL
USER_CHARGES


@<TRIPOS>ATOM
  1 O        1.0470    -0.6100     1.6290 O.2   1 <1>  -0.5700 
  2 C        1.4590    -0.7310     0.4990 C.2   1 <1>   0.5690 
  3 N        2.0900     0.2740    -0.1930 N.am  1 <1>  -0.5470 
  4 C        1.2340    -2.1070    -0.1820 C.3   1 <1>   0.4840 
  5 C        2.3710     1.6010     0.1750 C.ar  1 <1>   0.1170 
  6 N        0.0160    -2.8280     0.3710 N.4   1 <1>  -0.9590 
  7 C        2.4890    -2.9730    -0.0040 C.3   1 <1>  -0.2400 
  8 C        3.4280     2.2740    -0.4440 C.ar  1 <1>  -0.1430 
  9 C        1.6120     2.2810     1.1250 C.ar  1 <1>  -0.1500 
 10 C       -0.1390    -4.2510    -0.0880 C.3   1 <1>   0.3430 
 11 C       -1.2260    -2.0190     0.1320 C.3   1 <1>   0.2630 
 12 C        3.7030     3.5890    -0.1050 C.ar  1 <1>  -0.1500 
 13 C        4.3070     1.5980    -1.4910 C.3   1 <1>  -0.0970 
 14 C        1.8940     3.5920     1.4590 C.ar  1 <1>  -0.1500 
 15 C       -1.2180    -5.0130     0.6840 C.3   1 <1>   0.0210 
 16 C        2.9410     4.2490     0.8420 C.ar  1 <1>  -0.1500 
 17 C       -1.1470    -6.4630     0.2590 C.2   1 <1>  -0.1810 
 18 C       -0.3090    -7.4410     0.7950 C.2   1 <1>   0.1080 
 19 C       -1.8430    -7.0970    -0.7100 C.2   1 <1>  -0.3320 
 20 N       -0.4550    -8.5810     0.2060 N.2   1 <1>  -0.7070 
 21 C        0.6750    -7.2640     1.9320 C.3   1 <1>  -0.0590 
 22 N       -1.4090    -8.3760    -0.7170 N.pl3 1 <1>   0.3000 
 23 C       -2.9190    -6.6010    -1.6640 C.3   1 <1>  -0.0600 
 24 H        2.5040     0.0380    -1.0940 H     1 <1>   0.3700 
 25 H        1.0870    -1.9310    -1.2340 H     1 <1>   0.0800 
 26 H        0.1740    -2.8170     1.3940 H     1 <1>   0.4500 
 27 H        2.6040    -3.2700     1.0240 H     1 <1>   0.0800 
 28 H        3.3620    -2.4060    -0.2780 H     1 <1>   0.0800 
 29 H        2.4680    -3.8400    -0.6380 H     1 <1>   0.0800 
 30 H        0.7890     1.7980     1.6150 H     1 <1>   0.1500 
 31 H        0.7860    -4.7830     0.0540 H     1 <1>   0.0800 
 32 H       -0.3740    -4.2790    -1.1400 H     1 <1>   0.0800 
 33 H       -1.4390    -1.9550    -0.9230 H     1 <1>   0.0800 
 34 H       -1.1080    -1.0210     0.5230 H     1 <1>   0.0800 
 35 H       -2.0710    -2.4700     0.6270 H     1 <1>   0.0800 
 36 H        4.5150     4.1170    -0.5750 H     1 <1>   0.1500 
 37 H        4.7370     0.6980    -1.0910 H     1 <1>   0.0800 
 38 H        5.1140     2.2440    -1.7880 H     1 <1>   0.0800 
 39 H        3.7290     1.3650    -2.3670 H     1 <1>   0.0800 
 40 H        1.2990     4.1020     2.1970 H     1 <1>   0.1500 
 41 H       -2.1960    -4.6290     0.4610 H     1 <1>   0.0800 
 42 H       -1.0490    -4.9440     1.7430 H     1 <1>   0.0800 
 43 H        3.1640     5.2700     1.1000 H     1 <1>   0.1500 
 44 H        1.4170    -6.5340     1.6730 H     1 <1>   0.0800 
 45 H        1.1670    -8.1990     2.1320 H     1 <1>   0.0800 
 46 H        0.1560    -6.9570     2.8210 H     1 <1>   0.0800 
 47 H       -1.7400    -9.1310    -1.3310 H     1 <1>   0.2700 
 48 H       -3.1210    -5.5580    -1.5120 H     1 <1>   0.0800 
 49 H       -3.8310    -7.1490    -1.5040 H     1 <1>   0.0800 
 50 H       -2.6060    -6.7450    -2.6830 H     1 <1>   0.0800 
@<TRIPOS>BOND
  1   1   2  2   
  2   2   3  am  
  3   2   4  1   
  4   3   5  1   
  5   3  24  1   
  6   4   6  1   
  7   4   7  1   
  8   4  25  1   
  9   5   8  ar  
 10   5   9  ar  
 11   6  10  1   
 12   6  11  1   
 13   6  26  1   
 14   7  27  1   
 15   7  28  1   
 16   7  29  1   
 17   8  12  ar  
 18   8  13  1   
 19   9  14  ar  
 20   9  30  1   
 21  10  15  1   
 22  10  31  1   
 23  10  32  1   
 24  11  33  1   
 25  11  34  1   
 26  11  35  1   
 27  12  16  ar  
 28  12  36  1   
 29  13  37  1   
 30  13  38  1   
 31  13  39  1   
 32  14  16  ar  
 33  14  40  1   
 34  15  17  1   
 35  15  41  1   
 36  15  42  1   
 37  16  43  1   
 38  17  18  1   
 39  17  19  2   
 40  18  20  2   
 41  18  21  1   
 42  19  22  1   
 43  19  23  1   
 44  20  22  1   
 45  21  44  1   
 46  21  45  1   
 47  21  46  1   
 48  22  47  1   
 49  23  48  1   
 50  23  49  1   
 51  23  50  1   
@<TRIPOS>SUBSTRUCTURE
  1 ****   4 GROUP 4 **** **** 0

# MOE 2024.06 (io_trps.svl 2023.06)
