@<TRIPOS>MOLECULE
NONAME
51 53 1 0 0 
SMALL
USER_CHARGES


@<TRIPOS>ATOM
  1 O       -0.1700     0.7640    -1.5020 O.2   1 <1>  -0.5700 
  2 C       -0.1540     1.9070    -1.0760 C.2   1 <1>   0.6160 
  3 N       -1.3490     2.5950    -1.0020 N.am  1 <1>  -0.6600 
  4 C        1.0870     2.4590    -0.6080 C.2   1 <1>   0.0290 
  5 C       -1.4790     3.9390    -0.3670 C.3   1 <1>   0.1400 
  6 C       -2.5640     2.0460    -1.6720 C.3   1 <1>   0.1400 
  7 C        1.6510     3.5260    -1.3770 C.2   1 <1>   0.6160 
  8 C        1.7610     2.0180     0.5130 C.2   1 <1>  -0.1380 
  9 C       -2.8120     4.0040     0.3810 C.3   1 <1>  -0.1600 
 10 C       -3.6140     3.1390    -1.8800 C.3   1 <1>  -0.1600 
 11 O        1.1330     4.0240    -2.3650 O.2   1 <1>  -0.5700 
 12 N        2.8470     4.0600    -0.9810 N.am  1 <1>  -0.5390 
 13 C        2.9910     2.6150     0.8700 C.2   1 <1>  -0.1500 
 14 C        1.2550     0.8930     1.4090 C.3   1 <1>  -0.1020 
 15 C       -4.0380     3.8050    -0.5540 C.3   1 <1>   0.2800 
 16 C        3.5200     3.6230     0.1240 C.2   1 <1>  -0.0290 
 17 O       -4.4830     5.0720    -0.9450 O.3   1 <1>  -0.5600 
 18 C       -5.1820     2.9790     0.1130 C.3   1 <1>  -0.1600 
 19 C        4.8350     4.3020     0.4470 C.3   1 <1>  -0.1020 
 20 C       -5.2050     5.9160    -0.0750 C.3   1 <1>   0.1200 
 21 C       -6.4320     3.7780     0.5180 C.3   1 <1>   0.2800 
 22 C       -6.0200     5.1820     1.0060 C.3   1 <1>   0.2000 
 23 O       -7.2400     3.9180    -0.5950 O.3   1 <1>  -0.6800 
 24 C       -7.2800     3.0150     1.5410 C.3   1 <1>  -0.2400 
 25 O       -5.2470     5.0890     2.1680 O.3   1 <1>  -0.6800 
 26 H       -0.6730     4.1090     0.3240 H     1 <1>   0.0800 
 27 H       -1.4390     4.7010    -1.1290 H     1 <1>   0.0800 
 28 H       -2.2850     1.6320    -2.6270 H     1 <1>   0.0800 
 29 H       -2.9670     1.2520    -1.0670 H     1 <1>   0.0800 
 30 H       -2.8660     4.9460     0.8910 H     1 <1>   0.0800 
 31 H       -2.7720     3.2340     1.1290 H     1 <1>   0.0800 
 32 H       -4.4670     2.7300    -2.3890 H     1 <1>   0.0800 
 33 H       -3.1880     3.8760    -2.5380 H     1 <1>   0.0800 
 34 H        3.1990     4.8030    -1.5840 H     1 <1>   0.3700 
 35 H        3.5030     2.2510     1.7440 H     1 <1>   0.1500 
 36 H        1.2840     1.1990     2.4390 H     1 <1>   0.0800 
 37 H        1.8800     0.0260     1.2880 H     1 <1>   0.0800 
 38 H        0.2440     0.6120     1.1730 H     1 <1>   0.0800 
 39 H       -5.4830     2.1610    -0.5150 H     1 <1>   0.0800 
 40 H       -4.7910     2.5090     0.9950 H     1 <1>   0.0800 
 41 H        5.5240     4.1740    -0.3690 H     1 <1>   0.0800 
 42 H        5.2730     3.8790     1.3330 H     1 <1>   0.0800 
 43 H        4.6770     5.3520     0.6110 H     1 <1>   0.0800 
 44 H       -4.5250     6.6200     0.3690 H     1 <1>   0.0800 
 45 H       -5.8880     6.4620    -0.7000 H     1 <1>   0.0800 
 46 H       -6.8920     5.7560     1.2630 H     1 <1>   0.0800 
 47 H       -7.4640     3.0410    -0.9550 H     1 <1>   0.4000 
 48 H       -6.7270     2.8720     2.4520 H     1 <1>   0.0800 
 49 H       -7.5610     2.0480     1.1640 H     1 <1>   0.0800 
 50 H       -8.1660     3.5760     1.7790 H     1 <1>   0.0800 
 51 H       -4.4120     4.6320     1.9600 H     1 <1>   0.4000 
@<TRIPOS>BOND
  1   1   2  2   
  2   2   3  am  
  3   2   4  1   
  4   3   5  1   
  5   3   6  1   
  6   4   7  1   
  7   4   8  2   
  8   5   9  1   
  9   5  26  1   
 10   5  27  1   
 11   6  10  1   
 12   6  28  1   
 13   6  29  1   
 14   7  11  2   
 15   7  12  am  
 16   8  13  1   
 17   8  14  1   
 18   9  15  1   
 19   9  30  1   
 20   9  31  1   
 21  10  15  1   
 22  10  32  1   
 23  10  33  1   
 24  12  16  1   
 25  12  34  1   
 26  13  16  2   
 27  13  35  1   
 28  14  36  1   
 29  14  37  1   
 30  14  38  1   
 31  15  17  1   
 32  15  18  1   
 33  16  19  1   
 34  17  20  1   
 35  18  21  1   
 36  18  39  1   
 37  18  40  1   
 38  19  41  1   
 39  19  42  1   
 40  19  43  1   
 41  20  22  1   
 42  20  44  1   
 43  20  45  1   
 44  21  22  1   
 45  21  23  1   
 46  21  24  1   
 47  22  25  1   
 48  22  46  1   
 49  23  47  1   
 50  24  48  1   
 51  24  49  1   
 52  24  50  1   
 53  25  51  1   
@<TRIPOS>SUBSTRUCTURE
  1 ****   5 GROUP 4 **** **** 0

# MOE 2024.06 (io_trps.svl 2023.06)
