@<TRIPOS>MOLECULE
NONAME
53 56 1 0 0 
SMALL
USER_CHARGES


@<TRIPOS>ATOM
  1 O       -0.4070     0.2070    -0.3440 O.2   1 <1>  -0.5700 
  2 C       -1.4550     0.7980    -0.4600 C.2   1 <1>   0.5690 
  3 N       -2.6190     0.1230    -0.7470 N.am  1 <1>  -0.6600 
  4 C       -1.4770     2.3160    -0.2820 C.3   1 <1>   0.0440 
  5 C       -3.9890     0.7190    -0.8400 C.3   1 <1>   0.1400 
  6 C       -2.6260    -1.3610    -0.9530 C.3   1 <1>   0.1400 
  7 C       -0.1140     2.9840    -0.1080 C.ar  1 <1>  -0.1440 
  8 C       -4.9700    -0.0070     0.1010 C.3   1 <1>   0.1900 
  9 C       -3.6480    -2.0420    -0.0280 C.3   1 <1>   0.1100 
 10 C        0.2650     3.5130     1.1160 C.ar  1 <1>  -0.1500 
 11 C        0.7570     3.0760    -1.1820 C.ar  1 <1>  -0.1500 
 12 N       -5.0010    -1.4610    -0.1900 N.3   1 <1>  -0.8100 
 13 C       -6.3830     0.5970    -0.0230 C.3   1 <1>   0.1200 
 14 C        1.4950     4.1290     1.2620 C.ar  1 <1>  -0.1500 
 15 C        1.9890     3.6920    -1.0360 C.ar  1 <1>  -0.1500 
 16 C       -5.9960    -2.1310     0.6820 C.3   1 <1>   0.3330 
 17 O       -7.2710    -0.0590     0.8350 O.3   1 <1>  -0.5600 
 18 C        2.3660     4.2210     0.1880 C.ar  1 <1>  -0.1440 
 19 C       -6.1480    -3.6060     0.3120 C.ar  1 <1>  -0.1440 
 20 C       -7.3710    -1.4350     0.5790 C.3   1 <1>   0.1200 
 21 C        3.7160     4.8940     0.3540 C.3   1 <1>   0.2640 
 22 C       -6.3030    -3.9970    -1.0120 C.ar  1 <1>  -0.1500 
 23 C       -6.1380    -4.5770     1.3030 C.ar  1 <1>  -0.1500 
 24 O        3.4980     6.2550     0.3890 O.3   1 <1>  -0.6800 
 25 C       -6.4470    -5.3330    -1.3390 C.ar  1 <1>  -0.1500 
 26 C       -6.2810    -5.9150     0.9780 C.ar  1 <1>  -0.1500 
 27 C       -6.4360    -6.2940    -0.3440 C.ar  1 <1>  -0.1500 
 28 H       -1.9470     2.7480    -1.1450 H     1 <1>   0.0800 
 29 H       -2.0880     2.5390     0.5720 H     1 <1>   0.0800 
 30 H       -3.9750     1.7620    -0.5890 H     1 <1>   0.0800 
 31 H       -4.3410     0.6250    -1.8530 H     1 <1>   0.0800 
 32 H       -2.8820    -1.5730    -1.9760 H     1 <1>   0.0800 
 33 H       -1.6520    -1.7780    -0.7650 H     1 <1>   0.0800 
 34 H       -4.6350     0.1480     1.1130 H     1 <1>   0.0800 
 35 H       -3.3210    -1.9420     0.9930 H     1 <1>   0.0800 
 36 H       -3.6710    -3.0920    -0.2680 H     1 <1>   0.0800 
 37 H       -0.3930     3.4470     1.9650 H     1 <1>   0.1500 
 38 H        0.4830     2.6600    -2.1350 H     1 <1>   0.1500 
 39 H       -6.7490     0.5060    -1.0310 H     1 <1>   0.0800 
 40 H       -6.3740     1.6360     0.2530 H     1 <1>   0.0800 
 41 H        1.7770     4.5380     2.2170 H     1 <1>   0.1500 
 42 H        2.6510     3.7510    -1.8820 H     1 <1>   0.1500 
 43 H       -5.6680    -2.0610     1.7050 H     1 <1>   0.0800 
 44 H       -8.0490    -1.8560     1.2980 H     1 <1>   0.0800 
 45 H       -7.7850    -1.5720    -0.4040 H     1 <1>   0.0800 
 46 H        4.3650     4.6760    -0.4760 H     1 <1>   0.0800 
 47 H        4.1940     4.6000     1.2720 H     1 <1>   0.0800 
 48 H       -6.3060    -3.2520    -1.7900 H     1 <1>   0.1500 
 49 H       -6.0190    -4.2980     2.3360 H     1 <1>   0.1500 
 50 H        2.6750     6.4410    -0.1040 H     1 <1>   0.4000 
 51 H       -6.5650    -5.6240    -2.3680 H     1 <1>   0.1500 
 52 H       -6.2730    -6.6610     1.7520 H     1 <1>   0.1500 
 53 H       -6.5480    -7.3330    -0.5980 H     1 <1>   0.1500 
@<TRIPOS>BOND
  1   1   2  2   
  2   2   3  am  
  3   2   4  1   
  4   3   5  1   
  5   3   6  1   
  6   4   7  1   
  7   4  28  1   
  8   4  29  1   
  9   5   8  1   
 10   5  30  1   
 11   5  31  1   
 12   6   9  1   
 13   6  32  1   
 14   6  33  1   
 15   7  10  ar  
 16   7  11  ar  
 17   8  12  1   
 18   8  13  1   
 19   8  34  1   
 20   9  12  1   
 21   9  35  1   
 22   9  36  1   
 23  10  14  ar  
 24  10  37  1   
 25  11  15  ar  
 26  11  38  1   
 27  12  16  1   
 28  13  17  1   
 29  13  39  1   
 30  13  40  1   
 31  14  18  ar  
 32  14  41  1   
 33  15  18  ar  
 34  15  42  1   
 35  16  19  1   
 36  16  20  1   
 37  16  43  1   
 38  17  20  1   
 39  18  21  1   
 40  19  22  ar  
 41  19  23  ar  
 42  20  44  1   
 43  20  45  1   
 44  21  24  1   
 45  21  46  1   
 46  21  47  1   
 47  22  25  ar  
 48  22  48  1   
 49  23  26  ar  
 50  23  49  1   
 51  24  50  1   
 52  25  27  ar  
 53  25  51  1   
 54  26  27  ar  
 55  26  52  1   
 56  27  53  1   
@<TRIPOS>SUBSTRUCTURE
  1 ****   3 GROUP 4 **** **** 0

# MOE 2024.06 (io_trps.svl 2023.06)
