@<TRIPOS>MOLECULE
NONAME
48 50 1 0 0 
SMALL
USER_CHARGES


@<TRIPOS>ATOM
  1 O        0.0020    -2.8650     1.4900 O.2   1 <1>  -0.5700 
  2 C        0.9960    -2.5780     0.8510 C.2   1 <1>   0.6900 
  3 N        1.8410    -3.5630     0.3920 N.am  1 <1>  -0.4200 
  4 N        1.2310    -1.2820     0.4920 N.am  1 <1>  -0.5390 
  5 C        2.7510    -3.2750    -0.6050 C.2   1 <1>   0.6160 
  6 C        1.8020    -4.9320     0.9880 C.3   1 <1>   0.1400 
  7 C        2.2180    -0.9290    -0.4080 C.2   1 <1>  -0.0290 
  8 O        3.3030    -4.1930    -1.1810 O.2   1 <1>  -0.5700 
  9 C        2.9650    -1.9110    -0.9590 C.2   1 <1>  -0.1360 
 10 C        0.8380    -5.8660     0.2350 C.3   1 <1>   0.3430 
 11 C        2.3790     0.5470    -0.7130 C.3   1 <1>  -0.1020 
 12 N       -0.5170    -5.2470     0.0670 N.4   1 <1>  -0.9590 
 13 C       -1.6600    -6.1940     0.2840 C.3   1 <1>   0.3430 
 14 C       -0.7240    -4.6250    -1.2740 C.3   1 <1>   0.3430 
 15 C       -2.8180    -5.6940    -0.5910 C.3   1 <1>   0.4240 
 16 C       -2.0490    -5.1680    -1.8040 C.3   1 <1>  -0.1600 
 17 O       -3.4150    -4.5970     0.0180 O.3   1 <1>  -0.6800 
 18 C       -3.8930    -6.7680    -0.8570 C.ar  1 <1>  -0.1440 
 19 C       -4.4960    -7.5000     0.1750 C.ar  1 <1>  -0.1440 
 20 C       -4.2940    -7.0340    -2.1660 C.ar  1 <1>  -0.1500 
 21 C       -5.4200    -8.4900    -0.1290 C.ar  1 <1>  -0.1500 
 22 C       -4.2310    -7.2760     1.6620 C.3   1 <1>  -0.0970 
 23 C       -5.2190    -8.0190    -2.4550 C.ar  1 <1>  -0.1500 
 24 C       -5.7790    -8.7560    -1.4350 C.ar  1 <1>  -0.1500 
 25 H        0.6280    -0.5790     0.9280 H     1 <1>   0.3700 
 26 H        1.5040    -4.8650     2.0200 H     1 <1>   0.0800 
 27 H        2.7910    -5.3580     0.9730 H     1 <1>   0.0800 
 28 H        3.7420    -1.7230    -1.6770 H     1 <1>   0.1500 
 29 H        0.7530    -6.7830     0.7950 H     1 <1>   0.0800 
 30 H        1.2600    -6.1080    -0.7270 H     1 <1>   0.0800 
 31 H        2.6190     1.0860     0.1860 H     1 <1>   0.0800 
 32 H        1.4690     0.9440    -1.1250 H     1 <1>   0.0800 
 33 H        3.1720     0.7030    -1.4230 H     1 <1>   0.0800 
 34 H       -0.5960    -4.4820     0.7730 H     1 <1>   0.4500 
 35 H       -1.9480    -6.2390     1.3190 H     1 <1>   0.0800 
 36 H       -1.3880    -7.1800    -0.0530 H     1 <1>   0.0800 
 37 H        0.0810    -4.8690    -1.9490 H     1 <1>   0.0800 
 38 H       -0.7780    -3.5530    -1.1710 H     1 <1>   0.0800 
 39 H       -1.8080    -5.9830    -2.4630 H     1 <1>   0.0800 
 40 H       -2.6040    -4.4340    -2.3600 H     1 <1>   0.0800 
 41 H       -2.8260    -3.8240     0.0490 H     1 <1>   0.4000 
 42 H       -3.9080    -6.4820    -3.0020 H     1 <1>   0.1500 
 43 H       -5.8800    -9.0660     0.6550 H     1 <1>   0.1500 
 44 H       -4.1290    -6.2310     1.8860 H     1 <1>   0.0800 
 45 H       -3.3510    -7.8070     1.9720 H     1 <1>   0.0800 
 46 H       -5.0580    -7.6380     2.2480 H     1 <1>   0.0800 
 47 H       -5.5090    -8.2100    -3.4750 H     1 <1>   0.1500 
 48 H       -6.4990    -9.5260    -1.6530 H     1 <1>   0.1500 
@<TRIPOS>BOND
  1   1   2  2   
  2   2   3  am  
  3   2   4  am  
  4   3   5  am  
  5   3   6  1   
  6   4   7  1   
  7   4  25  1   
  8   5   8  2   
  9   5   9  1   
 10   6  10  1   
 11   6  26  1   
 12   6  27  1   
 13   7   9  2   
 14   7  11  1   
 15   9  28  1   
 16  10  12  1   
 17  10  29  1   
 18  10  30  1   
 19  11  31  1   
 20  11  32  1   
 21  11  33  1   
 22  12  13  1   
 23  12  14  1   
 24  12  34  1   
 25  13  15  1   
 26  13  35  1   
 27  13  36  1   
 28  14  16  1   
 29  14  37  1   
 30  14  38  1   
 31  15  16  1   
 32  15  17  1   
 33  15  18  1   
 34  16  39  1   
 35  16  40  1   
 36  17  41  1   
 37  18  19  ar  
 38  18  20  ar  
 39  19  21  ar  
 40  19  22  1   
 41  20  23  ar  
 42  20  42  1   
 43  21  24  ar  
 44  21  43  1   
 45  22  44  1   
 46  22  45  1   
 47  22  46  1   
 48  23  24  ar  
 49  23  47  1   
 50  24  48  1   
@<TRIPOS>SUBSTRUCTURE
  1 ****  12 GROUP 4 **** **** 0

# MOE 2024.06 (io_trps.svl 2023.06)
