@<TRIPOS>MOLECULE
NONAME
39 41 1 0 0 
SMALL
USER_CHARGES


@<TRIPOS>ATOM
  1 O       -0.3940     0.2500    -0.0930 O.2   1 <1>  -0.5700 
  2 C       -1.4410     0.8680     0.0110 C.2   1 <1>   0.7160 
  3 N       -2.6100     0.1280     0.0230 N.am  1 <1>  -0.6600 
  4 C       -1.3960     2.3240     0.1090 C.2   1 <1>   0.2030 
  5 C       -3.9950     0.6640     0.0620 C.3   1 <1>   0.1400 
  6 C       -2.6250    -1.3550    -0.0030 C.3   1 <1>   0.1400 
  7 N       -2.3850     3.1610     0.2530 N.2   1 <1>  -0.4100 
  8 C       -0.2220     3.0640     0.0620 C.2   1 <1>  -0.1500 
  9 C       -4.8970    -0.5580    -0.1130 C.3   1 <1>   0.2000 
 10 C       -4.0600    -1.7480     0.3470 C.3   1 <1>  -0.0800 
 11 O       -1.9430     4.3940     0.3020 O.3   1 <1>  -0.0190 
 12 C       -0.6350     4.3270     0.1860 C.2   1 <1>  -0.0400 
 13 O       -6.0500    -0.4600     0.6480 O.3   1 <1>  -0.6800 
 14 C       -4.5040    -3.0800    -0.2760 C.3   1 <1>   0.0210 
 15 C        0.1640     5.6130     0.2100 C.3   1 <1>  -0.0600 
 16 C       -3.5620    -4.2040     0.1070 C.2   1 <1>   0.1080 
 17 N       -3.3440    -4.5520     1.3370 N.2   1 <1>  -0.7070 
 18 C       -2.8280    -4.9690    -0.7930 C.2   1 <1>  -0.1500 
 19 N       -2.4570    -5.5610     1.2530 N.pl3 1 <1>   0.3000 
 20 C       -2.1280    -5.8310    -0.0270 C.2   1 <1>  -0.3320 
 21 C       -1.1490    -6.9130    -0.4460 C.3   1 <1>  -0.0600 
 22 H       -4.1660     1.1360     1.0140 H     1 <1>   0.0800 
 23 H       -4.1520     1.3690    -0.7370 H     1 <1>   0.0800 
 24 H       -2.3610    -1.6910    -0.9910 H     1 <1>   0.0800 
 25 H       -1.9250    -1.7630     0.7080 H     1 <1>   0.0800 
 26 H        0.7680     2.6590    -0.0500 H     1 <1>   0.1500 
 27 H       -5.1810    -0.6520    -1.1480 H     1 <1>   0.0800 
 28 H       -4.1080    -1.8310     1.4200 H     1 <1>   0.0800 
 29 H       -5.8270    -0.4700     1.6000 H     1 <1>   0.4000 
 30 H       -4.5380    -2.9940    -1.3470 H     1 <1>   0.0800 
 31 H       -5.4920    -3.3250     0.0710 H     1 <1>   0.0800 
 32 H        1.2120     5.4030     0.1060 H     1 <1>   0.0800 
 33 H        0.0000     6.1260     1.1410 H     1 <1>   0.0800 
 34 H       -0.1470     6.2500    -0.5980 H     1 <1>   0.0800 
 35 H       -2.8360    -4.8730    -1.8640 H     1 <1>   0.1500 
 36 H       -2.0980    -6.0440     2.0860 H     1 <1>   0.2700 
 37 H       -1.0550    -6.9320    -1.5170 H     1 <1>   0.0800 
 38 H       -1.4950    -7.8760    -0.1160 H     1 <1>   0.0800 
 39 H       -0.1790    -6.7220    -0.0210 H     1 <1>   0.0800 
@<TRIPOS>BOND
  1   1   2  2   
  2   2   3  am  
  3   2   4  1   
  4   3   5  1   
  5   3   6  1   
  6   4   7  2   
  7   4   8  1   
  8   5   9  1   
  9   5  22  1   
 10   5  23  1   
 11   6  10  1   
 12   6  24  1   
 13   6  25  1   
 14   7  11  1   
 15   8  12  2   
 16   8  26  1   
 17   9  10  1   
 18   9  13  1   
 19   9  27  1   
 20  10  14  1   
 21  10  28  1   
 22  11  12  1   
 23  12  15  1   
 24  13  29  1   
 25  14  16  1   
 26  14  30  1   
 27  14  31  1   
 28  15  32  1   
 29  15  33  1   
 30  15  34  1   
 31  16  17  2   
 32  16  18  1   
 33  17  19  1   
 34  18  20  2   
 35  18  35  1   
 36  19  20  1   
 37  19  36  1   
 38  20  21  1   
 39  21  37  1   
 40  21  38  1   
 41  21  39  1   
@<TRIPOS>SUBSTRUCTURE
  1 ****   6 GROUP 4 **** **** 0

# MOE 2024.06 (io_trps.svl 2023.06)
