@<TRIPOS>MOLECULE
NONAME
31 33 1 0 0 
SMALL
USER_CHARGES


@<TRIPOS>ATOM
  1 S        0.4160     0.0560    -0.8420 S.3   1 <1>  -0.4600 
  2 C        0.4760     1.8640    -0.9210 C.3   1 <1>   0.0700 
  3 C        2.1610    -0.3940    -0.6640 C.3   1 <1>   0.0700 
  4 C        1.2620     2.3880     0.2890 C.3   1 <1>   0.3430 
  5 C        2.7580     0.3860     0.5160 C.3   1 <1>   0.3430 
  6 N        2.6820     1.8790     0.3260 N.4   1 <1>  -0.9590 
  7 C        3.4780     2.5830     1.3740 C.3   1 <1>   0.4810 
  8 C        3.6670     4.0440     0.9650 C.2   1 <1>  -0.0380 
  9 N        4.4140     4.3280    -0.1660 N.pl3 1 <1>  -0.5840 
 10 C        3.1240     5.0810     1.6620 C.2   1 <1>  -0.1360 
 11 C        4.5870     5.6430    -0.5770 C.2   1 <1>   0.2710 
 12 C        3.2860     6.4460     1.2680 C.2   1 <1>   0.5650 
 13 N        5.2430     6.0090    -1.6130 N.2   1 <1>  -0.5650 
 14 N        4.0570     6.6900     0.1050 N.pl3 1 <1>   0.5610 
 15 O        2.7550     7.3330     1.9160 O.2   1 <1>  -0.5700 
 16 C        5.1000     7.3450    -1.5520 C.2   1 <1>   0.3660 
 17 N        4.4080     7.8080    -0.5660 N.2   1 <1>  -0.7070 
 18 H       -0.5420     2.2120    -0.9030 H     1 <1>   0.0800 
 19 H        0.9350     2.1420    -1.8530 H     1 <1>   0.0800 
 20 H        2.6580    -0.1700    -1.5920 H     1 <1>   0.0800 
 21 H        2.1930    -1.4550    -0.4860 H     1 <1>   0.0800 
 22 H        0.7450     2.0940     1.1880 H     1 <1>   0.0800 
 23 H        1.2640     3.4650     0.2460 H     1 <1>   0.0800 
 24 H        3.7870     0.0870     0.6310 H     1 <1>   0.0800 
 25 H        2.2300     0.1060     1.4140 H     1 <1>   0.0800 
 26 H        3.1070     2.1140    -0.5800 H     1 <1>   0.4500 
 27 H        4.4460     2.1220     1.4790 H     1 <1>   0.0800 
 28 H        2.9710     2.5270     2.3240 H     1 <1>   0.0800 
 29 H        4.9780     3.6540    -0.7020 H     1 <1>   0.4000 
 30 H        2.5390     4.9360     2.5530 H     1 <1>   0.1500 
 31 H        5.5490     7.9780    -2.3040 H     1 <1>   0.1500 
@<TRIPOS>BOND
  1   1   2  1   
  2   1   3  1   
  3   2   4  1   
  4   2  18  1   
  5   2  19  1   
  6   3   5  1   
  7   3  20  1   
  8   3  21  1   
  9   4   6  1   
 10   4  22  1   
 11   4  23  1   
 12   5   6  1   
 13   5  24  1   
 14   5  25  1   
 15   6   7  1   
 16   6  26  1   
 17   7   8  1   
 18   7  27  1   
 19   7  28  1   
 20   8   9  1   
 21   8  10  2   
 22   9  11  1   
 23   9  29  1   
 24  10  12  1   
 25  10  30  1   
 26  11  13  2   
 27  11  14  1   
 28  12  14  1   
 29  12  15  2   
 30  13  16  1   
 31  14  17  1   
 32  16  17  2   
 33  16  31  1   
@<TRIPOS>SUBSTRUCTURE
  1 ****   8 GROUP 4 **** **** 0

# MOE 2024.06 (io_trps.svl 2023.06)
