@<TRIPOS>MOLECULE
NONAME
52 55 1 0 0 
SMALL
USER_CHARGES


@<TRIPOS>ATOM
  1 O       -2.4500     2.0510    -2.6420 O.co2 1 <1>  -0.9000 
  2 C       -1.5970     1.6770    -1.8280 C.2   1 <1>   0.9060 
  3 O       -0.8420     0.7260    -2.0540 O.co2 1 <1>  -0.9000 
  4 C       -1.6570     2.1720    -0.3560 C.3   1 <1>   0.4600 
  5 N       -2.8410     1.6050     0.4210 N.4   1 <1>  -0.9590 
  6 C       -1.5850     3.6780    -0.0810 C.ar  1 <1>  -0.1430 
  7 C       -2.7520     0.1100     0.2930 C.3   1 <1>   0.3430 
  8 C       -4.1030     2.1550    -0.1860 C.3   1 <1>   0.3430 
  9 C       -1.0780     4.0990     1.1420 C.ar  1 <1>  -0.1500 
 10 C       -2.0160     4.6380    -0.9910 C.ar  1 <1>  -0.1500 
 11 C       -3.6450    -0.6590     1.2720 C.3   1 <1>   0.0960 
 12 C       -5.3170     1.9330     0.7140 C.3   1 <1>   0.0200 
 13 C       -1.0200     5.4450     1.4550 C.ar  1 <1>  -0.1500 
 14 C       -1.9560     5.9850    -0.6810 C.ar  1 <1>  -0.1500 
 15 N       -5.0700    -0.5890     0.8840 N.pl3 1 <1>   0.0480 
 16 C       -5.8080     0.5020     0.6550 C.2   1 <1>   0.0070 
 17 C       -1.4600     6.3960     0.5510 C.ar  1 <1>   0.0820 
 18 C       -5.9480    -1.5870     0.6920 C.2   1 <1>   0.0060 
 19 N       -7.0200     0.2000     0.3600 N.2   1 <1>  -0.3380 
 20 O       -1.3730     7.6920     0.9380 O.3   1 <1>  -0.3630 
 21 N       -7.1100    -1.1260     0.3840 N.2   1 <1>  -0.3380 
 22 C       -5.6160    -3.0710     0.8280 C.3   1 <1>   0.1630 
 23 C       -1.7070     8.7430     0.0580 C.3   1 <1>   0.0400 
 24 C       -6.7110    -4.0090     0.3310 C.ar  1 <1>  -0.1430 
 25 C       -7.8860    -4.1680     1.0550 C.ar  1 <1>   0.1600 
 26 C       -6.5530    -4.7300    -0.8380 C.ar  1 <1>  -0.1500 
 27 N       -8.8750    -4.9870     0.7310 N.ar  1 <1>  -0.6200 
 28 C       -7.5800    -5.5750    -1.1990 C.ar  1 <1>  -0.1500 
 29 C       -8.7000    -5.6660    -0.3900 C.ar  1 <1>   0.1600 
 30 H       -0.7640     1.7580     0.0760 H     1 <1>   0.0800 
 31 H       -2.7390     1.9420     1.3820 H     1 <1>   0.4500 
 32 H       -1.7310    -0.1870     0.4720 H     1 <1>   0.0800 
 33 H       -2.9870    -0.1870    -0.7190 H     1 <1>   0.0800 
 34 H       -4.2770     1.7110    -1.1550 H     1 <1>   0.0800 
 35 H       -3.9920     3.2160    -0.3370 H     1 <1>   0.0800 
 36 H       -0.7160     3.3880     1.8640 H     1 <1>   0.1500 
 37 H       -2.4030     4.3550    -1.9570 H     1 <1>   0.1500 
 38 H       -3.5280    -0.2740     2.2680 H     1 <1>   0.0800 
 39 H       -3.3370    -1.6870     1.2740 H     1 <1>   0.0800 
 40 H       -6.1090     2.5700     0.3600 H     1 <1>   0.0800 
 41 H       -5.1010     2.2200     1.7260 H     1 <1>   0.0800 
 42 H       -0.6280     5.7720     2.4010 H     1 <1>   0.1500 
 43 H       -2.2980     6.6940    -1.4100 H     1 <1>   0.1500 
 44 H       -5.4270    -3.2880     1.8640 H     1 <1>   0.0800 
 45 H       -4.7160    -3.2790     0.2810 H     1 <1>   0.0800 
 46 H       -1.5300     9.6740     0.5670 H     1 <1>   0.0800 
 47 H       -2.7470     8.6630    -0.2040 H     1 <1>   0.0800 
 48 H       -1.0820     8.6790    -0.8150 H     1 <1>   0.0800 
 49 H       -8.0210    -3.5880     1.9520 H     1 <1>   0.1500 
 50 H       -5.6730    -4.6410    -1.4500 H     1 <1>   0.1500 
 51 H       -7.5190    -6.1590    -2.0980 H     1 <1>   0.1500 
 52 H       -9.4950    -6.3310    -0.6810 H     1 <1>   0.1500 
@<TRIPOS>BOND
  1   1   2  ar  
  2   2   3  ar  
  3   2   4  1   
  4   4   5  1   
  5   4   6  1   
  6   4  30  1   
  7   5   7  1   
  8   5   8  1   
  9   5  31  1   
 10   6   9  ar  
 11   6  10  ar  
 12   7  11  1   
 13   7  32  1   
 14   7  33  1   
 15   8  12  1   
 16   8  34  1   
 17   8  35  1   
 18   9  13  ar  
 19   9  36  1   
 20  10  14  ar  
 21  10  37  1   
 22  11  15  1   
 23  11  38  1   
 24  11  39  1   
 25  12  16  1   
 26  12  40  1   
 27  12  41  1   
 28  13  17  ar  
 29  13  42  1   
 30  14  17  ar  
 31  14  43  1   
 32  15  16  1   
 33  15  18  1   
 34  16  19  2   
 35  17  20  1   
 36  18  21  2   
 37  18  22  1   
 38  19  21  1   
 39  20  23  1   
 40  22  24  1   
 41  22  44  1   
 42  22  45  1   
 43  23  46  1   
 44  23  47  1   
 45  23  48  1   
 46  24  25  ar  
 47  24  26  ar  
 48  25  27  ar  
 49  25  49  1   
 50  26  28  ar  
 51  26  50  1   
 52  27  29  ar  
 53  28  29  ar  
 54  28  51  1   
 55  29  52  1   
@<TRIPOS>SUBSTRUCTURE
  1 ****   8 GROUP 4 **** **** 0

# MOE 2024.06 (io_trps.svl 2023.06)
