@<TRIPOS>MOLECULE
NONAME
44 47 1 0 0 
SMALL
USER_CHARGES


@<TRIPOS>ATOM
  1 S       -3.6510    -3.1090     2.9710 S.3   1 <1>  -0.0800 
  2 C       -4.1550    -3.9980     1.5470 C.2   1 <1>  -0.1100 
  3 C       -2.5880    -2.0950     2.0140 C.2   1 <1>  -0.1100 
  4 C       -3.5430    -3.5230     0.4440 C.2   1 <1>  -0.1810 
  5 C       -2.6440    -2.4380     0.7140 C.2   1 <1>  -0.1500 
  6 C       -3.7570    -4.0450    -0.9610 C.3   1 <1>   0.5240 
  7 N       -5.0980    -3.6050    -1.4040 N.4   1 <1>  -0.9590 
  8 C       -5.6010    -4.3750    -2.5820 C.3   1 <1>   0.3430 
  9 C       -5.2370    -2.1270    -1.5450 C.3   1 <1>   0.3430 
 10 C       -7.1450    -4.3960    -2.6500 C.3   1 <1>   0.1400 
 11 C       -6.5540    -1.6450    -0.9280 C.3   1 <1>  -0.1600 
 12 N       -7.7900    -3.7000    -1.4910 N.am  1 <1>  -0.6600 
 13 C       -7.8220    -2.2180    -1.5730 C.3   1 <1>   0.1400 
 14 C       -8.2880    -4.3680    -0.3830 C.2   1 <1>   0.7160 
 15 O       -9.1490    -3.8170     0.2760 O.2   1 <1>  -0.5700 
 16 C       -7.7570    -5.6610     0.0430 C.2   1 <1>   0.2030 
 17 N       -6.5200    -6.1120    -0.1720 N.2   1 <1>  -0.7070 
 18 C       -8.5030    -6.5820     0.7760 C.2   1 <1>  -0.1500 
 19 N       -6.4920    -7.3230     0.4250 N.pl3 1 <1>   0.6010 
 20 C       -7.6930    -7.6380     1.0100 C.2   1 <1>  -0.0260 
 21 C       -5.4450    -8.2210     0.5120 C.2   1 <1>  -0.1810 
 22 N       -7.9250    -8.8180     1.6840 N.2   1 <1>  -0.5760 
 23 C       -5.6590    -9.3870     1.1770 C.2   1 <1>  -0.1360 
 24 C       -6.9360    -9.6460     1.7540 C.2   1 <1>   0.3760 
 25 H       -4.8700    -4.7890     1.7020 H     1 <1>   0.1500 
 26 H       -2.0240    -1.3420     2.5380 H     1 <1>   0.1500 
 27 H       -2.0720    -1.9600    -0.0640 H     1 <1>   0.1500 
 28 H       -3.7160    -5.1220    -0.9410 H     1 <1>   0.0800 
 29 H       -2.9910    -3.6770    -1.6240 H     1 <1>   0.0800 
 30 H       -5.7310    -3.8820    -0.6340 H     1 <1>   0.4500 
 31 H       -5.2690    -5.3980    -2.5060 H     1 <1>   0.0800 
 32 H       -5.2000    -3.9700    -3.4970 H     1 <1>   0.0800 
 33 H       -5.1900    -1.8470    -2.5850 H     1 <1>   0.0800 
 34 H       -4.4270    -1.6350    -1.0310 H     1 <1>   0.0800 
 35 H       -7.4770    -5.4200    -2.6870 H     1 <1>   0.0800 
 36 H       -7.4680    -3.9360    -3.5680 H     1 <1>   0.0800 
 37 H       -6.5920    -0.5740    -1.0210 H     1 <1>   0.0800 
 38 H       -6.5590    -1.8600     0.1260 H     1 <1>   0.0800 
 39 H       -7.8980    -1.9060    -2.6010 H     1 <1>   0.0800 
 40 H       -8.6900    -1.8380    -1.0570 H     1 <1>   0.0800 
 41 H       -9.5250    -6.4640     1.0940 H     1 <1>   0.1500 
 42 H       -4.5210    -7.9400     0.0470 H     1 <1>   0.1500 
 43 H       -4.8970   -10.1370     1.2900 H     1 <1>   0.1500 
 44 H       -7.0690   -10.5800     2.2720 H     1 <1>   0.0600 
@<TRIPOS>BOND
  1   1   2  1   
  2   1   3  1   
  3   2   4  2   
  4   2  25  1   
  5   3   5  2   
  6   3  26  1   
  7   4   5  1   
  8   4   6  1   
  9   5  27  1   
 10   6   7  1   
 11   6  28  1   
 12   6  29  1   
 13   7   8  1   
 14   7   9  1   
 15   7  30  1   
 16   8  10  1   
 17   8  31  1   
 18   8  32  1   
 19   9  11  1   
 20   9  33  1   
 21   9  34  1   
 22  10  12  1   
 23  10  35  1   
 24  10  36  1   
 25  11  13  1   
 26  11  37  1   
 27  11  38  1   
 28  12  13  1   
 29  12  14  am  
 30  13  39  1   
 31  13  40  1   
 32  14  15  2   
 33  14  16  1   
 34  16  17  2   
 35  16  18  1   
 36  17  19  1   
 37  18  20  2   
 38  18  41  1   
 39  19  20  1   
 40  19  21  1   
 41  20  22  1   
 42  21  23  2   
 43  21  42  1   
 44  22  24  2   
 45  23  24  1   
 46  23  43  1   
 47  24  44  1   
@<TRIPOS>SUBSTRUCTURE
  1 ****  17 GROUP 4 **** **** 0

# MOE 2024.06 (io_trps.svl 2023.06)
