@<TRIPOS>MOLECULE
NONAME
46 48 1 0 0 
SMALL
USER_CHARGES


@<TRIPOS>ATOM
  1 O       -0.6320    -1.1600    -0.3650 O.3   1 <1>  -0.6800 
  2 C        0.6050    -1.5720    -0.8350 C.3   1 <1>   0.1200 
  3 C        1.5610    -1.8770     0.3600 C.3   1 <1>   0.0000 
  4 C        2.9410    -2.4310    -0.0850 C.3   1 <1>   0.4230 
  5 C        1.8530    -0.5600     1.1210 C.3   1 <1>  -0.1600 
  6 C        0.9510    -2.9080     1.3360 C.3   1 <1>  -0.1600 
  7 N        2.9560    -3.9150    -0.4510 N.4   1 <1>  -0.9590 
  8 C        3.6350    -1.4400    -1.0490 C.3   1 <1>   0.2090 
  9 C        2.6140     0.4770     0.2760 C.3   1 <1>   0.2090 
 10 C        0.7680    -4.3000     0.6990 C.3   1 <1>  -0.1600 
 11 C        1.6180    -4.5660    -0.5510 C.3   1 <1>   0.3430 
 12 C        3.8160    -4.2700    -1.6230 C.3   1 <1>   0.2630 
 13 N        3.8230    -0.1290    -0.3600 N.pl3 1 <1>  -0.8380 
 14 C        5.0200     0.0560     0.3140 C.ar  1 <1>   0.4100 
 15 N        5.4200    -0.9720     1.0590 N.ar  1 <1>  -0.6200 
 16 C        5.7310     1.2590     0.2010 C.ar  1 <1>  -0.1430 
 17 C        6.5460    -0.7920     1.7290 C.ar  1 <1>   0.1600 
 18 C        6.9010     1.4150     0.9100 C.ar  1 <1>  -0.1500 
 19 C        5.2460     2.3950    -0.6920 C.3   1 <1>  -0.0970 
 20 C        7.3120     0.3580     1.6930 C.ar  1 <1>  -0.1500 
 21 H       -1.2230    -0.8810    -1.0950 H     1 <1>   0.4000 
 22 H        0.4360    -2.4290    -1.4560 H     1 <1>   0.0800 
 23 H        0.9870    -0.7830    -1.4580 H     1 <1>   0.0800 
 24 H        3.5470    -2.3740     0.8030 H     1 <1>   0.0800 
 25 H        2.4470    -0.7640     1.9950 H     1 <1>   0.0800 
 26 H        0.9350    -0.1180     1.4660 H     1 <1>   0.0800 
 27 H        1.6060    -3.0090     2.1860 H     1 <1>   0.0800 
 28 H        0.0060    -2.5560     1.7180 H     1 <1>   0.0800 
 29 H        3.3960    -4.3500     0.3730 H     1 <1>   0.4500 
 30 H        3.0630    -1.2940    -1.9460 H     1 <1>   0.0800 
 31 H        4.6080    -1.8070    -1.3230 H     1 <1>   0.0800 
 32 H        2.9120     1.2940     0.9130 H     1 <1>   0.0800 
 33 H        1.9770     0.8840    -0.4890 H     1 <1>   0.0800 
 34 H       -0.2660    -4.4190     0.4210 H     1 <1>   0.0800 
 35 H        0.9740    -5.0550     1.4370 H     1 <1>   0.0800 
 36 H        1.1040    -4.1920    -1.4190 H     1 <1>   0.0800 
 37 H        1.7320    -5.6300    -0.6790 H     1 <1>   0.0800 
 38 H        3.4270    -3.8250    -2.5240 H     1 <1>   0.0800 
 39 H        3.8480    -5.3400    -1.7530 H     1 <1>   0.0800 
 40 H        4.8230    -3.9180    -1.4670 H     1 <1>   0.0800 
 41 H        6.8830    -1.6080     2.3450 H     1 <1>   0.1500 
 42 H        7.4800     2.3200     0.8600 H     1 <1>   0.1500 
 43 H        6.0250     3.1180    -0.8520 H     1 <1>   0.0800 
 44 H        4.4070     2.8890    -0.2360 H     1 <1>   0.0800 
 45 H        4.9430     2.0090    -1.6490 H     1 <1>   0.0800 
 46 H        8.2170     0.4260     2.2690 H     1 <1>   0.1500 
@<TRIPOS>BOND
  1   1   2  1   
  2   1  21  1   
  3   2   3  1   
  4   2  22  1   
  5   2  23  1   
  6   3   4  1   
  7   3   5  1   
  8   3   6  1   
  9   4   7  1   
 10   4   8  1   
 11   4  24  1   
 12   5   9  1   
 13   5  25  1   
 14   5  26  1   
 15   6  10  1   
 16   6  27  1   
 17   6  28  1   
 18   7  11  1   
 19   7  12  1   
 20   7  29  1   
 21   8  13  1   
 22   8  30  1   
 23   8  31  1   
 24   9  13  1   
 25   9  32  1   
 26   9  33  1   
 27  10  11  1   
 28  10  34  1   
 29  10  35  1   
 30  11  36  1   
 31  11  37  1   
 32  12  38  1   
 33  12  39  1   
 34  12  40  1   
 35  13  14  1   
 36  14  15  ar  
 37  14  16  ar  
 38  15  17  ar  
 39  16  18  ar  
 40  16  19  1   
 41  17  20  ar  
 42  17  41  1   
 43  18  20  ar  
 44  18  42  1   
 45  19  43  1   
 46  19  44  1   
 47  19  45  1   
 48  20  46  1   
@<TRIPOS>SUBSTRUCTURE
  1 ****   8 GROUP 4 **** **** 0

# MOE 2024.06 (io_trps.svl 2023.06)
