@<TRIPOS>MOLECULE
NONAME
47 50 1 0 0 
SMALL
USER_CHARGES


@<TRIPOS>ATOM
  1 S       -0.5000     0.9230    -1.2160 S.o2  1 <1>   1.4470 
  2 O       -0.9520     2.2590    -0.9020 O.2   1 <1>  -0.6500 
  3 O       -0.4790     0.4540    -2.5820 O.2   1 <1>  -0.6500 
  4 N        1.1100     0.8440    -0.6710 N.am  1 <1>  -0.8490 
  5 C       -1.3530    -0.3010    -0.1820 C.ar  1 <1>  -0.0090 
  6 C        1.3240     1.5520     0.6280 C.3   1 <1>   0.2760 
  7 C        2.0530     1.1930    -1.7550 C.3   1 <1>   0.1960 
  8 C       -1.3090    -1.6540    -0.5090 C.ar  1 <1>  -0.1500 
  9 C       -2.0550     0.0890     0.9660 C.ar  1 <1>  -0.1500 
 10 C        1.6670     3.0540     0.5080 C.3   1 <1>   0.1200 
 11 C        2.4140     0.8230     1.4590 C.3   1 <1>   0.3430 
 12 C        3.4830     1.5790    -1.3200 C.3   1 <1>  -0.0800 
 13 C       -1.9500    -2.5790     0.3010 C.ar  1 <1>   0.1170 
 14 C       -2.6920    -0.8340     1.7830 C.ar  1 <1>  -0.1500 
 15 O        3.0480     3.2330     0.3810 O.3   1 <1>  -0.5600 
 16 N        3.2510    -0.0920     0.6060 N.4   1 <1>  -0.9590 
 17 C        3.5630     3.0530    -0.8940 C.3   1 <1>   0.1200 
 18 C        4.1800     0.6450    -0.3080 C.3   1 <1>   0.3430 
 19 N       -2.0900    -3.9490     0.2380 N.am  1 <1>  -0.4770 
 20 C       -2.6220    -2.1660     1.4270 C.ar  1 <1>   0.0830 
 21 C        3.9700    -1.1130     1.4210 C.3   1 <1>   0.2630 
 22 C       -2.8500    -4.3050     1.3220 C.2   1 <1>   0.7800 
 23 C       -1.6810    -4.8380    -0.8720 C.3   1 <1>   0.0600 
 24 O       -3.1620    -3.2300     2.0500 O.3   1 <1>  -0.2320 
 25 O       -3.2170    -5.4260     1.6160 O.2   1 <1>  -0.5700 
 26 H        0.4140     1.4980     1.2010 H     1 <1>   0.0800 
 27 H        2.1120     0.3520    -2.4270 H     1 <1>   0.0800 
 28 H        1.6460     2.0130    -2.3290 H     1 <1>   0.0800 
 29 H       -0.7910    -1.9880    -1.3910 H     1 <1>   0.1500 
 30 H       -2.1140     1.1350     1.2200 H     1 <1>   0.1500 
 31 H        1.3800     3.5530     1.4170 H     1 <1>   0.0800 
 32 H        1.1520     3.5330    -0.3080 H     1 <1>   0.0800 
 33 H        1.9150     0.2420     2.2160 H     1 <1>   0.0800 
 34 H        3.0370     1.5440     1.9630 H     1 <1>   0.0800 
 35 H        4.0760     1.5340    -2.2150 H     1 <1>   0.0800 
 36 H       -3.2350    -0.5350     2.6630 H     1 <1>   0.1500 
 37 H        2.5530    -0.5410    -0.0130 H     1 <1>   0.4500 
 38 H        3.0370     3.6990    -1.5790 H     1 <1>   0.0800 
 39 H        4.5910     3.3730    -0.8630 H     1 <1>   0.0800 
 40 H        4.8790     1.2220     0.2770 H     1 <1>   0.0800 
 41 H        4.7500    -0.0800    -0.8670 H     1 <1>   0.0800 
 42 H        4.6830    -0.6360     2.0740 H     1 <1>   0.0800 
 43 H        4.4950    -1.8020     0.7800 H     1 <1>   0.0800 
 44 H        3.2710    -1.6720     2.0230 H     1 <1>   0.0800 
 45 H       -0.6140    -4.7940    -0.9990 H     1 <1>   0.0800 
 46 H       -2.1640    -4.5270    -1.7820 H     1 <1>   0.0800 
 47 H       -1.9670    -5.8530    -0.6540 H     1 <1>   0.0800 
@<TRIPOS>BOND
  1   1   2  2   
  2   1   3  2   
  3   1   4  am  
  4   1   5  1   
  5   4   6  1   
  6   4   7  1   
  7   5   8  ar  
  8   5   9  ar  
  9   6  10  1   
 10   6  11  1   
 11   6  26  1   
 12   7  12  1   
 13   7  27  1   
 14   7  28  1   
 15   8  13  ar  
 16   8  29  1   
 17   9  14  ar  
 18   9  30  1   
 19  10  15  1   
 20  10  31  1   
 21  10  32  1   
 22  11  16  1   
 23  11  33  1   
 24  11  34  1   
 25  12  17  1   
 26  12  18  1   
 27  12  35  1   
 28  13  19  1   
 29  13  20  ar  
 30  14  20  ar  
 31  14  36  1   
 32  15  17  1   
 33  16  18  1   
 34  16  21  1   
 35  16  37  1   
 36  17  38  1   
 37  17  39  1   
 38  18  40  1   
 39  18  41  1   
 40  19  22  am  
 41  19  23  1   
 42  20  24  1   
 43  21  42  1   
 44  21  43  1   
 45  21  44  1   
 46  22  24  1   
 47  22  25  2   
 48  23  45  1   
 49  23  46  1   
 50  23  47  1   
@<TRIPOS>SUBSTRUCTURE
  1 ****   5 GROUP 4 **** **** 0

# MOE 2024.06 (io_trps.svl 2023.06)
