@<TRIPOS>MOLECULE
NONAME
44 47 1 0 0 
SMALL
USER_CHARGES


@<TRIPOS>ATOM
  1 CL      -0.4100     3.0710    -2.0770 Cl    1 <1>  -0.1770 
  2 C       -1.4470     1.9850    -1.1710 C.ar  1 <1>   0.1770 
  3 C       -1.7440     2.2420     0.1630 C.ar  1 <1>  -0.0230 
  4 C       -1.9480     0.8730    -1.8220 C.ar  1 <1>  -0.1500 
  5 N       -1.2340     3.3920     0.8130 N.pl3 1 <1>   0.5930 
  6 C       -2.5520     1.3370     0.8440 C.ar  1 <1>  -0.1500 
  7 C       -2.7590    -0.0130    -1.1330 C.ar  1 <1>  -0.1500 
  8 N       -0.4140     3.3400     1.8890 N.2   1 <1>  -0.7070 
  9 C       -1.3890     4.6830     0.4270 C.2   1 <1>  -0.3020 
 10 C       -3.0570     0.2200     0.1990 C.ar  1 <1>  -0.1500 
 11 C       -0.0650     4.5600     2.1370 C.2   1 <1>   0.1390 
 12 C       -0.6350     5.4550     1.2380 C.2   1 <1>  -0.1810 
 13 C       -0.3980     6.9470     1.1880 C.3   1 <1>   0.5240 
 14 N        0.9340     7.1740     0.5690 N.4   1 <1>  -0.9590 
 15 C        1.4290     8.5880     0.7470 C.3   1 <1>   0.3430 
 16 C        1.0350     6.6030    -0.8210 C.3   1 <1>   0.3430 
 17 C        2.9220     8.8200     0.3750 C.3   1 <1>   0.2200 
 18 C        2.4740     6.4420    -1.3300 C.3   1 <1>  -0.0190 
 19 N        3.0950     8.8170    -1.0960 N.am  1 <1>  -0.7300 
 20 C        3.8910     7.8060     1.0330 C.3   1 <1>   0.1200 
 21 C        2.9250     7.7570    -1.9040 C.2   1 <1>   0.5690 
 22 C        3.5050     5.8700    -0.3310 C.3   1 <1>   0.1200 
 23 O        3.4450     6.4770     0.9340 O.3   1 <1>  -0.5600 
 24 O        3.0980     7.8620    -3.0870 O.2   1 <1>  -0.5700 
 25 H       -1.7030     0.7000    -2.8550 H     1 <1>   0.1500 
 26 H       -2.7820     1.5040     1.8840 H     1 <1>   0.1500 
 27 H       -3.1540    -0.8830    -1.6300 H     1 <1>   0.1500 
 28 H       -2.0120     4.9440    -0.4100 H     1 <1>   0.1500 
 29 H       -3.6830    -0.4730     0.7370 H     1 <1>   0.1500 
 30 H        0.5970     4.8220     2.9480 H     1 <1>   0.1500 
 31 H       -0.4250     7.3490     2.1880 H     1 <1>   0.0800 
 32 H       -1.1670     7.4210     0.6010 H     1 <1>   0.0800 
 33 H        1.6160     6.5960     1.1000 H     1 <1>   0.4500 
 34 H        0.8220     9.2630     0.1660 H     1 <1>   0.0800 
 35 H        1.3120     8.8600     1.7830 H     1 <1>   0.0800 
 36 H        0.5890     5.6220    -0.8300 H     1 <1>   0.0800 
 37 H        0.4790     7.2150    -1.5140 H     1 <1>   0.0800 
 38 H        3.1980     9.8030     0.7180 H     1 <1>   0.0800 
 39 H        2.4350     5.7580    -2.1600 H     1 <1>   0.0800 
 40 H        3.4570     9.6670    -1.5430 H     1 <1>   0.3700 
 41 H        3.9720     8.0250     2.0830 H     1 <1>   0.0800 
 42 H        4.8780     7.8800     0.6050 H     1 <1>   0.0800 
 43 H        4.5070     5.9660    -0.7160 H     1 <1>   0.0800 
 44 H        3.3090     4.8210    -0.1800 H     1 <1>   0.0800 
@<TRIPOS>BOND
  1   1   2  1   
  2   2   3  ar  
  3   2   4  ar  
  4   3   5  1   
  5   3   6  ar  
  6   4   7  ar  
  7   4  25  1   
  8   5   8  1   
  9   5   9  1   
 10   6  10  ar  
 11   6  26  1   
 12   7  10  ar  
 13   7  27  1   
 14   8  11  2   
 15   9  12  2   
 16   9  28  1   
 17  10  29  1   
 18  11  12  1   
 19  11  30  1   
 20  12  13  1   
 21  13  14  1   
 22  13  31  1   
 23  13  32  1   
 24  14  15  1   
 25  14  16  1   
 26  14  33  1   
 27  15  17  1   
 28  15  34  1   
 29  15  35  1   
 30  16  18  1   
 31  16  36  1   
 32  16  37  1   
 33  17  19  1   
 34  17  20  1   
 35  17  38  1   
 36  18  21  1   
 37  18  22  1   
 38  18  39  1   
 39  19  21  am  
 40  19  40  1   
 41  20  23  1   
 42  20  41  1   
 43  20  42  1   
 44  21  24  2   
 45  22  23  1   
 46  22  43  1   
 47  22  44  1   
@<TRIPOS>SUBSTRUCTURE
  1 ****  12 GROUP 4 **** **** 0

# MOE 2024.06 (io_trps.svl 2023.06)
