@<TRIPOS>MOLECULE
NONAME
51 53 1 0 0 
SMALL
USER_CHARGES


@<TRIPOS>ATOM
  1 O        0.8400    -0.3530    -1.2780 O.2   1 <1>  -0.5700 
  2 C        1.7310    -0.6750    -0.5100 C.2   1 <1>   0.7160 
  3 N        2.7060     0.2750    -0.2440 N.am  1 <1>  -0.6600 
  4 C        1.7590    -2.0260     0.0450 C.2   1 <1>   0.2030 
  5 C        3.5610     0.2120     1.0010 C.3   1 <1>   0.2200 
  6 C        2.9720     1.3450    -1.2550 C.3   1 <1>   0.1400 
  7 N        2.8130    -2.6640     0.5320 N.2   1 <1>  -0.7070 
  8 C        0.6330    -2.8570     0.1060 C.2   1 <1>  -0.1500 
  9 C        3.6850     1.5780     1.6960 C.3   1 <1>   0.1200 
 10 C        4.9520    -0.3990     0.7060 C.3   1 <1>   0.3430 
 11 C        4.3820     1.9650    -1.1940 C.3   1 <1>  -0.0800 
 12 N        2.3610    -3.8740     0.8980 N.pl3 1 <1>   0.3000 
 13 C        1.0460    -4.0180     0.6480 C.2   1 <1>  -0.3320 
 14 O        4.7430     2.3230     1.1750 O.3   1 <1>  -0.5600 
 15 N        5.2680    -0.4000    -0.7630 N.4   1 <1>  -0.9590 
 16 C        4.5190     2.9630    -0.0350 C.3   1 <1>   0.1200 
 17 C        5.5690     0.9780    -1.2630 C.3   1 <1>   0.3430 
 18 C        0.2470    -5.2760     0.9520 C.3   1 <1>   0.0200 
 19 C        6.4770    -1.2930    -0.9940 C.3   1 <1>   0.2370 
 20 C        0.3810    -6.3490    -0.1460 C.3   1 <1>  -0.0800 
 21 C        7.7610    -0.8220    -0.3040 C.2   1 <1>   0.9060 
 22 C       -0.5530    -7.5280     0.1560 C.3   1 <1>  -0.2400 
 23 C        1.8190    -6.8660    -0.3030 C.3   1 <1>  -0.2400 
 24 O        8.4620     0.0040    -0.8970 O.co2 1 <1>  -0.9000 
 25 O        7.9680    -1.1970     0.8530 O.co2 1 <1>  -0.9000 
 26 H        3.0710    -0.4240     1.7170 H     1 <1>   0.0800 
 27 H        2.8260     0.9280    -2.2380 H     1 <1>   0.0800 
 28 H        2.2330     2.1190    -1.1320 H     1 <1>   0.0800 
 29 H       -0.3530    -2.5830    -0.2320 H     1 <1>   0.1500 
 30 H        3.9160     1.4180     2.7350 H     1 <1>   0.0800 
 31 H        2.7710     2.1420     1.6360 H     1 <1>   0.0800 
 32 H        4.9540    -1.4150     1.0640 H     1 <1>   0.0800 
 33 H        5.7170     0.1300     1.2520 H     1 <1>   0.0800 
 34 H        4.4640     2.5740    -2.0760 H     1 <1>   0.0800 
 35 H        2.9660    -4.5980     1.3090 H     1 <1>   0.2700 
 36 H        4.4360    -0.7750    -1.2320 H     1 <1>   0.4500 
 37 H        3.6480     3.5900     0.0590 H     1 <1>   0.0800 
 38 H        5.3720     3.5990    -0.2060 H     1 <1>   0.0800 
 39 H        6.4010     1.3860    -0.7070 H     1 <1>   0.0800 
 40 H        5.8880     0.9010    -2.2890 H     1 <1>   0.0800 
 41 H        0.5480    -5.6790     1.9040 H     1 <1>   0.0800 
 42 H       -0.7900    -5.0000     1.0360 H     1 <1>   0.0800 
 43 H        6.2690    -2.2830    -0.6310 H     1 <1>   0.0800 
 44 H        6.6880    -1.3540    -2.0450 H     1 <1>   0.0800 
 45 H        0.0750    -5.9110    -1.0820 H     1 <1>   0.0800 
 46 H       -0.2810    -8.0030     1.0830 H     1 <1>   0.0800 
 47 H       -0.4990    -8.2590    -0.6320 H     1 <1>   0.0800 
 48 H       -1.5720    -7.1910     0.2280 H     1 <1>   0.0800 
 49 H        2.1950    -7.2420     0.6330 H     1 <1>   0.0800 
 50 H        2.4680    -6.0870    -0.6600 H     1 <1>   0.0800 
 51 H        1.8470    -7.6640    -1.0240 H     1 <1>   0.0800 
@<TRIPOS>BOND
  1   1   2  2   
  2   2   3  am  
  3   2   4  1   
  4   3   5  1   
  5   3   6  1   
  6   4   7  2   
  7   4   8  1   
  8   5   9  1   
  9   5  10  1   
 10   5  26  1   
 11   6  11  1   
 12   6  27  1   
 13   6  28  1   
 14   7  12  1   
 15   8  13  2   
 16   8  29  1   
 17   9  14  1   
 18   9  30  1   
 19   9  31  1   
 20  10  15  1   
 21  10  32  1   
 22  10  33  1   
 23  11  16  1   
 24  11  17  1   
 25  11  34  1   
 26  12  13  1   
 27  12  35  1   
 28  13  18  1   
 29  14  16  1   
 30  15  17  1   
 31  15  19  1   
 32  15  36  1   
 33  16  37  1   
 34  16  38  1   
 35  17  39  1   
 36  17  40  1   
 37  18  20  1   
 38  18  41  1   
 39  18  42  1   
 40  19  21  1   
 41  19  43  1   
 42  19  44  1   
 43  20  22  1   
 44  20  23  1   
 45  20  45  1   
 46  21  24  ar  
 47  21  25  ar  
 48  22  46  1   
 49  22  47  1   
 50  22  48  1   
 51  23  49  1   
 52  23  50  1   
 53  23  51  1   
@<TRIPOS>SUBSTRUCTURE
  1 ****   7 GROUP 4 **** **** 0

# MOE 2024.06 (io_trps.svl 2023.06)
