@<TRIPOS>MOLECULE
NONAME
39 40 1 0 0 
SMALL
USER_CHARGES


@<TRIPOS>ATOM
  1 O        0.1520    -0.0040     0.4960 O.2   1 <1>  -0.5700 
  2 C        1.2750    -0.3890     0.2240 C.2   1 <1>   0.5440 
  3 N        2.2560     0.5170    -0.1150 N.am  1 <1>  -0.4940 
  4 C        1.6110    -1.8070     0.2460 C.ar  1 <1>   0.3960 
  5 C        2.2220     1.9310    -0.2030 C.2   1 <1>  -0.0880 
  6 N        2.8660    -2.1880    -0.0580 N.ar  1 <1>  -0.6200 
  7 C        0.6290    -2.7460     0.5810 C.ar  1 <1>   0.1600 
  8 N        3.2640     2.7120    -0.5960 N.pl3 1 <1>   0.3140 
  9 C        1.2050     2.7820     0.0710 C.2   1 <1>  -0.1500 
 10 C        3.0360    -3.4970     0.0000 C.ar  1 <1>   0.1600 
 11 N        0.8050    -4.0570     0.6370 N.ar  1 <1>  -0.6200 
 12 N        2.9400     4.0240    -0.5790 N.2   1 <1>  -0.7070 
 13 C        4.6050     2.2670    -1.0240 C.3   1 <1>   0.0960 
 14 C        1.7090     4.0510    -0.1780 C.2   1 <1>   0.1080 
 15 C        2.0400    -4.4100     0.3360 C.ar  1 <1>   0.1670 
 16 C        5.4880     1.9320     0.1860 C.3   1 <1>  -0.1600 
 17 C        0.9410     5.3410    -0.0140 C.3   1 <1>  -0.0590 
 18 C        2.3310    -5.8970     0.3760 C.3   1 <1>  -0.0970 
 19 C        6.8790     1.4590    -0.2550 C.3   1 <1>  -0.1600 
 20 C        7.7570     1.1320     0.9560 C.3   1 <1>  -0.2400 
 21 H        3.1500     0.0590    -0.3140 H     1 <1>   0.3700 
 22 H       -0.3570    -2.3830     0.8150 H     1 <1>   0.1500 
 23 H        0.2140     2.5430     0.4110 H     1 <1>   0.1500 
 24 H        4.0180    -3.8720    -0.2320 H     1 <1>   0.1500 
 25 H        5.0510     3.0600    -1.5960 H     1 <1>   0.0800 
 26 H        4.4930     1.4100    -1.6610 H     1 <1>   0.0800 
 27 H        5.0190     1.1640     0.7760 H     1 <1>   0.0800 
 28 H        5.5880     2.8150     0.7960 H     1 <1>   0.0800 
 29 H       -0.0600     5.1410     0.3220 H     1 <1>   0.0800 
 30 H        0.9020     5.8560    -0.9550 H     1 <1>   0.0800 
 31 H        1.4380     5.9640     0.7060 H     1 <1>   0.0800 
 32 H        3.3540    -6.1030     0.1210 H     1 <1>   0.0800 
 33 H        1.6890    -6.4070    -0.3200 H     1 <1>   0.0800 
 34 H        2.1340    -6.2750     1.3630 H     1 <1>   0.0800 
 35 H        7.3560     2.2290    -0.8380 H     1 <1>   0.0800 
 36 H        6.7870     0.5800    -0.8720 H     1 <1>   0.0800 
 37 H        7.8820     2.0030     1.5750 H     1 <1>   0.0800 
 38 H        8.7280     0.8040     0.6290 H     1 <1>   0.0800 
 39 H        7.3120     0.3490     1.5450 H     1 <1>   0.0800 
@<TRIPOS>BOND
  1   1   2  2   
  2   2   3  am  
  3   2   4  1   
  4   3   5  1   
  5   3  21  1   
  6   4   6  ar  
  7   4   7  ar  
  8   5   8  1   
  9   5   9  2   
 10   6  10  ar  
 11   7  11  ar  
 12   7  22  1   
 13   8  12  1   
 14   8  13  1   
 15   9  14  1   
 16   9  23  1   
 17  10  15  ar  
 18  10  24  1   
 19  11  15  ar  
 20  12  14  2   
 21  13  16  1   
 22  13  25  1   
 23  13  26  1   
 24  14  17  1   
 25  15  18  1   
 26  16  19  1   
 27  16  27  1   
 28  16  28  1   
 29  17  29  1   
 30  17  30  1   
 31  17  31  1   
 32  18  32  1   
 33  18  33  1   
 34  18  34  1   
 35  19  20  1   
 36  19  35  1   
 37  19  36  1   
 38  20  37  1   
 39  20  38  1   
 40  20  39  1   
@<TRIPOS>SUBSTRUCTURE
  1 ****   3 GROUP 4 **** **** 0

# MOE 2024.06 (io_trps.svl 2023.06)
