@<TRIPOS>MOLECULE
NONAME
55 57 1 0 0 
SMALL
USER_CHARGES


@<TRIPOS>ATOM
  1 O       -2.2220     1.4340     0.0340 O.co2 1 <1>  -0.9000 
  2 C       -1.0720     1.6770    -0.3460 C.2   1 <1>   0.9060 
  3 O       -0.5800     1.1350    -1.3390 O.co2 1 <1>  -0.9000 
  4 C       -0.2720     2.7650     0.3540 C.3   1 <1>  -0.1060 
  5 C       -1.2140     3.6890     1.1650 C.3   1 <1>   0.2000 
  6 C        0.3870     3.5480    -0.7960 C.3   1 <1>   0.3430 
  7 C        0.7660     2.1150     1.3140 C.3   1 <1>  -0.0650 
  8 O       -2.2360     4.1200     0.3360 O.3   1 <1>  -0.6800 
  9 C       -0.4980     4.9460     1.6950 C.3   1 <1>  -0.1600 
 10 N        0.3020     5.0310    -0.6150 N.4   1 <1>  -0.9590 
 11 C        1.9630     1.4470     0.6220 C.3   1 <1>  -0.1950 
 12 C        0.6290     5.4250     0.7750 C.3   1 <1>   0.3430 
 13 C        1.0670     5.7680    -1.6620 C.3   1 <1>   0.3430 
 14 C        3.1910     1.1240     1.4100 C.3   1 <1>  -0.2000 
 15 C        3.2340     2.1930     0.3570 C.3   1 <1>  -0.2000 
 16 C        0.5000     7.1660    -1.9730 C.3   1 <1>   0.1200 
 17 O        0.1050     7.8480    -0.7980 O.3   1 <1>  -0.3630 
 18 C        0.8460     8.9090    -0.3870 C.ar  1 <1>   0.0830 
 19 C        2.1980     8.8110    -0.0380 C.ar  1 <1>   0.0830 
 20 C        0.1920    10.1250    -0.3040 C.ar  1 <1>  -0.1500 
 21 O        2.8100     7.5900    -0.0860 O.3   1 <1>  -0.3630 
 22 C        2.8710     9.9640     0.3640 C.ar  1 <1>  -0.1500 
 23 C        0.8720    11.2580     0.1010 C.ar  1 <1>  -0.1500 
 24 C        4.1690     7.4360     0.2710 C.3   1 <1>   0.0400 
 25 C        2.2150    11.1830     0.4320 C.ar  1 <1>  -0.1430 
 26 C        2.9610    12.4290     0.8740 C.3   1 <1>  -0.0970 
 27 H       -1.6760     3.1460     1.9740 H     1 <1>   0.0800 
 28 H       -0.1160     3.2920    -1.7160 H     1 <1>   0.0800 
 29 H        1.4110     3.2420    -0.9050 H     1 <1>   0.0800 
 30 H        1.1500     2.8380     2.0080 H     1 <1>   0.0800 
 31 H        0.2580     1.3640     1.8970 H     1 <1>   0.0800 
 32 H       -2.7220     3.2900     0.0660 H     1 <1>   0.4000 
 33 H       -1.2120     5.7380     1.8380 H     1 <1>   0.0800 
 34 H       -0.0740     4.7360     2.6590 H     1 <1>   0.0800 
 35 H       -0.7120     5.2400    -0.7030 H     1 <1>   0.4500 
 36 H        1.6590     0.7010    -0.0970 H     1 <1>   0.1000 
 37 H        1.5600     4.9670     1.0630 H     1 <1>   0.0800 
 38 H        0.7360     6.4930     0.8630 H     1 <1>   0.0800 
 39 H        2.0950     5.8580    -1.3570 H     1 <1>   0.0800 
 40 H        1.0580     5.1990    -2.5760 H     1 <1>   0.0800 
 41 H        3.2400     1.4090     2.4460 H     1 <1>   0.1000 
 42 H        3.6840     0.1850     1.2200 H     1 <1>   0.1000 
 43 H        3.7670     1.9900    -0.5560 H     1 <1>   0.1000 
 44 H        3.3390     3.2130     0.6810 H     1 <1>   0.1000 
 45 H       -0.3750     7.0680    -2.5900 H     1 <1>   0.0800 
 46 H        1.2240     7.7590    -2.5040 H     1 <1>   0.0800 
 47 H       -0.8510    10.1850    -0.5580 H     1 <1>   0.1500 
 48 H        3.9080     9.9380     0.6350 H     1 <1>   0.1500 
 49 H        0.3500    12.1980     0.1590 H     1 <1>   0.1500 
 50 H        4.4330     6.4000     0.1620 H     1 <1>   0.0800 
 51 H        4.2990     7.7390     1.2960 H     1 <1>   0.0800 
 52 H        4.7750     8.0370    -0.3850 H     1 <1>   0.0800 
 53 H        2.4980    13.3110     0.4710 H     1 <1>   0.0800 
 54 H        3.9810    12.3980     0.5330 H     1 <1>   0.0800 
 55 H        2.9560    12.4950     1.9470 H     1 <1>   0.0800 
@<TRIPOS>BOND
  1   1   2  ar  
  2   2   3  ar  
  3   2   4  1   
  4   4   5  1   
  5   4   6  1   
  6   4   7  1   
  7   5   8  1   
  8   5   9  1   
  9   5  27  1   
 10   6  10  1   
 11   6  28  1   
 12   6  29  1   
 13   7  11  1   
 14   7  30  1   
 15   7  31  1   
 16   8  32  1   
 17   9  12  1   
 18   9  33  1   
 19   9  34  1   
 20  10  12  1   
 21  10  13  1   
 22  10  35  1   
 23  11  14  1   
 24  11  15  1   
 25  11  36  1   
 26  12  37  1   
 27  12  38  1   
 28  13  16  1   
 29  13  39  1   
 30  13  40  1   
 31  14  15  1   
 32  14  41  1   
 33  14  42  1   
 34  15  43  1   
 35  15  44  1   
 36  16  17  1   
 37  16  45  1   
 38  16  46  1   
 39  17  18  1   
 40  18  19  ar  
 41  18  20  ar  
 42  19  21  1   
 43  19  22  ar  
 44  20  23  ar  
 45  20  47  1   
 46  21  24  1   
 47  22  25  ar  
 48  22  48  1   
 49  23  25  ar  
 50  23  49  1   
 51  24  50  1   
 52  24  51  1   
 53  24  52  1   
 54  25  26  1   
 55  26  53  1   
 56  26  54  1   
 57  26  55  1   
@<TRIPOS>SUBSTRUCTURE
  1 ****  12 GROUP 4 **** **** 0

# MOE 2024.06 (io_trps.svl 2023.06)
