@<TRIPOS>MOLECULE
NONAME
45 48 1 0 0 
SMALL
USER_CHARGES


@<TRIPOS>ATOM
  1 S       -0.3860    -0.2710     1.2710 S.3   1 <1>  -0.0800 
  2 C       -0.8860     1.0790     0.2330 C.ar  1 <1>   0.0400 
  3 C       -1.4180    -1.3930     0.3890 C.2   1 <1>  -0.1100 
  4 C       -0.5110     2.4150     0.2650 C.ar  1 <1>   0.4100 
  5 C       -1.7920     0.6420    -0.6990 C.ar  1 <1>   0.2560 
  6 C       -2.0790    -0.7640    -0.6010 C.2   1 <1>  -0.1810 
  7 N       -1.0510     3.2560    -0.5990 N.ar  1 <1>  -0.6200 
  8 N        0.4150     2.9240     1.1590 N.pl3 1 <1>  -0.8380 
  9 N       -2.3240     1.4850    -1.5800 N.ar  1 <1>  -0.5660 
 10 C       -3.0550    -1.4230    -1.5610 C.3   1 <1>  -0.0590 
 11 C       -1.9160     2.7340    -1.4630 C.ar  1 <1>   0.4700 
 12 C        1.7800     2.3450     1.2270 C.3   1 <1>   0.2090 
 13 C        0.2560     4.2920     1.7210 C.3   1 <1>   0.2090 
 14 C        2.7780     3.3010     0.5720 C.3   1 <1>  -0.1600 
 15 C        1.2570     5.2430     1.0650 C.3   1 <1>  -0.1600 
 16 C        2.6960     4.7110     1.1800 C.3   1 <1>   0.1000 
 17 C        3.7200     5.6420     0.5330 C.2   1 <1>   0.2980 
 18 O        4.9890     5.3450     0.6760 O.3   1 <1>  -0.0190 
 19 N        3.4830     6.7000    -0.1350 N.2   1 <1>  -0.5650 
 20 N        5.6090     6.2910     0.0420 N.2   1 <1>  -0.4100 
 21 C        4.7210     7.0760    -0.4280 C.2   1 <1>   0.3350 
 22 C        4.9810     8.3430    -1.2460 C.3   1 <1>   0.1010 
 23 C        6.2800     8.2570    -2.0640 C.3   1 <1>  -0.2400 
 24 C        5.0150     9.5770    -0.3340 C.3   1 <1>  -0.2400 
 25 H       -1.4160    -2.4180     0.7160 H     1 <1>   0.1500 
 26 H       -3.1490    -2.4720    -1.3450 H     1 <1>   0.0800 
 27 H       -2.7080    -1.3050    -2.5720 H     1 <1>   0.0800 
 28 H       -4.0210    -0.9610    -1.4720 H     1 <1>   0.0800 
 29 H       -2.3410     3.4320    -2.1640 H     1 <1>   0.1500 
 30 H        1.8110     1.4000     0.7130 H     1 <1>   0.0800 
 31 H        2.0410     2.1790     2.2580 H     1 <1>   0.0800 
 32 H        0.4220     4.2540     2.7830 H     1 <1>   0.0800 
 33 H       -0.7480     4.6460     1.5550 H     1 <1>   0.0800 
 34 H        2.5680     3.3510    -0.4820 H     1 <1>   0.0800 
 35 H        3.7700     2.9050     0.6920 H     1 <1>   0.0800 
 36 H        1.1860     6.2090     1.5320 H     1 <1>   0.0800 
 37 H        0.9910     5.3590     0.0290 H     1 <1>   0.0800 
 38 H        2.9450     4.6450     2.2240 H     1 <1>   0.0800 
 39 H        4.1630     8.4530    -1.9360 H     1 <1>   0.0800 
 40 H        7.1310     8.1690    -1.4120 H     1 <1>   0.0800 
 41 H        6.3990     9.1350    -2.6730 H     1 <1>   0.0800 
 42 H        6.2510     7.3950    -2.7060 H     1 <1>   0.0800 
 43 H        5.8180     9.4910     0.3780 H     1 <1>   0.0800 
 44 H        4.0880     9.6570     0.2050 H     1 <1>   0.0800 
 45 H        5.1550    10.4710    -0.9140 H     1 <1>   0.0800 
@<TRIPOS>BOND
  1   1   2  1   
  2   1   3  1   
  3   2   4  ar  
  4   2   5  ar  
  5   3   6  2   
  6   3  25  1   
  7   4   7  ar  
  8   4   8  1   
  9   5   6  1   
 10   5   9  ar  
 11   6  10  1   
 12   7  11  ar  
 13   8  12  1   
 14   8  13  1   
 15   9  11  ar  
 16  10  26  1   
 17  10  27  1   
 18  10  28  1   
 19  11  29  1   
 20  12  14  1   
 21  12  30  1   
 22  12  31  1   
 23  13  15  1   
 24  13  32  1   
 25  13  33  1   
 26  14  16  1   
 27  14  34  1   
 28  14  35  1   
 29  15  16  1   
 30  15  36  1   
 31  15  37  1   
 32  16  17  1   
 33  16  38  1   
 34  17  18  1   
 35  17  19  2   
 36  18  20  1   
 37  19  21  1   
 38  20  21  2   
 39  21  22  1   
 40  22  23  1   
 41  22  24  1   
 42  22  39  1   
 43  23  40  1   
 44  23  41  1   
 45  23  42  1   
 46  24  43  1   
 47  24  44  1   
 48  24  45  1   
@<TRIPOS>SUBSTRUCTURE
  1 ****  14 GROUP 4 **** **** 0

# MOE 2024.06 (io_trps.svl 2023.06)
