@<TRIPOS>MOLECULE
NONAME
61 63 1 0 0 
SMALL
USER_CHARGES


@<TRIPOS>ATOM
  1 O       -0.6590     1.2180     0.2040 O.3   1 <1>  -0.3630 
  2 C       -0.2540     2.5190     0.2460 C.ar  1 <1>   0.0820 
  3 C        0.2430     0.2200    -0.2460 C.3   1 <1>   0.1200 
  4 C       -1.0150     3.4220     0.9850 C.ar  1 <1>  -0.1440 
  5 C        0.8890     2.9710    -0.4110 C.ar  1 <1>  -0.1500 
  6 C       -0.3280    -1.1700     0.0750 C.3   1 <1>   0.3430 
  7 C       -0.6100     4.7450     1.0900 C.ar  1 <1>  -0.1500 
  8 C       -2.2880     2.9820     1.6790 C.3   1 <1>   0.4860 
  9 C        1.2770     4.2940    -0.3100 C.ar  1 <1>  -0.1500 
 10 N        0.6260    -2.2810    -0.2680 N.4   1 <1>  -0.9590 
 11 C        0.5320     5.1800     0.4440 C.ar  1 <1>  -0.1500 
 12 N       -3.3730     2.8720     0.6700 N.4   1 <1>  -0.9590 
 13 C        0.8600    -2.4110    -1.7450 C.3   1 <1>   0.2630 
 14 C        0.1320    -3.5840     0.2810 C.3   1 <1>   0.2630 
 15 C       -4.6040     2.2560     1.2530 C.3   1 <1>   0.3430 
 16 C       -3.6790     4.1850     0.0290 C.3   1 <1>   0.3430 
 17 C       -5.6520     1.9710     0.1680 C.3   1 <1>   0.0000 
 18 C       -4.6930     3.9870    -1.0980 C.3   1 <1>  -0.1600 
 19 C       -6.8950     1.3520     0.8250 C.3   1 <1>   0.2000 
 20 C       -5.9670     3.2820    -0.6050 C.3   1 <1>  -0.1600 
 21 C       -5.2450     0.8520    -0.8090 C.3   1 <1>  -0.1600 
 22 O       -7.6370     2.3290     1.4830 O.3   1 <1>  -0.5600 
 23 C       -7.6520     0.6780    -0.3190 C.3   1 <1>  -0.1600 
 24 C       -6.5660     0.2620    -1.3240 C.3   1 <1>  -0.1600 
 25 C       -8.7260     1.8600     2.2170 C.3   1 <1>   0.0400 
 26 H        0.3720     0.3460    -1.3060 H     1 <1>   0.0800 
 27 H        1.1770     0.3610     0.2700 H     1 <1>   0.0800 
 28 H        1.5000     2.3240    -1.0110 H     1 <1>   0.1500 
 29 H       -1.2490    -1.3070    -0.4660 H     1 <1>   0.0800 
 30 H       -0.5430    -1.2070     1.1310 H     1 <1>   0.0800 
 31 H       -1.1740     5.4550     1.6730 H     1 <1>   0.1500 
 32 H       -2.5580     3.6950     2.4410 H     1 <1>   0.0800 
 33 H       -2.1200     2.0270     2.1480 H     1 <1>   0.0800 
 34 H        2.1640     4.6400    -0.8160 H     1 <1>   0.1500 
 35 H        1.5340    -2.0860     0.1850 H     1 <1>   0.4500 
 36 H        0.8450     6.2080     0.5260 H     1 <1>   0.1500 
 37 H       -3.0140     2.2580    -0.0710 H     1 <1>   0.4500 
 38 H       -0.0680    -2.6150    -2.2560 H     1 <1>   0.0800 
 39 H        1.5440    -3.2200    -1.9440 H     1 <1>   0.0800 
 40 H        1.2830    -1.5040    -2.1440 H     1 <1>   0.0800 
 41 H       -0.8170    -3.8440    -0.1600 H     1 <1>   0.0800 
 42 H        0.0090    -3.5200     1.3510 H     1 <1>   0.0800 
 43 H        0.8360    -4.3720     0.0670 H     1 <1>   0.0800 
 44 H       -4.3560     1.3360     1.7550 H     1 <1>   0.0800 
 45 H       -5.0380     2.9270     1.9780 H     1 <1>   0.0800 
 46 H       -4.0870     4.8630     0.7620 H     1 <1>   0.0800 
 47 H       -2.7810     4.6230    -0.3760 H     1 <1>   0.0800 
 48 H       -4.9590     4.9510    -1.4980 H     1 <1>   0.0800 
 49 H       -4.2360     3.4330    -1.8990 H     1 <1>   0.0800 
 50 H       -6.5970     0.6070     1.5450 H     1 <1>   0.0800 
 51 H       -6.6180     3.0890    -1.4410 H     1 <1>   0.0800 
 52 H       -6.4890     3.9660     0.0430 H     1 <1>   0.0800 
 53 H       -4.6290     1.1930    -1.6220 H     1 <1>   0.0800 
 54 H       -4.7150     0.0810    -0.2770 H     1 <1>   0.0800 
 55 H       -8.2050    -0.1760     0.0300 H     1 <1>   0.0800 
 56 H       -8.3240     1.3800    -0.7820 H     1 <1>   0.0800 
 57 H       -6.5020    -0.8100    -1.4050 H     1 <1>   0.0800 
 58 H       -6.8040     0.6630    -2.2960 H     1 <1>   0.0800 
 59 H       -9.1720     2.6970     2.7250 H     1 <1>   0.0800 
 60 H       -8.3900     1.1360     2.9390 H     1 <1>   0.0800 
 61 H       -9.4490     1.4220     1.5510 H     1 <1>   0.0800 
@<TRIPOS>BOND
  1   1   2  1   
  2   1   3  1   
  3   2   4  ar  
  4   2   5  ar  
  5   3   6  1   
  6   3  26  1   
  7   3  27  1   
  8   4   7  ar  
  9   4   8  1   
 10   5   9  ar  
 11   5  28  1   
 12   6  10  1   
 13   6  29  1   
 14   6  30  1   
 15   7  11  ar  
 16   7  31  1   
 17   8  12  1   
 18   8  32  1   
 19   8  33  1   
 20   9  11  ar  
 21   9  34  1   
 22  10  13  1   
 23  10  14  1   
 24  10  35  1   
 25  11  36  1   
 26  12  15  1   
 27  12  16  1   
 28  12  37  1   
 29  13  38  1   
 30  13  39  1   
 31  13  40  1   
 32  14  41  1   
 33  14  42  1   
 34  14  43  1   
 35  15  17  1   
 36  15  44  1   
 37  15  45  1   
 38  16  18  1   
 39  16  46  1   
 40  16  47  1   
 41  17  19  1   
 42  17  20  1   
 43  17  21  1   
 44  18  20  1   
 45  18  48  1   
 46  18  49  1   
 47  19  22  1   
 48  19  23  1   
 49  19  50  1   
 50  20  51  1   
 51  20  52  1   
 52  21  24  1   
 53  21  53  1   
 54  21  54  1   
 55  22  25  1   
 56  23  24  1   
 57  23  55  1   
 58  23  56  1   
 59  24  57  1   
 60  24  58  1   
 61  25  59  1   
 62  25  60  1   
 63  25  61  1   
@<TRIPOS>SUBSTRUCTURE
  1 ****  12 GROUP 4 **** **** 0

# MOE 2024.06 (io_trps.svl 2023.06)
