@<TRIPOS>MOLECULE
NONAME
44 47 1 0 0 
SMALL
USER_CHARGES


@<TRIPOS>ATOM
  1 S        3.1300     0.6480    -0.6510 S.3   1 <1>  -0.1570 
  2 C        3.5100     2.2700    -0.0410 C.2   1 <1>   0.2420 
  3 C        4.4290    -0.0510     0.3510 C.2   1 <1>  -0.0490 
  4 N        3.0050     3.4300    -0.2750 N.2   1 <1>  -0.5650 
  5 N        4.5320     2.2110     0.8310 N.pl3 1 <1>   0.3340 
  6 C        5.0470     0.9160     1.0520 C.2   1 <1>  -0.1810 
  7 C        3.7700     4.2530     0.5230 C.2   1 <1>   0.1410 
  8 C        4.6940     3.4930     1.1950 C.2   1 <1>  -0.3020 
  9 C        3.6000     5.6990     0.6420 C.2   1 <1>   0.7160 
 10 O        4.0380     6.2570     1.6370 O.2   1 <1>  -0.5700 
 11 N        2.9930     6.4830    -0.3240 N.am  1 <1>  -0.6600 
 12 C        3.0010     6.0940    -1.7750 C.3   1 <1>   0.1400 
 13 C        2.4130     7.8130     0.0170 C.3   1 <1>   0.1400 
 14 C        3.5400     7.1930    -2.7110 C.3   1 <1>   0.1400 
 15 C        3.4710     8.9270    -0.0100 C.3   1 <1>  -0.1600 
 16 N        4.5960     8.0150    -2.0450 N.am  1 <1>  -0.6600 
 17 C        4.0550     9.2380    -1.3950 C.3   1 <1>   0.1400 
 18 C        5.7900     7.4040    -1.6670 C.2   1 <1>   0.6300 
 19 O        6.0770     6.3600    -2.2420 O.2   1 <1>  -0.5700 
 20 C        6.6630     7.8830    -0.6070 C.2   1 <1>   0.3890 
 21 N        6.9440     9.1240    -0.3600 N.2   1 <1>  -0.5120 
 22 C        7.3010     6.7700     0.2450 C.3   1 <1>  -0.0990 
 23 N        7.7420     9.4420     0.7190 N.am  1 <1>  -0.3680 
 24 C        7.5670     7.2020     1.6980 C.3   1 <1>  -0.0990 
 25 C        8.1290     8.6050     1.7300 C.2   1 <1>   0.5690 
 26 O        8.8680     8.9590     2.6120 O.2   1 <1>  -0.5700 
 27 H        4.5690    -1.1170     0.2880 H     1 <1>   0.1500 
 28 H        5.8650     0.8110     1.7410 H     1 <1>   0.1500 
 29 H        5.4340     3.8130     1.9040 H     1 <1>   0.1500 
 30 H        2.0080     5.8100    -2.0770 H     1 <1>   0.0800 
 31 H        3.6330     5.2350    -1.9140 H     1 <1>   0.0800 
 32 H        1.9940     7.7590     1.0080 H     1 <1>   0.0800 
 33 H        1.6110     8.0430    -0.6630 H     1 <1>   0.0800 
 34 H        2.7260     7.8220    -3.0250 H     1 <1>   0.0800 
 35 H        3.9470     6.7350    -3.5970 H     1 <1>   0.0800 
 36 H        4.2630     8.6870     0.6760 H     1 <1>   0.0800 
 37 H        3.0150     9.8270     0.3600 H     1 <1>   0.0800 
 38 H        4.8250     9.9850    -1.3120 H     1 <1>   0.0800 
 39 H        3.2860     9.6610    -2.0180 H     1 <1>   0.0800 
 40 H        8.2310     6.4960    -0.2200 H     1 <1>   0.0800 
 41 H        6.6680     5.9000     0.2540 H     1 <1>   0.0800 
 42 H        8.0690    10.4070     0.8250 H     1 <1>   0.3700 
 43 H        8.2490     6.5240     2.1770 H     1 <1>   0.0800 
 44 H        6.6430     7.2050     2.2480 H     1 <1>   0.0800 
@<TRIPOS>BOND
  1   1   2  1   
  2   1   3  1   
  3   2   4  2   
  4   2   5  1   
  5   3   6  2   
  6   3  27  1   
  7   4   7  1   
  8   5   6  1   
  9   5   8  1   
 10   6  28  1   
 11   7   8  2   
 12   7   9  1   
 13   8  29  1   
 14   9  10  2   
 15   9  11  am  
 16  11  12  1   
 17  11  13  1   
 18  12  14  1   
 19  12  30  1   
 20  12  31  1   
 21  13  15  1   
 22  13  32  1   
 23  13  33  1   
 24  14  16  1   
 25  14  34  1   
 26  14  35  1   
 27  15  17  1   
 28  15  36  1   
 29  15  37  1   
 30  16  17  1   
 31  16  18  am  
 32  17  38  1   
 33  17  39  1   
 34  18  19  2   
 35  18  20  1   
 36  20  21  2   
 37  20  22  1   
 38  21  23  1   
 39  22  24  1   
 40  22  40  1   
 41  22  41  1   
 42  23  25  am  
 43  23  42  1   
 44  24  25  1   
 45  24  43  1   
 46  24  44  1   
 47  25  26  2   
@<TRIPOS>SUBSTRUCTURE
  1 ****   9 GROUP 4 **** **** 0

# MOE 2024.06 (io_trps.svl 2023.06)
