@<TRIPOS>MOLECULE
NONAME
49 51 1 0 0 
SMALL
USER_CHARGES


@<TRIPOS>ATOM
  1 O       -0.4610     1.1660    -1.1160 O.2   1 <1>  -0.5700 
  2 C       -0.2970     2.3050    -0.7620 C.2   1 <1>   0.5690 
  3 N       -1.2210     2.9280     0.0030 N.am  1 <1>  -0.7300 
  4 C        0.9530     3.0740    -1.2080 C.3   1 <1>   0.1810 
  5 C       -1.0560     4.3090     0.5130 C.3   1 <1>   0.3640 
  6 O        1.1890     4.2500    -0.4600 O.3   1 <1>  -0.5600 
  7 C       -2.3850     5.0490     0.4060 C.ar  1 <1>  -0.1440 
  8 C        0.0450     5.0660    -0.2680 C.3   1 <1>   0.2610 
  9 C       -3.1460     5.0020    -0.7560 C.ar  1 <1>  -0.1500 
 10 C       -2.8370     5.8080     1.4770 C.ar  1 <1>  -0.1500 
 11 C        0.4130     6.3800     0.4370 C.2   1 <1>   0.5690 
 12 C       -4.3340     5.7040    -0.8560 C.ar  1 <1>   0.0820 
 13 C       -4.0340     6.4990     1.3940 C.ar  1 <1>  -0.1500 
 14 O        0.3710     6.4310     1.6490 O.2   1 <1>  -0.5700 
 15 N        0.7830     7.4850    -0.2900 N.am  1 <1>  -0.6600 
 16 O       -4.9910     5.6370    -2.0410 O.3   1 <1>  -0.3620 
 17 C       -4.7960     6.4410     0.2410 C.ar  1 <1>   0.0820 
 18 C        0.9410     8.8080     0.3790 C.3   1 <1>   0.3200 
 19 C        1.2820     7.4440    -1.6940 C.3   1 <1>   0.0600 
 20 C       -5.2060     6.8520    -2.7270 C.3   1 <1>   0.0400 
 21 O       -5.9750     7.1070     0.2380 O.3   1 <1>  -0.3630 
 22 C        2.3360     8.9360     0.9630 C.2   1 <1>   0.0060 
 23 C       -7.1360     6.3060     0.2170 C.3   1 <1>   0.0400 
 24 N        3.2020     9.8450     0.6410 N.2   1 <1>  -0.5650 
 25 N        2.7820     8.0690     1.8960 N.pl3 1 <1>   0.0330 
 26 C        4.2700     9.5530     1.4100 C.2   1 <1>   0.0770 
 27 C        4.0320     8.4710     2.1830 C.2   1 <1>  -0.3020 
 28 H       -2.0530     2.4130     0.2960 H     1 <1>   0.3700 
 29 H        0.8510     3.3460    -2.2420 H     1 <1>   0.0800 
 30 H        1.8150     2.4410    -1.1010 H     1 <1>   0.0800 
 31 H       -0.7680     4.2420     1.5480 H     1 <1>   0.0800 
 32 H       -0.3430     5.3100    -1.2400 H     1 <1>   0.0800 
 33 H       -2.8230     4.4230    -1.6030 H     1 <1>   0.1500 
 34 H       -2.2580     5.8710     2.3840 H     1 <1>   0.1500 
 35 H       -4.3840     7.0830     2.2260 H     1 <1>   0.1500 
 36 H        0.7750     9.6000    -0.3310 H     1 <1>   0.0800 
 37 H        0.2150     8.9110     1.1660 H     1 <1>   0.0800 
 38 H        2.1720     8.0460    -1.7810 H     1 <1>   0.0800 
 39 H        0.5310     7.8340    -2.3600 H     1 <1>   0.0800 
 40 H        1.5330     6.4400    -1.9870 H     1 <1>   0.0800 
 41 H       -5.5390     6.6210    -3.7230 H     1 <1>   0.0800 
 42 H       -4.2820     7.4010    -2.7640 H     1 <1>   0.0800 
 43 H       -5.9590     7.4230    -2.2170 H     1 <1>   0.0800 
 44 H       -7.9930     6.9530     0.2770 H     1 <1>   0.0800 
 45 H       -7.1140     5.6420     1.0640 H     1 <1>   0.0800 
 46 H       -7.1650     5.7420    -0.6980 H     1 <1>   0.0800 
 47 H        2.2420     7.2720     2.2600 H     1 <1>   0.2700 
 48 H        5.1690    10.1460     1.3640 H     1 <1>   0.1500 
 49 H        4.6650     7.9780     2.8980 H     1 <1>   0.1500 
@<TRIPOS>BOND
  1   1   2  2   
  2   2   3  am  
  3   2   4  1   
  4   3   5  1   
  5   3  28  1   
  6   4   6  1   
  7   4  29  1   
  8   4  30  1   
  9   5   7  1   
 10   5   8  1   
 11   5  31  1   
 12   6   8  1   
 13   7   9  ar  
 14   7  10  ar  
 15   8  11  1   
 16   8  32  1   
 17   9  12  ar  
 18   9  33  1   
 19  10  13  ar  
 20  10  34  1   
 21  11  14  2   
 22  11  15  am  
 23  12  16  1   
 24  12  17  ar  
 25  13  17  ar  
 26  13  35  1   
 27  15  18  1   
 28  15  19  1   
 29  16  20  1   
 30  17  21  1   
 31  18  22  1   
 32  18  36  1   
 33  18  37  1   
 34  19  38  1   
 35  19  39  1   
 36  19  40  1   
 37  20  41  1   
 38  20  42  1   
 39  20  43  1   
 40  21  23  1   
 41  22  24  2   
 42  22  25  1   
 43  23  44  1   
 44  23  45  1   
 45  23  46  1   
 46  24  26  1   
 47  25  27  1   
 48  25  47  1   
 49  26  27  2   
 50  26  48  1   
 51  27  49  1   
@<TRIPOS>SUBSTRUCTURE
  1 ****  11 GROUP 4 **** **** 0

# MOE 2024.06 (io_trps.svl 2023.06)
