@<TRIPOS>MOLECULE
NONAME
50 53 1 0 0 
SMALL
USER_CHARGES


@<TRIPOS>ATOM
  1 F       -0.2090    -1.8610     1.5010 F     1 <1>  -0.1900 
  2 C       -1.4730    -2.0250     1.2160 C.ar  1 <1>   0.1900 
  3 C       -2.1540    -3.0830     1.7860 C.ar  1 <1>  -0.1500 
  4 C       -2.0830    -1.1330     0.3560 C.ar  1 <1>  -0.1500 
  5 C       -3.4940    -3.2500     1.4790 C.ar  1 <1>  -0.1500 
  6 C       -3.4240    -1.3100     0.0570 C.ar  1 <1>  -0.1500 
  7 C       -4.1330    -2.3670     0.6160 C.ar  1 <1>  -0.1430 
  8 C       -5.6070    -2.5670     0.2900 C.3   1 <1>   0.2840 
  9 N       -5.8060    -3.8400    -0.4640 N.am  1 <1>  -0.6600 
 10 C       -6.4120    -4.9200     0.1380 C.2   1 <1>   0.5690 
 11 C       -5.2140    -3.8500    -1.8340 C.3   1 <1>   0.0600 
 12 O       -6.7190    -4.8830     1.3110 O.2   1 <1>  -0.5700 
 13 C       -6.7410    -6.1930    -0.6620 C.3   1 <1>   0.2610 
 14 O       -5.5890    -6.9940    -0.8350 O.3   1 <1>  -0.5600 
 15 C       -7.8880    -7.0000    -0.0050 C.3   1 <1>   0.3640 
 16 C       -5.7810    -8.0960    -1.6890 C.3   1 <1>   0.1810 
 17 N       -7.9590    -8.4170    -0.4860 N.am  1 <1>  -0.5090 
 18 C       -9.2150    -6.2870    -0.2680 C.ar  1 <1>  -0.1430 
 19 C       -7.0120    -8.9320    -1.3330 C.2   1 <1>   0.5690 
 20 C       -9.0970    -9.2230     0.0210 C.3   1 <1>   0.0490 
 21 C       -9.7920    -5.5140     0.7310 C.ar  1 <1>   0.1600 
 22 C       -9.8640    -6.3810    -1.4870 C.ar  1 <1>  -0.1500 
 23 O       -7.1120   -10.0220    -1.8480 O.2   1 <1>  -0.5700 
 24 C       -9.2690    -9.3780     1.5010 C.3   1 <1>  -0.2000 
 25 C       -8.8320   -10.5430     0.6730 C.3   1 <1>  -0.2000 
 26 N      -10.9300    -4.8490     0.6140 N.ar  1 <1>  -0.6200 
 27 C      -11.0510    -5.6950    -1.6240 C.ar  1 <1>  -0.1500 
 28 C      -11.5330    -4.9560    -0.5580 C.ar  1 <1>   0.1600 
 29 H       -1.6460    -3.7570     2.4520 H     1 <1>   0.1500 
 30 H       -1.5180    -0.3220    -0.0670 H     1 <1>   0.1500 
 31 H       -4.0450    -4.0700     1.9100 H     1 <1>   0.1500 
 32 H       -3.9100    -0.6210    -0.6120 H     1 <1>   0.1500 
 33 H       -5.9720    -1.7480    -0.3040 H     1 <1>   0.0800 
 34 H       -6.1720    -2.5730     1.2070 H     1 <1>   0.0800 
 35 H       -4.2060    -3.4730    -1.7990 H     1 <1>   0.0800 
 36 H       -5.7970    -3.2240    -2.4870 H     1 <1>   0.0800 
 37 H       -5.1740    -4.8430    -2.2410 H     1 <1>   0.0800 
 38 H       -7.0660    -5.8850    -1.6390 H     1 <1>   0.0800 
 39 H       -7.7150    -7.0400     1.0560 H     1 <1>   0.0800 
 40 H       -5.8730    -7.7350    -2.6970 H     1 <1>   0.0800 
 41 H       -4.9050    -8.7140    -1.6240 H     1 <1>   0.0800 
 42 H       -9.9780    -9.1310    -0.5930 H     1 <1>   0.1000 
 43 H       -9.2890    -5.4310     1.6820 H     1 <1>   0.1500 
 44 H       -9.4710    -6.9700    -2.2980 H     1 <1>   0.1500 
 45 H       -8.5510    -8.9520     2.1790 H     1 <1>   0.1000 
 46 H      -10.2660    -9.3890     1.9060 H     1 <1>   0.1000 
 47 H       -9.5280   -11.3460     0.5030 H     1 <1>   0.1000 
 48 H       -7.8150   -10.8870     0.7400 H     1 <1>   0.1000 
 49 H      -11.6030    -5.7330    -2.5450 H     1 <1>   0.1500 
 50 H      -12.4630    -4.4250    -0.6750 H     1 <1>   0.1500 
@<TRIPOS>BOND
  1   1   2  1   
  2   2   3  ar  
  3   2   4  ar  
  4   3   5  ar  
  5   3  29  1   
  6   4   6  ar  
  7   4  30  1   
  8   5   7  ar  
  9   5  31  1   
 10   6   7  ar  
 11   6  32  1   
 12   7   8  1   
 13   8   9  1   
 14   8  33  1   
 15   8  34  1   
 16   9  10  am  
 17   9  11  1   
 18  10  12  2   
 19  10  13  1   
 20  11  35  1   
 21  11  36  1   
 22  11  37  1   
 23  13  14  1   
 24  13  15  1   
 25  13  38  1   
 26  14  16  1   
 27  15  17  1   
 28  15  18  1   
 29  15  39  1   
 30  16  19  1   
 31  16  40  1   
 32  16  41  1   
 33  17  19  am  
 34  17  20  1   
 35  18  21  ar  
 36  18  22  ar  
 37  19  23  2   
 38  20  24  1   
 39  20  25  1   
 40  20  42  1   
 41  21  26  ar  
 42  21  43  1   
 43  22  27  ar  
 44  22  44  1   
 45  24  25  1   
 46  24  45  1   
 47  24  46  1   
 48  25  47  1   
 49  25  48  1   
 50  26  28  ar  
 51  27  28  ar  
 52  27  49  1   
 53  28  50  1   
@<TRIPOS>SUBSTRUCTURE
  1 ****  10 GROUP 4 **** **** 0

# MOE 2024.06 (io_trps.svl 2023.06)
