@<TRIPOS>MOLECULE
NONAME
46 48 1 0 0 
SMALL
USER_CHARGES


@<TRIPOS>ATOM
  1 O        1.7750    -1.0760     2.8860 O.2   1 <1>  -0.5700 
  2 C        1.0530    -1.7970     2.2320 C.2   1 <1>   0.5440 
  3 N       -0.2210    -1.9160     2.6790 N.am  1 <1>  -0.8000 
  4 C        1.5200    -2.4450     1.0290 C.ar  1 <1>   0.0860 
  5 C        1.1570    -3.7610     0.6870 C.ar  1 <1>   0.4100 
  6 C        2.3550    -1.7650     0.1550 C.ar  1 <1>  -0.1500 
  7 N        1.5240    -4.3540    -0.4450 N.ar  1 <1>  -0.6200 
  8 N        0.3850    -4.5330     1.5290 N.pl3 1 <1>  -0.8690 
  9 C        2.7570    -2.3840    -1.0090 C.ar  1 <1>  -0.1430 
 10 C        2.3030    -3.6750    -1.2610 C.ar  1 <1>   0.1670 
 11 C        0.1400    -5.9880     1.3590 C.3   1 <1>   0.2890 
 12 C        3.6750    -1.6380    -1.9680 C.3   1 <1>  -0.0970 
 13 C        2.6990    -4.4050    -2.5320 C.3   1 <1>  -0.0970 
 14 C       -1.2040    -6.1800     0.6820 C.3   1 <1>  -0.0800 
 15 C       -0.0850    -6.6540     2.7170 C.3   1 <1>   0.1200 
 16 C       -2.1610    -6.1150     1.8730 C.3   1 <1>   0.1200 
 17 C       -1.2790    -7.5260    -0.0610 C.3   1 <1>  -0.0170 
 18 O       -1.4580    -6.5920     2.9830 O.3   1 <1>  -0.5600 
 19 C       -2.6170    -7.6950    -0.7630 C.ar  1 <1>  -0.1430 
 20 C       -2.9260    -6.9890    -1.9080 C.ar  1 <1>  -0.1500 
 21 C       -3.5890    -8.5560    -0.2960 C.ar  1 <1>  -0.1500 
 22 C       -4.1600    -7.1690    -2.5110 C.ar  1 <1>   0.1600 
 23 C       -4.7910    -8.6640    -0.9760 C.ar  1 <1>   0.1600 
 24 N       -5.1010    -7.9900    -2.0720 N.ar  1 <1>  -0.6200 
 25 H       -0.5160    -1.3590     3.4820 H     1 <1>   0.3700 
 26 H       -0.9540    -2.3730     2.1320 H     1 <1>   0.3700 
 27 H        2.6740    -0.7660     0.3980 H     1 <1>   0.1500 
 28 H        0.2150    -4.1830     2.4780 H     1 <1>   0.4000 
 29 H        0.9550    -6.4470     0.8250 H     1 <1>   0.0800 
 30 H        3.9960    -0.7030    -1.5440 H     1 <1>   0.0800 
 31 H        3.1600    -1.4320    -2.8890 H     1 <1>   0.0800 
 32 H        4.5500    -2.2260    -2.1790 H     1 <1>   0.0800 
 33 H        2.5170    -3.7870    -3.3910 H     1 <1>   0.0800 
 34 H        2.1260    -5.3080    -2.6400 H     1 <1>   0.0800 
 35 H        3.7400    -4.6650    -2.4910 H     1 <1>   0.0800 
 36 H       -1.3990    -5.3850    -0.0160 H     1 <1>   0.0800 
 37 H        0.4590    -6.1700     3.5080 H     1 <1>   0.0800 
 38 H        0.1870    -7.6930     2.6730 H     1 <1>   0.0800 
 39 H       -3.0520    -6.7030     1.7380 H     1 <1>   0.0800 
 40 H       -2.4340    -5.0950     2.0780 H     1 <1>   0.0800 
 41 H       -1.1240    -8.3410     0.6250 H     1 <1>   0.0800 
 42 H       -0.4960    -7.5680    -0.7990 H     1 <1>   0.0800 
 43 H       -2.2200    -6.3000    -2.3340 H     1 <1>   0.1500 
 44 H       -3.4260    -9.1430     0.5890 H     1 <1>   0.1500 
 45 H       -4.3830    -6.6090    -3.4030 H     1 <1>   0.1500 
 46 H       -5.5380    -9.3400    -0.5980 H     1 <1>   0.1500 
@<TRIPOS>BOND
  1   1   2  2   
  2   2   3  am  
  3   2   4  1   
  4   3  25  1   
  5   3  26  1   
  6   4   5  ar  
  7   4   6  ar  
  8   5   7  ar  
  9   5   8  1   
 10   6   9  ar  
 11   6  27  1   
 12   7  10  ar  
 13   8  11  1   
 14   8  28  1   
 15   9  10  ar  
 16   9  12  1   
 17  10  13  1   
 18  11  14  1   
 19  11  15  1   
 20  11  29  1   
 21  12  30  1   
 22  12  31  1   
 23  12  32  1   
 24  13  33  1   
 25  13  34  1   
 26  13  35  1   
 27  14  16  1   
 28  14  17  1   
 29  14  36  1   
 30  15  18  1   
 31  15  37  1   
 32  15  38  1   
 33  16  18  1   
 34  16  39  1   
 35  16  40  1   
 36  17  19  1   
 37  17  41  1   
 38  17  42  1   
 39  19  20  ar  
 40  19  21  ar  
 41  20  22  ar  
 42  20  43  1   
 43  21  23  ar  
 44  21  44  1   
 45  22  24  ar  
 46  22  45  1   
 47  23  24  ar  
 48  23  46  1   
@<TRIPOS>SUBSTRUCTURE
  1 ****  14 GROUP 4 **** **** 0

# MOE 2024.06 (io_trps.svl 2023.06)
