@<TRIPOS>MOLECULE
NONAME
40 41 1 0 0 
SMALL
USER_CHARGES


@<TRIPOS>ATOM
  1 O       -0.2160     0.5660    -1.4390 O.2   1 <1>  -0.5700 
  2 C       -0.9040     1.4230    -0.9440 C.2   1 <1>   0.5690 
  3 N       -2.2240     1.3350    -0.6780 N.am  1 <1>  -0.6600 
  4 C       -0.3700     2.7710    -0.5550 C.3   1 <1>  -0.0990 
  5 C       -2.7680     2.5840    -0.1160 C.3   1 <1>   0.1400 
  6 C       -3.0730     0.1690    -0.9990 C.3   1 <1>   0.2780 
  7 C       -1.5100     3.3690     0.2940 C.3   1 <1>  -0.0190 
  8 C       -3.7400    -0.3410     0.2650 C.2   1 <1>  -0.2880 
  9 C       -1.6560     4.8800     0.1730 C.2   1 <1>   0.5690 
 10 C       -3.4710    -1.5100     0.8570 C.2   1 <1>  -0.3000 
 11 O       -2.7500     5.3500    -0.0310 O.2   1 <1>  -0.5700 
 12 N       -0.5370     5.6450     0.3220 N.am  1 <1>  -0.4930 
 13 C       -0.4110     7.0560     0.2630 C.2   1 <1>   0.0630 
 14 C       -1.3870     8.0280     0.0370 C.2   1 <1>   0.1390 
 15 C        0.7310     7.7550     0.4230 C.2   1 <1>  -0.3020 
 16 N       -0.8960     9.2320     0.0540 N.2   1 <1>  -0.7070 
 17 N        0.4210     9.0660     0.2940 N.pl3 1 <1>   0.3140 
 18 C        1.3810    10.2040     0.4010 C.3   1 <1>   0.1760 
 19 C        1.0060    11.1200     1.5740 C.3   1 <1>  -0.2400 
 20 C        1.4340    10.9950    -0.9140 C.3   1 <1>  -0.2400 
 21 H       -0.2020     3.3390    -1.4520 H     1 <1>   0.0800 
 22 H        0.5440     2.6700     0.0010 H     1 <1>   0.0800 
 23 H       -3.3990     2.3950     0.7350 H     1 <1>   0.0800 
 24 H       -3.3280     3.0970    -0.8810 H     1 <1>   0.0800 
 25 H       -2.4640    -0.6090    -1.4280 H     1 <1>   0.0800 
 26 H       -3.8170     0.4520    -1.7240 H     1 <1>   0.0800 
 27 H       -1.3210     3.1420     1.3280 H     1 <1>   0.0800 
 28 H       -4.4730     0.3440     0.6520 H     1 <1>   0.1500 
 29 H       -3.9550    -1.8560     1.7540 H     1 <1>   0.1500 
 30 H       -2.7410    -2.2150     0.4970 H     1 <1>   0.1500 
 31 H        0.3370     5.1550     0.5040 H     1 <1>   0.3700 
 32 H       -2.4280     7.8140    -0.1330 H     1 <1>   0.1500 
 33 H        1.7270     7.4080     0.6170 H     1 <1>   0.1500 
 34 H        2.3550     9.7900     0.5890 H     1 <1>   0.0800 
 35 H        0.0360    11.5560     1.4120 H     1 <1>   0.0800 
 36 H        1.7260    11.9120     1.6730 H     1 <1>   0.0800 
 37 H        0.9880    10.5580     2.4910 H     1 <1>   0.0800 
 38 H        0.4710    11.4280    -1.1270 H     1 <1>   0.0800 
 39 H        1.7120    10.3470    -1.7250 H     1 <1>   0.0800 
 40 H        2.1580    11.7860    -0.8440 H     1 <1>   0.0800 
@<TRIPOS>BOND
  1   1   2  2   
  2   2   3  am  
  3   2   4  1   
  4   3   5  1   
  5   3   6  1   
  6   4   7  1   
  7   4  21  1   
  8   4  22  1   
  9   5   7  1   
 10   5  23  1   
 11   5  24  1   
 12   6   8  1   
 13   6  25  1   
 14   6  26  1   
 15   7   9  1   
 16   7  27  1   
 17   8  10  2   
 18   8  28  1   
 19   9  11  2   
 20   9  12  am  
 21  10  29  1   
 22  10  30  1   
 23  12  13  1   
 24  12  31  1   
 25  13  14  1   
 26  13  15  2   
 27  14  16  2   
 28  14  32  1   
 29  15  17  1   
 30  15  33  1   
 31  16  17  1   
 32  17  18  1   
 33  18  19  1   
 34  18  20  1   
 35  18  34  1   
 36  19  35  1   
 37  19  36  1   
 38  19  37  1   
 39  20  38  1   
 40  20  39  1   
 41  20  40  1   
@<TRIPOS>SUBSTRUCTURE
  1 ****   9 GROUP 4 **** **** 0

# MOE 2024.06 (io_trps.svl 2023.06)
