@<TRIPOS>MOLECULE
NONAME
54 57 1 0 0 
SMALL
USER_CHARGES


@<TRIPOS>ATOM
  1 O       -0.5260    -1.5490    -2.3050 O.2   1 <1>  -0.5700 
  2 C        0.2150    -2.1030    -1.5290 C.2   1 <1>   0.5690 
  3 N       -0.2190    -2.7450    -0.4010 N.am  1 <1>  -0.6600 
  4 C        1.7070    -2.0870    -1.7960 C.3   1 <1>  -0.0990 
  5 C        0.7530    -3.3980     0.5110 C.3   1 <1>   0.1400 
  6 C       -1.6520    -2.7980    -0.0080 C.3   1 <1>   0.0600 
  7 C        2.3190    -3.4820    -1.5660 C.3   1 <1>  -0.0800 
  8 C        1.7830    -4.2000    -0.3070 C.3   1 <1>  -0.0800 
  9 C        3.8450    -3.4580    -1.4260 C.3   1 <1>  -0.1600 
 10 C        3.0210    -4.5910     0.5130 C.3   1 <1>  -0.1600 
 11 C        4.1650    -4.6270    -0.4950 C.3   1 <1>   0.2200 
 12 N        5.4900    -4.5560     0.1800 N.am  1 <1>  -0.6600 
 13 C        6.5310    -3.8500    -0.3810 C.2   1 <1>   0.5440 
 14 C        5.8380    -5.7890     0.9390 C.3   1 <1>   0.0600 
 15 O        7.3300    -4.4690    -1.0610 O.2   1 <1>  -0.5700 
 16 C        6.6860    -2.4210    -0.1650 C.ar  1 <1>   0.0860 
 17 C        6.0530    -1.7590     0.8900 C.ar  1 <1>  -0.1500 
 18 C        7.4800    -1.6410    -1.0070 C.ar  1 <1>  -0.1500 
 19 C        6.1920    -0.3970     1.0810 C.ar  1 <1>  -0.1500 
 20 C        7.6210    -0.2800    -0.8170 C.ar  1 <1>  -0.1500 
 21 C        6.9760     0.3740     0.2270 C.ar  1 <1>   0.1170 
 22 N        7.1000     1.7620     0.4100 N.am  1 <1>  -0.4770 
 23 C        8.1870     2.5550     0.1610 C.2   1 <1>   0.5690 
 24 C        5.9600     2.5770     0.8800 C.3   1 <1>   0.1400 
 25 O        9.2750     2.1980    -0.2200 O.2   1 <1>  -0.5700 
 26 C        7.8820     4.0050     0.4230 C.3   1 <1>  -0.0990 
 27 C        6.3580     4.0280     0.5880 C.3   1 <1>  -0.1600 
 28 H        1.8890    -1.7670    -2.8060 H     1 <1>   0.0800 
 29 H        2.1450    -1.3670    -1.1310 H     1 <1>   0.0800 
 30 H        1.2470    -2.6310     1.0830 H     1 <1>   0.0800 
 31 H        0.2410    -4.0550     1.1930 H     1 <1>   0.0800 
 32 H       -1.7840    -2.3410     0.9570 H     1 <1>   0.0800 
 33 H       -1.9810    -3.8220     0.0320 H     1 <1>   0.0800 
 34 H       -2.2600    -2.2710    -0.7240 H     1 <1>   0.0800 
 35 H        2.0650    -4.0960    -2.4160 H     1 <1>   0.0800 
 36 H        1.3000    -5.1060    -0.6320 H     1 <1>   0.0800 
 37 H        4.1370    -2.5320    -0.9670 H     1 <1>   0.0800 
 38 H        4.3350    -3.5620    -2.3790 H     1 <1>   0.0800 
 39 H        2.8850    -5.5420     0.9960 H     1 <1>   0.0800 
 40 H        3.2300    -3.8360     1.2510 H     1 <1>   0.0800 
 41 H        4.1070    -5.5410    -1.0640 H     1 <1>   0.0800 
 42 H        5.2070    -5.8810     1.8050 H     1 <1>   0.0800 
 43 H        6.8640    -5.7450     1.2630 H     1 <1>   0.0800 
 44 H        5.7160    -6.6540     0.3100 H     1 <1>   0.0800 
 45 H        5.4450    -2.3270     1.5710 H     1 <1>   0.1500 
 46 H        7.9940    -2.1180    -1.8230 H     1 <1>   0.1500 
 47 H        5.6930     0.0670     1.9110 H     1 <1>   0.1500 
 48 H        8.2430     0.2840    -1.4900 H     1 <1>   0.1500 
 49 H        5.0580     2.3040     0.3590 H     1 <1>   0.0800 
 50 H        5.8320     2.4290     1.9390 H     1 <1>   0.0800 
 51 H        8.3770     4.3050     1.3290 H     1 <1>   0.0800 
 52 H        8.2090     4.6190    -0.3960 H     1 <1>   0.0800 
 53 H        5.9000     4.3350    -0.3360 H     1 <1>   0.0800 
 54 H        6.0420     4.6950     1.3700 H     1 <1>   0.0800 
@<TRIPOS>BOND
  1   1   2  2   
  2   2   3  am  
  3   2   4  1   
  4   3   5  1   
  5   3   6  1   
  6   4   7  1   
  7   4  28  1   
  8   4  29  1   
  9   5   8  1   
 10   5  30  1   
 11   5  31  1   
 12   6  32  1   
 13   6  33  1   
 14   6  34  1   
 15   7   8  1   
 16   7   9  1   
 17   7  35  1   
 18   8  10  1   
 19   8  36  1   
 20   9  11  1   
 21   9  37  1   
 22   9  38  1   
 23  10  11  1   
 24  10  39  1   
 25  10  40  1   
 26  11  12  1   
 27  11  41  1   
 28  12  13  am  
 29  12  14  1   
 30  13  15  2   
 31  13  16  1   
 32  14  42  1   
 33  14  43  1   
 34  14  44  1   
 35  16  17  ar  
 36  16  18  ar  
 37  17  19  ar  
 38  17  45  1   
 39  18  20  ar  
 40  18  46  1   
 41  19  21  ar  
 42  19  47  1   
 43  20  21  ar  
 44  20  48  1   
 45  21  22  1   
 46  22  23  am  
 47  22  24  1   
 48  23  25  2   
 49  23  26  1   
 50  24  27  1   
 51  24  49  1   
 52  24  50  1   
 53  26  27  1   
 54  26  51  1   
 55  26  52  1   
 56  27  53  1   
 57  27  54  1   
@<TRIPOS>SUBSTRUCTURE
  1 ****  17 GROUP 4 **** **** 0

# MOE 2024.06 (io_trps.svl 2023.06)
