@<TRIPOS>MOLECULE
NONAME
53 56 1 0 0 
SMALL
USER_CHARGES


@<TRIPOS>ATOM
  1 O        4.4150    -1.2880    -0.4690 O.2   1 <1>  -0.5700 
  2 C        3.2010    -1.2530    -0.3460 C.2   1 <1>   0.5440 
  3 N        2.5900    -0.1430    -0.8790 N.am  1 <1>  -0.6600 
  4 C        2.4970    -2.2500     0.4400 C.ar  1 <1>   0.0860 
  5 C        3.0010     0.3840    -2.2190 C.3   1 <1>   0.1400 
  6 C        1.8300     0.7850    -0.0110 C.3   1 <1>   0.1400 
  7 C        1.1980    -2.6810     0.1410 C.ar  1 <1>   0.0830 
  8 C        3.1250    -2.8230     1.5510 C.ar  1 <1>  -0.1500 
  9 C        4.0470     1.5150    -2.1130 C.3   1 <1>   0.3430 
 10 C        2.8060     1.5390     0.9070 C.3   1 <1>  -0.1600 
 11 O        0.5630    -2.2020    -0.9600 O.3   1 <1>  -0.3630 
 12 C        0.5540    -3.6150     0.9590 C.ar  1 <1>   0.0830 
 13 C        2.4930    -3.7580     2.3480 C.ar  1 <1>  -0.1500 
 14 N        4.6780     1.5200    -0.7550 N.4   1 <1>  -0.9590 
 15 C        3.8980     2.3590     0.2020 C.3   1 <1>   0.3430 
 16 C       -0.5860    -2.8890    -1.4180 C.3   1 <1>   0.1200 
 17 O       -0.7160    -4.0220     0.7080 O.3   1 <1>  -0.3630 
 18 C        1.2010    -4.1530     2.0540 C.ar  1 <1>  -0.1500 
 19 C        6.1450     1.7830    -0.8020 C.3   1 <1>   0.3430 
 20 C       -1.4690    -3.2790    -0.2290 C.3   1 <1>   0.1200 
 21 C        6.8570     1.1770     0.4110 C.3   1 <1>   0.0960 
 22 N        8.3060     1.3370     0.2250 N.pl3 1 <1>   0.0480 
 23 C        9.1050     2.3590     0.5510 C.2   1 <1>   0.0060 
 24 C        9.1370     0.4980    -0.3950 C.2   1 <1>   0.0360 
 25 N       10.3100     2.1560     0.1490 N.2   1 <1>  -0.3380 
 26 C        8.6750     3.6080     1.2980 C.3   1 <1>  -0.0600 
 27 N       10.3310     0.9680    -0.4550 N.2   1 <1>  -0.3380 
 28 H        2.1350     0.7300    -2.7570 H     1 <1>   0.0800 
 29 H        3.4250    -0.4240    -2.7920 H     1 <1>   0.0800 
 30 H        1.1290     0.2230     0.5840 H     1 <1>   0.0800 
 31 H        1.2650     1.4750    -0.6160 H     1 <1>   0.0800 
 32 H        4.1330    -2.5310     1.7930 H     1 <1>   0.1500 
 33 H        3.5760     2.4640    -2.3080 H     1 <1>   0.0800 
 34 H        4.7930     1.3570    -2.8750 H     1 <1>   0.0800 
 35 H        3.2680     0.8400     1.5820 H     1 <1>   0.0800 
 36 H        2.2310     2.2120     1.5180 H     1 <1>   0.0800 
 37 H        3.0010    -4.1830     3.1980 H     1 <1>   0.1500 
 38 H        4.5440     0.5240    -0.4600 H     1 <1>   0.4500 
 39 H        4.5560     2.7630     0.9530 H     1 <1>   0.0800 
 40 H        3.4490     3.1870    -0.3220 H     1 <1>   0.0800 
 41 H       -0.2640    -3.7670    -1.9500 H     1 <1>   0.0800 
 42 H       -1.1160    -2.2410    -2.0930 H     1 <1>   0.0800 
 43 H        0.6940    -4.8760     2.6670 H     1 <1>   0.1500 
 44 H        6.3300     2.8440    -0.8480 H     1 <1>   0.0800 
 45 H        6.5550     1.3270    -1.6890 H     1 <1>   0.0800 
 46 H       -2.2950    -3.8890    -0.5480 H     1 <1>   0.0800 
 47 H       -1.8470    -2.4020     0.2640 H     1 <1>   0.0800 
 48 H        6.6370     0.1260     0.4860 H     1 <1>   0.0800 
 49 H        6.5620     1.6690     1.3190 H     1 <1>   0.0800 
 50 H        8.8380    -0.4540    -0.7970 H     1 <1>   0.1500 
 51 H        7.9360     4.1490     0.7370 H     1 <1>   0.0800 
 52 H        9.5270     4.2500     1.4430 H     1 <1>   0.0800 
 53 H        8.2830     3.3480     2.2640 H     1 <1>   0.0800 
@<TRIPOS>BOND
  1   1   2  2   
  2   2   3  am  
  3   2   4  1   
  4   3   5  1   
  5   3   6  1   
  6   4   7  ar  
  7   4   8  ar  
  8   5   9  1   
  9   5  28  1   
 10   5  29  1   
 11   6  10  1   
 12   6  30  1   
 13   6  31  1   
 14   7  11  1   
 15   7  12  ar  
 16   8  13  ar  
 17   8  32  1   
 18   9  14  1   
 19   9  33  1   
 20   9  34  1   
 21  10  15  1   
 22  10  35  1   
 23  10  36  1   
 24  11  16  1   
 25  12  17  1   
 26  12  18  ar  
 27  13  18  ar  
 28  13  37  1   
 29  14  15  1   
 30  14  19  1   
 31  14  38  1   
 32  15  39  1   
 33  15  40  1   
 34  16  20  1   
 35  16  41  1   
 36  16  42  1   
 37  17  20  1   
 38  18  43  1   
 39  19  21  1   
 40  19  44  1   
 41  19  45  1   
 42  20  46  1   
 43  20  47  1   
 44  21  22  1   
 45  21  48  1   
 46  21  49  1   
 47  22  23  1   
 48  22  24  1   
 49  23  25  2   
 50  23  26  1   
 51  24  27  2   
 52  24  50  1   
 53  25  27  1   
 54  26  51  1   
 55  26  52  1   
 56  26  53  1   
@<TRIPOS>SUBSTRUCTURE
  1 ****   1 GROUP 4 **** **** 0

# MOE 2024.06 (io_trps.svl 2023.06)
