@<TRIPOS>MOLECULE
NONAME
45 47 1 0 0 
SMALL
USER_CHARGES


@<TRIPOS>ATOM
  1 S       -0.4020     0.0500    -1.1520 S.3   1 <1>  -0.3320 
  2 C        1.1740     0.6070    -0.4780 C.ar  1 <1>   0.1020 
  3 C       -0.5780    -1.7260    -0.6720 C.3   1 <1>   0.0700 
  4 C        1.9700    -0.2070     0.3120 C.ar  1 <1>  -0.1500 
  5 C        1.5660     1.8970    -0.7830 C.ar  1 <1>  -0.1500 
  6 C       -1.8850    -2.2490    -1.2620 C.3   1 <1>   0.1400 
  7 C        3.1720     0.2830     0.7940 C.ar  1 <1>  -0.1500 
  8 C        2.7690     2.3800    -0.2970 C.ar  1 <1>  -0.1500 
  9 N       -1.9920    -3.7090    -1.0350 N.am  1 <1>  -0.7300 
 10 C        3.5770     1.5740     0.4920 C.ar  1 <1>  -0.1430 
 11 C       -2.4270    -4.3220     0.1060 C.2   1 <1>   0.7160 
 12 C        4.8960     2.1060     1.0240 C.3   1 <1>  -0.0970 
 13 O       -2.7150    -3.6290     1.0660 O.2   1 <1>  -0.5700 
 14 C       -2.5180    -5.7740     0.1410 C.2   1 <1>   0.2030 
 15 N       -2.1880    -6.5840    -0.8520 N.2   1 <1>  -0.7070 
 16 C       -2.9650    -6.5200     1.2270 C.2   1 <1>  -0.1500 
 17 N       -2.4250    -7.8190    -0.4000 N.pl3 1 <1>   0.3140 
 18 C       -2.8970    -7.8280     0.8690 C.2   1 <1>  -0.2370 
 19 C       -2.1520    -8.9810    -1.2570 C.3   1 <1>   0.0960 
 20 C       -3.2650    -8.9790     1.6420 C.2   1 <1>   0.7150 
 21 C       -1.2190    -9.9430    -0.5260 C.3   1 <1>   0.2000 
 22 O       -3.9110    -8.8410     2.6560 O.2   1 <1>  -0.5700 
 23 N       -2.9520   -10.2650     1.3360 N.am  1 <1>  -0.7300 
 24 O       -0.5530   -10.7150    -1.4700 O.3   1 <1>  -0.6800 
 25 C       -1.9470   -10.8950     0.4350 C.3   1 <1>   0.1400 
 26 H       -0.5930    -1.7720     0.4030 H     1 <1>   0.0800 
 27 H        0.2710    -2.2490    -1.0730 H     1 <1>   0.0800 
 28 H        1.6750    -1.2070     0.5610 H     1 <1>   0.1500 
 29 H        0.9350     2.5160    -1.3940 H     1 <1>   0.1500 
 30 H       -1.9170    -2.0510    -2.3190 H     1 <1>   0.0800 
 31 H       -2.7160    -1.7500    -0.7910 H     1 <1>   0.0800 
 32 H        3.7920    -0.3460     1.4090 H     1 <1>   0.1500 
 33 H        3.0720     3.3840    -0.5340 H     1 <1>   0.1500 
 34 H       -1.7520    -4.3370    -1.8080 H     1 <1>   0.3700 
 35 H        5.6000     1.3050     1.1560 H     1 <1>   0.0800 
 36 H        4.7370     2.5880     1.9720 H     1 <1>   0.0800 
 37 H        5.3180     2.8190     0.3380 H     1 <1>   0.0800 
 38 H       -3.3020    -6.1110     2.1650 H     1 <1>   0.1500 
 39 H       -1.6780    -8.6230    -2.1530 H     1 <1>   0.0800 
 40 H       -3.0840    -9.4540    -1.5060 H     1 <1>   0.0800 
 41 H       -0.4610    -9.3900     0.0040 H     1 <1>   0.0800 
 42 H       -3.3560   -10.9100     2.0190 H     1 <1>   0.3700 
 43 H       -1.1720   -11.2180    -2.0350 H     1 <1>   0.4000 
 44 H       -1.2100   -11.3910     1.0440 H     1 <1>   0.0800 
 45 H       -2.4590   -11.6450    -0.1420 H     1 <1>   0.0800 
@<TRIPOS>BOND
  1   1   2  1   
  2   1   3  1   
  3   2   4  ar  
  4   2   5  ar  
  5   3   6  1   
  6   3  26  1   
  7   3  27  1   
  8   4   7  ar  
  9   4  28  1   
 10   5   8  ar  
 11   5  29  1   
 12   6   9  1   
 13   6  30  1   
 14   6  31  1   
 15   7  10  ar  
 16   7  32  1   
 17   8  10  ar  
 18   8  33  1   
 19   9  11  am  
 20   9  34  1   
 21  10  12  1   
 22  11  13  2   
 23  11  14  1   
 24  12  35  1   
 25  12  36  1   
 26  12  37  1   
 27  14  15  2   
 28  14  16  1   
 29  15  17  1   
 30  16  18  2   
 31  16  38  1   
 32  17  18  1   
 33  17  19  1   
 34  18  20  1   
 35  19  21  1   
 36  19  39  1   
 37  19  40  1   
 38  20  22  2   
 39  20  23  am  
 40  21  24  1   
 41  21  25  1   
 42  21  41  1   
 43  23  25  1   
 44  23  42  1   
 45  24  43  1   
 46  25  44  1   
 47  25  45  1   
@<TRIPOS>SUBSTRUCTURE
  1 ****  11 GROUP 4 **** **** 0

# MOE 2024.06 (io_trps.svl 2023.06)
