@<TRIPOS>MOLECULE
NONAME
54 55 1 0 0 
SMALL
USER_CHARGES


@<TRIPOS>ATOM
  1 S       -0.1830     0.3490     0.3680 S.o2  1 <1>   1.3330 
  2 O        1.0740    -0.0120     0.9840 O.2   1 <1>  -0.6500 
  3 O       -1.2820     0.8030     1.1900 O.2   1 <1>  -0.6500 
  4 N       -0.7130    -0.9760    -0.5510 N.am  1 <1>  -0.8490 
  5 C        0.1170     1.6010    -0.8770 C.3   1 <1>  -0.0550 
  6 C       -1.6380    -1.8350     0.1950 C.3   1 <1>   0.1160 
  7 C        0.3840    -1.7820    -1.0990 C.3   1 <1>   0.1160 
  8 C        0.5080     2.9650    -0.2840 C.3   1 <1>  -0.0800 
  9 C        0.6740     4.0360    -1.3580 C.3   1 <1>   0.2000 
 10 C        1.8460     2.9740     0.4550 C.3   1 <1>   0.1400 
 11 O       -0.5580     4.5890    -1.6630 O.3   1 <1>  -0.6800 
 12 C        1.6340     5.0710    -0.7710 C.3   1 <1>   0.1400 
 13 N        2.3350     4.3690     0.3370 N.am  1 <1>  -0.6600 
 14 C        3.2970     4.8800     1.1850 C.2   1 <1>   0.5690 
 15 O        3.7880     4.1490     2.0190 O.2   1 <1>  -0.5700 
 16 C        3.7490     6.3770     1.1600 C.3   1 <1>   0.3410 
 17 O        3.8430     6.8200    -0.1990 O.3   1 <1>  -0.3630 
 18 C        5.1350     6.5610     1.8160 C.3   1 <1>  -0.2400 
 19 C        2.7170     7.2340     1.9160 C.3   1 <1>  -0.2400 
 20 C        4.1640     8.0920    -0.5320 C.ar  1 <1>   0.0820 
 21 C        5.4850     8.4250    -0.7860 C.ar  1 <1>  -0.1500 
 22 C        3.1710     9.0500    -0.6720 C.ar  1 <1>  -0.1500 
 23 C        5.8150     9.7200    -1.1450 C.ar  1 <1>  -0.1500 
 24 C        3.5050    10.3440    -1.0310 C.ar  1 <1>  -0.1500 
 25 C        4.8280    10.6870    -1.2640 C.ar  1 <1>  -0.1440 
 26 C        5.1920    12.1070    -1.6580 C.3   1 <1>  -0.0970 
 27 H        0.8890     1.2660    -1.5420 H     1 <1>   0.0800 
 28 H       -0.7790     1.7270    -1.4540 H     1 <1>   0.0800 
 29 H       -1.9660    -2.6550    -0.4210 H     1 <1>   0.0800 
 30 H       -2.5060    -1.2710     0.4920 H     1 <1>   0.0800 
 31 H       -1.1590    -2.2230     1.0780 H     1 <1>   0.0800 
 32 H       -0.0080    -2.5500    -1.7440 H     1 <1>   0.0800 
 33 H        0.9450    -2.2450    -0.3030 H     1 <1>   0.0800 
 34 H        1.0490    -1.1620    -1.6740 H     1 <1>   0.0800 
 35 H       -0.2450     3.2770     0.4190 H     1 <1>   0.0800 
 36 H        1.0940     3.6270    -2.2620 H     1 <1>   0.0800 
 37 H        2.5570     2.3150    -0.0130 H     1 <1>   0.0800 
 38 H        1.7300     2.6910     1.4890 H     1 <1>   0.0800 
 39 H       -0.9910     4.9270    -0.8540 H     1 <1>   0.4000 
 40 H        1.1010     5.9200    -0.3850 H     1 <1>   0.0800 
 41 H        2.3390     5.3830    -1.5220 H     1 <1>   0.0800 
 42 H        5.1120     6.2030     2.8290 H     1 <1>   0.0800 
 43 H        5.4210     7.5960     1.8430 H     1 <1>   0.0800 
 44 H        5.8730     5.9930     1.2790 H     1 <1>   0.0800 
 45 H        2.6020     6.8510     2.9140 H     1 <1>   0.0800 
 46 H        1.7610     7.1910     1.4310 H     1 <1>   0.0800 
 47 H        3.0410     8.2560     1.9910 H     1 <1>   0.0800 
 48 H        6.2470     7.6720    -0.7060 H     1 <1>   0.1500 
 49 H        2.1450     8.7830    -0.5040 H     1 <1>   0.1500 
 50 H        6.8440     9.9720    -1.3350 H     1 <1>   0.1500 
 51 H        2.7300    11.0830    -1.1320 H     1 <1>   0.1500 
 52 H        6.1810    12.3520    -1.3130 H     1 <1>   0.0800 
 53 H        4.5000    12.8070    -1.2260 H     1 <1>   0.0800 
 54 H        5.1630    12.2060    -2.7280 H     1 <1>   0.0800 
@<TRIPOS>BOND
  1   1   2  2   
  2   1   3  2   
  3   1   4  am  
  4   1   5  1   
  5   4   6  1   
  6   4   7  1   
  7   5   8  1   
  8   5  27  1   
  9   5  28  1   
 10   6  29  1   
 11   6  30  1   
 12   6  31  1   
 13   7  32  1   
 14   7  33  1   
 15   7  34  1   
 16   8   9  1   
 17   8  10  1   
 18   8  35  1   
 19   9  11  1   
 20   9  12  1   
 21   9  36  1   
 22  10  13  1   
 23  10  37  1   
 24  10  38  1   
 25  11  39  1   
 26  12  13  1   
 27  12  40  1   
 28  12  41  1   
 29  13  14  am  
 30  14  15  2   
 31  14  16  1   
 32  16  17  1   
 33  16  18  1   
 34  16  19  1   
 35  17  20  1   
 36  18  42  1   
 37  18  43  1   
 38  18  44  1   
 39  19  45  1   
 40  19  46  1   
 41  19  47  1   
 42  20  21  ar  
 43  20  22  ar  
 44  21  23  ar  
 45  21  48  1   
 46  22  24  ar  
 47  22  49  1   
 48  23  25  ar  
 49  23  50  1   
 50  24  25  ar  
 51  24  51  1   
 52  25  26  1   
 53  26  52  1   
 54  26  53  1   
 55  26  54  1   
@<TRIPOS>SUBSTRUCTURE
  1 ****  13 GROUP 4 **** **** 0

# MOE 2024.06 (io_trps.svl 2023.06)
