@<TRIPOS>MOLECULE
NONAME
55 59 1 0 0 
SMALL
USER_CHARGES


@<TRIPOS>ATOM
  1 O       -1.1960     0.9080     1.4110 O.2   1 <1>  -0.5700 
  2 C       -2.1470     1.4830     0.9190 C.2   1 <1>   0.7030 
  3 N       -3.4120     0.9520     1.0680 N.am  1 <1>  -0.6600 
  4 C       -1.8970     2.7200     0.2000 C.2   1 <1>   0.2770 
  5 C       -4.4700     1.0180     0.0180 C.3   1 <1>   0.1400 
  6 C       -3.7010    -0.0550     2.1320 C.3   1 <1>   0.1400 
  7 N       -2.7660     3.7860     0.0070 N.pl3 1 <1>  -0.7000 
  8 C       -0.7330     3.0810    -0.3900 C.2   1 <1>   0.2000 
  9 C       -4.6210    -0.3550    -0.6410 C.3   1 <1>  -0.1600 
 10 C       -3.8520    -1.4420     1.5040 C.3   1 <1>  -0.1600 
 11 C       -2.1320     4.7450    -0.6810 C.cat 1 <1>   0.7910 
 12 N       -0.8710     4.3330    -0.9510 N.pl3 1 <1>  -0.6290 
 13 C       -4.9130    -1.4620     0.3910 C.3   1 <1>   0.4240 
 14 C       -2.5830     6.0060    -1.1050 C.2   1 <1>  -0.1410 
 15 C       -0.0030     5.1470    -1.6500 C.2   1 <1>   0.2410 
 16 O       -6.1020    -1.0820     1.0500 O.3   1 <1>  -0.5600 
 17 C       -5.0300    -2.8710    -0.2560 C.ar  1 <1>  -0.1430 
 18 C       -1.7370     6.8240    -1.8010 C.2   1 <1>  -0.1500 
 19 C       -0.4280     6.3750    -2.0720 C.2   1 <1>  -0.1500 
 20 C        1.3990     4.6340    -1.9200 C.3   1 <1>  -0.1020 
 21 C       -7.3140    -1.4470     0.4740 C.3   1 <1>   0.1200 
 22 C       -3.9580    -3.4730    -0.9300 C.ar  1 <1>   0.0830 
 23 C       -6.2300    -3.5750    -0.1720 C.ar  1 <1>  -0.1430 
 24 C       -7.4270    -2.9620     0.5240 C.3   1 <1>  -0.0170 
 25 O       -2.7810    -2.8010    -1.0380 O.3   1 <1>  -0.3620 
 26 C       -4.1030    -4.7440    -1.4850 C.ar  1 <1>  -0.1500 
 27 C       -6.3610    -4.8390    -0.7230 C.ar  1 <1>  -0.1500 
 28 C       -1.5780    -3.4440    -1.4000 C.3   1 <1>   0.0400 
 29 C       -5.2980    -5.4250    -1.3790 C.ar  1 <1>  -0.1500 
 30 H       -4.2220     1.7380    -0.7400 H     1 <1>   0.0800 
 31 H       -5.4030     1.3090     0.4730 H     1 <1>   0.0800 
 32 H       -4.6110     0.2170     2.6410 H     1 <1>   0.0800 
 33 H       -2.9100    -0.0740     2.8630 H     1 <1>   0.0800 
 34 H       -3.7120     3.8470     0.3890 H     1 <1>   0.4500 
 35 H        0.1800     2.5090    -0.4310 H     1 <1>   0.1500 
 36 H       -3.7120    -0.5690    -1.1670 H     1 <1>   0.0800 
 37 H       -5.4030    -0.3310    -1.3760 H     1 <1>   0.0800 
 38 H       -4.1270    -2.1560     2.2590 H     1 <1>   0.0800 
 39 H       -2.8930    -1.7360     1.1290 H     1 <1>   0.0800 
 40 H       -3.5880     6.3020    -0.8720 H     1 <1>   0.1500 
 41 H       -2.0430     7.8000    -2.1460 H     1 <1>   0.1500 
 42 H        0.2290     7.0300    -2.6200 H     1 <1>   0.1500 
 43 H        1.3560     3.7300    -2.5010 H     1 <1>   0.0800 
 44 H        1.9050     4.4350    -0.9930 H     1 <1>   0.0800 
 45 H        1.9700     5.3610    -2.4680 H     1 <1>   0.0800 
 46 H       -7.3520    -1.0870    -0.5390 H     1 <1>   0.0800 
 47 H       -8.1040    -0.9910     1.0450 H     1 <1>   0.0800 
 48 H       -8.3380    -3.2650     0.0400 H     1 <1>   0.0800 
 49 H       -7.4600    -3.2880     1.5490 H     1 <1>   0.0800 
 50 H       -3.2990    -5.2210    -2.0090 H     1 <1>   0.1500 
 51 H       -7.2910    -5.3730    -0.6430 H     1 <1>   0.1500 
 52 H       -0.7730    -2.7440    -1.2700 H     1 <1>   0.0800 
 53 H       -1.6370    -3.7440    -2.4310 H     1 <1>   0.0800 
 54 H       -1.4290    -4.2940    -0.7570 H     1 <1>   0.0800 
 55 H       -5.4030    -6.4060    -1.8070 H     1 <1>   0.1500 
@<TRIPOS>BOND
  1   1   2  2   
  2   2   3  am  
  3   2   4  1   
  4   3   5  1   
  5   3   6  1   
  6   4   7  1   
  7   4   8  2   
  8   5   9  1   
  9   5  30  1   
 10   5  31  1   
 11   6  10  1   
 12   6  32  1   
 13   6  33  1   
 14   7  11  ar  
 15   7  34  1   
 16   8  12  1   
 17   8  35  1   
 18   9  13  1   
 19   9  36  1   
 20   9  37  1   
 21  10  13  1   
 22  10  38  1   
 23  10  39  1   
 24  11  12  ar  
 25  11  14  1   
 26  12  15  1   
 27  13  16  1   
 28  13  17  1   
 29  14  18  2   
 30  14  40  1   
 31  15  19  2   
 32  15  20  1   
 33  16  21  1   
 34  17  22  ar  
 35  17  23  ar  
 36  18  19  1   
 37  18  41  1   
 38  19  42  1   
 39  20  43  1   
 40  20  44  1   
 41  20  45  1   
 42  21  24  1   
 43  21  46  1   
 44  21  47  1   
 45  22  25  1   
 46  22  26  ar  
 47  23  24  1   
 48  23  27  ar  
 49  24  48  1   
 50  24  49  1   
 51  25  28  1   
 52  26  29  ar  
 53  26  50  1   
 54  27  29  ar  
 55  27  51  1   
 56  28  52  1   
 57  28  53  1   
 58  28  54  1   
 59  29  55  1   
@<TRIPOS>SUBSTRUCTURE
  1 ****   5 GROUP 4 **** **** 0

# MOE 2024.06 (io_trps.svl 2023.06)
