@<TRIPOS>MOLECULE
NONAME
54 58 1 0 0 
SMALL
USER_CHARGES


@<TRIPOS>ATOM
  1 O       -0.5250     0.7180     0.1270 O.2   1 <1>  -0.5700 
  2 C       -0.4230     1.9210     0.0640 C.2   1 <1>   0.5690 
  3 N       -1.4030     2.7840     0.4950 N.am  1 <1>  -0.5090 
  4 C        0.8730     2.4780    -0.5240 C.3   1 <1>   0.1810 
  5 C       -1.1850     4.2690     0.4530 C.3   1 <1>   0.3640 
  6 C       -2.4500     2.3200     1.4460 C.3   1 <1>   0.0490 
  7 O        1.1650     3.7730    -0.0630 O.3   1 <1>  -0.5600 
  8 C       -2.3440     4.9770    -0.2460 C.ar  1 <1>  -0.1440 
  9 C        0.1160     4.6910    -0.2770 C.3   1 <1>   0.2610 
 10 C       -3.3600     1.2050     1.0360 C.3   1 <1>  -0.2000 
 11 C       -3.9060     2.5840     1.2060 C.3   1 <1>  -0.2000 
 12 C       -2.8860     6.1260     0.3130 C.ar  1 <1>   0.1600 
 13 C       -2.8560     4.5200    -1.4470 C.ar  1 <1>  -0.1500 
 14 C        0.5220     6.1240     0.1110 C.2   1 <1>   0.5690 
 15 N       -3.8690     6.8350    -0.2180 N.ar  1 <1>  -0.6200 
 16 C       -3.8840     5.2450    -2.0100 C.ar  1 <1>  -0.1500 
 17 O        0.2030     6.5270     1.2080 O.2   1 <1>  -0.5700 
 18 N        1.1830     6.9350    -0.7880 N.am  1 <1>  -0.6600 
 19 C       -4.3460     6.3780    -1.3630 C.ar  1 <1>   0.1600 
 20 C        1.2980     8.4210    -0.6140 C.3   1 <1>   0.2200 
 21 C        1.8920     6.4130    -1.9920 C.3   1 <1>   0.0600 
 22 C        2.1850     8.8490     0.5690 C.3   1 <1>  -0.0170 
 23 C       -0.0500     9.1510    -0.4470 C.3   1 <1>  -0.0170 
 24 C        1.5610    10.1580     0.9920 C.ar  1 <1>  -0.1430 
 25 C        0.3190    10.3250     0.4280 C.ar  1 <1>  -0.1430 
 26 C        2.0910    11.1220     1.8300 C.ar  1 <1>  -0.1500 
 27 C       -0.4280    11.4590     0.6870 C.ar  1 <1>  -0.1500 
 28 C        1.3500    12.2630     2.0940 C.ar  1 <1>  -0.1500 
 29 C        0.0960    12.4310     1.5250 C.ar  1 <1>  -0.1500 
 30 H        0.8070     2.4980    -1.5960 H     1 <1>   0.0800 
 31 H        1.6910     1.8410    -0.2400 H     1 <1>   0.0800 
 32 H       -1.1360     4.6000     1.4760 H     1 <1>   0.0800 
 33 H       -2.0970     2.3210     2.4650 H     1 <1>   0.1000 
 34 H       -0.0850     4.6940    -1.3320 H     1 <1>   0.0800 
 35 H       -3.2600     0.8000     0.0450 H     1 <1>   0.1000 
 36 H       -3.6120     0.4550     1.7650 H     1 <1>   0.1000 
 37 H       -4.5420     2.7750     2.0520 H     1 <1>   0.1000 
 38 H       -4.2500     3.0830     0.3190 H     1 <1>   0.1000 
 39 H       -2.4860     6.4920     1.2460 H     1 <1>   0.1500 
 40 H       -2.4810     3.6300    -1.9250 H     1 <1>   0.1500 
 41 H       -4.3270     4.9370    -2.9390 H     1 <1>   0.1500 
 42 H       -5.1510     6.9370    -1.8100 H     1 <1>   0.1500 
 43 H        1.7500     8.8400    -1.4970 H     1 <1>   0.0800 
 44 H        2.8470     6.8990    -2.0920 H     1 <1>   0.0800 
 45 H        1.3050     6.6080    -2.8730 H     1 <1>   0.0800 
 46 H        2.0710     5.3550    -1.9100 H     1 <1>   0.0800 
 47 H        2.1320     8.1530     1.3850 H     1 <1>   0.0800 
 48 H        3.2050     8.9850     0.2610 H     1 <1>   0.0800 
 49 H       -0.4340     9.4800    -1.3950 H     1 <1>   0.0800 
 50 H       -0.7840     8.5550     0.0620 H     1 <1>   0.0800 
 51 H        3.0620    10.9860     2.2720 H     1 <1>   0.1500 
 52 H       -1.4020    11.5810     0.2470 H     1 <1>   0.1500 
 53 H        1.7490    13.0220     2.7440 H     1 <1>   0.1500 
 54 H       -0.4740    13.3190     1.7360 H     1 <1>   0.1500 
@<TRIPOS>BOND
  1   1   2  2   
  2   2   3  am  
  3   2   4  1   
  4   3   5  1   
  5   3   6  1   
  6   4   7  1   
  7   4  30  1   
  8   4  31  1   
  9   5   8  1   
 10   5   9  1   
 11   5  32  1   
 12   6  10  1   
 13   6  11  1   
 14   6  33  1   
 15   7   9  1   
 16   8  12  ar  
 17   8  13  ar  
 18   9  14  1   
 19   9  34  1   
 20  10  11  1   
 21  10  35  1   
 22  10  36  1   
 23  11  37  1   
 24  11  38  1   
 25  12  15  ar  
 26  12  39  1   
 27  13  16  ar  
 28  13  40  1   
 29  14  17  2   
 30  14  18  am  
 31  15  19  ar  
 32  16  19  ar  
 33  16  41  1   
 34  18  20  1   
 35  18  21  1   
 36  19  42  1   
 37  20  22  1   
 38  20  23  1   
 39  20  43  1   
 40  21  44  1   
 41  21  45  1   
 42  21  46  1   
 43  22  24  1   
 44  22  47  1   
 45  22  48  1   
 46  23  25  1   
 47  23  49  1   
 48  23  50  1   
 49  24  25  ar  
 50  24  26  ar  
 51  25  27  ar  
 52  26  28  ar  
 53  26  51  1   
 54  27  29  ar  
 55  27  52  1   
 56  28  29  ar  
 57  28  53  1   
 58  29  54  1   
@<TRIPOS>SUBSTRUCTURE
  1 ****  14 GROUP 4 **** **** 0

# MOE 2024.06 (io_trps.svl 2023.06)
