@<TRIPOS>MOLECULE
NONAME
45 46 1 0 0 
SMALL
USER_CHARGES


@<TRIPOS>ATOM
  1 S       -0.0810     0.6660     0.2300 S.3   1 <1>  -0.3320 
  2 C        0.2510     2.4160     0.1810 C.ar  1 <1>   0.7720 
  3 C       -1.5220     0.2900    -0.8730 C.3   1 <1>  -0.0100 
  4 N        1.2280     2.8580     0.8980 N.ar  1 <1>  -0.6200 
  5 N       -0.5420     3.1730    -0.6070 N.ar  1 <1>  -0.1790 
  6 C        1.4590     4.1760     0.8480 C.ar  1 <1>   0.4100 
  7 C       -0.3420     4.4970    -0.6880 C.ar  1 <1>   0.4610 
  8 N        2.4950     4.5800     1.6030 N.pl3 1 <1>  -0.8690 
  9 C        0.6870     5.0150     0.0660 C.ar  1 <1>  -0.1500 
 10 N       -1.1250     5.2570    -1.4830 N.pl3 1 <1>  -0.9000 
 11 C        2.9870     5.9670     1.7930 C.3   1 <1>   0.2090 
 12 C        3.9010     6.3590     0.6270 C.3   1 <1>  -0.0990 
 13 C        3.5820     7.7610     0.1620 C.2   1 <1>   0.5690 
 14 O        2.4820     7.9580    -0.2930 O.2   1 <1>  -0.5700 
 15 N        4.5530     8.7160     0.2740 N.am  1 <1>  -0.5470 
 16 C        4.5380    10.0860    -0.0400 C.ar  1 <1>   0.1170 
 17 C        5.7370    10.7370    -0.3430 C.ar  1 <1>  -0.1430 
 18 C        3.3610    10.8260    -0.0370 C.ar  1 <1>  -0.1500 
 19 C        5.7320    12.0920    -0.6340 C.ar  1 <1>  -0.1500 
 20 C        7.0640     9.9880    -0.3700 C.3   1 <1>  -0.0970 
 21 C        3.3660    12.1760    -0.3300 C.ar  1 <1>  -0.1500 
 22 C        4.5530    12.8190    -0.6290 C.ar  1 <1>  -0.1430 
 23 C        4.5650    14.3020    -0.9540 C.3   1 <1>  -0.0970 
 24 H       -1.6940    -0.7720    -0.8140 H     1 <1>   0.0800 
 25 H       -1.2660     0.5640    -1.8820 H     1 <1>   0.0800 
 26 H       -2.3830     0.8220    -0.5110 H     1 <1>   0.0800 
 27 H       -1.2800     2.7320    -1.1340 H     1 <1>   0.4570 
 28 H        2.9930     3.8530     2.1300 H     1 <1>   0.4000 
 29 H        0.8820     6.0680     0.0370 H     1 <1>   0.1500 
 30 H       -0.9560     6.2710    -1.5700 H     1 <1>   0.4000 
 31 H       -1.9110     4.9570    -2.0700 H     1 <1>   0.4000 
 32 H        3.5230     6.0370     2.7250 H     1 <1>   0.0800 
 33 H        2.1410     6.6320     1.8570 H     1 <1>   0.0800 
 34 H        3.7500     5.7010    -0.2090 H     1 <1>   0.0800 
 35 H        4.9270     6.2840     0.9330 H     1 <1>   0.0800 
 36 H        5.4670     8.3860     0.5700 H     1 <1>   0.3700 
 37 H        2.4270    10.3530     0.1990 H     1 <1>   0.1500 
 38 H        6.6530    12.5950    -0.8700 H     1 <1>   0.1500 
 39 H        7.0010     9.1480    -1.0400 H     1 <1>   0.0800 
 40 H        7.3130     9.6410     0.6160 H     1 <1>   0.0800 
 41 H        7.8580    10.6260    -0.7130 H     1 <1>   0.0800 
 42 H        2.4390    12.7230    -0.3240 H     1 <1>   0.1500 
 43 H        5.4720    14.7560    -0.5980 H     1 <1>   0.0800 
 44 H        3.7320    14.7970    -0.4870 H     1 <1>   0.0800 
 45 H        4.4990    14.4400    -2.0180 H     1 <1>   0.0800 
@<TRIPOS>BOND
  1   1   2  1   
  2   1   3  1   
  3   2   4  ar  
  4   2   5  ar  
  5   3  24  1   
  6   3  25  1   
  7   3  26  1   
  8   4   6  ar  
  9   5   7  ar  
 10   5  27  1   
 11   6   8  1   
 12   6   9  ar  
 13   7   9  ar  
 14   7  10  1   
 15   8  11  1   
 16   8  28  1   
 17   9  29  1   
 18  10  30  1   
 19  10  31  1   
 20  11  12  1   
 21  11  32  1   
 22  11  33  1   
 23  12  13  1   
 24  12  34  1   
 25  12  35  1   
 26  13  14  2   
 27  13  15  am  
 28  15  16  1   
 29  15  36  1   
 30  16  17  ar  
 31  16  18  ar  
 32  17  19  ar  
 33  17  20  1   
 34  18  21  ar  
 35  18  37  1   
 36  19  22  ar  
 37  19  38  1   
 38  20  39  1   
 39  20  40  1   
 40  20  41  1   
 41  21  22  ar  
 42  21  42  1   
 43  22  23  1   
 44  23  43  1   
 45  23  44  1   
 46  23  45  1   
@<TRIPOS>SUBSTRUCTURE
  1 ****  14 GROUP 4 **** **** 0

# MOE 2024.06 (io_trps.svl 2023.06)
