@<TRIPOS>MOLECULE
NONAME
43 45 1 0 0 
SMALL
USER_CHARGES


@<TRIPOS>ATOM
  1 S       -1.5000     0.0990    -2.2240 S.3   1 <1>  -0.0800 
  2 C       -1.8120     0.5360    -0.5560 C.2   1 <1>   0.1980 
  3 C       -0.0900     1.1160    -2.1990 C.2   1 <1>  -0.1100 
  4 N       -0.9570     1.3440    -0.0600 N.2   1 <1>  -0.5650 
  5 C       -3.0420    -0.0770     0.1070 C.3   1 <1>   0.3890 
  6 C        0.0190     1.6740    -0.9840 C.2   1 <1>   0.0460 
  7 N       -2.8940    -1.5510     0.3590 N.pl3 1 <1>  -0.8380 
  8 C        1.0990     2.6280    -0.5250 C.3   1 <1>  -0.0590 
  9 C       -4.0260    -2.3360     0.4720 C.ar  1 <1>   0.4100 
 10 C       -1.6230    -1.9510     1.0260 C.3   1 <1>   0.1290 
 11 N       -5.1640    -1.7310     0.7610 N.ar  1 <1>  -0.6200 
 12 C       -3.9800    -3.6990     0.2920 C.ar  1 <1>  -0.1500 
 13 C       -6.2130    -2.5210     0.8700 C.ar  1 <1>   0.4700 
 14 C       -5.1370    -4.4250     0.4380 C.ar  1 <1>   0.4100 
 15 N       -6.2800    -3.8300     0.7310 N.ar  1 <1>  -0.6200 
 16 N       -5.1460    -5.7990     0.2910 N.pl3 1 <1>  -0.8380 
 17 C       -6.3870    -6.4720    -0.1810 C.3   1 <1>   0.2090 
 18 C       -4.3140    -6.6140     1.2110 C.3   1 <1>   0.2090 
 19 C       -6.0170    -7.7750    -0.8910 C.3   1 <1>  -0.1600 
 20 C       -3.9140    -7.9130     0.5110 C.3   1 <1>  -0.1600 
 21 C       -5.1590    -8.6520     0.0200 C.3   1 <1>   0.2000 
 22 O       -4.7560    -9.7600    -0.6920 O.3   1 <1>  -0.6800 
 23 H        0.5020     1.1840    -3.0930 H     1 <1>   0.1500 
 24 H       -3.8930     0.0980    -0.5270 H     1 <1>   0.0800 
 25 H       -3.2170     0.4200     1.0440 H     1 <1>   0.0800 
 26 H        1.7990     2.8150    -1.3180 H     1 <1>   0.0800 
 27 H        1.6220     2.2050     0.3130 H     1 <1>   0.0800 
 28 H        0.6530     3.5590    -0.2240 H     1 <1>   0.0800 
 29 H       -1.3200    -1.1930     1.7280 H     1 <1>   0.0800 
 30 H       -0.8500    -2.0700     0.2870 H     1 <1>   0.0800 
 31 H       -1.7470    -2.8770     1.5590 H     1 <1>   0.0800 
 32 H       -3.0660    -4.1860     0.0300 H     1 <1>   0.1500 
 33 H       -7.1430    -2.0310     1.1060 H     1 <1>   0.1500 
 34 H       -6.9160    -5.8270    -0.8620 H     1 <1>   0.0800 
 35 H       -7.0260    -6.6720     0.6620 H     1 <1>   0.0800 
 36 H       -4.8830    -6.8330     2.0990 H     1 <1>   0.0800 
 37 H       -3.4330    -6.0690     1.5020 H     1 <1>   0.0800 
 38 H       -5.4800    -7.5290    -1.7890 H     1 <1>   0.0800 
 39 H       -6.9170    -8.2990    -1.1560 H     1 <1>   0.0800 
 40 H       -3.3740    -8.5350     1.2010 H     1 <1>   0.0800 
 41 H       -3.2720    -7.6700    -0.3170 H     1 <1>   0.0800 
 42 H       -5.7410    -8.9960     0.8590 H     1 <1>   0.0800 
 43 H       -4.2430    -9.4780    -1.4730 H     1 <1>   0.4000 
@<TRIPOS>BOND
  1   1   2  1   
  2   1   3  1   
  3   2   4  2   
  4   2   5  1   
  5   3   6  2   
  6   3  23  1   
  7   4   6  1   
  8   5   7  1   
  9   5  24  1   
 10   5  25  1   
 11   6   8  1   
 12   7   9  1   
 13   7  10  1   
 14   8  26  1   
 15   8  27  1   
 16   8  28  1   
 17   9  11  ar  
 18   9  12  ar  
 19  10  29  1   
 20  10  30  1   
 21  10  31  1   
 22  11  13  ar  
 23  12  14  ar  
 24  12  32  1   
 25  13  15  ar  
 26  13  33  1   
 27  14  15  ar  
 28  14  16  1   
 29  16  17  1   
 30  16  18  1   
 31  17  19  1   
 32  17  34  1   
 33  17  35  1   
 34  18  20  1   
 35  18  36  1   
 36  18  37  1   
 37  19  21  1   
 38  19  38  1   
 39  19  39  1   
 40  20  21  1   
 41  20  40  1   
 42  20  41  1   
 43  21  22  1   
 44  21  42  1   
 45  22  43  1   
@<TRIPOS>SUBSTRUCTURE
  1 ****  12 GROUP 4 **** **** 0

# MOE 2024.06 (io_trps.svl 2023.06)
