@<TRIPOS>MOLECULE
NONAME
50 52 1 0 0 
SMALL
USER_CHARGES


@<TRIPOS>ATOM
  1 S        0.7850     0.2450    -0.6260 S.o2  1 <1>   1.3330 
  2 O        1.8650     0.1570     0.3310 O.2   1 <1>  -0.6500 
  3 O        1.0820     0.2690    -2.0400 O.2   1 <1>  -0.6500 
  4 N       -0.2880    -1.0350    -0.3250 N.am  1 <1>  -0.8490 
  5 C       -0.2000     1.6950    -0.2600 C.3   1 <1>  -0.0550 
  6 C        0.0360    -2.2250    -1.1180 C.3   1 <1>   0.1160 
  7 C       -0.3840    -1.3940     1.0940 C.3   1 <1>   0.1160 
  8 C        0.5250     3.0160    -0.5870 C.3   1 <1>  -0.0800 
  9 C       -0.3400     4.2670    -0.4220 C.3   1 <1>   0.2000 
 10 C        1.7630     3.2920     0.2790 C.3   1 <1>   0.1400 
 11 O       -1.0340     4.1870     0.7760 O.3   1 <1>  -0.6800 
 12 C        0.6800     5.3970    -0.3030 C.3   1 <1>   0.1400 
 13 N        1.8340     4.7740     0.4030 N.am  1 <1>  -0.6600 
 14 C        2.8230     5.3930     1.1190 C.2   1 <1>   0.5690 
 15 O        3.6750     4.7600     1.6880 O.2   1 <1>  -0.5700 
 16 C        2.9160     6.9030     1.1970 C.3   1 <1>   0.0390 
 17 C        3.6790     7.4710     0.0070 C.2   1 <1>   0.2030 
 18 N        3.9220     8.8650    -0.0860 N.pl3 1 <1>  -0.6850 
 19 C        4.1830     6.7690    -1.0220 C.2   1 <1>  -0.0490 
 20 C        4.6110     9.2220    -1.1630 C.cat 1 <1>   0.8400 
 21 C        3.5510     9.8810     0.9330 C.3   1 <1>   0.3290 
 22 S        4.9840     7.8570    -2.1590 S.3   1 <1>  -0.2320 
 23 N        4.9870    10.4440    -1.4560 N.pl3 1 <1>  -0.7940 
 24 C        3.4650    11.2730     0.2860 C.3   1 <1>  -0.1600 
 25 C        4.6830    11.6000    -0.5910 C.3   1 <1>   0.3290 
 26 H       -1.1010     1.6500    -0.8400 H     1 <1>   0.0800 
 27 H       -0.4800     1.6810     0.7740 H     1 <1>   0.0800 
 28 H       -0.6720    -3.0110    -0.9190 H     1 <1>   0.0800 
 29 H        1.0290    -2.5730    -0.8840 H     1 <1>   0.0800 
 30 H       -0.0090    -1.9920    -2.1690 H     1 <1>   0.0800 
 31 H       -1.1360    -2.1510     1.2330 H     1 <1>   0.0800 
 32 H       -0.6580    -0.5320     1.6780 H     1 <1>   0.0800 
 33 H        0.5610    -1.7680     1.4530 H     1 <1>   0.0800 
 34 H        0.8510     2.9780    -1.6130 H     1 <1>   0.0800 
 35 H       -1.0470     4.4120    -1.2210 H     1 <1>   0.0800 
 36 H        2.6590     2.9020    -0.1760 H     1 <1>   0.0800 
 37 H        1.6560     2.8610     1.2610 H     1 <1>   0.0800 
 38 H       -0.3940     4.1740     1.5170 H     1 <1>   0.4000 
 39 H        0.2670     6.2340     0.2320 H     1 <1>   0.0800 
 40 H        0.9930     5.7070    -1.2850 H     1 <1>   0.0800 
 41 H        1.9340     7.3280     1.2500 H     1 <1>   0.0800 
 42 H        3.4380     7.1560     2.1020 H     1 <1>   0.0800 
 43 H        4.1870     5.7180    -1.2590 H     1 <1>   0.1500 
 44 H        2.5980     9.6370     1.3730 H     1 <1>   0.0800 
 45 H        4.2960     9.8820     1.7120 H     1 <1>   0.0800 
 46 H        5.5410    10.6180    -2.3000 H     1 <1>   0.4500 
 47 H        3.3650    12.0210     1.0530 H     1 <1>   0.0800 
 48 H        2.5760    11.3220    -0.3190 H     1 <1>   0.0800 
 49 H        5.5400    11.8150     0.0260 H     1 <1>   0.0800 
 50 H        4.4730    12.4660    -1.1980 H     1 <1>   0.0800 
@<TRIPOS>BOND
  1   1   2  2   
  2   1   3  2   
  3   1   4  am  
  4   1   5  1   
  5   4   6  1   
  6   4   7  1   
  7   5   8  1   
  8   5  26  1   
  9   5  27  1   
 10   6  28  1   
 11   6  29  1   
 12   6  30  1   
 13   7  31  1   
 14   7  32  1   
 15   7  33  1   
 16   8   9  1   
 17   8  10  1   
 18   8  34  1   
 19   9  11  1   
 20   9  12  1   
 21   9  35  1   
 22  10  13  1   
 23  10  36  1   
 24  10  37  1   
 25  11  38  1   
 26  12  13  1   
 27  12  39  1   
 28  12  40  1   
 29  13  14  am  
 30  14  15  2   
 31  14  16  1   
 32  16  17  1   
 33  16  41  1   
 34  16  42  1   
 35  17  18  1   
 36  17  19  2   
 37  18  20  ar  
 38  18  21  1   
 39  19  22  1   
 40  19  43  1   
 41  20  22  1   
 42  20  23  ar  
 43  21  24  1   
 44  21  44  1   
 45  21  45  1   
 46  23  25  1   
 47  23  46  1   
 48  24  25  1   
 49  24  47  1   
 50  24  48  1   
 51  25  49  1   
 52  25  50  1   
@<TRIPOS>SUBSTRUCTURE
  1 ****  13 GROUP 4 **** **** 0

# MOE 2024.06 (io_trps.svl 2023.06)
