@<TRIPOS>MOLECULE
NONAME
46 48 1 0 0 
SMALL
USER_CHARGES


@<TRIPOS>ATOM
  1 O        3.5450    -1.7480     1.9090 O.2   1 <1>  -0.5700 
  2 C        2.7860    -1.5370     0.9830 C.2   1 <1>   0.5440 
  3 N        2.7840    -0.2660     0.4640 N.am  1 <1>  -0.6600 
  4 C        2.0080    -2.6060     0.3850 C.ar  1 <1>   0.0860 
  5 C        2.9850     0.9070     1.3940 C.3   1 <1>   0.2200 
  6 C        3.0220    -0.0870    -0.9960 C.3   1 <1>   0.1400 
  7 C        0.6060    -2.6250     0.3790 C.ar  1 <1>  -0.1440 
  8 C        2.6800    -3.6650    -0.2260 C.ar  1 <1>  -0.1500 
  9 C        2.4010     2.2170     0.8440 C.3   1 <1>   0.1200 
 10 C        4.4800     1.0930     1.7540 C.3   1 <1>   0.3430 
 11 C        4.0610     1.0030    -1.3240 C.3   1 <1>  -0.0800 
 12 C       -0.0700    -3.6570    -0.2530 C.ar  1 <1>  -0.1500 
 13 C       -0.2290    -1.5530     1.0770 C.3   1 <1>  -0.0170 
 14 C        1.9990    -4.6910    -0.8510 C.ar  1 <1>  -0.1500 
 15 O        3.3370     2.8720     0.0390 O.3   1 <1>  -0.5600 
 16 N        5.3790     0.3470     0.8100 N.4   1 <1>  -0.9590 
 17 C        3.4460     2.4120    -1.2660 C.3   1 <1>   0.1200 
 18 C        5.4160     0.9130    -0.5800 C.3   1 <1>   0.3430 
 19 C        0.6190    -4.6840    -0.8700 C.ar  1 <1>  -0.1500 
 20 C       -0.7640    -0.5220     0.0790 C.3   1 <1>  -0.2400 
 21 C        6.7390     0.1700     1.3890 C.3   1 <1>   0.2630 
 22 H        2.4530     0.6910     2.3050 H     1 <1>   0.0800 
 23 H        3.3640    -1.0200    -1.4110 H     1 <1>   0.0800 
 24 H        2.0880     0.1460    -1.4770 H     1 <1>   0.0800 
 25 H        3.7550    -3.6850    -0.2060 H     1 <1>   0.1500 
 26 H        2.1900     2.8810     1.6650 H     1 <1>   0.0800 
 27 H        1.4860     2.0550     0.3000 H     1 <1>   0.0800 
 28 H        4.6220     0.7070     2.7500 H     1 <1>   0.0800 
 29 H        4.7300     2.1400     1.7680 H     1 <1>   0.0800 
 30 H        4.2940     0.8670    -2.3650 H     1 <1>   0.0800 
 31 H       -1.1470    -3.6710    -0.2640 H     1 <1>   0.1500 
 32 H       -1.0620    -2.0250     1.5700 H     1 <1>   0.0800 
 33 H        0.3410    -1.0580     1.8420 H     1 <1>   0.0800 
 34 H        2.5390    -5.4970    -1.3200 H     1 <1>   0.1500 
 35 H        4.9130    -0.5810     0.7680 H     1 <1>   0.4500 
 36 H        2.4730     2.4430    -1.7290 H     1 <1>   0.0800 
 37 H        4.0810     3.1090    -1.7870 H     1 <1>   0.0800 
 38 H        5.8540     1.8980    -0.5490 H     1 <1>   0.0800 
 39 H        6.0700     0.2930    -1.1710 H     1 <1>   0.0800 
 40 H        0.0800    -5.4800    -1.3570 H     1 <1>   0.1500 
 41 H       -1.3690    -1.0060    -0.6680 H     1 <1>   0.0800 
 42 H        0.0450    -0.0150    -0.4100 H     1 <1>   0.0800 
 43 H       -1.3690     0.2050     0.5900 H     1 <1>   0.0800 
 44 H        7.2230     1.1260     1.5070 H     1 <1>   0.0800 
 45 H        7.3410    -0.4490     0.7440 H     1 <1>   0.0800 
 46 H        6.6710    -0.3070     2.3540 H     1 <1>   0.0800 
@<TRIPOS>BOND
  1   1   2  2   
  2   2   3  am  
  3   2   4  1   
  4   3   5  1   
  5   3   6  1   
  6   4   7  ar  
  7   4   8  ar  
  8   5   9  1   
  9   5  10  1   
 10   5  22  1   
 11   6  11  1   
 12   6  23  1   
 13   6  24  1   
 14   7  12  ar  
 15   7  13  1   
 16   8  14  ar  
 17   8  25  1   
 18   9  15  1   
 19   9  26  1   
 20   9  27  1   
 21  10  16  1   
 22  10  28  1   
 23  10  29  1   
 24  11  17  1   
 25  11  18  1   
 26  11  30  1   
 27  12  19  ar  
 28  12  31  1   
 29  13  20  1   
 30  13  32  1   
 31  13  33  1   
 32  14  19  ar  
 33  14  34  1   
 34  15  17  1   
 35  16  18  1   
 36  16  21  1   
 37  16  35  1   
 38  17  36  1   
 39  17  37  1   
 40  18  38  1   
 41  18  39  1   
 42  19  40  1   
 43  20  41  1   
 44  20  42  1   
 45  20  43  1   
 46  21  44  1   
 47  21  45  1   
 48  21  46  1   
@<TRIPOS>SUBSTRUCTURE
  1 ****   3 GROUP 4 **** **** 0

# MOE 2024.06 (io_trps.svl 2023.06)
