@<TRIPOS>MOLECULE
NONAME
50 53 1 0 0 
SMALL
USER_CHARGES


@<TRIPOS>ATOM
  1 O        1.3420    -1.0200     1.8440 O.3   1 <1>  -0.0190 
  2 N        1.3850     0.2570     1.5900 N.2   1 <1>  -0.4100 
  3 C        1.9210    -1.7210     0.9060 C.2   1 <1>  -0.0400 
  4 C        2.0010     0.3810     0.4660 C.2   1 <1>   0.1080 
  5 C        2.3750    -0.8680    -0.0250 C.2   1 <1>  -0.1500 
  6 C        1.9900    -3.2350     1.0120 C.3   1 <1>   0.2900 
  7 C        2.2850     1.7050    -0.2360 C.3   1 <1>   0.1010 
  8 N        0.6580    -3.8700     0.9460 N.3   1 <1>  -0.8100 
  9 C        3.1690     2.6150     0.6350 C.3   1 <1>  -0.1600 
 10 C        0.9760     2.4190    -0.6130 C.3   1 <1>  -0.1600 
 11 C        0.7590    -5.3310     1.2040 C.3   1 <1>   0.2900 
 12 C       -0.0460    -3.5580    -0.3100 C.3   1 <1>   0.0300 
 13 C        3.4420     3.9620    -0.0500 C.3   1 <1>  -0.1600 
 14 C        1.2440     3.7660    -1.3010 C.3   1 <1>  -0.1600 
 15 C       -0.5700    -6.0330     1.4870 C.2   1 <1>   0.2980 
 16 C        2.1310     4.6650    -0.4280 C.3   1 <1>  -0.1600 
 17 O       -1.4020    -6.2580     0.5100 O.3   1 <1>  -0.2800 
 18 N       -0.9460    -6.4750     2.6230 N.2   1 <1>  -0.3380 
 19 C       -2.3660    -6.8730     1.1570 C.2   1 <1>   0.4250 
 20 N       -2.1200    -7.0230     2.4140 N.2   1 <1>  -0.3380 
 21 C       -3.5510    -7.3080     0.4450 C.ar  1 <1>   0.0530 
 22 C       -3.7170    -7.0720    -0.9220 C.ar  1 <1>  -0.1500 
 23 C       -4.5790    -7.9860     1.1030 C.ar  1 <1>  -0.1500 
 24 C       -4.8500    -7.4910    -1.5970 C.ar  1 <1>  -0.1500 
 25 C       -5.7140    -8.4080     0.4340 C.ar  1 <1>  -0.1500 
 26 C       -5.8520    -8.1610    -0.9190 C.ar  1 <1>  -0.1500 
 27 H        2.9020    -1.0630    -0.9400 H     1 <1>   0.1500 
 28 H        2.4540    -3.4780     1.9530 H     1 <1>   0.0800 
 29 H        2.6110    -3.6170     0.2210 H     1 <1>   0.0800 
 30 H        2.8210     1.4910    -1.1440 H     1 <1>   0.0800 
 31 H        4.1000     2.1180     0.8420 H     1 <1>   0.0800 
 32 H        2.6750     2.7890     1.5760 H     1 <1>   0.0800 
 33 H        0.3960     2.5860     0.2790 H     1 <1>   0.0800 
 34 H        0.3980     1.7880    -1.2650 H     1 <1>   0.0800 
 35 H        1.3800    -5.4850     2.0690 H     1 <1>   0.0800 
 36 H        1.2340    -5.8150     0.3690 H     1 <1>   0.0800 
 37 H       -0.1210    -2.4920    -0.4410 H     1 <1>   0.0800 
 38 H       -1.0500    -3.9430    -0.2810 H     1 <1>   0.0800 
 39 H        0.4720    -3.9810    -1.1530 H     1 <1>   0.0800 
 40 H        4.0290     3.8010    -0.9380 H     1 <1>   0.0800 
 41 H        4.0100     4.5930     0.6110 H     1 <1>   0.0800 
 42 H        0.3090     4.2630    -1.4940 H     1 <1>   0.0800 
 43 H        1.7290     3.5960    -2.2460 H     1 <1>   0.0800 
 44 H        2.3500     5.5780    -0.9560 H     1 <1>   0.0800 
 45 H        1.5970     4.9250     0.4700 H     1 <1>   0.0800 
 46 H       -2.9510    -6.5520    -1.4690 H     1 <1>   0.1500 
 47 H       -4.4880    -8.1860     2.1570 H     1 <1>   0.1500 
 48 H       -4.9530    -7.2970    -2.6510 H     1 <1>   0.1500 
 49 H       -6.4910    -8.9280     0.9670 H     1 <1>   0.1500 
 50 H       -6.7340    -8.4880    -1.4420 H     1 <1>   0.1500 
@<TRIPOS>BOND
  1   1   2  1   
  2   1   3  1   
  3   2   4  2   
  4   3   5  2   
  5   3   6  1   
  6   4   5  1   
  7   4   7  1   
  8   5  27  1   
  9   6   8  1   
 10   6  28  1   
 11   6  29  1   
 12   7   9  1   
 13   7  10  1   
 14   7  30  1   
 15   8  11  1   
 16   8  12  1   
 17   9  13  1   
 18   9  31  1   
 19   9  32  1   
 20  10  14  1   
 21  10  33  1   
 22  10  34  1   
 23  11  15  1   
 24  11  35  1   
 25  11  36  1   
 26  12  37  1   
 27  12  38  1   
 28  12  39  1   
 29  13  16  1   
 30  13  40  1   
 31  13  41  1   
 32  14  16  1   
 33  14  42  1   
 34  14  43  1   
 35  15  17  1   
 36  15  18  2   
 37  16  44  1   
 38  16  45  1   
 39  17  19  1   
 40  18  20  1   
 41  19  20  2   
 42  19  21  1   
 43  21  22  ar  
 44  21  23  ar  
 45  22  24  ar  
 46  22  46  1   
 47  23  25  ar  
 48  23  47  1   
 49  24  26  ar  
 50  24  48  1   
 51  25  26  ar  
 52  25  49  1   
 53  26  50  1   
@<TRIPOS>SUBSTRUCTURE
  1 ****  12 GROUP 4 **** **** 0

# MOE 2024.06 (io_trps.svl 2023.06)
