@<TRIPOS>MOLECULE
NONAME
35 38 1 0 0 
SMALL
USER_CHARGES


@<TRIPOS>ATOM
  1 CL       0.3230     0.3850     0.7580 Cl    1 <1>  -0.1770 
  2 C        1.3950     1.7600     0.7130 C.ar  1 <1>   0.1770 
  3 C        2.3820     1.8170    -0.2540 C.ar  1 <1>  -0.1500 
  4 C        1.2360     2.7730     1.6540 C.ar  1 <1>  -0.1500 
  5 C        3.2010     2.9300    -0.2380 C.ar  1 <1>   0.0400 
  6 C        2.0790     3.8750     1.6360 C.ar  1 <1>  -0.1500 
  7 S        4.5310     3.3170    -1.3020 S.3   1 <1>  -0.0800 
  8 C        3.0820     3.9610     0.6760 C.ar  1 <1>   0.2270 
  9 C        4.7990     4.8300    -0.4170 C.2   1 <1>   0.4620 
 10 N        3.9830     5.0050     0.5580 N.2   1 <1>  -0.5650 
 11 N        5.8230     5.6780    -0.7950 N.pl3 1 <1>  -0.8220 
 12 C        6.0110     6.9840    -0.0790 C.3   1 <1>   0.2090 
 13 C        6.8480     5.3560    -1.8360 C.3   1 <1>   0.2090 
 14 C        7.3090     7.0540     0.7560 C.3   1 <1>   0.2200 
 15 C        8.2440     5.1060    -1.2450 C.3   1 <1>  -0.0190 
 16 N        8.4820     7.3110    -0.1270 N.am  1 <1>  -0.7300 
 17 C        7.4990     5.7980     1.6480 C.3   1 <1>   0.1200 
 18 C        8.9570     6.4270    -1.0290 C.2   1 <1>   0.5690 
 19 C        8.2400     4.2100     0.0130 C.3   1 <1>   0.1200 
 20 O        8.4940     4.9160     1.1950 O.3   1 <1>  -0.5600 
 21 O        9.9280     6.6960    -1.6910 O.2   1 <1>  -0.5700 
 22 H        2.5030     1.0340    -0.9800 H     1 <1>   0.1500 
 23 H        0.4560     2.6910     2.3900 H     1 <1>   0.1500 
 24 H        1.9740     4.6690     2.3530 H     1 <1>   0.1500 
 25 H        6.0050     7.7860    -0.7960 H     1 <1>   0.0800 
 26 H        5.1810     7.1550     0.5840 H     1 <1>   0.0800 
 27 H        6.5570     4.4860    -2.3930 H     1 <1>   0.0800 
 28 H        6.8980     6.1690    -2.5410 H     1 <1>   0.0800 
 29 H        7.2040     7.9030     1.4090 H     1 <1>   0.0800 
 30 H        8.7940     4.5810    -2.0030 H     1 <1>   0.0800 
 31 H        9.0640     8.1260     0.0660 H     1 <1>   0.3700 
 32 H        6.5780     5.2530     1.7620 H     1 <1>   0.0800 
 33 H        7.8040     6.1190     2.6270 H     1 <1>   0.0800 
 34 H        9.0340     3.4890    -0.0760 H     1 <1>   0.0800 
 35 H        7.3150     3.6710     0.1230 H     1 <1>   0.0800 
@<TRIPOS>BOND
  1   1   2  1   
  2   2   3  ar  
  3   2   4  ar  
  4   3   5  ar  
  5   3  22  1   
  6   4   6  ar  
  7   4  23  1   
  8   5   7  1   
  9   5   8  ar  
 10   6   8  ar  
 11   6  24  1   
 12   7   9  1   
 13   8  10  1   
 14   9  10  2   
 15   9  11  1   
 16  11  12  1   
 17  11  13  1   
 18  12  14  1   
 19  12  25  1   
 20  12  26  1   
 21  13  15  1   
 22  13  27  1   
 23  13  28  1   
 24  14  16  1   
 25  14  17  1   
 26  14  29  1   
 27  15  18  1   
 28  15  19  1   
 29  15  30  1   
 30  16  18  am  
 31  16  31  1   
 32  17  20  1   
 33  17  32  1   
 34  17  33  1   
 35  18  21  2   
 36  19  20  1   
 37  19  34  1   
 38  19  35  1   
@<TRIPOS>SUBSTRUCTURE
  1 ****   9 GROUP 4 **** **** 0

# MOE 2024.06 (io_trps.svl 2023.06)
