@<TRIPOS>MOLECULE
NONAME
50 53 1 0 0 
SMALL
USER_CHARGES


@<TRIPOS>ATOM
  1 S       -0.5840     0.4160     0.1020 S.3   1 <1>  -0.0800 
  2 C        0.6190     1.6450    -0.1260 C.2   1 <1>  -0.1400 
  3 C        0.7000    -0.7830     0.0730 C.2   1 <1>   0.1980 
  4 C        1.8220     1.0710    -0.2120 C.2   1 <1>   0.0460 
  5 C        0.2780     3.1160    -0.2060 C.3   1 <1>   0.0200 
  6 N        1.8700    -0.3070    -0.0940 N.2   1 <1>  -0.5650 
  7 C        0.3050    -2.2330     0.2390 C.3   1 <1>   0.0200 
  8 C        3.0880     1.8760    -0.4240 C.3   1 <1>   0.0210 
  9 C        1.5800     3.9310    -0.0710 C.3   1 <1>  -0.1600 
 10 C       -0.2470    -2.7800    -1.0750 C.3   1 <1>   0.1400 
 11 C        2.7490     3.3150    -0.8730 C.3   1 <1>  -0.1600 
 12 N       -0.5730    -4.2200    -0.9350 N.am  1 <1>  -0.7300 
 13 C       -1.8020    -4.7360    -0.6650 C.2   1 <1>   0.5690 
 14 O       -2.7490    -4.0110    -0.4690 O.2   1 <1>  -0.5700 
 15 C       -1.9690    -6.2620    -0.5980 C.3   1 <1>   0.2610 
 16 O       -0.6860    -6.8860    -0.5680 O.3   1 <1>  -0.5600 
 17 C       -2.8570    -6.6600     0.6180 C.3   1 <1>   0.3640 
 18 C       -0.7110    -8.2930    -0.4930 C.3   1 <1>   0.1810 
 19 N       -2.5090    -7.9880     1.1830 N.am  1 <1>  -0.7300 
 20 C       -4.3370    -6.6920     0.2360 C.ar  1 <1>  -0.1440 
 21 C       -1.5510    -8.7940     0.6810 C.2   1 <1>   0.5690 
 22 C       -5.1680    -5.6420     0.6000 C.ar  1 <1>  -0.1500 
 23 C       -4.8760    -7.7570    -0.4760 C.ar  1 <1>  -0.1500 
 24 O       -1.3760    -9.9000     1.1250 O.2   1 <1>  -0.5700 
 25 C       -6.5100    -5.6550     0.2620 C.ar  1 <1>  -0.1500 
 26 C       -6.2170    -7.7720    -0.8140 C.ar  1 <1>  -0.1500 
 27 C       -7.0360    -6.7200    -0.4460 C.ar  1 <1>  -0.1500 
 28 H       -0.1890     3.3140    -1.1550 H     1 <1>   0.0800 
 29 H       -0.4070     3.3820     0.5790 H     1 <1>   0.0800 
 30 H        1.1760    -2.7940     0.5260 H     1 <1>   0.0800 
 31 H       -0.4360    -2.3140     1.0130 H     1 <1>   0.0800 
 32 H        3.6360     1.8940     0.5010 H     1 <1>   0.0800 
 33 H        3.6980     1.3960    -1.1690 H     1 <1>   0.0800 
 34 H        1.4040     4.9420    -0.3960 H     1 <1>   0.0800 
 35 H        1.8590     3.9650     0.9680 H     1 <1>   0.0800 
 36 H        0.4800    -2.6530    -1.8590 H     1 <1>   0.0800 
 37 H       -1.1350    -2.2340    -1.3480 H     1 <1>   0.0800 
 38 H        3.6250     3.9330    -0.7760 H     1 <1>   0.0800 
 39 H        2.4780     3.2940    -1.9150 H     1 <1>   0.0800 
 40 H        0.2020    -4.8870    -1.0250 H     1 <1>   0.3700 
 41 H       -2.4550    -6.5740    -1.5050 H     1 <1>   0.0800 
 42 H       -2.7140    -5.9280     1.3950 H     1 <1>   0.0800 
 43 H       -1.1080    -8.6800    -1.4140 H     1 <1>   0.0800 
 44 H        0.3010    -8.6350    -0.3780 H     1 <1>   0.0800 
 45 H       -3.1180    -8.3520     1.9180 H     1 <1>   0.3700 
 46 H       -4.7760    -4.7980     1.1420 H     1 <1>   0.1500 
 47 H       -4.2580    -8.5880    -0.7700 H     1 <1>   0.1500 
 48 H       -7.1440    -4.8330     0.5470 H     1 <1>   0.1500 
 49 H       -6.6250    -8.6020    -1.3640 H     1 <1>   0.1500 
 50 H       -8.0800    -6.7300    -0.7080 H     1 <1>   0.1500 
@<TRIPOS>BOND
  1   1   2  1   
  2   1   3  1   
  3   2   4  2   
  4   2   5  1   
  5   3   6  2   
  6   3   7  1   
  7   4   6  1   
  8   4   8  1   
  9   5   9  1   
 10   5  28  1   
 11   5  29  1   
 12   7  10  1   
 13   7  30  1   
 14   7  31  1   
 15   8  11  1   
 16   8  32  1   
 17   8  33  1   
 18   9  11  1   
 19   9  34  1   
 20   9  35  1   
 21  10  12  1   
 22  10  36  1   
 23  10  37  1   
 24  11  38  1   
 25  11  39  1   
 26  12  13  am  
 27  12  40  1   
 28  13  14  2   
 29  13  15  1   
 30  15  16  1   
 31  15  17  1   
 32  15  41  1   
 33  16  18  1   
 34  17  19  1   
 35  17  20  1   
 36  17  42  1   
 37  18  21  1   
 38  18  43  1   
 39  18  44  1   
 40  19  21  am  
 41  19  45  1   
 42  20  22  ar  
 43  20  23  ar  
 44  21  24  2   
 45  22  25  ar  
 46  22  46  1   
 47  23  26  ar  
 48  23  47  1   
 49  25  27  ar  
 50  25  48  1   
 51  26  27  ar  
 52  26  49  1   
 53  27  50  1   
@<TRIPOS>SUBSTRUCTURE
  1 ****  13 GROUP 4 **** **** 0

# MOE 2024.06 (io_trps.svl 2023.06)
