@<TRIPOS>MOLECULE
NONAME
47 50 1 0 0 
SMALL
USER_CHARGES


@<TRIPOS>ATOM
  1 O       -3.1730    -0.3410    -2.9980 O.2   1 <1>  -0.5700 
  2 C       -2.9900    -0.9200    -1.9640 C.2   1 <1>   0.5690 
  3 N       -2.4510    -0.2790    -0.9130 N.am  1 <1>  -0.7300 
  4 C       -3.4060    -2.3600    -1.8320 C.3   1 <1>  -0.0190 
  5 C       -2.1920    -0.8710     0.4200 C.3   1 <1>   0.2200 
  6 C       -2.2040    -3.2760    -1.5130 C.3   1 <1>   0.1200 
  7 C       -4.6040    -2.4350    -0.8740 C.3   1 <1>   0.3430 
  8 C       -1.2080    -2.0620     0.2990 C.3   1 <1>   0.1200 
  9 C       -3.5310    -1.2370     1.1220 C.3   1 <1>   0.3430 
 10 O       -1.8230    -3.2390    -0.1620 O.3   1 <1>  -0.5600 
 11 N       -4.2280    -2.4610     0.5830 N.4   1 <1>  -0.9590 
 12 C       -5.3370    -2.9210     1.4640 C.3   1 <1>   0.4860 
 13 C       -5.7390    -4.3220     1.0440 C.ar  1 <1>  -0.1440 
 14 C       -6.8660    -4.5390     0.2110 C.ar  1 <1>   0.0000 
 15 C       -4.9680    -5.3730     1.4690 C.ar  1 <1>  -0.1500 
 16 C       -7.1490    -5.8610    -0.2110 C.ar  1 <1>   0.0000 
 17 C       -7.7230    -3.5020    -0.2360 C.ar  1 <1>  -0.1500 
 18 C       -5.2630    -6.6770     1.0730 C.ar  1 <1>  -0.1500 
 19 C       -6.3290    -6.9250     0.2430 C.ar  1 <1>   0.0820 
 20 C       -8.2460    -6.0730    -1.0760 C.ar  1 <1>  -0.1500 
 21 C       -8.7780    -3.7460    -1.0710 C.ar  1 <1>  -0.1500 
 22 O       -6.6480    -8.1750    -0.1800 O.3   1 <1>  -0.3630 
 23 C       -9.0400    -5.0470    -1.5000 C.ar  1 <1>  -0.1500 
 24 C       -5.9710    -9.3270     0.2730 C.3   1 <1>   0.0400 
 25 H       -2.1380     0.6830    -1.0860 H     1 <1>   0.3700 
 26 H       -3.7670    -2.6500    -2.8020 H     1 <1>   0.0800 
 27 H       -1.7100    -0.1100     1.0090 H     1 <1>   0.0800 
 28 H       -1.3520    -3.0200    -2.1220 H     1 <1>   0.0800 
 29 H       -2.4690    -4.2970    -1.7300 H     1 <1>   0.0800 
 30 H       -5.1370    -3.3410    -1.1120 H     1 <1>   0.0800 
 31 H       -5.2680    -1.6090    -1.0700 H     1 <1>   0.0800 
 32 H       -0.8060    -2.2880     1.2720 H     1 <1>   0.0800 
 33 H       -0.3820    -1.8170    -0.3490 H     1 <1>   0.0800 
 34 H       -4.1910    -0.3870     1.0650 H     1 <1>   0.0800 
 35 H       -3.3110    -1.4050     2.1630 H     1 <1>   0.0800 
 36 H       -3.5010    -3.2050     0.6130 H     1 <1>   0.4500 
 37 H       -4.9990    -2.9530     2.4870 H     1 <1>   0.0800 
 38 H       -6.1710    -2.2440     1.4120 H     1 <1>   0.0800 
 39 H       -4.1150    -5.2290     2.1110 H     1 <1>   0.1500 
 40 H       -7.5670    -2.4890     0.0780 H     1 <1>   0.1500 
 41 H       -4.6300    -7.4650     1.4350 H     1 <1>   0.1500 
 42 H       -8.4570    -7.0750    -1.4060 H     1 <1>   0.1500 
 43 H       -9.4230    -2.9510    -1.4060 H     1 <1>   0.1500 
 44 H       -9.8730    -5.2270    -2.1590 H     1 <1>   0.1500 
 45 H       -6.4370   -10.1850    -0.1780 H     1 <1>   0.0800 
 46 H       -6.0580    -9.3860     1.3430 H     1 <1>   0.0800 
 47 H       -4.9410    -9.2710    -0.0300 H     1 <1>   0.0800 
@<TRIPOS>BOND
  1   1   2  2   
  2   2   3  am  
  3   2   4  1   
  4   3   5  1   
  5   3  25  1   
  6   4   6  1   
  7   4   7  1   
  8   4  26  1   
  9   5   8  1   
 10   5   9  1   
 11   5  27  1   
 12   6  10  1   
 13   6  28  1   
 14   6  29  1   
 15   7  11  1   
 16   7  30  1   
 17   7  31  1   
 18   8  10  1   
 19   8  32  1   
 20   8  33  1   
 21   9  11  1   
 22   9  34  1   
 23   9  35  1   
 24  11  12  1   
 25  11  36  1   
 26  12  13  1   
 27  12  37  1   
 28  12  38  1   
 29  13  14  ar  
 30  13  15  ar  
 31  14  16  ar  
 32  14  17  ar  
 33  15  18  ar  
 34  15  39  1   
 35  16  19  ar  
 36  16  20  ar  
 37  17  21  ar  
 38  17  40  1   
 39  18  19  ar  
 40  18  41  1   
 41  19  22  1   
 42  20  23  ar  
 43  20  42  1   
 44  21  23  ar  
 45  21  43  1   
 46  22  24  1   
 47  23  44  1   
 48  24  45  1   
 49  24  46  1   
 50  24  47  1   
@<TRIPOS>SUBSTRUCTURE
  1 ****   7 GROUP 4 **** **** 0

# MOE 2024.06 (io_trps.svl 2023.06)
