@<TRIPOS>MOLECULE
NONAME
45 46 1 0 0 
SMALL
USER_CHARGES


@<TRIPOS>ATOM
  1 O       -1.4620     0.3820     2.4730 O.2   1 <1>  -0.5700 
  2 C       -1.8740     0.7410     1.3920 C.2   1 <1>   0.5690 
  3 N       -2.2210    -0.1870     0.4340 N.am  1 <1>  -0.6600 
  4 C       -2.0100     2.2570     1.1370 C.3   1 <1>   0.1250 
  5 C       -2.2680    -1.6360     0.7840 C.3   1 <1>   0.3200 
  6 C       -2.4260     0.1150    -1.0150 C.3   1 <1>   0.1400 
  7 C       -0.9520     2.7710     0.1570 C.ar  1 <1>  -0.1440 
  8 C       -1.9870     3.0900     2.4410 C.3   1 <1>  -0.1600 
  9 C       -3.7090    -2.1050     0.7920 C.2   1 <1>  -0.3320 
 10 C       -3.8760     0.5070    -1.3280 C.3   1 <1>   0.1200 
 11 C        0.3820     2.4200     0.3110 C.ar  1 <1>  -0.1500 
 12 C       -1.3170     3.5900    -0.9030 C.ar  1 <1>  -0.1500 
 13 C       -2.2920     4.5800     2.2250 C.3   1 <1>  -0.2400 
 14 N       -4.3520    -2.7490    -0.2070 N.pl3 1 <1>   0.0480 
 15 C       -4.6040    -1.9650     1.7940 C.2   1 <1>   0.0770 
 16 O       -4.0630     0.4640    -2.7030 O.3   1 <1>  -0.6800 
 17 C        1.3340     2.8720    -0.5860 C.ar  1 <1>  -0.1500 
 18 C       -0.3660     4.0430    -1.8000 C.ar  1 <1>  -0.1500 
 19 C       -5.6020    -2.9470     0.2670 C.2   1 <1>   0.0360 
 20 C       -3.8540    -3.1460    -1.5370 C.3   1 <1>   0.0160 
 21 N       -5.7950    -2.4940     1.4630 N.2   1 <1>  -0.5650 
 22 C        0.9600     3.6820    -1.6430 C.ar  1 <1>  -0.1500 
 23 H       -2.9800     2.4020     0.7050 H     1 <1>   0.0800 
 24 H       -1.8490    -1.8050     1.7620 H     1 <1>   0.0800 
 25 H       -1.6780    -2.2030     0.0870 H     1 <1>   0.0800 
 26 H       -2.1730    -0.7590    -1.5880 H     1 <1>   0.0800 
 27 H       -1.7620     0.8990    -1.3250 H     1 <1>   0.0800 
 28 H       -1.0210     2.9930     2.9060 H     1 <1>   0.0800 
 29 H       -2.7150     2.6850     3.1230 H     1 <1>   0.0800 
 30 H       -4.1020     1.5010    -0.9880 H     1 <1>   0.0800 
 31 H       -4.5690    -0.1840    -0.8840 H     1 <1>   0.0800 
 32 H        0.6860     1.7930     1.1320 H     1 <1>   0.1500 
 33 H       -2.3430     3.8860    -1.0340 H     1 <1>   0.1500 
 34 H       -1.5330     5.0400     1.6150 H     1 <1>   0.0800 
 35 H       -2.3130     5.0880     3.1730 H     1 <1>   0.0800 
 36 H       -3.2480     4.7070     1.7480 H     1 <1>   0.0800 
 37 H       -4.4470    -1.4980     2.7530 H     1 <1>   0.1500 
 38 H       -3.5940     1.2000    -3.1440 H     1 <1>   0.4000 
 39 H        2.3660     2.5940    -0.4590 H     1 <1>   0.1500 
 40 H       -0.6550     4.6790    -2.6190 H     1 <1>   0.1500 
 41 H       -6.3600    -3.4400    -0.3150 H     1 <1>   0.1500 
 42 H       -2.8320    -3.4670    -1.4620 H     1 <1>   0.0800 
 43 H       -3.9260    -2.3100    -2.2090 H     1 <1>   0.0800 
 44 H       -4.4520    -3.9560    -1.9150 H     1 <1>   0.0800 
 45 H        1.7020     4.0340    -2.3400 H     1 <1>   0.1500 
@<TRIPOS>BOND
  1   1   2  2   
  2   2   3  am  
  3   2   4  1   
  4   3   5  1   
  5   3   6  1   
  6   4   7  1   
  7   4   8  1   
  8   4  23  1   
  9   5   9  1   
 10   5  24  1   
 11   5  25  1   
 12   6  10  1   
 13   6  26  1   
 14   6  27  1   
 15   7  11  ar  
 16   7  12  ar  
 17   8  13  1   
 18   8  28  1   
 19   8  29  1   
 20   9  14  1   
 21   9  15  2   
 22  10  16  1   
 23  10  30  1   
 24  10  31  1   
 25  11  17  ar  
 26  11  32  1   
 27  12  18  ar  
 28  12  33  1   
 29  13  34  1   
 30  13  35  1   
 31  13  36  1   
 32  14  19  1   
 33  14  20  1   
 34  15  21  1   
 35  15  37  1   
 36  16  38  1   
 37  17  22  ar  
 38  17  39  1   
 39  18  22  ar  
 40  18  40  1   
 41  19  21  2   
 42  19  41  1   
 43  20  42  1   
 44  20  43  1   
 45  20  44  1   
 46  22  45  1   
@<TRIPOS>SUBSTRUCTURE
  1 ****   3 GROUP 4 **** **** 0

# MOE 2024.06 (io_trps.svl 2023.06)
