@<TRIPOS>MOLECULE
NONAME
48 51 1 0 0 
SMALL
USER_CHARGES


@<TRIPOS>ATOM
  1 S       -0.3170     0.6690    -1.4760 S.3   1 <1>  -0.0800 
  2 C       -1.6690     0.9480    -0.3810 C.2   1 <1>   0.4620 
  3 C        0.7080     1.6430    -0.4580 C.2   1 <1>  -0.1400 
  4 N       -1.3530     1.6890     0.6210 N.2   1 <1>  -0.5650 
  5 N       -2.9040     0.3880    -0.6460 N.pl3 1 <1>  -0.8220 
  6 C       -0.0290     2.0770     0.5780 C.2   1 <1>   0.0460 
  7 C        2.1480     1.8080    -0.9030 C.3   1 <1>  -0.0600 
  8 C       -3.2210    -0.4750    -1.8160 C.3   1 <1>   0.2090 
  9 C       -4.0280     0.5340     0.3140 C.3   1 <1>   0.2090 
 10 C        0.4340     2.9550     1.7210 C.3   1 <1>  -0.0590 
 11 C       -3.5940    -1.8710    -1.3180 C.3   1 <1>  -0.1600 
 12 C       -4.4090    -0.8480     0.8450 C.3   1 <1>  -0.1600 
 13 C       -4.7430    -1.8300    -0.2960 C.3   1 <1>   0.4240 
 14 O       -5.8170    -1.2680    -1.0220 O.3   1 <1>  -0.5600 
 15 C       -5.0970    -3.2550     0.2270 C.ar  1 <1>  -0.1430 
 16 C       -7.1050    -1.4760    -0.5440 C.3   1 <1>   0.1200 
 17 C       -4.1710    -4.0480     0.9180 C.ar  1 <1>   0.0830 
 18 C       -6.3740    -3.7760     0.0150 C.ar  1 <1>  -0.1430 
 19 C       -7.4280    -2.9530    -0.6970 C.3   1 <1>  -0.0170 
 20 O       -2.9300    -3.5500     1.1600 O.3   1 <1>  -0.3630 
 21 C       -4.5240    -5.3240     1.3530 C.ar  1 <1>  -0.1500 
 22 C       -6.7130    -5.0460     0.4510 C.ar  1 <1>  -0.1500 
 23 C       -1.9460    -4.2490     1.8880 C.3   1 <1>   0.0400 
 24 C       -5.7890    -5.8220     1.1180 C.ar  1 <1>  -0.1500 
 25 H        2.1770     2.2700    -1.8730 H     1 <1>   0.0800 
 26 H        2.6230     0.8460    -0.9610 H     1 <1>   0.0800 
 27 H        2.6930     2.4230    -0.2110 H     1 <1>   0.0800 
 28 H       -2.3900    -0.5440    -2.4930 H     1 <1>   0.0800 
 29 H       -4.0470    -0.0430    -2.3550 H     1 <1>   0.0800 
 30 H       -4.8660     0.9850    -0.1890 H     1 <1>   0.0800 
 31 H       -3.7480     1.1720     1.1340 H     1 <1>   0.0800 
 32 H        1.4700     3.2130     1.6170 H     1 <1>   0.0800 
 33 H        0.2950     2.4340     2.6510 H     1 <1>   0.0800 
 34 H       -0.1510     3.8560     1.7380 H     1 <1>   0.0800 
 35 H       -2.7130    -2.3030    -0.8880 H     1 <1>   0.0800 
 36 H       -3.8830    -2.4900    -2.1460 H     1 <1>   0.0800 
 37 H       -5.2350    -0.7690     1.5230 H     1 <1>   0.0800 
 38 H       -3.5740    -1.2090     1.4130 H     1 <1>   0.0800 
 39 H       -7.7770    -0.8770    -1.1330 H     1 <1>   0.0800 
 40 H       -7.1610    -1.1670     0.4850 H     1 <1>   0.0800 
 41 H       -7.4480    -3.2110    -1.7410 H     1 <1>   0.0800 
 42 H       -8.3990    -3.1470    -0.2790 H     1 <1>   0.0800 
 43 H       -3.8290    -5.9500     1.8770 H     1 <1>   0.1500 
 44 H       -7.7000    -5.4360     0.2720 H     1 <1>   0.1500 
 45 H       -1.0740    -3.6240     1.9520 H     1 <1>   0.0800 
 46 H       -1.7060    -5.1590     1.3670 H     1 <1>   0.0800 
 47 H       -2.3210    -4.4540     2.8750 H     1 <1>   0.0800 
 48 H       -6.0550    -6.8090     1.4540 H     1 <1>   0.1500 
@<TRIPOS>BOND
  1   1   2  1   
  2   1   3  1   
  3   2   4  2   
  4   2   5  1   
  5   3   6  2   
  6   3   7  1   
  7   4   6  1   
  8   5   8  1   
  9   5   9  1   
 10   6  10  1   
 11   7  25  1   
 12   7  26  1   
 13   7  27  1   
 14   8  11  1   
 15   8  28  1   
 16   8  29  1   
 17   9  12  1   
 18   9  30  1   
 19   9  31  1   
 20  10  32  1   
 21  10  33  1   
 22  10  34  1   
 23  11  13  1   
 24  11  35  1   
 25  11  36  1   
 26  12  13  1   
 27  12  37  1   
 28  12  38  1   
 29  13  14  1   
 30  13  15  1   
 31  14  16  1   
 32  15  17  ar  
 33  15  18  ar  
 34  16  19  1   
 35  16  39  1   
 36  16  40  1   
 37  17  20  1   
 38  17  21  ar  
 39  18  19  1   
 40  18  22  ar  
 41  19  41  1   
 42  19  42  1   
 43  20  23  1   
 44  21  24  ar  
 45  21  43  1   
 46  22  24  ar  
 47  22  44  1   
 48  23  45  1   
 49  23  46  1   
 50  23  47  1   
 51  24  48  1   
@<TRIPOS>SUBSTRUCTURE
  1 ****  12 GROUP 4 **** **** 0

# MOE 2024.06 (io_trps.svl 2023.06)
