@<TRIPOS>MOLECULE
NONAME
50 52 1 0 0 
SMALL
USER_CHARGES


@<TRIPOS>ATOM
  1 S        0.6400    -0.9940    -0.8460 S.o2  1 <1>   1.5010 
  2 O        1.5380    -2.1170    -1.0260 O.2   1 <1>  -0.6500 
  3 O       -0.2870    -0.7090    -1.9220 O.2   1 <1>  -0.6500 
  4 N       -0.2910    -1.3630     0.5320 N.am  1 <1>  -0.8490 
  5 C        1.6310     0.4890    -0.3870 C.2   1 <1>   0.1640 
  6 C       -0.8710    -2.7220     0.4960 C.3   1 <1>   0.1960 
  7 C       -1.3510    -0.3790     0.8410 C.3   1 <1>   0.1960 
  8 N        1.1150     1.7350    -0.1600 N.2   1 <1>  -0.5650 
  9 C        2.9770     0.5410    -0.2040 C.2   1 <1>  -0.3020 
 10 C       -2.1420    -2.8180    -0.3750 C.3   1 <1>   0.3430 
 11 C       -2.6560    -0.5540     0.0130 C.3   1 <1>   0.2000 
 12 C        2.1320     2.4740     0.1360 C.2   1 <1>   0.0060 
 13 N        3.2990     1.8020     0.1270 N.pl3 1 <1>   0.0330 
 14 O       -3.0850    -1.8870     0.0820 O.3   1 <1>  -0.5600 
 15 C       -2.7340    -4.2230    -0.3000 C.ar  1 <1>  -0.1430 
 16 C       -3.8100     0.3480     0.5120 C.3   1 <1>  -0.0800 
 17 C        2.0370     3.9530     0.4650 C.3   1 <1>   0.0200 
 18 C       -2.3690    -5.1690    -1.2470 C.ar  1 <1>  -0.1500 
 19 C       -3.6210    -4.5840     0.7050 C.ar  1 <1>  -0.1500 
 20 C       -5.0960     0.1170    -0.3000 C.3   1 <1>  -0.2400 
 21 C       -3.4470     1.8420     0.4410 C.3   1 <1>  -0.2400 
 22 C        2.6900     4.8110    -0.6230 C.3   1 <1>  -0.2400 
 23 C       -2.8790    -6.4550    -1.1900 C.ar  1 <1>  -0.1500 
 24 C       -4.1330    -5.8690     0.7640 C.ar  1 <1>  -0.1500 
 25 C       -3.7610    -6.8060    -0.1840 C.ar  1 <1>  -0.1500 
 26 H       -0.1430    -3.4340     0.1480 H     1 <1>   0.0800 
 27 H       -1.1350    -3.0120     1.4980 H     1 <1>   0.0800 
 28 H       -1.6070    -0.4760     1.8820 H     1 <1>   0.0800 
 29 H       -0.9730     0.6170     0.7050 H     1 <1>   0.0800 
 30 H        3.6970    -0.2530    -0.2960 H     1 <1>   0.1500 
 31 H       -1.9150    -2.5880    -1.4010 H     1 <1>   0.0800 
 32 H       -2.4740    -0.3190    -1.0200 H     1 <1>   0.0800 
 33 H        4.2300     2.1820     0.3270 H     1 <1>   0.2700 
 34 H       -4.0100     0.1000     1.5410 H     1 <1>   0.0800 
 35 H        0.9990     4.2230     0.5520 H     1 <1>   0.0800 
 36 H        2.5060     4.1410     1.4150 H     1 <1>   0.0800 
 37 H       -1.6830    -4.9100    -2.0360 H     1 <1>   0.1500 
 38 H       -3.9190    -3.8610     1.4450 H     1 <1>   0.1500 
 39 H       -4.9290     0.3310    -1.3400 H     1 <1>   0.0800 
 40 H       -5.8890     0.7470     0.0610 H     1 <1>   0.0800 
 41 H       -5.4190    -0.9060    -0.2110 H     1 <1>   0.0800 
 42 H       -3.1660     2.1140    -0.5610 H     1 <1>   0.0800 
 43 H       -2.6350     2.0780     1.1040 H     1 <1>   0.0800 
 44 H       -4.2900     2.4430     0.7330 H     1 <1>   0.0800 
 45 H        2.2200     4.6170    -1.5710 H     1 <1>   0.0800 
 46 H        3.7390     4.5910    -0.7050 H     1 <1>   0.0800 
 47 H        2.5730     5.8540    -0.3890 H     1 <1>   0.0800 
 48 H       -2.5910    -7.1810    -1.9300 H     1 <1>   0.1500 
 49 H       -4.8210    -6.1380     1.5460 H     1 <1>   0.1500 
 50 H       -4.1590    -7.8050    -0.1390 H     1 <1>   0.1500 
@<TRIPOS>BOND
  1   1   2  2   
  2   1   3  2   
  3   1   4  am  
  4   1   5  1   
  5   4   6  1   
  6   4   7  1   
  7   5   8  1   
  8   5   9  2   
  9   6  10  1   
 10   6  26  1   
 11   6  27  1   
 12   7  11  1   
 13   7  28  1   
 14   7  29  1   
 15   8  12  2   
 16   9  13  1   
 17   9  30  1   
 18  10  14  1   
 19  10  15  1   
 20  10  31  1   
 21  11  14  1   
 22  11  16  1   
 23  11  32  1   
 24  12  13  1   
 25  12  17  1   
 26  13  33  1   
 27  15  18  ar  
 28  15  19  ar  
 29  16  20  1   
 30  16  21  1   
 31  16  34  1   
 32  17  22  1   
 33  17  35  1   
 34  17  36  1   
 35  18  23  ar  
 36  18  37  1   
 37  19  24  ar  
 38  19  38  1   
 39  20  39  1   
 40  20  40  1   
 41  20  41  1   
 42  21  42  1   
 43  21  43  1   
 44  21  44  1   
 45  22  45  1   
 46  22  46  1   
 47  22  47  1   
 48  23  25  ar  
 49  23  48  1   
 50  24  25  ar  
 51  24  49  1   
 52  25  50  1   
@<TRIPOS>SUBSTRUCTURE
  1 ****   4 GROUP 4 **** **** 0

# MOE 2024.06 (io_trps.svl 2023.06)
