@<TRIPOS>MOLECULE
NONAME
49 52 1 0 0 
SMALL
USER_CHARGES


@<TRIPOS>ATOM
  1 S        0.5100    -0.0360     0.7110 S.3   1 <1>  -0.0800 
  2 C       -0.8180     1.0120     0.2350 C.2   1 <1>  -0.1400 
  3 C       -0.5370    -1.4480     0.6400 C.2   1 <1>  -0.1100 
  4 C       -1.9420     0.3030     0.0630 C.2   1 <1>  -0.1810 
  5 C       -0.6590     2.5190     0.0580 C.3   1 <1>   0.4600 
  6 C       -1.7890    -1.1020     0.2850 C.2   1 <1>  -0.1500 
  7 C       -3.2170     1.0120    -0.3330 C.3   1 <1>   0.0210 
  8 O       -1.8630     3.0340    -0.4840 O.3   1 <1>  -0.5600 
  9 C        0.4420     2.8350    -0.9550 C.3   1 <1>  -0.1600 
 10 C       -0.3690     3.2120     1.3940 C.3   1 <1>  -0.1600 
 11 C       -3.0810     2.5120    -0.0060 C.3   1 <1>   0.1200 
 12 C        0.6440     4.3410    -1.1200 C.3   1 <1>   0.2090 
 13 C       -0.1920     4.7180     1.2130 C.3   1 <1>   0.2090 
 14 N        0.8580     4.9850     0.2020 N.pl3 1 <1>  -0.8380 
 15 C        2.1410     5.2340     0.6320 C.ar  1 <1>   0.4100 
 16 N        2.9190     4.1860     0.8080 N.ar  1 <1>  -0.6200 
 17 C        2.6000     6.5220     0.8780 C.ar  1 <1>  -0.1430 
 18 C        4.1380     4.4350     1.2330 C.ar  1 <1>   0.4770 
 19 C        3.8930     6.6440     1.3140 C.ar  1 <1>   0.1600 
 20 C        1.7300     7.7570     0.6690 C.3   1 <1>  -0.0170 
 21 N        4.6840     5.6070     1.5010 N.ar  1 <1>  -0.6200 
 22 C        5.0280     3.2330     1.4360 C.3   1 <1>  -0.0970 
 23 C        1.7780     8.2110    -0.7940 C.3   1 <1>  -0.1600 
 24 C        0.9210     9.4600    -1.0250 C.3   1 <1>  -0.2400 
 25 H       -0.0960    -2.4000     0.8740 H     1 <1>   0.1500 
 26 H       -2.6180    -1.7790     0.1700 H     1 <1>   0.1500 
 27 H       -4.0510     0.6040     0.2090 H     1 <1>   0.0800 
 28 H       -3.3950     0.8810    -1.3850 H     1 <1>   0.0800 
 29 H        0.1950     2.3910    -1.9010 H     1 <1>   0.0800 
 30 H        1.3690     2.4050    -0.6260 H     1 <1>   0.0800 
 31 H        0.5400     2.8130     1.8050 H     1 <1>   0.0800 
 32 H       -1.1530     3.0110     2.0980 H     1 <1>   0.0800 
 33 H       -3.1250     2.6690     1.0570 H     1 <1>   0.0800 
 34 H       -3.8780     3.0660    -0.4690 H     1 <1>   0.0800 
 35 H       -0.2230     4.7790    -1.5850 H     1 <1>   0.0800 
 36 H        1.4960     4.5260    -1.7520 H     1 <1>   0.0800 
 37 H        0.0880     5.1660     2.1520 H     1 <1>   0.0800 
 38 H       -1.1160     5.1640     0.8860 H     1 <1>   0.0800 
 39 H        4.3030     7.6180     1.5170 H     1 <1>   0.1500 
 40 H        2.0760     8.5530     1.3050 H     1 <1>   0.0800 
 41 H        0.7150     7.5390     0.9480 H     1 <1>   0.0800 
 42 H        4.4400     2.3350     1.4850 H     1 <1>   0.0800 
 43 H        5.5790     3.3400     2.3510 H     1 <1>   0.0800 
 44 H        5.7150     3.1590     0.6150 H     1 <1>   0.0800 
 45 H        1.4190     7.4130    -1.4220 H     1 <1>   0.0800 
 46 H        2.7970     8.4180    -1.0730 H     1 <1>   0.0800 
 47 H       -0.1070     9.2610    -0.7760 H     1 <1>   0.0800 
 48 H        0.9700     9.7530    -2.0590 H     1 <1>   0.0800 
 49 H        1.2740    10.2780    -0.4210 H     1 <1>   0.0800 
@<TRIPOS>BOND
  1   1   2  1   
  2   1   3  1   
  3   2   4  2   
  4   2   5  1   
  5   3   6  2   
  6   3  25  1   
  7   4   6  1   
  8   4   7  1   
  9   5   8  1   
 10   5   9  1   
 11   5  10  1   
 12   6  26  1   
 13   7  11  1   
 14   7  27  1   
 15   7  28  1   
 16   8  11  1   
 17   9  12  1   
 18   9  29  1   
 19   9  30  1   
 20  10  13  1   
 21  10  31  1   
 22  10  32  1   
 23  11  33  1   
 24  11  34  1   
 25  12  14  1   
 26  12  35  1   
 27  12  36  1   
 28  13  14  1   
 29  13  37  1   
 30  13  38  1   
 31  14  15  1   
 32  15  16  ar  
 33  15  17  ar  
 34  16  18  ar  
 35  17  19  ar  
 36  17  20  1   
 37  18  21  ar  
 38  18  22  1   
 39  19  21  ar  
 40  19  39  1   
 41  20  23  1   
 42  20  40  1   
 43  20  41  1   
 44  22  42  1   
 45  22  43  1   
 46  22  44  1   
 47  23  24  1   
 48  23  45  1   
 49  23  46  1   
 50  24  47  1   
 51  24  48  1   
 52  24  49  1   
@<TRIPOS>SUBSTRUCTURE
  1 ****  14 GROUP 4 **** **** 0

# MOE 2024.06 (io_trps.svl 2023.06)
