@<TRIPOS>MOLECULE
NONAME
54 56 1 0 0 
SMALL
USER_CHARGES


@<TRIPOS>ATOM
  1 O        0.1670    -0.5090    -0.6920 O.3   1 <1>  -0.6800 
  2 C        1.3580    -0.5260     0.0200 C.3   1 <1>   0.2000 
  3 C        2.4010     0.4660    -0.5920 C.3   1 <1>   0.4230 
  4 C        1.8520    -1.9780    -0.0090 C.3   1 <1>  -0.1600 
  5 N        2.0680     1.9430    -0.5590 N.4   1 <1>  -0.9590 
  6 C        3.7550     0.2860     0.1240 C.3   1 <1>  -0.1600 
  7 C        3.2070    -2.1210     0.6930 C.3   1 <1>  -0.1600 
  8 C        2.8890     2.6960    -1.5480 C.3   1 <1>   0.4860 
  9 C        0.6360     2.3320    -0.7310 C.3   1 <1>   0.3430 
 10 C        4.2430    -1.1700     0.0860 C.3   1 <1>  -0.1600 
 11 C        3.0170     4.1270    -1.0640 C.ar  1 <1>  -0.1430 
 12 C       -0.0410     2.5240     0.6320 C.3   1 <1>  -0.1600 
 13 C        3.8350     4.4240     0.0160 C.ar  1 <1>  -0.1500 
 14 C        2.3210     5.1510    -1.6900 C.ar  1 <1>  -0.1500 
 15 C        0.6610     3.5500     1.5380 C.3   1 <1>  -0.2400 
 16 C        3.9420     5.7250     0.4720 C.ar  1 <1>  -0.1500 
 17 C        2.4310     6.4520    -1.2330 C.ar  1 <1>  -0.1500 
 18 C        3.2410     6.7480    -0.1480 C.ar  1 <1>  -0.1430 
 19 C        3.3710     8.1800     0.3660 C.3   1 <1>   0.2390 
 20 N        4.7790     8.6320     0.3490 N.pl3 1 <1>   0.3140 
 21 N        5.4880     8.8000     1.4840 N.2   1 <1>  -0.7070 
 22 C        5.5200     8.9360    -0.7360 C.2   1 <1>  -0.3020 
 23 C        6.6570     9.2060     1.0900 C.2   1 <1>   0.1390 
 24 C        6.7380     9.3110    -0.2930 C.2   1 <1>  -0.1500 
 25 H       -0.4260    -1.2260    -0.3840 H     1 <1>   0.4000 
 26 H        1.1490    -0.2520     1.0400 H     1 <1>   0.0800 
 27 H        2.5280     0.1650    -1.6190 H     1 <1>   0.0800 
 28 H        1.1400    -2.6180     0.4840 H     1 <1>   0.0800 
 29 H        1.9540    -2.3060    -1.0300 H     1 <1>   0.0800 
 30 H        2.3330     2.3110     0.3600 H     1 <1>   0.4500 
 31 H        4.5180     0.8910    -0.3290 H     1 <1>   0.0800 
 32 H        3.6570     0.5850     1.1540 H     1 <1>   0.0800 
 33 H        3.0960    -1.9120     1.7440 H     1 <1>   0.0800 
 34 H        3.5550    -3.1360     0.6000 H     1 <1>   0.0800 
 35 H        3.8750     2.2720    -1.6310 H     1 <1>   0.0800 
 36 H        2.4260     2.6660    -2.5200 H     1 <1>   0.0800 
 37 H        0.5780     3.2730    -1.2520 H     1 <1>   0.0800 
 38 H        0.1070     1.6060    -1.3250 H     1 <1>   0.0800 
 39 H        4.4430    -1.4610    -0.9320 H     1 <1>   0.0800 
 40 H        5.1670    -1.2560     0.6340 H     1 <1>   0.0800 
 41 H       -1.0440     2.8680     0.4470 H     1 <1>   0.0800 
 42 H       -0.1310     1.5850     1.1460 H     1 <1>   0.0800 
 43 H        4.4030     3.6570     0.5150 H     1 <1>   0.1500 
 44 H        1.6880     4.9520    -2.5390 H     1 <1>   0.1500 
 45 H        0.7910     4.4870     1.0230 H     1 <1>   0.0800 
 46 H        1.6210     3.2000     1.8710 H     1 <1>   0.0800 
 47 H        0.0580     3.7320     2.4110 H     1 <1>   0.0800 
 48 H        4.5830     5.9470     1.3120 H     1 <1>   0.1500 
 49 H        1.8830     7.2350    -1.7300 H     1 <1>   0.1500 
 50 H        3.0120     8.2360     1.3770 H     1 <1>   0.0800 
 51 H        2.7950     8.8550    -0.2380 H     1 <1>   0.0800 
 52 H        5.1480     8.8680    -1.7420 H     1 <1>   0.1500 
 53 H        7.4640     9.4330     1.7660 H     1 <1>   0.1500 
 54 H        7.5990     9.6250    -0.8560 H     1 <1>   0.1500 
@<TRIPOS>BOND
  1   1   2  1   
  2   1  25  1   
  3   2   3  1   
  4   2   4  1   
  5   2  26  1   
  6   3   5  1   
  7   3   6  1   
  8   3  27  1   
  9   4   7  1   
 10   4  28  1   
 11   4  29  1   
 12   5   8  1   
 13   5   9  1   
 14   5  30  1   
 15   6  10  1   
 16   6  31  1   
 17   6  32  1   
 18   7  10  1   
 19   7  33  1   
 20   7  34  1   
 21   8  11  1   
 22   8  35  1   
 23   8  36  1   
 24   9  12  1   
 25   9  37  1   
 26   9  38  1   
 27  10  39  1   
 28  10  40  1   
 29  11  13  ar  
 30  11  14  ar  
 31  12  15  1   
 32  12  41  1   
 33  12  42  1   
 34  13  16  ar  
 35  13  43  1   
 36  14  17  ar  
 37  14  44  1   
 38  15  45  1   
 39  15  46  1   
 40  15  47  1   
 41  16  18  ar  
 42  16  48  1   
 43  17  18  ar  
 44  17  49  1   
 45  18  19  1   
 46  19  20  1   
 47  19  50  1   
 48  19  51  1   
 49  20  21  1   
 50  20  22  1   
 51  21  23  2   
 52  22  24  2   
 53  22  52  1   
 54  23  24  1   
 55  23  53  1   
 56  24  54  1   
@<TRIPOS>SUBSTRUCTURE
  1 ****  13 GROUP 4 **** **** 0

# MOE 2024.06 (io_trps.svl 2023.06)
