@<TRIPOS>MOLECULE
NONAME
49 51 1 0 0 
SMALL
USER_CHARGES


@<TRIPOS>ATOM
  1 S        0.2960     0.3780     1.8810 S.o2  1 <1>   1.4470 
  2 O       -0.1970    -0.3610     3.0230 O.2   1 <1>  -0.6500 
  3 O        0.6470     1.7750     2.0320 O.2   1 <1>  -0.6500 
  4 N       -0.8910     0.3000     0.6740 N.am  1 <1>  -0.8490 
  5 C        1.6820    -0.5340     1.1490 C.ar  1 <1>  -0.0090 
  6 C       -2.2080     0.6990     1.1970 C.3   1 <1>   0.1960 
  7 C       -0.5420     1.1110    -0.4940 C.3   1 <1>   0.1960 
  8 C        2.9490     0.0300     1.0610 C.ar  1 <1>  -0.1500 
  9 C        1.5050    -1.8200     0.6570 C.ar  1 <1>  -0.1500 
 10 C       -3.3340     0.4310     0.1690 C.3   1 <1>   0.0000 
 11 C       -1.5500     0.8680    -1.6190 C.3   1 <1>  -0.1600 
 12 C        4.0150    -0.6590     0.4920 C.ar  1 <1>   0.0830 
 13 C        2.5510    -2.5240     0.0870 C.ar  1 <1>  -0.1500 
 14 C       -4.7150     0.9100     0.6620 C.3   1 <1>   0.2000 
 15 C       -2.9900     1.1510    -1.1600 C.3   1 <1>  -0.1600 
 16 C       -3.5590    -1.0780    -0.0640 C.3   1 <1>  -0.1600 
 17 O        5.2640    -0.1200     0.3950 O.3   1 <1>  -0.3630 
 18 C        3.8150    -1.9510    -0.0020 C.ar  1 <1>   0.0830 
 19 O       -4.8880     0.5960     1.9980 O.3   1 <1>  -0.6800 
 20 C       -5.7280     0.0850    -0.1270 C.3   1 <1>  -0.1600 
 21 C       -5.0400    -1.2530    -0.4340 C.3   1 <1>  -0.1600 
 22 C        5.5810     1.1360     0.9510 C.3   1 <1>   0.0400 
 23 O        4.8780    -2.6010    -0.5550 O.3   1 <1>  -0.3630 
 24 C        4.7750    -3.9200    -1.0410 C.3   1 <1>   0.0400 
 25 H       -2.4170     0.1450     2.0960 H     1 <1>   0.0800 
 26 H       -2.1950     1.7450     1.4590 H     1 <1>   0.0800 
 27 H       -0.5350     2.1570    -0.2280 H     1 <1>   0.0800 
 28 H        0.4410     0.8470    -0.8450 H     1 <1>   0.0800 
 29 H        3.0810     1.0240     1.4470 H     1 <1>   0.1500 
 30 H        0.5290    -2.2740     0.7210 H     1 <1>   0.1500 
 31 H       -1.3090     1.5030    -2.4520 H     1 <1>   0.0800 
 32 H       -1.4560    -0.1500    -1.9540 H     1 <1>   0.0800 
 33 H        2.3600    -3.5150    -0.2790 H     1 <1>   0.1500 
 34 H       -4.8610     1.9710     0.5500 H     1 <1>   0.0800 
 35 H       -3.6730     0.8640    -1.9400 H     1 <1>   0.0800 
 36 H       -3.0910     2.2130    -1.0160 H     1 <1>   0.0800 
 37 H       -2.9120    -1.4830    -0.8200 H     1 <1>   0.0800 
 38 H       -3.3660    -1.6140     0.8500 H     1 <1>   0.0800 
 39 H       -4.8870    -0.3750     2.0990 H     1 <1>   0.4000 
 40 H       -6.6570    -0.0380     0.4040 H     1 <1>   0.0800 
 41 H       -5.9360     0.5900    -1.0540 H     1 <1>   0.0800 
 42 H       -5.4760    -2.0490     0.1450 H     1 <1>   0.0800 
 43 H       -5.1440    -1.4900    -1.4790 H     1 <1>   0.0800 
 44 H        6.6270     1.3200     0.7800 H     1 <1>   0.0800 
 45 H        5.3840     1.1110     2.0080 H     1 <1>   0.0800 
 46 H        4.9940     1.8940     0.4640 H     1 <1>   0.0800 
 47 H        5.7420    -4.2130    -1.4090 H     1 <1>   0.0800 
 48 H        4.0570    -3.9440    -1.8400 H     1 <1>   0.0800 
 49 H        4.4810    -4.5670    -0.2340 H     1 <1>   0.0800 
@<TRIPOS>BOND
  1   1   2  2   
  2   1   3  2   
  3   1   4  am  
  4   1   5  1   
  5   4   6  1   
  6   4   7  1   
  7   5   8  ar  
  8   5   9  ar  
  9   6  10  1   
 10   6  25  1   
 11   6  26  1   
 12   7  11  1   
 13   7  27  1   
 14   7  28  1   
 15   8  12  ar  
 16   8  29  1   
 17   9  13  ar  
 18   9  30  1   
 19  10  14  1   
 20  10  15  1   
 21  10  16  1   
 22  11  15  1   
 23  11  31  1   
 24  11  32  1   
 25  12  17  1   
 26  12  18  ar  
 27  13  18  ar  
 28  13  33  1   
 29  14  19  1   
 30  14  20  1   
 31  14  34  1   
 32  15  35  1   
 33  15  36  1   
 34  16  21  1   
 35  16  37  1   
 36  16  38  1   
 37  17  22  1   
 38  18  23  1   
 39  19  39  1   
 40  20  21  1   
 41  20  40  1   
 42  20  41  1   
 43  21  42  1   
 44  21  43  1   
 45  22  44  1   
 46  22  45  1   
 47  22  46  1   
 48  23  24  1   
 49  24  47  1   
 50  24  48  1   
 51  24  49  1   
@<TRIPOS>SUBSTRUCTURE
  1 ****   4 GROUP 4 **** **** 0

# MOE 2024.06 (io_trps.svl 2023.06)
