@<TRIPOS>MOLECULE
NONAME
52 54 1 0 0 
SMALL
USER_CHARGES


@<TRIPOS>ATOM
  1 O        0.0360     0.3390    -0.6790 O.2   1 <1>  -0.5700 
  2 C        0.2800     1.4930    -0.3730 C.2   1 <1>   0.5440 
  3 N       -0.7020     2.2490     0.2310 N.am  1 <1>  -0.6600 
  4 C        1.5850     2.0340    -0.6730 C.ar  1 <1>   0.0860 
  5 C       -2.0890     1.7100     0.4170 C.3   1 <1>   0.1400 
  6 C       -0.4640     3.6580     0.6690 C.3   1 <1>   0.1400 
  7 C        2.5760     2.2660     0.2950 C.ar  1 <1>   0.0830 
  8 C        1.8760     2.3630    -1.9970 C.ar  1 <1>  -0.1500 
  9 C       -3.1650     2.7950     0.1610 C.3   1 <1>   0.0000 
 10 C       -1.5260     4.1110     1.6760 C.3   1 <1>  -0.1600 
 11 O        2.3940     1.9440     1.6060 O.3   1 <1>  -0.3630 
 12 C        3.7900     2.8570    -0.0630 C.ar  1 <1>   0.0830 
 13 C        3.0770     2.9420    -2.3520 C.ar  1 <1>  -0.1500 
 14 C       -4.5950     2.2230     0.2570 C.3   1 <1>   0.2000 
 15 C       -2.9650     3.9820     1.1390 C.3   1 <1>  -0.1600 
 16 C       -3.1270     3.2370    -1.3170 C.3   1 <1>  -0.1600 
 17 C        1.9390     0.6550     1.9680 C.3   1 <1>   0.0400 
 18 O        4.7310     3.0630     0.8990 O.3   1 <1>  -0.3630 
 19 C        4.0370     3.2160    -1.3930 C.ar  1 <1>   0.0830 
 20 O       -4.7410     1.2960     1.2750 O.3   1 <1>  -0.6800 
 21 C       -4.9090     1.5760    -1.0940 C.3   1 <1>  -0.1600 
 22 C       -3.8950     2.1580    -2.0860 C.3   1 <1>  -0.1600 
 23 C        5.5780     1.9660     1.1500 C.3   1 <1>   0.0400 
 24 O        5.1650     3.8200    -1.8470 O.3   1 <1>  -0.3630 
 25 C        5.8060     4.8140    -1.0770 C.3   1 <1>   0.0400 
 26 H       -2.2500     0.8760    -0.2420 H     1 <1>   0.0800 
 27 H       -2.1720     1.3500     1.4270 H     1 <1>   0.0800 
 28 H        0.5050     3.7410     1.1290 H     1 <1>   0.0800 
 29 H       -0.4850     4.3020    -0.1930 H     1 <1>   0.0800 
 30 H        1.1360     2.1610    -2.7530 H     1 <1>   0.1500 
 31 H       -1.4200     3.5090     2.5620 H     1 <1>   0.0800 
 32 H       -1.3380     5.1310     1.9620 H     1 <1>   0.0800 
 33 H        3.2790     3.1930    -3.3780 H     1 <1>   0.1500 
 34 H       -5.2930     3.0230     0.4380 H     1 <1>   0.0800 
 35 H       -3.2510     4.9030     0.6620 H     1 <1>   0.0800 
 36 H       -3.6150     3.8570     1.9890 H     1 <1>   0.0800 
 37 H       -3.6500     4.1700    -1.4340 H     1 <1>   0.0800 
 38 H       -2.1300     3.3570    -1.7010 H     1 <1>   0.0800 
 39 H        2.3560     0.4100     2.9270 H     1 <1>   0.0800 
 40 H        2.2620    -0.0600     1.2310 H     1 <1>   0.0800 
 41 H        0.8660     0.6690     2.0360 H     1 <1>   0.0800 
 42 H       -4.2490     0.4820     1.0570 H     1 <1>   0.4000 
 43 H       -4.8060     0.5050    -1.0560 H     1 <1>   0.0800 
 44 H       -5.9120     1.8260    -1.3900 H     1 <1>   0.0800 
 45 H       -3.2120     1.3860    -2.4000 H     1 <1>   0.0800 
 46 H       -4.3780     2.5670    -2.9570 H     1 <1>   0.0800 
 47 H        6.2860     2.2530     1.9050 H     1 <1>   0.0800 
 48 H        6.0890     1.7070     0.2390 H     1 <1>   0.0800 
 49 H        4.9840     1.1390     1.4960 H     1 <1>   0.0800 
 50 H        6.3850     5.4310    -1.7400 H     1 <1>   0.0800 
 51 H        6.4540     4.3400    -0.3640 H     1 <1>   0.0800 
 52 H        5.0610     5.4080    -0.5770 H     1 <1>   0.0800 
@<TRIPOS>BOND
  1   1   2  2   
  2   2   3  am  
  3   2   4  1   
  4   3   5  1   
  5   3   6  1   
  6   4   7  ar  
  7   4   8  ar  
  8   5   9  1   
  9   5  26  1   
 10   5  27  1   
 11   6  10  1   
 12   6  28  1   
 13   6  29  1   
 14   7  11  1   
 15   7  12  ar  
 16   8  13  ar  
 17   8  30  1   
 18   9  14  1   
 19   9  15  1   
 20   9  16  1   
 21  10  15  1   
 22  10  31  1   
 23  10  32  1   
 24  11  17  1   
 25  12  18  1   
 26  12  19  ar  
 27  13  19  ar  
 28  13  33  1   
 29  14  20  1   
 30  14  21  1   
 31  14  34  1   
 32  15  35  1   
 33  15  36  1   
 34  16  22  1   
 35  16  37  1   
 36  16  38  1   
 37  17  39  1   
 38  17  40  1   
 39  17  41  1   
 40  18  23  1   
 41  19  24  1   
 42  20  42  1   
 43  21  22  1   
 44  21  43  1   
 45  21  44  1   
 46  22  45  1   
 47  22  46  1   
 48  23  47  1   
 49  23  48  1   
 50  23  49  1   
 51  24  25  1   
 52  25  50  1   
 53  25  51  1   
 54  25  52  1   
@<TRIPOS>SUBSTRUCTURE
  1 ****   2 GROUP 4 **** **** 0

# MOE 2024.06 (io_trps.svl 2023.06)
