@<TRIPOS>MOLECULE
NONAME
54 57 1 0 0 
SMALL
USER_CHARGES


@<TRIPOS>ATOM
  1 O       -0.9740     0.3000     1.5790 O.2   1 <1>  -0.5700 
  2 C       -1.7690     0.9060     0.8870 C.2   1 <1>   0.5440 
  3 N       -2.7830     0.2010     0.2800 N.am  1 <1>  -0.6600 
  4 C       -1.6390     2.3270     0.7090 C.ar  1 <1>   0.0860 
  5 C       -3.6390     0.7090    -0.8250 C.3   1 <1>   0.1400 
  6 C       -2.9130    -1.2760     0.3920 C.3   1 <1>   0.1400 
  7 C       -0.5490     2.9370     0.1050 C.ar  1 <1>   0.1660 
  8 C       -2.6300     3.1870     1.1410 C.ar  1 <1>   0.1600 
  9 C       -4.6090    -0.4360    -1.1120 C.3   1 <1>   0.2000 
 10 C       -3.7910    -1.6950    -0.7960 C.3   1 <1>  -0.0800 
 11 N       -0.4780     4.2330    -0.0680 N.ar  1 <1>  -0.6200 
 12 C        0.6330     2.1270    -0.3990 C.3   1 <1>  -0.0960 
 13 N       -2.5860     4.4840     0.9770 N.ar  1 <1>  -0.6200 
 14 O       -5.6690    -0.3320    -0.2230 O.3   1 <1>  -0.6800 
 15 C       -4.6390    -2.9610    -0.5430 C.3   1 <1>  -0.0160 
 16 C       -1.5000     4.9670     0.3730 C.ar  1 <1>   0.7200 
 17 C       -3.8780    -4.2830    -0.3740 C.ar  1 <1>  -0.1440 
 18 N       -1.4290     6.3280     0.1880 N.pl3 1 <1>  -0.8380 
 19 C       -4.5780    -5.4440     0.0420 C.ar  1 <1>   0.0000 
 20 C       -2.5400    -4.4240    -0.6170 C.ar  1 <1>  -0.1500 
 21 C       -2.5950     7.2280     0.4160 C.3   1 <1>   0.1290 
 22 C       -0.1690     7.0120    -0.2170 C.3   1 <1>   0.1290 
 23 C       -3.8430    -6.6450     0.2010 C.ar  1 <1>   0.3100 
 24 C       -5.9690    -5.4870     0.3050 C.ar  1 <1>  -0.1500 
 25 C       -1.9100    -5.6610    -0.4330 C.ar  1 <1>   0.1600 
 26 N       -2.5120    -6.7360    -0.0390 N.ar  1 <1>  -0.6200 
 27 C       -4.5110    -7.8050     0.6220 C.ar  1 <1>  -0.1500 
 28 C       -6.5910    -6.6360     0.7120 C.ar  1 <1>  -0.1500 
 29 C       -5.8560    -7.8110     0.8760 C.ar  1 <1>  -0.1500 
 30 H       -4.1630     1.6100    -0.5560 H     1 <1>   0.0800 
 31 H       -3.0240     0.8940    -1.6890 H     1 <1>   0.0800 
 32 H       -1.9460    -1.7480     0.3630 H     1 <1>   0.0800 
 33 H       -3.3900    -1.5140     1.3280 H     1 <1>   0.0800 
 34 H       -3.4910     2.7760     1.6380 H     1 <1>   0.1500 
 35 H       -5.0000    -0.4180    -2.1150 H     1 <1>   0.0800 
 36 H       -3.1510    -1.8690    -1.6420 H     1 <1>   0.0800 
 37 H        0.3030     1.2300    -0.8890 H     1 <1>   0.0800 
 38 H        1.2630     1.8610     0.4310 H     1 <1>   0.0800 
 39 H        1.2110     2.7040    -1.0990 H     1 <1>   0.0800 
 40 H       -5.3140    -0.2170     0.6810 H     1 <1>   0.4000 
 41 H       -5.3270    -3.0770    -1.3620 H     1 <1>   0.0800 
 42 H       -5.2220    -2.7990     0.3460 H     1 <1>   0.0800 
 43 H       -1.9190    -3.6170    -0.9530 H     1 <1>   0.1500 
 44 H       -2.5550     8.0630    -0.2600 H     1 <1>   0.0800 
 45 H       -2.5770     7.5880     1.4300 H     1 <1>   0.0800 
 46 H       -3.5190     6.7020     0.2480 H     1 <1>   0.0800 
 47 H       -0.1150     7.9870     0.2350 H     1 <1>   0.0800 
 48 H       -0.1420     7.1140    -1.2870 H     1 <1>   0.0800 
 49 H        0.6900     6.4460     0.1020 H     1 <1>   0.0800 
 50 H       -6.5610    -4.6000     0.1820 H     1 <1>   0.1500 
 51 H       -0.8530    -5.7200    -0.6320 H     1 <1>   0.1500 
 52 H       -3.9250    -8.6980     0.7380 H     1 <1>   0.1500 
 53 H       -7.6490    -6.6500     0.9090 H     1 <1>   0.1500 
 54 H       -6.3550    -8.7090     1.1980 H     1 <1>   0.1500 
@<TRIPOS>BOND
  1   1   2  2   
  2   2   3  am  
  3   2   4  1   
  4   3   5  1   
  5   3   6  1   
  6   4   7  ar  
  7   4   8  ar  
  8   5   9  1   
  9   5  30  1   
 10   5  31  1   
 11   6  10  1   
 12   6  32  1   
 13   6  33  1   
 14   7  11  ar  
 15   7  12  1   
 16   8  13  ar  
 17   8  34  1   
 18   9  10  1   
 19   9  14  1   
 20   9  35  1   
 21  10  15  1   
 22  10  36  1   
 23  11  16  ar  
 24  12  37  1   
 25  12  38  1   
 26  12  39  1   
 27  13  16  ar  
 28  14  40  1   
 29  15  17  1   
 30  15  41  1   
 31  15  42  1   
 32  16  18  1   
 33  17  19  ar  
 34  17  20  ar  
 35  18  21  1   
 36  18  22  1   
 37  19  23  ar  
 38  19  24  ar  
 39  20  25  ar  
 40  20  43  1   
 41  21  44  1   
 42  21  45  1   
 43  21  46  1   
 44  22  47  1   
 45  22  48  1   
 46  22  49  1   
 47  23  26  ar  
 48  23  27  ar  
 49  24  28  ar  
 50  24  50  1   
 51  25  26  ar  
 52  25  51  1   
 53  27  29  ar  
 54  27  52  1   
 55  28  29  ar  
 56  28  53  1   
 57  29  54  1   
@<TRIPOS>SUBSTRUCTURE
  1 ****   6 GROUP 4 **** **** 0

# MOE 2024.06 (io_trps.svl 2023.06)
