@<TRIPOS>MOLECULE
NONAME
48 50 1 0 0 
SMALL
USER_CHARGES


@<TRIPOS>ATOM
  1 S       -0.3330     0.1290     2.4780 S.3   1 <1>  -0.0800 
  2 C        0.7080     0.1630     1.0790 C.2   1 <1>   0.1980 
  3 C       -0.4970    -1.5870     2.2760 C.2   1 <1>  -0.1100 
  4 N        0.8860    -0.9730     0.5330 N.2   1 <1>  -0.5650 
  5 C        1.3080     1.4990     0.6610 C.3   1 <1>   0.5230 
  6 C        0.2070    -2.0100     1.2000 C.2   1 <1>   0.1410 
  7 N        2.1280     1.3130    -0.5840 N.4   1 <1>  -0.9590 
  8 C        0.3110    -3.3900     0.7300 C.2   1 <1>   0.7160 
  9 C        3.2140     2.3270    -0.7270 C.3   1 <1>   0.2630 
 10 C        1.2670     1.2290    -1.8040 C.3   1 <1>   0.2630 
 11 O        1.3560    -3.7980     0.2550 O.2   1 <1>  -0.5700 
 12 N       -0.7550    -4.2620     0.8040 N.am  1 <1>  -0.6600 
 13 C       -2.1830    -3.8510     0.8230 C.3   1 <1>   0.1400 
 14 C       -0.6390    -5.6880     0.3950 C.3   1 <1>   0.1400 
 15 C       -2.9230    -4.9800     0.1120 C.3   1 <1>   0.2000 
 16 C       -2.0720    -6.2220     0.3560 C.3   1 <1>  -0.0800 
 17 O       -4.1960    -5.1530     0.6260 O.3   1 <1>  -0.6800 
 18 C       -2.2920    -7.3240    -0.6910 C.3   1 <1>   0.0210 
 19 C       -1.3860    -8.5100    -0.4260 C.2   1 <1>   0.1080 
 20 N       -1.4830    -9.2420     0.6400 N.2   1 <1>  -0.7070 
 21 C       -0.3650    -8.9390    -1.2680 C.2   1 <1>  -0.1500 
 22 N       -0.5170   -10.1710     0.5040 N.pl3 1 <1>   0.3000 
 23 C        0.1750   -10.0060    -0.6430 C.2   1 <1>  -0.3320 
 24 C        1.3270   -10.8930    -1.0790 C.3   1 <1>  -0.0600 
 25 H       -1.0990    -2.1230     2.9880 H     1 <1>   0.1500 
 26 H        1.9340     1.8520     1.4630 H     1 <1>   0.0800 
 27 H        0.5240     2.2180     0.4920 H     1 <1>   0.0800 
 28 H        2.5430     0.3680    -0.4620 H     1 <1>   0.4500 
 29 H        2.7950     3.3140    -0.8380 H     1 <1>   0.0800 
 30 H        3.8150     2.1070    -1.5950 H     1 <1>   0.0800 
 31 H        3.8540     2.3160     0.1410 H     1 <1>   0.0800 
 32 H        0.7510     2.1600    -1.9690 H     1 <1>   0.0800 
 33 H        0.5370     0.4420    -1.6900 H     1 <1>   0.0800 
 34 H        1.8690     1.0070    -2.6700 H     1 <1>   0.0800 
 35 H       -2.5140    -3.7710     1.8440 H     1 <1>   0.0800 
 36 H       -2.3260    -2.9180     0.3060 H     1 <1>   0.0800 
 37 H       -0.1820    -5.7420    -0.5790 H     1 <1>   0.0800 
 38 H       -0.0360    -6.2400     1.0980 H     1 <1>   0.0800 
 39 H       -3.0060    -4.7560    -0.9380 H     1 <1>   0.0800 
 40 H       -2.2870    -6.6210     1.3330 H     1 <1>   0.0800 
 41 H       -4.1580    -5.6070     1.4910 H     1 <1>   0.4000 
 42 H       -2.1030    -6.9430    -1.6790 H     1 <1>   0.0800 
 43 H       -3.3130    -7.6580    -0.6520 H     1 <1>   0.0800 
 44 H       -0.0870    -8.4960    -2.2070 H     1 <1>   0.1500 
 45 H       -0.3580   -10.9010     1.2080 H     1 <1>   0.2700 
 46 H        1.7130   -10.5590    -2.0260 H     1 <1>   0.0800 
 47 H        0.9950   -11.9100    -1.1840 H     1 <1>   0.0800 
 48 H        2.1200   -10.8550    -0.3540 H     1 <1>   0.0800 
@<TRIPOS>BOND
  1   1   2  1   
  2   1   3  1   
  3   2   4  2   
  4   2   5  1   
  5   3   6  2   
  6   3  25  1   
  7   4   6  1   
  8   5   7  1   
  9   5  26  1   
 10   5  27  1   
 11   6   8  1   
 12   7   9  1   
 13   7  10  1   
 14   7  28  1   
 15   8  11  2   
 16   8  12  am  
 17   9  29  1   
 18   9  30  1   
 19   9  31  1   
 20  10  32  1   
 21  10  33  1   
 22  10  34  1   
 23  12  13  1   
 24  12  14  1   
 25  13  15  1   
 26  13  35  1   
 27  13  36  1   
 28  14  16  1   
 29  14  37  1   
 30  14  38  1   
 31  15  16  1   
 32  15  17  1   
 33  15  39  1   
 34  16  18  1   
 35  16  40  1   
 36  17  41  1   
 37  18  19  1   
 38  18  42  1   
 39  18  43  1   
 40  19  20  2   
 41  19  21  1   
 42  20  22  1   
 43  21  23  2   
 44  21  44  1   
 45  22  23  1   
 46  22  45  1   
 47  23  24  1   
 48  24  46  1   
 49  24  47  1   
 50  24  48  1   
@<TRIPOS>SUBSTRUCTURE
  1 ****  12 GROUP 4 **** **** 0

# MOE 2024.06 (io_trps.svl 2023.06)
