@<TRIPOS>MOLECULE
NONAME
59 62 1 0 0 
SMALL
USER_CHARGES


@<TRIPOS>ATOM
  1 O        0.7030    -0.3590    -0.8540 O.2   1 <1>  -0.5700 
  2 C        1.7520    -0.9830    -0.8600 C.2   1 <1>   0.7150 
  3 N        2.9260    -0.2960    -1.0770 N.am  1 <1>  -0.6600 
  4 C        1.7240    -2.4150    -0.6460 C.2   1 <1>   0.0550 
  5 C        4.2340    -0.6660    -0.4530 C.3   1 <1>   0.1400 
  6 C        2.9310     1.1070    -1.5960 C.3   1 <1>   0.1400 
  7 O        0.7420    -2.9610     0.0620 O.3   1 <1>  -0.2800 
  8 C        2.5400    -3.4210    -1.0710 C.2   1 <1>  -0.1500 
  9 C        4.6330     0.3310     0.6550 C.3   1 <1>   0.2090 
 10 C        3.2690     2.1060    -0.4780 C.3   1 <1>   0.2090 
 11 C        0.8880    -4.2640     0.0910 C.2   1 <1>  -0.0400 
 12 C        2.0000    -4.6170    -0.5920 C.2   1 <1>  -0.1500 
 13 N        4.5480     1.7540     0.2090 N.pl3 1 <1>  -0.8380 
 14 C       -0.1520    -5.0970     0.8190 C.3   1 <1>   0.5230 
 15 C        5.6960     2.3440    -0.2870 C.ar  1 <1>   0.4100 
 16 N       -1.4890    -4.8660     0.2010 N.4   1 <1>  -0.9590 
 17 N        6.3160     1.6830    -1.2580 N.ar  1 <1>  -0.6200 
 18 C        6.1400     3.5720     0.2210 C.ar  1 <1>  -0.1430 
 19 C       -2.1060    -3.5880     0.6740 C.3   1 <1>   0.3430 
 20 C       -2.3980    -6.0300     0.3890 C.3   1 <1>   0.3430 
 21 C        7.4040     2.2540    -1.7430 C.ar  1 <1>   0.1600 
 22 C        7.2760     4.1460    -0.3040 C.ar  1 <1>  -0.1500 
 23 C        5.3910     4.2750     1.3460 C.3   1 <1>  -0.0970 
 24 C       -3.3990    -3.3240    -0.0970 C.3   1 <1>  -0.1600 
 25 C       -3.6930    -5.8050    -0.3920 C.3   1 <1>  -0.1600 
 26 C        7.9200     3.4620    -1.3140 C.ar  1 <1>  -0.1500 
 27 C       -4.3830    -4.4970     0.0210 C.3   1 <1>  -0.0800 
 28 C       -5.6250    -4.2470    -0.8400 C.3   1 <1>  -0.2400 
 29 H        4.9980    -0.6660    -1.2110 H     1 <1>   0.0800 
 30 H        4.1930    -1.6500    -0.0250 H     1 <1>   0.0800 
 31 H        1.9750     1.3560    -2.0230 H     1 <1>   0.0800 
 32 H        3.6710     1.1920    -2.3730 H     1 <1>   0.0800 
 33 H        3.4280    -3.3340    -1.6750 H     1 <1>   0.1500 
 34 H        5.6380     0.1190     0.9750 H     1 <1>   0.0800 
 35 H        3.9850     0.1950     1.5030 H     1 <1>   0.0800 
 36 H        2.4700     2.1150     0.2430 H     1 <1>   0.0800 
 37 H        3.3470     3.0930    -0.8990 H     1 <1>   0.0800 
 38 H        2.4170    -5.5950    -0.7670 H     1 <1>   0.1500 
 39 H       -0.1700    -4.8310     1.8630 H     1 <1>   0.0800 
 40 H        0.1200    -6.1360     0.7340 H     1 <1>   0.0800 
 41 H       -1.3180    -4.7430    -0.8060 H     1 <1>   0.4500 
 42 H       -1.4330    -2.7600     0.5190 H     1 <1>   0.0800 
 43 H       -2.3230    -3.6530     1.7280 H     1 <1>   0.0800 
 44 H       -2.6270    -6.1500     1.4360 H     1 <1>   0.0800 
 45 H       -1.9230    -6.9330     0.0380 H     1 <1>   0.0800 
 46 H        7.9160     1.7280    -2.5310 H     1 <1>   0.1500 
 47 H        7.6560     5.0870     0.0530 H     1 <1>   0.1500 
 48 H        5.2590     3.5990     2.1720 H     1 <1>   0.0800 
 49 H        4.4220     4.5870     1.0000 H     1 <1>   0.0800 
 50 H        5.9290     5.1380     1.6930 H     1 <1>   0.0800 
 51 H       -3.1600    -3.1360    -1.1300 H     1 <1>   0.0800 
 52 H       -3.8570    -2.4320     0.2930 H     1 <1>   0.0800 
 53 H       -4.3580    -6.6320    -0.2090 H     1 <1>   0.0800 
 54 H       -3.4750    -5.7950    -1.4460 H     1 <1>   0.0800 
 55 H        8.8120     3.8610    -1.7610 H     1 <1>   0.1500 
 56 H       -4.6980    -4.5810     1.0490 H     1 <1>   0.0800 
 57 H       -5.3630    -4.1520    -1.8800 H     1 <1>   0.0800 
 58 H       -6.1200    -3.3420    -0.5310 H     1 <1>   0.0800 
 59 H       -6.3240    -5.0590    -0.7380 H     1 <1>   0.0800 
@<TRIPOS>BOND
  1   1   2  2   
  2   2   3  am  
  3   2   4  1   
  4   3   5  1   
  5   3   6  1   
  6   4   7  1   
  7   4   8  2   
  8   5   9  1   
  9   5  29  1   
 10   5  30  1   
 11   6  10  1   
 12   6  31  1   
 13   6  32  1   
 14   7  11  1   
 15   8  12  1   
 16   8  33  1   
 17   9  13  1   
 18   9  34  1   
 19   9  35  1   
 20  10  13  1   
 21  10  36  1   
 22  10  37  1   
 23  11  12  2   
 24  11  14  1   
 25  12  38  1   
 26  13  15  1   
 27  14  16  1   
 28  14  39  1   
 29  14  40  1   
 30  15  17  ar  
 31  15  18  ar  
 32  16  19  1   
 33  16  20  1   
 34  16  41  1   
 35  17  21  ar  
 36  18  22  ar  
 37  18  23  1   
 38  19  24  1   
 39  19  42  1   
 40  19  43  1   
 41  20  25  1   
 42  20  44  1   
 43  20  45  1   
 44  21  26  ar  
 45  21  46  1   
 46  22  26  ar  
 47  22  47  1   
 48  23  48  1   
 49  23  49  1   
 50  23  50  1   
 51  24  27  1   
 52  24  51  1   
 53  24  52  1   
 54  25  27  1   
 55  25  53  1   
 56  25  54  1   
 57  26  55  1   
 58  27  28  1   
 59  27  56  1   
 60  28  57  1   
 61  28  58  1   
 62  28  59  1   
@<TRIPOS>SUBSTRUCTURE
  1 ****   2 GROUP 4 **** **** 0

# MOE 2024.06 (io_trps.svl 2023.06)
