@<TRIPOS>MOLECULE
NONAME
31 32 1 0 0 
SMALL
USER_CHARGES


@<TRIPOS>ATOM
  1 S        0.6610     0.2090    -1.2200 S.3   1 <1>  -0.2860 
  2 C        0.5160    -0.0420     0.5500 C.2   1 <1>   0.2420 
  3 C        0.0800    -1.4040    -1.9290 C.3   1 <1>   0.0700 
  4 N        0.8710     0.8660     1.4480 N.pl3 1 <1>   0.0330 
  5 N        0.0320    -1.1120     1.0710 N.2   1 <1>  -0.3380 
  6 C       -1.4310    -1.5470    -1.6920 C.3   1 <1>   0.2090 
  7 C        0.5450     0.2540     2.5930 C.2   1 <1>   0.0360 
  8 N        0.0390    -0.9210     2.3890 N.2   1 <1>  -0.3380 
  9 N       -1.8130    -2.9810    -1.5660 N.pl3 1 <1>  -0.8690 
 10 C       -1.9780    -3.7760    -0.4980 C.ar  1 <1>   0.7710 
 11 N       -2.4830    -4.9680    -0.7490 N.ar  1 <1>  -0.6200 
 12 N       -1.6400    -3.3750     0.7430 N.ar  1 <1>  -0.1790 
 13 C       -2.6680    -5.7760     0.2710 C.ar  1 <1>   0.4100 
 14 C       -1.8040    -4.1860     1.8120 C.ar  1 <1>   0.2110 
 15 N       -3.1950    -6.9690    -0.0440 N.pl3 1 <1>  -0.8690 
 16 C       -2.3290    -5.4140     1.5890 C.ar  1 <1>  -0.1500 
 17 C       -3.6090    -8.0990     0.8290 C.3   1 <1>   0.1290 
 18 H        0.6400    -2.1750    -1.4310 H     1 <1>   0.0800 
 19 H        0.3140    -1.3950    -2.9790 H     1 <1>   0.0800 
 20 H        1.2820     1.7880     1.2840 H     1 <1>   0.2700 
 21 H       -1.9630    -1.1060    -2.5190 H     1 <1>   0.0800 
 22 H       -1.7300    -1.0170    -0.8050 H     1 <1>   0.0800 
 23 H        0.6940     0.7040     3.5610 H     1 <1>   0.1500 
 24 H       -2.0810    -3.4290    -2.4510 H     1 <1>   0.4000 
 25 H       -1.2020    -2.4560     0.8480 H     1 <1>   0.4570 
 26 H       -1.5080    -3.8310     2.7870 H     1 <1>   0.1500 
 27 H       -3.3490    -7.1290    -1.0470 H     1 <1>   0.4000 
 28 H       -2.4840    -6.1140     2.3870 H     1 <1>   0.1500 
 29 H       -3.8380    -7.7560     1.8220 H     1 <1>   0.0800 
 30 H       -2.8200    -8.8300     0.8780 H     1 <1>   0.0800 
 31 H       -4.4900    -8.5650     0.4210 H     1 <1>   0.0800 
@<TRIPOS>BOND
  1   1   2  1   
  2   1   3  1   
  3   2   4  1   
  4   2   5  2   
  5   3   6  1   
  6   3  18  1   
  7   3  19  1   
  8   4   7  1   
  9   4  20  1   
 10   5   8  1   
 11   6   9  1   
 12   6  21  1   
 13   6  22  1   
 14   7   8  2   
 15   7  23  1   
 16   9  10  1   
 17   9  24  1   
 18  10  11  ar  
 19  10  12  ar  
 20  11  13  ar  
 21  12  14  ar  
 22  12  25  1   
 23  13  15  1   
 24  13  16  ar  
 25  14  16  ar  
 26  14  26  1   
 27  15  17  1   
 28  15  27  1   
 29  16  28  1   
 30  17  29  1   
 31  17  30  1   
 32  17  31  1   
@<TRIPOS>SUBSTRUCTURE
  1 ****  12 GROUP 4 **** **** 0

# MOE 2024.06 (io_trps.svl 2023.06)
