@<TRIPOS>MOLECULE
NONAME
58 61 1 0 0 
SMALL
USER_CHARGES


@<TRIPOS>ATOM
  1 O       -0.6180     0.6720    -1.3420 O.2   1 <1>  -0.5700 
  2 C       -1.6740     1.0560    -0.8760 C.2   1 <1>   0.5440 
  3 N       -1.7290     2.3120    -0.3080 N.am  1 <1>  -0.6600 
  4 C       -2.8200     0.1780    -0.9220 C.ar  1 <1>   0.0860 
  5 C       -0.6540     3.3270    -0.5330 C.3   1 <1>   0.1400 
  6 C       -2.6490     2.6770     0.8120 C.3   1 <1>   0.1400 
  7 C       -2.6700    -1.1870    -0.6890 C.ar  1 <1>   0.1600 
  8 C       -4.1080     0.6230    -1.2060 C.ar  1 <1>  -0.1500 
  9 C        0.0320     3.6910     0.7930 C.3   1 <1>   0.1200 
 10 C       -1.8480     3.0940     2.0590 C.3   1 <1>   0.1200 
 11 N       -3.6370    -2.0900    -0.6880 N.ar  1 <1>  -0.6200 
 12 C       -5.1250    -0.3000    -1.2170 C.ar  1 <1>  -0.1500 
 13 O       -0.9170     4.0890     1.7430 O.3   1 <1>  -0.5600 
 14 C       -4.8570    -1.6410    -0.9540 C.ar  1 <1>   0.4100 
 15 N       -5.8790    -2.5540    -0.9610 N.pl3 1 <1>  -0.8690 
 16 C       -5.6780    -4.0060    -0.8760 C.3   1 <1>   0.2890 
 17 C       -6.7670    -4.7180    -1.6720 C.3   1 <1>  -0.1600 
 18 C       -5.7200    -4.4220     0.5900 C.3   1 <1>  -0.1600 
 19 C       -6.6080    -6.2290    -1.5360 C.3   1 <1>   0.3430 
 20 C       -5.5650    -5.9320     0.7120 C.3   1 <1>   0.3430 
 21 N       -6.6160    -6.6120    -0.0950 N.4   1 <1>  -0.9590 
 22 C       -6.6110    -8.0950     0.1000 C.3   1 <1>   0.3430 
 23 C       -8.0240    -8.6640    -0.1410 C.3   1 <1>   0.2000 
 24 O       -8.9780    -7.7200     0.2490 O.3   1 <1>  -0.5600 
 25 C       -8.3560    -9.9000     0.6800 C.3   1 <1>  -0.1600 
 26 C      -10.1890    -8.3460     0.5530 C.3   1 <1>   0.1200 
 27 C       -9.8680    -9.8190     0.8020 C.3   1 <1>  -0.1600 
 28 H       -1.0880     4.2130    -0.9600 H     1 <1>   0.0800 
 29 H        0.0820     2.9570    -1.2250 H     1 <1>   0.0800 
 30 H       -3.2830     1.8480     1.0710 H     1 <1>   0.0800 
 31 H       -3.2750     3.4960     0.5050 H     1 <1>   0.0800 
 32 H       -1.6730    -1.5440    -0.4890 H     1 <1>   0.1500 
 33 H       -4.2900     1.6620    -1.4180 H     1 <1>   0.1500 
 34 H        0.7140     4.5090     0.6460 H     1 <1>   0.0800 
 35 H        0.5790     2.8480     1.1780 H     1 <1>   0.0800 
 36 H       -1.3230     2.2490     2.4710 H     1 <1>   0.0800 
 37 H       -2.5090     3.4890     2.8100 H     1 <1>   0.0800 
 38 H       -6.1330     0.0000    -1.4300 H     1 <1>   0.1500 
 39 H       -6.8200    -2.2290    -1.1880 H     1 <1>   0.4000 
 40 H       -4.7170    -4.2600    -1.2950 H     1 <1>   0.0800 
 41 H       -6.6810    -4.4490    -2.7100 H     1 <1>   0.0800 
 42 H       -7.7420    -4.4280    -1.3220 H     1 <1>   0.0800 
 43 H       -6.6440    -4.1120     1.0440 H     1 <1>   0.0800 
 44 H       -4.9110    -3.9450     1.1140 H     1 <1>   0.0800 
 45 H       -5.6790    -6.5360    -1.9900 H     1 <1>   0.0800 
 46 H       -7.4190    -6.7200    -2.0510 H     1 <1>   0.0800 
 47 H       -5.6500    -6.2180     1.7480 H     1 <1>   0.0800 
 48 H       -4.5880    -6.2200     0.3580 H     1 <1>   0.0800 
 49 H       -7.5490    -6.3420     0.2750 H     1 <1>   0.4500 
 50 H       -6.3360    -8.3180     1.1170 H     1 <1>   0.0800 
 51 H       -5.8960    -8.5720    -0.5490 H     1 <1>   0.0800 
 52 H       -8.1790    -8.8640    -1.1880 H     1 <1>   0.0800 
 53 H       -7.9090    -9.8320     1.6570 H     1 <1>   0.0800 
 54 H       -8.0320   -10.8080     0.2020 H     1 <1>   0.0800 
 55 H      -10.8590    -8.2250    -0.2820 H     1 <1>   0.0800 
 56 H      -10.6060    -7.8750     1.4270 H     1 <1>   0.0800 
 57 H      -10.2140   -10.1400     1.7690 H     1 <1>   0.0800 
 58 H      -10.3470   -10.4210     0.0480 H     1 <1>   0.0800 
@<TRIPOS>BOND
  1   1   2  2   
  2   2   3  am  
  3   2   4  1   
  4   3   5  1   
  5   3   6  1   
  6   4   7  ar  
  7   4   8  ar  
  8   5   9  1   
  9   5  28  1   
 10   5  29  1   
 11   6  10  1   
 12   6  30  1   
 13   6  31  1   
 14   7  11  ar  
 15   7  32  1   
 16   8  12  ar  
 17   8  33  1   
 18   9  13  1   
 19   9  34  1   
 20   9  35  1   
 21  10  13  1   
 22  10  36  1   
 23  10  37  1   
 24  11  14  ar  
 25  12  14  ar  
 26  12  38  1   
 27  14  15  1   
 28  15  16  1   
 29  15  39  1   
 30  16  17  1   
 31  16  18  1   
 32  16  40  1   
 33  17  19  1   
 34  17  41  1   
 35  17  42  1   
 36  18  20  1   
 37  18  43  1   
 38  18  44  1   
 39  19  21  1   
 40  19  45  1   
 41  19  46  1   
 42  20  21  1   
 43  20  47  1   
 44  20  48  1   
 45  21  22  1   
 46  21  49  1   
 47  22  23  1   
 48  22  50  1   
 49  22  51  1   
 50  23  24  1   
 51  23  25  1   
 52  23  52  1   
 53  24  26  1   
 54  25  27  1   
 55  25  53  1   
 56  25  54  1   
 57  26  27  1   
 58  26  55  1   
 59  26  56  1   
 60  27  57  1   
 61  27  58  1   
@<TRIPOS>SUBSTRUCTURE
  1 ****  14 GROUP 4 **** **** 0

# MOE 2024.06 (io_trps.svl 2023.06)
