@<TRIPOS>MOLECULE
NONAME
51 53 1 0 0 
SMALL
USER_CHARGES


@<TRIPOS>ATOM
  1 F       -1.7940    -0.5780     0.4560 F     1 <1>  -0.1900 
  2 C       -2.3130     0.5650     0.0830 C.ar  1 <1>   0.1900 
  3 C       -3.2400     0.5570    -0.9490 C.ar  1 <1>  -0.1440 
  4 C       -1.9290     1.7240     0.7410 C.ar  1 <1>  -0.1440 
  5 C       -3.8020     1.7640    -1.3350 C.ar  1 <1>  -0.1500 
  6 C       -3.6210    -0.7410    -1.6300 C.3   1 <1>   0.4870 
  7 C       -2.5080     2.9170     0.3380 C.ar  1 <1>  -0.1500 
  8 C       -0.9070     1.7020     1.8690 C.3   1 <1>  -0.0970 
  9 C       -3.4360     2.9350    -0.6910 C.ar  1 <1>  -0.1500 
 10 N       -4.2540    -1.6450    -0.6240 N.4   1 <1>  -0.9590 
 11 C       -4.4020    -3.0480    -1.1530 C.3   1 <1>   0.3430 
 12 C       -5.5510    -1.0720    -0.1510 C.3   1 <1>   0.3430 
 13 C       -5.0960    -4.0250    -0.1500 C.3   1 <1>   0.4230 
 14 C       -6.1600    -1.9880     0.9150 C.3   1 <1>  -0.1600 
 15 N       -5.2280    -5.4740    -0.6230 N.4   1 <1>  -0.9590 
 16 C       -6.4190    -3.4420     0.4300 C.3   1 <1>   0.0000 
 17 C       -6.1920    -6.2930     0.1920 C.3   1 <1>   0.3430 
 18 C       -5.5650    -5.6390    -2.0790 C.3   1 <1>   0.2630 
 19 C       -6.8340    -4.2960     1.6620 C.3   1 <1>  -0.1600 
 20 C       -7.6030    -3.4420    -0.5810 C.3   1 <1>   0.1200 
 21 C       -6.3160    -5.7490     1.6160 C.3   1 <1>  -0.1600 
 22 O       -7.2310    -2.9120    -1.8090 O.3   1 <1>  -0.6800 
 23 H       -4.5210     1.8160    -2.1370 H     1 <1>   0.1500 
 24 H       -2.7300    -1.1960    -2.0310 H     1 <1>   0.0800 
 25 H       -4.3030    -0.5470    -2.4430 H     1 <1>   0.0800 
 26 H       -2.2390     3.8410     0.8210 H     1 <1>   0.1500 
 27 H       -0.7030     2.6960     2.2250 H     1 <1>   0.0800 
 28 H        0.0160     1.2730     1.5210 H     1 <1>   0.0800 
 29 H       -1.2740     1.1140     2.6910 H     1 <1>   0.0800 
 30 H       -3.8720     3.8740    -0.9930 H     1 <1>   0.1500 
 31 H       -3.5980    -1.6260     0.1740 H     1 <1>   0.4500 
 32 H       -4.9810    -3.0130    -2.0590 H     1 <1>   0.0800 
 33 H       -3.4260    -3.4360    -1.3940 H     1 <1>   0.0800 
 34 H       -5.3890    -0.0910     0.2710 H     1 <1>   0.0800 
 35 H       -6.2330    -0.9680    -0.9790 H     1 <1>   0.0800 
 36 H       -4.4280    -4.0610     0.6950 H     1 <1>   0.0800 
 37 H       -5.4980    -1.9850     1.7640 H     1 <1>   0.0800 
 38 H       -7.0860    -1.5490     1.2470 H     1 <1>   0.0800 
 39 H       -4.3090    -5.9190    -0.4760 H     1 <1>   0.4500 
 40 H       -7.1680    -6.2730    -0.2670 H     1 <1>   0.0800 
 41 H       -5.8670    -7.3210     0.2210 H     1 <1>   0.0800 
 42 H       -6.5180    -5.1870    -2.3010 H     1 <1>   0.0800 
 43 H       -5.6190    -6.6860    -2.3330 H     1 <1>   0.0800 
 44 H       -4.8130    -5.1820    -2.7010 H     1 <1>   0.0800 
 45 H       -6.4670    -3.8600     2.5770 H     1 <1>   0.0800 
 46 H       -7.9080    -4.3070     1.7530 H     1 <1>   0.0800 
 47 H       -8.4210    -2.8520    -0.1990 H     1 <1>   0.0800 
 48 H       -7.9720    -4.4370    -0.7570 H     1 <1>   0.0800 
 49 H       -6.9880    -6.3790     2.1750 H     1 <1>   0.0800 
 50 H       -5.3560    -5.8170     2.1000 H     1 <1>   0.0800 
 51 H       -8.0290    -2.7660    -2.3700 H     1 <1>   0.4000 
@<TRIPOS>BOND
  1   1   2  1   
  2   2   3  ar  
  3   2   4  ar  
  4   3   5  ar  
  5   3   6  1   
  6   4   7  ar  
  7   4   8  1   
  8   5   9  ar  
  9   5  23  1   
 10   6  10  1   
 11   6  24  1   
 12   6  25  1   
 13   7   9  ar  
 14   7  26  1   
 15   8  27  1   
 16   8  28  1   
 17   8  29  1   
 18   9  30  1   
 19  10  11  1   
 20  10  12  1   
 21  10  31  1   
 22  11  13  1   
 23  11  32  1   
 24  11  33  1   
 25  12  14  1   
 26  12  34  1   
 27  12  35  1   
 28  13  15  1   
 29  13  16  1   
 30  13  36  1   
 31  14  16  1   
 32  14  37  1   
 33  14  38  1   
 34  15  17  1   
 35  15  18  1   
 36  15  39  1   
 37  16  19  1   
 38  16  20  1   
 39  17  21  1   
 40  17  40  1   
 41  17  41  1   
 42  18  42  1   
 43  18  43  1   
 44  18  44  1   
 45  19  21  1   
 46  19  45  1   
 47  19  46  1   
 48  20  22  1   
 49  20  47  1   
 50  20  48  1   
 51  21  49  1   
 52  21  50  1   
 53  22  51  1   
@<TRIPOS>SUBSTRUCTURE
  1 ****  10 GROUP 4 **** **** 0

# MOE 2024.06 (io_trps.svl 2023.06)
