@<TRIPOS>MOLECULE
NONAME
42 43 1 0 0 
SMALL
USER_CHARGES


@<TRIPOS>ATOM
  1 F        2.1230     0.6030    -0.0100 F     1 <1>  -0.1900 
  2 C        2.2590    -0.6940     0.0500 C.ar  1 <1>   0.1900 
  3 C        1.6580    -1.4680    -0.9240 C.ar  1 <1>  -0.1500 
  4 C        2.9950    -1.2420     1.0820 C.ar  1 <1>  -0.1500 
  5 C        1.7980    -2.8470    -0.8610 C.ar  1 <1>  -0.1440 
  6 C        3.1350    -2.6180     1.1420 C.ar  1 <1>  -0.1500 
  7 C        2.5370    -3.4220     0.1720 C.ar  1 <1>   0.0830 
  8 C        1.1520    -3.7360    -1.9080 C.3   1 <1>   0.4870 
  9 O        2.6260    -4.7780     0.1770 O.3   1 <1>  -0.3630 
 10 N        0.1390    -4.5940    -1.2500 N.4   1 <1>  -0.9590 
 11 C        3.2890    -5.4780     1.2080 C.3   1 <1>   0.0400 
 12 C       -0.2620    -5.7510    -2.0930 C.3   1 <1>   0.5240 
 13 C       -0.9940    -3.8160    -0.6540 C.3   1 <1>   0.3430 
 14 C       -0.4850    -6.9510    -1.1820 C.2   1 <1>   0.0460 
 15 C       -1.7160    -4.5590     0.4790 C.3   1 <1>   0.1200 
 16 N        0.2750    -7.1170    -0.0760 N.2   1 <1>  -0.5650 
 17 C       -1.3930    -7.9460    -1.2920 C.2   1 <1>  -0.3020 
 18 O       -2.6860    -3.7130     0.9890 O.3   1 <1>  -0.6800 
 19 C       -0.1760    -8.2060     0.4530 C.2   1 <1>   0.0060 
 20 N       -1.1930    -8.7620    -0.2400 N.pl3 1 <1>   0.0330 
 21 C        0.3730    -8.8180     1.7240 C.3   1 <1>  -0.0600 
 22 H        1.1000    -0.9820    -1.7050 H     1 <1>   0.1500 
 23 H        3.4470    -0.6010     1.8190 H     1 <1>   0.1500 
 24 H        3.7110    -3.0390     1.9450 H     1 <1>   0.1500 
 25 H        1.9180    -4.3500    -2.3530 H     1 <1>   0.0800 
 26 H        0.6950    -3.1370    -2.6780 H     1 <1>   0.0800 
 27 H        0.6530    -5.0520    -0.4670 H     1 <1>   0.4500 
 28 H        3.1950    -6.5320     1.0110 H     1 <1>   0.0800 
 29 H        2.8250    -5.2430     2.1500 H     1 <1>   0.0800 
 30 H        4.3290    -5.2000     1.2110 H     1 <1>   0.0800 
 31 H        0.5350    -5.9990    -2.7740 H     1 <1>   0.0800 
 32 H       -1.1510    -5.5320    -2.6590 H     1 <1>   0.0800 
 33 H       -1.7080    -3.5640    -1.4200 H     1 <1>   0.0800 
 34 H       -0.6130    -2.8990    -0.2370 H     1 <1>   0.0800 
 35 H       -1.0300    -4.8040     1.2730 H     1 <1>   0.0800 
 36 H       -2.2090    -5.4460     0.1230 H     1 <1>   0.0800 
 37 H       -2.1500    -8.1270    -2.0350 H     1 <1>   0.1500 
 38 H       -3.1470    -4.1180     1.7540 H     1 <1>   0.4000 
 39 H       -1.6950    -9.6270    -0.0100 H     1 <1>   0.2700 
 40 H        1.1660    -8.2060     2.1140 H     1 <1>   0.0800 
 41 H        0.7660    -9.7980     1.5230 H     1 <1>   0.0800 
 42 H       -0.4010    -8.8920     2.4660 H     1 <1>   0.0800 
@<TRIPOS>BOND
  1   1   2  1   
  2   2   3  ar  
  3   2   4  ar  
  4   3   5  ar  
  5   3  22  1   
  6   4   6  ar  
  7   4  23  1   
  8   5   7  ar  
  9   5   8  1   
 10   6   7  ar  
 11   6  24  1   
 12   7   9  1   
 13   8  10  1   
 14   8  25  1   
 15   8  26  1   
 16   9  11  1   
 17  10  12  1   
 18  10  13  1   
 19  10  27  1   
 20  11  28  1   
 21  11  29  1   
 22  11  30  1   
 23  12  14  1   
 24  12  31  1   
 25  12  32  1   
 26  13  15  1   
 27  13  33  1   
 28  13  34  1   
 29  14  16  1   
 30  14  17  2   
 31  15  18  1   
 32  15  35  1   
 33  15  36  1   
 34  16  19  2   
 35  17  20  1   
 36  17  37  1   
 37  18  38  1   
 38  19  20  1   
 39  19  21  1   
 40  20  39  1   
 41  21  40  1   
 42  21  41  1   
 43  21  42  1   
@<TRIPOS>SUBSTRUCTURE
  1 ****  10 GROUP 4 **** **** 0

# MOE 2024.06 (io_trps.svl 2023.06)
