@<TRIPOS>MOLECULE
NONAME
50 52 1 0 0 
SMALL
USER_CHARGES


@<TRIPOS>ATOM
  1 O        1.1930    -0.0640    -2.2100 O.2   1 <1>  -0.5700 
  2 C        1.7460    -0.8040    -1.4310 C.2   1 <1>   0.5690 
  3 N        2.5940    -0.2890    -0.4740 N.am  1 <1>  -0.6600 
  4 C        1.4740    -2.2940    -1.5830 C.3   1 <1>   0.0810 
  5 C        3.5660    -1.0740     0.3540 C.3   1 <1>   0.1400 
  6 C        2.4570     1.1400    -0.0830 C.3   1 <1>   0.1400 
  7 C        0.6650    -2.8430    -0.4210 C.2   1 <1>  -0.0400 
  8 C        5.0420    -0.7400     0.0450 C.3   1 <1>   0.3430 
  9 C        3.4170     2.0120    -0.8950 C.3   1 <1>  -0.1600 
 10 O        1.2140    -2.9850     0.7550 O.3   1 <1>  -0.0190 
 11 C       -0.6090    -3.2520    -0.3290 C.2   1 <1>  -0.1500 
 12 N        5.3610     0.7310    -0.0200 N.4   1 <1>  -0.9590 
 13 C        4.7460     1.3440    -1.2370 C.3   1 <1>   0.3430 
 14 N        0.3810    -3.4620     1.6290 N.2   1 <1>  -0.4100 
 15 C       -0.7290    -3.6340     1.0040 C.2   1 <1>   0.1080 
 16 C        6.8480     0.9080    -0.0020 C.3   1 <1>   0.3430 
 17 C       -1.9900    -4.1770     1.6410 C.3   1 <1>  -0.0590 
 18 C        7.2840     2.3500     0.2880 C.3   1 <1>   0.0200 
 19 C        8.7980     2.4020     0.3400 C.2   1 <1>   0.0060 
 20 N        9.5350     1.3580     0.1310 N.2   1 <1>  -0.5650 
 21 N        9.5100     3.5270     0.6060 N.pl3 1 <1>   0.0480 
 22 C       10.7930     1.8180     0.2650 C.2   1 <1>   0.0770 
 23 C       10.7940     3.1360     0.5550 C.2   1 <1>  -0.3020 
 24 C        9.0330     4.8930     0.8940 C.3   1 <1>   0.0160 
 25 H        2.3960    -2.8340    -1.6810 H     1 <1>   0.0800 
 26 H        0.9150    -2.4450    -2.4880 H     1 <1>   0.0800 
 27 H        3.4360    -2.1270     0.1920 H     1 <1>   0.0800 
 28 H        3.3650    -0.8960     1.3970 H     1 <1>   0.0800 
 29 H        2.6540     1.2440     0.9710 H     1 <1>   0.0800 
 30 H        1.4430     1.4700    -0.2480 H     1 <1>   0.0800 
 31 H        5.3050    -1.1990    -0.8930 H     1 <1>   0.0800 
 32 H        5.6510    -1.2030     0.8050 H     1 <1>   0.0800 
 33 H        3.5880     2.9370    -0.3740 H     1 <1>   0.0800 
 34 H        2.9290     2.2660    -1.8200 H     1 <1>   0.0800 
 35 H       -1.3800    -3.2890    -1.0770 H     1 <1>   0.1500 
 36 H        4.9600     1.1830     0.8100 H     1 <1>   0.4500 
 37 H        5.4060     2.0790    -1.6680 H     1 <1>   0.0800 
 38 H        4.5760     0.5810    -1.9810 H     1 <1>   0.0800 
 39 H        7.2700     0.5980    -0.9450 H     1 <1>   0.0800 
 40 H        7.2780     0.2790     0.7610 H     1 <1>   0.0800 
 41 H       -2.2830    -5.0870     1.1510 H     1 <1>   0.0800 
 42 H       -2.7810    -3.4560     1.5550 H     1 <1>   0.0800 
 43 H       -1.8170    -4.3820     2.6820 H     1 <1>   0.0800 
 44 H        6.8930     2.6670     1.2370 H     1 <1>   0.0800 
 45 H        6.9440     3.0130    -0.4860 H     1 <1>   0.0800 
 46 H       11.6460     1.1700     0.1450 H     1 <1>   0.1500 
 47 H       11.6260     3.7960     0.7220 H     1 <1>   0.1500 
 48 H        8.4550     5.2540     0.0640 H     1 <1>   0.0800 
 49 H        9.8770     5.5420     1.0460 H     1 <1>   0.0800 
 50 H        8.4320     4.8830     1.7840 H     1 <1>   0.0800 
@<TRIPOS>BOND
  1   1   2  2   
  2   2   3  am  
  3   2   4  1   
  4   3   5  1   
  5   3   6  1   
  6   4   7  1   
  7   4  25  1   
  8   4  26  1   
  9   5   8  1   
 10   5  27  1   
 11   5  28  1   
 12   6   9  1   
 13   6  29  1   
 14   6  30  1   
 15   7  10  1   
 16   7  11  2   
 17   8  12  1   
 18   8  31  1   
 19   8  32  1   
 20   9  13  1   
 21   9  33  1   
 22   9  34  1   
 23  10  14  1   
 24  11  15  1   
 25  11  35  1   
 26  12  13  1   
 27  12  16  1   
 28  12  36  1   
 29  13  37  1   
 30  13  38  1   
 31  14  15  2   
 32  15  17  1   
 33  16  18  1   
 34  16  39  1   
 35  16  40  1   
 36  17  41  1   
 37  17  42  1   
 38  17  43  1   
 39  18  19  1   
 40  18  44  1   
 41  18  45  1   
 42  19  20  2   
 43  19  21  1   
 44  20  22  1   
 45  21  23  1   
 46  21  24  1   
 47  22  23  2   
 48  22  46  1   
 49  23  47  1   
 50  24  48  1   
 51  24  49  1   
 52  24  50  1   
@<TRIPOS>SUBSTRUCTURE
  1 ****   8 GROUP 4 **** **** 0

# MOE 2024.06 (io_trps.svl 2023.06)
