@<TRIPOS>MOLECULE
NONAME
54 57 1 0 0 
SMALL
USER_CHARGES


@<TRIPOS>ATOM
  1 O       -2.8340    -0.2150    -1.9030 O.2   1 <1>  -0.5700 
  2 C       -2.6770     0.3490    -0.8370 C.2   1 <1>   0.5440 
  3 N       -3.0320    -0.3250     0.3120 N.am  1 <1>  -0.6600 
  4 C       -2.1700     1.7090    -0.8050 C.ar  1 <1>   0.0860 
  5 C       -3.8430     0.3200     1.3710 C.3   1 <1>   0.1400 
  6 C       -3.0540    -1.8090     0.3360 C.3   1 <1>   0.1400 
  7 C       -2.4450     2.6220    -1.8130 C.ar  1 <1>  -0.1500 
  8 C       -1.3710     2.1970     0.2200 C.ar  1 <1>  -0.1500 
  9 C       -5.3010    -0.1010     1.1720 C.3   1 <1>  -0.1600 
 10 C       -4.4900    -2.2770     0.1150 C.3   1 <1>  -0.1600 
 11 C       -1.9560     3.9120    -1.7420 C.ar  1 <1>   0.1600 
 12 C       -0.9290     3.5060     0.2000 C.ar  1 <1>   0.1600 
 13 C       -5.4360    -1.6300     1.1400 C.3   1 <1>   0.4230 
 14 N       -1.2100     4.3770    -0.7530 N.ar  1 <1>  -0.6200 
 15 N       -6.8610    -1.9930     0.8950 N.4   1 <1>  -0.9590 
 16 C       -7.4280    -1.6440    -0.4450 C.3   1 <1>   0.3430 
 17 C       -7.1750    -3.4390     1.1280 C.3   1 <1>   0.3430 
 18 C       -8.6110    -2.5960    -0.6150 C.3   1 <1>   0.2000 
 19 C       -8.0860    -3.9010    -0.0220 C.3   1 <1>  -0.0800 
 20 O       -9.6480    -2.1410     0.1910 O.3   1 <1>  -0.6800 
 21 C       -7.3160    -4.7240    -1.0770 C.3   1 <1>  -0.0170 
 22 C       -6.7600    -6.0150    -0.4980 C.ar  1 <1>   0.1670 
 23 N       -5.6190    -5.9140     0.1670 N.ar  1 <1>  -0.6200 
 24 C       -7.4470    -7.2060    -0.6870 C.ar  1 <1>  -0.1500 
 25 C       -5.1380    -7.0500     0.6540 C.ar  1 <1>   0.1600 
 26 C       -6.9390    -8.3760    -0.1670 C.ar  1 <1>  -0.1500 
 27 C       -5.7480    -8.2840     0.5200 C.ar  1 <1>  -0.1500 
 28 H       -3.4830     0.0090     2.3370 H     1 <1>   0.0800 
 29 H       -3.7650     1.3930     1.3100 H     1 <1>   0.0800 
 30 H       -2.4150    -2.2010    -0.4410 H     1 <1>   0.0800 
 31 H       -2.6780    -2.1590     1.2820 H     1 <1>   0.0800 
 32 H       -3.0410     2.3200    -2.6550 H     1 <1>   0.1500 
 33 H       -1.0870     1.5510     1.0310 H     1 <1>   0.1500 
 34 H       -5.6430     0.3290     0.2480 H     1 <1>   0.0800 
 35 H       -5.8880     0.3020     1.9760 H     1 <1>   0.0800 
 36 H       -4.5100    -3.3480     0.2020 H     1 <1>   0.0800 
 37 H       -4.7560    -2.0120    -0.8910 H     1 <1>   0.0800 
 38 H       -2.1870     4.5990    -2.5380 H     1 <1>   0.1500 
 39 H       -0.3110     3.8580     1.0090 H     1 <1>   0.1500 
 40 H       -5.1540    -1.9970     2.1140 H     1 <1>   0.0800 
 41 H       -7.4510    -1.4790     1.5650 H     1 <1>   0.4500 
 42 H       -7.7440    -0.6150    -0.4960 H     1 <1>   0.0800 
 43 H       -6.7080    -1.8360    -1.2200 H     1 <1>   0.0800 
 44 H       -6.2750    -4.0240     1.1780 H     1 <1>   0.0800 
 45 H       -7.6990    -3.5460     2.0640 H     1 <1>   0.0800 
 46 H       -8.9560    -2.6660    -1.6340 H     1 <1>   0.0800 
 47 H       -8.8880    -4.5090     0.3580 H     1 <1>   0.0800 
 48 H      -10.4830    -2.6220     0.0060 H     1 <1>   0.4000 
 49 H       -6.4980    -4.1570    -1.4860 H     1 <1>   0.0800 
 50 H       -7.9750    -4.9650    -1.8930 H     1 <1>   0.0800 
 51 H       -8.3710    -7.2270    -1.2360 H     1 <1>   0.1500 
 52 H       -4.2050    -6.9980     1.1890 H     1 <1>   0.1500 
 53 H       -7.4440    -9.3190    -0.2940 H     1 <1>   0.1500 
 54 H       -5.2950    -9.1610     0.9460 H     1 <1>   0.1500 
@<TRIPOS>BOND
  1   1   2  2   
  2   2   3  am  
  3   2   4  1   
  4   3   5  1   
  5   3   6  1   
  6   4   7  ar  
  7   4   8  ar  
  8   5   9  1   
  9   5  28  1   
 10   5  29  1   
 11   6  10  1   
 12   6  30  1   
 13   6  31  1   
 14   7  11  ar  
 15   7  32  1   
 16   8  12  ar  
 17   8  33  1   
 18   9  13  1   
 19   9  34  1   
 20   9  35  1   
 21  10  13  1   
 22  10  36  1   
 23  10  37  1   
 24  11  14  ar  
 25  11  38  1   
 26  12  14  ar  
 27  12  39  1   
 28  13  15  1   
 29  13  40  1   
 30  15  16  1   
 31  15  17  1   
 32  15  41  1   
 33  16  18  1   
 34  16  42  1   
 35  16  43  1   
 36  17  19  1   
 37  17  44  1   
 38  17  45  1   
 39  18  19  1   
 40  18  20  1   
 41  18  46  1   
 42  19  21  1   
 43  19  47  1   
 44  20  48  1   
 45  21  22  1   
 46  21  49  1   
 47  21  50  1   
 48  22  23  ar  
 49  22  24  ar  
 50  23  25  ar  
 51  24  26  ar  
 52  24  51  1   
 53  25  27  ar  
 54  25  52  1   
 55  26  27  ar  
 56  26  53  1   
 57  27  54  1   
@<TRIPOS>SUBSTRUCTURE
  1 ****  10 GROUP 4 **** **** 0

# MOE 2024.06 (io_trps.svl 2023.06)
