@<TRIPOS>MOLECULE
NONAME
51 55 1 0 0 
SMALL
USER_CHARGES


@<TRIPOS>ATOM
  1 O       -0.9950     0.9940     1.9860 O.2   1 <1>  -0.5700 
  2 C       -1.9330     1.4220     1.3400 C.2   1 <1>   0.5440 
  3 N       -3.1730     0.8330     1.4840 N.am  1 <1>  -0.6600 
  4 C       -1.7220     2.5180     0.4350 C.ar  1 <1>   0.0860 
  5 C       -3.4400    -0.2010     2.5230 C.3   1 <1>   0.1400 
  6 C       -4.2970     1.0070     0.5210 C.3   1 <1>   0.1400 
  7 C       -0.9010     2.4530    -0.6830 C.ar  1 <1>   0.1660 
  8 C       -2.3570     3.7320     0.6350 C.ar  1 <1>   0.1600 
  9 C       -3.6800    -1.5460     1.8380 C.3   1 <1>  -0.1600 
 10 C       -4.5390    -0.3230    -0.1950 C.3   1 <1>  -0.1600 
 11 N       -0.7540     3.4630    -1.5070 N.ar  1 <1>  -0.6200 
 12 C       -0.1230     1.1910    -1.0180 C.3   1 <1>  -0.0970 
 13 N       -2.2310     4.7560    -0.1720 N.ar  1 <1>  -0.6200 
 14 C       -4.8050    -1.4590     0.8020 C.3   1 <1>   0.4600 
 15 C       -1.4330     4.5570    -1.2080 C.ar  1 <1>   0.7200 
 16 O       -5.9850    -1.1720     1.5230 O.3   1 <1>  -0.5600 
 17 C       -4.9660    -2.7930     0.0840 C.2   1 <1>  -0.3320 
 18 N       -1.2870     5.5830    -2.0400 N.pl3 1 <1>  -0.9000 
 19 C       -7.2230    -1.4750     0.9240 C.3   1 <1>   0.1200 
 20 N       -3.9930    -3.4740    -0.5960 N.pl3 1 <1>   0.0330 
 21 C       -6.1160    -3.4920     0.0290 C.2   1 <1>  -0.1810 
 22 C       -7.3740    -2.9870     0.6890 C.3   1 <1>   0.0210 
 23 C       -4.5480    -4.6310    -1.0870 C.ar  1 <1>  -0.1520 
 24 C       -5.8870    -4.6730    -0.7080 C.ar  1 <1>   0.0000 
 25 C       -3.9840    -5.6630    -1.8410 C.ar  1 <1>  -0.1500 
 26 C       -6.6790    -5.7620    -1.0850 C.ar  1 <1>  -0.1500 
 27 C       -4.7760    -6.7280    -2.2070 C.ar  1 <1>  -0.1500 
 28 C       -6.1230    -6.7770    -1.8280 C.ar  1 <1>  -0.1500 
 29 H       -4.3120     0.0830     3.0890 H     1 <1>   0.0800 
 30 H       -2.6140    -0.2820     3.2090 H     1 <1>   0.0800 
 31 H       -4.0800     1.7690    -0.2060 H     1 <1>   0.0800 
 32 H       -5.1820     1.2990     1.0610 H     1 <1>   0.0800 
 33 H       -2.9920     3.8450     1.4980 H     1 <1>   0.1500 
 34 H       -3.9310    -2.2920     2.5690 H     1 <1>   0.0800 
 35 H       -2.7660    -1.8500     1.3630 H     1 <1>   0.0800 
 36 H       -3.6680    -0.5600    -0.7770 H     1 <1>   0.0800 
 37 H       -5.3600    -0.2320    -0.8790 H     1 <1>   0.0800 
 38 H       -0.7390     0.3200    -0.8910 H     1 <1>   0.0800 
 39 H        0.7300     1.1140    -0.3680 H     1 <1>   0.0800 
 40 H        0.2210     1.2210    -2.0360 H     1 <1>   0.0800 
 41 H       -1.6110     6.4960    -1.7370 H     1 <1>   0.4000 
 42 H       -0.5290     5.5440    -2.7160 H     1 <1>   0.4000 
 43 H       -7.2900    -0.9450    -0.0090 H     1 <1>   0.0800 
 44 H       -7.9990    -1.1220     1.5780 H     1 <1>   0.0800 
 45 H       -3.0140    -3.1950    -0.7110 H     1 <1>   0.2700 
 46 H       -8.2250    -3.1730     0.0600 H     1 <1>   0.0800 
 47 H       -7.5200    -3.4920     1.6270 H     1 <1>   0.0800 
 48 H       -2.9490    -5.6190    -2.1270 H     1 <1>   0.1500 
 49 H       -7.7100    -5.7860    -0.7860 H     1 <1>   0.1500 
 50 H       -4.3660    -7.5350    -2.7880 H     1 <1>   0.1500 
 51 H       -6.7200    -7.6210    -2.1260 H     1 <1>   0.1500 
@<TRIPOS>BOND
  1   1   2  2   
  2   2   3  am  
  3   2   4  1   
  4   3   5  1   
  5   3   6  1   
  6   4   7  ar  
  7   4   8  ar  
  8   5   9  1   
  9   5  29  1   
 10   5  30  1   
 11   6  10  1   
 12   6  31  1   
 13   6  32  1   
 14   7  11  ar  
 15   7  12  1   
 16   8  13  ar  
 17   8  33  1   
 18   9  14  1   
 19   9  34  1   
 20   9  35  1   
 21  10  14  1   
 22  10  36  1   
 23  10  37  1   
 24  11  15  ar  
 25  12  38  1   
 26  12  39  1   
 27  12  40  1   
 28  13  15  ar  
 29  14  16  1   
 30  14  17  1   
 31  15  18  1   
 32  16  19  1   
 33  17  20  1   
 34  17  21  2   
 35  18  41  1   
 36  18  42  1   
 37  19  22  1   
 38  19  43  1   
 39  19  44  1   
 40  20  23  1   
 41  20  45  1   
 42  21  22  1   
 43  21  24  1   
 44  22  46  1   
 45  22  47  1   
 46  23  24  ar  
 47  23  25  ar  
 48  24  26  ar  
 49  25  27  ar  
 50  25  48  1   
 51  26  28  ar  
 52  26  49  1   
 53  27  28  ar  
 54  27  50  1   
 55  28  51  1   
@<TRIPOS>SUBSTRUCTURE
  1 ****  10 GROUP 4 **** **** 0

# MOE 2024.06 (io_trps.svl 2023.06)
