@<TRIPOS>MOLECULE
NONAME
41 43 1 0 0 
SMALL
USER_CHARGES


@<TRIPOS>ATOM
  1 S       -0.1250    -0.0390    -0.0090 S.3   1 <1>  -0.0800 
  2 C        1.1900    -0.3820     1.0830 C.2   1 <1>   0.1980 
  3 C        0.9530     0.9140    -0.9910 C.2   1 <1>  -0.1400 
  4 N        2.2930     0.1560     0.7490 N.2   1 <1>  -0.5650 
  5 C        0.8900    -1.2570     2.2780 C.3   1 <1>  -0.0600 
  6 C        2.1810     0.8830    -0.4320 C.2   1 <1>   0.0460 
  7 C        0.2950     1.5450    -2.2080 C.3   1 <1>  -0.0600 
  8 C        3.4910     1.5350    -0.8900 C.3   1 <1>   0.6040 
  9 N        3.5790     2.9540    -0.4100 N.4   1 <1>  -0.9590 
 10 C        3.6880     1.4630    -2.4060 C.3   1 <1>  -0.2400 
 11 C        4.8750     3.6080    -0.7680 C.3   1 <1>   0.4810 
 12 C        3.3060     3.0270     1.0670 C.3   1 <1>   0.2630 
 13 C        4.8330     5.1020    -0.4400 C.2   1 <1>  -0.0380 
 14 N        5.2350     5.5300     0.8150 N.pl3 1 <1>  -0.5840 
 15 C        4.4190     6.0360    -1.3400 C.2   1 <1>  -0.1360 
 16 C        5.1920     6.8780     1.1430 C.2   1 <1>   0.2700 
 17 C        4.3680     7.4330    -1.0380 C.2   1 <1>   0.5650 
 18 N        5.5200     7.3720     2.2780 N.2   1 <1>  -0.5650 
 19 N        4.7790     7.8230     0.2610 N.pl3 1 <1>   0.5610 
 20 O        3.9730     8.2240    -1.8790 O.2   1 <1>  -0.5700 
 21 C        5.2930     8.6800     2.0670 C.2   1 <1>   0.3660 
 22 N        4.8530     9.0100     0.9000 N.2   1 <1>  -0.7070 
 23 H        0.1370    -0.7950     2.8900 H     1 <1>   0.0800 
 24 H        1.7810    -1.3970     2.8630 H     1 <1>   0.0800 
 25 H        0.5370    -2.2160     1.9470 H     1 <1>   0.0800 
 26 H       -0.6140     2.0390    -1.9140 H     1 <1>   0.0800 
 27 H        0.0450     0.7800    -2.9220 H     1 <1>   0.0800 
 28 H        0.9280     2.2680    -2.6810 H     1 <1>   0.0800 
 29 H        4.2840     0.9620    -0.4350 H     1 <1>   0.0800 
 30 H        2.8180     3.4560    -0.8790 H     1 <1>   0.4500 
 31 H        3.1150     2.2080    -2.9240 H     1 <1>   0.0800 
 32 H        3.3790     0.4920    -2.7550 H     1 <1>   0.0800 
 33 H        4.7260     1.5700    -2.6600 H     1 <1>   0.0800 
 34 H        5.0570     3.5020    -1.8250 H     1 <1>   0.0800 
 35 H        5.6910     3.1410    -0.2400 H     1 <1>   0.0800 
 36 H        4.0400     2.4580     1.6150 H     1 <1>   0.0800 
 37 H        2.3320     2.6220     1.2930 H     1 <1>   0.0800 
 38 H        3.3270     4.0480     1.4100 H     1 <1>   0.0800 
 39 H        5.6530     4.9350     1.5440 H     1 <1>   0.4000 
 40 H        4.1030     5.7800    -2.3360 H     1 <1>   0.1500 
 41 H        5.4770     9.4000     2.8510 H     1 <1>   0.1500 
@<TRIPOS>BOND
  1   1   2  1   
  2   1   3  1   
  3   2   4  2   
  4   2   5  1   
  5   3   6  2   
  6   3   7  1   
  7   4   6  1   
  8   5  23  1   
  9   5  24  1   
 10   5  25  1   
 11   6   8  1   
 12   7  26  1   
 13   7  27  1   
 14   7  28  1   
 15   8   9  1   
 16   8  10  1   
 17   8  29  1   
 18   9  11  1   
 19   9  12  1   
 20   9  30  1   
 21  10  31  1   
 22  10  32  1   
 23  10  33  1   
 24  11  13  1   
 25  11  34  1   
 26  11  35  1   
 27  12  36  1   
 28  12  37  1   
 29  12  38  1   
 30  13  14  1   
 31  13  15  2   
 32  14  16  1   
 33  14  39  1   
 34  15  17  1   
 35  15  40  1   
 36  16  18  2   
 37  16  19  1   
 38  17  19  1   
 39  17  20  2   
 40  18  21  1   
 41  19  22  1   
 42  21  22  2   
 43  21  41  1   
@<TRIPOS>SUBSTRUCTURE
  1 ****   9 GROUP 4 **** **** 0

# MOE 2024.06 (io_trps.svl 2023.06)
