@<TRIPOS>MOLECULE
NONAME
58 60 1 0 0 
SMALL
USER_CHARGES


@<TRIPOS>ATOM
  1 S       -1.0980    -0.2780     1.7270 S.o2  1 <1>   1.5760 
  2 O       -2.1070     0.3700     2.5300 O.2   1 <1>  -0.6500 
  3 O        0.2700     0.1790     1.7140 O.2   1 <1>  -0.6500 
  4 N       -1.1650    -1.9420     2.0680 N.am  1 <1>  -0.8490 
  5 N       -1.6950    -0.3440     0.1400 N.am  1 <1>  -0.8490 
  6 C       -1.8510    -2.2100     3.3640 C.3   1 <1>   0.1960 
  7 C        0.1430    -2.6330     2.0090 C.3   1 <1>   0.1960 
  8 C       -2.1860     1.0040    -0.2240 C.3   1 <1>   0.1960 
  9 C       -0.6300    -0.7320    -0.8040 C.3   1 <1>   0.1960 
 10 C       -2.1480    -3.7000     3.6500 C.3   1 <1>   0.2090 
 11 C        0.0190    -4.0060     1.3240 C.3   1 <1>  -0.1600 
 12 C       -2.7470     1.0510    -1.6510 C.3   1 <1>  -0.1600 
 13 C       -1.1630    -0.8100    -2.2370 C.3   1 <1>  -0.1600 
 14 N       -2.1430    -4.5580     2.4180 N.pl3 1 <1>  -0.8380 
 15 C       -0.7970    -5.0750     2.0630 C.3   1 <1>   0.2090 
 16 C       -1.7380     0.5370    -2.6820 C.3   1 <1>  -0.1600 
 17 C       -3.1180    -4.4630     1.4790 C.ar  1 <1>   0.4610 
 18 N       -3.2080    -3.3270     0.7850 N.ar  1 <1>  -0.1790 
 19 C       -4.0260    -5.4440     1.1590 C.ar  1 <1>  -0.1500 
 20 C       -4.1350    -3.1300    -0.1570 C.ar  1 <1>   0.7710 
 21 C       -4.9620    -5.1880     0.1770 C.ar  1 <1>   0.3930 
 22 N       -5.0270    -4.0330    -0.4890 N.ar  1 <1>  -0.6200 
 23 N       -4.1540    -1.9650    -0.7960 N.pl3 1 <1>  -0.9000 
 24 O       -5.8330    -6.1560    -0.1040 O.3   1 <1>  -0.3620 
 25 C       -6.8860    -6.0490    -1.0390 C.3   1 <1>   0.2000 
 26 C       -8.0750    -5.3650    -0.3620 C.3   1 <1>  -0.2400 
 27 C       -7.2420    -7.4650    -1.4830 C.3   1 <1>  -0.2400 
 28 H       -2.8070    -1.7120     3.3690 H     1 <1>   0.0800 
 29 H       -1.2820    -1.7920     4.1790 H     1 <1>   0.0800 
 30 H        0.5660    -2.7340     2.9960 H     1 <1>   0.0800 
 31 H        0.8480    -2.0650     1.4270 H     1 <1>   0.0800 
 32 H       -1.3820     1.7180    -0.1360 H     1 <1>   0.0800 
 33 H       -2.9680     1.3080     0.4540 H     1 <1>   0.0800 
 34 H       -0.2310    -1.6920    -0.5370 H     1 <1>   0.0800 
 35 H        0.1770    -0.0160    -0.7690 H     1 <1>   0.0800 
 36 H       -3.1050    -3.7790     4.1380 H     1 <1>   0.0800 
 37 H       -1.4180    -4.0720     4.3500 H     1 <1>   0.0800 
 38 H        1.0140    -4.3970     1.2010 H     1 <1>   0.0800 
 39 H       -0.3760    -3.8780     0.3340 H     1 <1>   0.0800 
 40 H       -3.0030     2.0690    -1.8890 H     1 <1>   0.0800 
 41 H       -3.6550     0.4820    -1.7050 H     1 <1>   0.0800 
 42 H       -1.9100    -1.5790    -2.3090 H     1 <1>   0.0800 
 43 H       -0.3570    -1.0830    -2.8970 H     1 <1>   0.0800 
 44 H       -0.2790    -5.3830     2.9560 H     1 <1>   0.0800 
 45 H       -0.9010    -5.9450     1.4350 H     1 <1>   0.0800 
 46 H       -0.9360     1.2500    -2.7760 H     1 <1>   0.0800 
 47 H       -2.2080     0.4410    -3.6470 H     1 <1>   0.0800 
 48 H       -2.5190    -2.6000     0.9960 H     1 <1>   0.4570 
 49 H       -4.0120    -6.3890     1.6680 H     1 <1>   0.1500 
 50 H       -4.8660    -1.7930    -1.5090 H     1 <1>   0.4000 
 51 H       -3.4620    -1.2110    -0.6580 H     1 <1>   0.4000 
 52 H       -6.5470    -5.4800    -1.8890 H     1 <1>   0.0800 
 53 H       -8.3840    -5.9200     0.5050 H     1 <1>   0.0800 
 54 H       -8.9020    -5.3090    -1.0460 H     1 <1>   0.0800 
 55 H       -7.8150    -4.3630    -0.0710 H     1 <1>   0.0800 
 56 H       -7.5590    -8.0560    -0.6420 H     1 <1>   0.0800 
 57 H       -6.3890    -7.9310    -1.9450 H     1 <1>   0.0800 
 58 H       -8.0410    -7.4350    -2.2020 H     1 <1>   0.0800 
@<TRIPOS>BOND
  1   1   2  2   
  2   1   3  2   
  3   1   4  am  
  4   1   5  am  
  5   4   6  1   
  6   4   7  1   
  7   5   8  1   
  8   5   9  1   
  9   6  10  1   
 10   6  28  1   
 11   6  29  1   
 12   7  11  1   
 13   7  30  1   
 14   7  31  1   
 15   8  12  1   
 16   8  32  1   
 17   8  33  1   
 18   9  13  1   
 19   9  34  1   
 20   9  35  1   
 21  10  14  1   
 22  10  36  1   
 23  10  37  1   
 24  11  15  1   
 25  11  38  1   
 26  11  39  1   
 27  12  16  1   
 28  12  40  1   
 29  12  41  1   
 30  13  16  1   
 31  13  42  1   
 32  13  43  1   
 33  14  15  1   
 34  14  17  1   
 35  15  44  1   
 36  15  45  1   
 37  16  46  1   
 38  16  47  1   
 39  17  18  ar  
 40  17  19  ar  
 41  18  20  ar  
 42  18  48  1   
 43  19  21  ar  
 44  19  49  1   
 45  20  22  ar  
 46  20  23  1   
 47  21  22  ar  
 48  21  24  1   
 49  23  50  1   
 50  23  51  1   
 51  24  25  1   
 52  25  26  1   
 53  25  27  1   
 54  25  52  1   
 55  26  53  1   
 56  26  54  1   
 57  26  55  1   
 58  27  56  1   
 59  27  57  1   
 60  27  58  1   
@<TRIPOS>SUBSTRUCTURE
  1 ****  18 GROUP 4 **** **** 0

# MOE 2024.06 (io_trps.svl 2023.06)
