@<TRIPOS>MOLECULE
NONAME
55 57 1 0 0 
SMALL
USER_CHARGES


@<TRIPOS>ATOM
  1 O       -2.0410     1.0050     2.6390 O.2   1 <1>  -0.5700 
  2 C       -2.7940     1.5890     1.8870 C.2   1 <1>   0.5690 
  3 N       -4.0450     1.1060     1.6030 N.am  1 <1>  -0.6600 
  4 C       -2.2350     2.8340     1.1550 C.3   1 <1>   0.4840 
  5 C       -4.3090    -0.3520     1.7270 C.3   1 <1>   0.3200 
  6 C       -5.1410     1.9300     0.9990 C.3   1 <1>   0.1400 
  7 N       -0.9350     2.5470     0.4460 N.4   1 <1>  -0.9590 
  8 C       -2.0210     4.0020     2.1290 C.3   1 <1>  -0.1600 
  9 C       -3.3530    -1.0630     0.7900 C.2   1 <1>  -0.3320 
 10 C       -5.2700     1.7590    -0.5250 C.3   1 <1>   0.1200 
 11 C       -0.4000     3.7110    -0.3050 C.3   1 <1>   0.3430 
 12 C       -1.0310     1.3330    -0.4160 C.3   1 <1>   0.4860 
 13 C       -1.4530     5.2430     1.4250 C.3   1 <1>  -0.1600 
 14 N       -2.1930    -1.6170     1.1980 N.pl3 1 <1>   0.0330 
 15 C       -3.4090    -1.2480    -0.5470 C.2   1 <1>   0.0770 
 16 O       -4.0700     2.0500    -1.1710 O.3   1 <1>  -0.6800 
 17 C       -0.1770     4.8820     0.6520 C.3   1 <1>  -0.1600 
 18 C        0.3830     0.8770    -0.7170 C.ar  1 <1>  -0.1440 
 19 C       -1.6050    -2.0770     0.0730 C.2   1 <1>   0.0060 
 20 N       -2.3000    -1.8610    -0.9950 N.2   1 <1>  -0.5650 
 21 C        1.2120     0.4480     0.3110 C.ar  1 <1>  -0.1500 
 22 C        0.8610     0.8880    -2.0190 C.ar  1 <1>  -0.1500 
 23 C       -0.2620    -2.7750     0.0690 C.3   1 <1>  -0.0600 
 24 C        2.5090     0.0490     0.0400 C.ar  1 <1>  -0.1500 
 25 C        2.1570     0.4860    -2.2890 C.ar  1 <1>  -0.1500 
 26 C        2.9820     0.0700    -1.2590 C.ar  1 <1>  -0.1500 
 27 H       -2.9570     3.1440     0.4240 H     1 <1>   0.0800 
 28 H       -5.3250    -0.5750     1.4520 H     1 <1>   0.0800 
 29 H       -4.1530    -0.6680     2.7450 H     1 <1>   0.0800 
 30 H       -4.9840     2.9710     1.2220 H     1 <1>   0.0800 
 31 H       -6.0750     1.6540     1.4590 H     1 <1>   0.0800 
 32 H       -0.2650     2.2990     1.1820 H     1 <1>   0.4500 
 33 H       -1.3560     3.6920     2.9170 H     1 <1>   0.0800 
 34 H       -2.9620     4.2550     2.5870 H     1 <1>   0.0800 
 35 H       -6.0250     2.4270    -0.9060 H     1 <1>   0.0800 
 36 H       -5.5550     0.7500    -0.7650 H     1 <1>   0.0800 
 37 H       -1.0980     3.9990    -1.0750 H     1 <1>   0.0800 
 38 H        0.5360     3.4480    -0.7750 H     1 <1>   0.0800 
 39 H       -1.5650     1.5510    -1.3260 H     1 <1>   0.0800 
 40 H       -1.5460     0.5390     0.0940 H     1 <1>   0.0800 
 41 H       -1.2340     6.0070     2.1530 H     1 <1>   0.0800 
 42 H       -2.1870     5.6390     0.7430 H     1 <1>   0.0800 
 43 H       -1.8200    -1.6470     2.1530 H     1 <1>   0.2700 
 44 H       -4.1870    -0.9590    -1.2310 H     1 <1>   0.1500 
 45 H       -4.1760     1.9070    -2.1370 H     1 <1>   0.4000 
 46 H        0.1520     5.7380     0.0880 H     1 <1>   0.0800 
 47 H        0.6120     4.6320     1.3410 H     1 <1>   0.0800 
 48 H        0.8590     0.4120     1.3280 H     1 <1>   0.1500 
 49 H        0.2310     1.2000    -2.8350 H     1 <1>   0.1500 
 50 H        0.4230    -2.2870     0.7360 H     1 <1>   0.0800 
 51 H        0.1530    -2.7590    -0.9230 H     1 <1>   0.0800 
 52 H       -0.3840    -3.7980     0.3740 H     1 <1>   0.0800 
 53 H        3.1530    -0.2820     0.8380 H     1 <1>   0.1500 
 54 H        2.5260     0.4940    -3.3010 H     1 <1>   0.1500 
 55 H        3.9900    -0.2420    -1.4710 H     1 <1>   0.1500 
@<TRIPOS>BOND
  1   1   2  2   
  2   2   3  am  
  3   2   4  1   
  4   3   5  1   
  5   3   6  1   
  6   4   7  1   
  7   4   8  1   
  8   4  27  1   
  9   5   9  1   
 10   5  28  1   
 11   5  29  1   
 12   6  10  1   
 13   6  30  1   
 14   6  31  1   
 15   7  11  1   
 16   7  12  1   
 17   7  32  1   
 18   8  13  1   
 19   8  33  1   
 20   8  34  1   
 21   9  14  1   
 22   9  15  2   
 23  10  16  1   
 24  10  35  1   
 25  10  36  1   
 26  11  17  1   
 27  11  37  1   
 28  11  38  1   
 29  12  18  1   
 30  12  39  1   
 31  12  40  1   
 32  13  17  1   
 33  13  41  1   
 34  13  42  1   
 35  14  19  1   
 36  14  43  1   
 37  15  20  1   
 38  15  44  1   
 39  16  45  1   
 40  17  46  1   
 41  17  47  1   
 42  18  21  ar  
 43  18  22  ar  
 44  19  20  2   
 45  19  23  1   
 46  21  24  ar  
 47  21  48  1   
 48  22  25  ar  
 49  22  49  1   
 50  23  50  1   
 51  23  51  1   
 52  23  52  1   
 53  24  26  ar  
 54  24  53  1   
 55  25  26  ar  
 56  25  54  1   
 57  26  55  1   
@<TRIPOS>SUBSTRUCTURE
  1 ****  12 GROUP 4 **** **** 0

# MOE 2024.06 (io_trps.svl 2023.06)
