@<TRIPOS>MOLECULE
NONAME
48 51 1 0 0 
SMALL
USER_CHARGES


@<TRIPOS>ATOM
  1 F        0.1820     0.2670    -1.2360 F     1 <1>  -0.3400 
  2 C        1.3900    -0.2290    -0.9750 C.3   1 <1>   1.1640 
  3 F        1.9530     0.6340    -0.1330 F     1 <1>  -0.3400 
  4 F        2.0730    -0.1240    -2.1130 F     1 <1>  -0.3400 
  5 C        1.3780    -1.6860    -0.4250 C.ar  1 <1>   0.1660 
  6 N        0.2250    -2.3390    -0.4150 N.ar  1 <1>  -0.6200 
  7 C        2.5350    -2.3010     0.0460 C.ar  1 <1>  -0.1440 
  8 C        0.2220    -3.5730     0.0650 C.ar  1 <1>   0.7200 
  9 C        2.4120    -3.5930     0.5270 C.ar  1 <1>   0.1660 
 10 C        3.8990    -1.5950     0.0600 C.3   1 <1>  -0.0170 
 11 N        1.2700    -4.2290     0.5340 N.ar  1 <1>  -0.6200 
 12 N       -0.9820    -4.2290     0.0780 N.pl3 1 <1>  -0.8380 
 13 C        3.5920    -4.3860     1.0740 C.3   1 <1>  -0.0170 
 14 C        5.0810    -2.5550     0.2320 C.3   1 <1>  -0.1600 
 15 C       -2.2060    -3.6970    -0.5730 C.3   1 <1>   0.2090 
 16 C       -1.1100    -5.6900     0.3010 C.3   1 <1>   0.2090 
 17 C        4.8160    -3.5210     1.3870 C.3   1 <1>  -0.1600 
 18 C       -3.2630    -4.7670    -0.3050 C.3   1 <1>   0.2000 
 19 C       -2.4590    -6.0730    -0.3220 C.3   1 <1>  -0.0800 
 20 O       -3.7710    -4.5600     0.9700 O.3   1 <1>  -0.6800 
 21 C       -3.1460    -7.2670     0.3660 C.3   1 <1>   0.0200 
 22 C       -2.3850    -8.5720     0.1940 C.2   1 <1>  -0.0400 
 23 O       -2.7900    -9.6250     0.8530 O.3   1 <1>  -0.0190 
 24 C       -1.3150    -8.9340    -0.5320 C.2   1 <1>  -0.1500 
 25 N       -2.0490   -10.6680     0.6110 N.2   1 <1>  -0.4100 
 26 C       -1.1510   -10.2810    -0.2210 C.2   1 <1>   0.1080 
 27 C       -0.0680   -11.1750    -0.7800 C.3   1 <1>  -0.0590 
 28 H        4.0580    -1.0470    -0.8510 H     1 <1>   0.0800 
 29 H        3.9100    -0.8920     0.8750 H     1 <1>   0.0800 
 30 H        3.2880    -4.9030     1.9670 H     1 <1>   0.0800 
 31 H        3.8570    -5.1280     0.3430 H     1 <1>   0.0800 
 32 H        5.2280    -3.1130    -0.6770 H     1 <1>   0.0800 
 33 H        5.9780    -1.9920     0.4240 H     1 <1>   0.0800 
 34 H       -2.4890    -2.7400    -0.1680 H     1 <1>   0.0800 
 35 H       -2.0300    -3.6020    -1.6310 H     1 <1>   0.0800 
 36 H       -0.2970    -6.2240    -0.1610 H     1 <1>   0.0800 
 37 H       -1.1040    -5.8830     1.3610 H     1 <1>   0.0800 
 38 H        4.6390    -2.9620     2.2910 H     1 <1>   0.0800 
 39 H        5.6730    -4.1520     1.5470 H     1 <1>   0.0800 
 40 H       -4.0760    -4.7500    -1.0090 H     1 <1>   0.0800 
 41 H       -2.2820    -6.3260    -1.3520 H     1 <1>   0.0800 
 42 H       -3.0200    -4.3270     1.5560 H     1 <1>   0.4000 
 43 H       -4.1330    -7.3940    -0.0410 H     1 <1>   0.0800 
 44 H       -3.2520    -7.0730     1.4190 H     1 <1>   0.0800 
 45 H       -0.7020    -8.3650    -1.2060 H     1 <1>   0.1500 
 46 H        0.8980   -10.7490    -0.5810 H     1 <1>   0.0800 
 47 H       -0.1970   -11.2840    -1.8410 H     1 <1>   0.0800 
 48 H       -0.1210   -12.1460    -0.3220 H     1 <1>   0.0800 
@<TRIPOS>BOND
  1   1   2  1   
  2   2   3  1   
  3   2   4  1   
  4   2   5  1   
  5   5   6  ar  
  6   5   7  ar  
  7   6   8  ar  
  8   7   9  ar  
  9   7  10  1   
 10   8  11  ar  
 11   8  12  1   
 12   9  11  ar  
 13   9  13  1   
 14  10  14  1   
 15  10  28  1   
 16  10  29  1   
 17  12  15  1   
 18  12  16  1   
 19  13  17  1   
 20  13  30  1   
 21  13  31  1   
 22  14  17  1   
 23  14  32  1   
 24  14  33  1   
 25  15  18  1   
 26  15  34  1   
 27  15  35  1   
 28  16  19  1   
 29  16  36  1   
 30  16  37  1   
 31  17  38  1   
 32  17  39  1   
 33  18  19  1   
 34  18  20  1   
 35  18  40  1   
 36  19  21  1   
 37  19  41  1   
 38  20  42  1   
 39  21  22  1   
 40  21  43  1   
 41  21  44  1   
 42  22  23  1   
 43  22  24  2   
 44  23  25  1   
 45  24  26  1   
 46  24  45  1   
 47  25  26  2   
 48  26  27  1   
 49  27  46  1   
 50  27  47  1   
 51  27  48  1   
@<TRIPOS>SUBSTRUCTURE
  1 ****   8 GROUP 4 **** **** 0

# MOE 2024.06 (io_trps.svl 2023.06)
