@<TRIPOS>MOLECULE
NONAME
47 50 1 0 0 
SMALL
USER_CHARGES


@<TRIPOS>ATOM
  1 O       -0.0480     1.8000     1.5620 O.3   1 <1>  -0.3630 
  2 C       -0.6690     1.5580     0.3720 C.ar  1 <1>   0.3920 
  3 C        0.3840     0.7310     2.3810 C.3   1 <1>   0.0400 
  4 N       -0.8430     0.2980     0.0000 N.ar  1 <1>  -0.6200 
  5 C       -1.0780     2.6830    -0.3980 C.ar  1 <1>   0.4100 
  6 C       -1.4470     0.2130    -1.1780 C.ar  1 <1>   0.1600 
  7 N       -1.6720     2.5680    -1.5760 N.ar  1 <1>  -0.6200 
  8 N       -0.8710     3.9740     0.0670 N.pl3 1 <1>  -0.8690 
  9 C       -1.8430     1.3050    -1.9330 C.ar  1 <1>   0.1600 
 10 C       -0.4390     5.0700    -0.8250 C.3   1 <1>   0.2890 
 11 C        1.0530     5.4500    -0.5570 C.3   1 <1>   0.0000 
 12 C       -1.4560     6.1970    -0.6240 C.3   1 <1>  -0.2400 
 13 C        1.5010     6.6000    -1.4990 C.3   1 <1>  -0.1600 
 14 C        1.3130     5.9010     0.9080 C.3   1 <1>  -0.1600 
 15 C        1.9630     4.2240    -0.8490 C.3   1 <1>  -0.1600 
 16 C        2.9830     6.9300    -1.2730 C.3   1 <1>   0.2800 
 17 C        2.8000     6.2450     1.1290 C.3   1 <1>  -0.0800 
 18 C        3.4510     4.5580    -0.6350 C.3   1 <1>  -0.0800 
 19 O        3.3460     7.9490    -2.1200 O.3   1 <1>  -0.6800 
 20 C        3.2050     7.3850     0.1750 C.3   1 <1>  -0.1600 
 21 C        3.8500     5.7050    -1.5810 C.3   1 <1>  -0.1600 
 22 C        3.6590     5.0020     0.8250 C.3   1 <1>  -0.1600 
 23 H        0.8390     1.1420     3.2630 H     1 <1>   0.0800 
 24 H        1.0990     0.1410     1.8350 H     1 <1>   0.0800 
 25 H       -0.4690     0.1320     2.6500 H     1 <1>   0.0800 
 26 H       -1.6340    -0.7750    -1.5580 H     1 <1>   0.1500 
 27 H       -0.3760     3.9900     0.9610 H     1 <1>   0.4000 
 28 H       -2.3260     1.1310    -2.8790 H     1 <1>   0.1500 
 29 H       -0.5150     4.7470    -1.8500 H     1 <1>   0.0800 
 30 H       -1.4310     6.5680     0.3830 H     1 <1>   0.0800 
 31 H       -2.4410     5.8180    -0.8260 H     1 <1>   0.0800 
 32 H       -1.2730     7.0050    -1.3050 H     1 <1>   0.0800 
 33 H        0.9200     7.4820    -1.3070 H     1 <1>   0.0800 
 34 H        1.3530     6.3070    -2.5230 H     1 <1>   0.0800 
 35 H        1.0350     5.1210     1.5930 H     1 <1>   0.0800 
 36 H        0.7190     6.7650     1.1430 H     1 <1>   0.0800 
 37 H        1.8110     3.8910    -1.8610 H     1 <1>   0.0800 
 38 H        1.7040     3.4050    -0.2020 H     1 <1>   0.0800 
 39 H        2.9550     6.5520     2.1490 H     1 <1>   0.0800 
 40 H        4.0530     3.6890    -0.8420 H     1 <1>   0.0800 
 41 H        2.8230     8.7430    -1.9130 H     1 <1>   0.4000 
 42 H        2.6140     8.2570     0.3880 H     1 <1>   0.0800 
 43 H        4.2430     7.6290     0.3250 H     1 <1>   0.0800 
 44 H        4.8880     5.9480    -1.4410 H     1 <1>   0.0800 
 45 H        3.7060     5.4020    -2.6030 H     1 <1>   0.0800 
 46 H        3.3890     4.2010     1.4900 H     1 <1>   0.0800 
 47 H        4.6980     5.2280     0.9910 H     1 <1>   0.0800 
@<TRIPOS>BOND
  1   1   2  1   
  2   1   3  1   
  3   2   4  ar  
  4   2   5  ar  
  5   3  23  1   
  6   3  24  1   
  7   3  25  1   
  8   4   6  ar  
  9   5   7  ar  
 10   5   8  1   
 11   6   9  ar  
 12   6  26  1   
 13   7   9  ar  
 14   8  10  1   
 15   8  27  1   
 16   9  28  1   
 17  10  11  1   
 18  10  12  1   
 19  10  29  1   
 20  11  13  1   
 21  11  14  1   
 22  11  15  1   
 23  12  30  1   
 24  12  31  1   
 25  12  32  1   
 26  13  16  1   
 27  13  33  1   
 28  13  34  1   
 29  14  17  1   
 30  14  35  1   
 31  14  36  1   
 32  15  18  1   
 33  15  37  1   
 34  15  38  1   
 35  16  19  1   
 36  16  20  1   
 37  16  21  1   
 38  17  20  1   
 39  17  22  1   
 40  17  39  1   
 41  18  21  1   
 42  18  22  1   
 43  18  40  1   
 44  19  41  1   
 45  20  42  1   
 46  20  43  1   
 47  21  44  1   
 48  21  45  1   
 49  22  46  1   
 50  22  47  1   
@<TRIPOS>SUBSTRUCTURE
  1 ****  15 GROUP 4 **** **** 0

# MOE 2024.06 (io_trps.svl 2023.06)
