@<TRIPOS>MOLECULE
NONAME
60 64 1 0 0 
SMALL
USER_CHARGES


@<TRIPOS>ATOM
  1 O       -2.3740     1.9890    -2.5740 O.2   1 <1>  -0.5700 
  2 C       -2.3560     1.6050    -1.4260 C.2   1 <1>   0.5690 
  3 N       -3.0550     0.4580    -1.0950 N.am  1 <1>  -0.6600 
  4 C       -1.5050     2.4640    -0.4320 C.3   1 <1>   0.0610 
  5 C       -3.7100    -0.2940    -2.2220 C.3   1 <1>   0.1400 
  6 C       -3.3580    -0.0640     0.2750 C.3   1 <1>   0.1400 
  7 C       -0.5940     3.4320    -1.2450 C.3   1 <1>  -0.1600 
  8 C       -0.5610     1.5880     0.4320 C.3   1 <1>  -0.1600 
  9 C       -2.4320     3.3360     0.4510 C.3   1 <1>  -0.2400 
 10 C       -4.1000    -1.7100    -1.8030 C.3   1 <1>  -0.1600 
 11 C       -4.8000    -0.5650     0.3650 C.3   1 <1>  -0.1600 
 12 C        0.4190     4.2060    -0.4090 C.3   1 <1>   0.3430 
 13 C        0.4620     2.3880     1.2400 C.3   1 <1>   0.3430 
 14 C       -5.1160    -1.6710    -0.6600 C.3   1 <1>   0.4600 
 15 N        1.2740     3.2440     0.3340 N.4   1 <1>  -0.9590 
 16 O       -6.3520    -1.3600    -1.2590 O.3   1 <1>  -0.5600 
 17 C       -5.2200    -3.0430     0.0030 C.2   1 <1>  -0.3320 
 18 C        2.3500     3.9570     1.0870 C.3   1 <1>   0.2630 
 19 C       -7.5220    -1.6390    -0.5280 C.3   1 <1>   0.1200 
 20 N       -4.1960    -3.7840     0.5250 N.pl3 1 <1>   0.0330 
 21 C       -6.3770    -3.7170     0.1610 C.2   1 <1>  -0.1810 
 22 C       -7.6920    -3.1520    -0.3170 C.3   1 <1>   0.0210 
 23 C       -4.7230    -4.9520     1.0200 C.ar  1 <1>  -0.1520 
 24 C       -6.0980    -4.9410     0.8040 C.ar  1 <1>   0.0000 
 25 C       -4.1070    -6.0390     1.6460 C.ar  1 <1>  -0.1500 
 26 C       -6.8740    -6.0280     1.2170 C.ar  1 <1>  -0.1500 
 27 C       -4.8810    -7.1020     2.0490 C.ar  1 <1>  -0.1500 
 28 C       -6.2650    -7.0970     1.8340 C.ar  1 <1>  -0.1500 
 29 H       -3.0370    -0.3470    -3.0610 H     1 <1>   0.0800 
 30 H       -4.5890     0.2440    -2.5370 H     1 <1>   0.0800 
 31 H       -3.2300     0.6960     1.0170 H     1 <1>   0.0800 
 32 H       -2.6820    -0.8710     0.5000 H     1 <1>   0.0800 
 33 H       -1.2080     4.1420    -1.7730 H     1 <1>   0.0800 
 34 H       -0.0550     2.8780    -1.9950 H     1 <1>   0.0800 
 35 H       -0.0380     0.8950    -0.2050 H     1 <1>   0.0800 
 36 H       -1.1210     1.0040     1.1340 H     1 <1>   0.0800 
 37 H       -3.0570     3.9470    -0.1790 H     1 <1>   0.0800 
 38 H       -1.8840     3.9860     1.1060 H     1 <1>   0.0800 
 39 H       -3.0860     2.7420     1.0580 H     1 <1>   0.0800 
 40 H       -3.2110    -2.2340    -1.5100 H     1 <1>   0.0800 
 41 H       -4.5260    -2.2400    -2.6360 H     1 <1>   0.0800 
 42 H       -5.4480     0.2780     0.2020 H     1 <1>   0.0800 
 43 H       -4.9860    -0.9330     1.3570 H     1 <1>   0.0800 
 44 H       -0.0950     4.8560     0.2800 H     1 <1>   0.0800 
 45 H        1.0260     4.8150    -1.0600 H     1 <1>   0.0800 
 46 H        1.1050     1.7070     1.7750 H     1 <1>   0.0800 
 47 H       -0.0500     3.0050     1.9610 H     1 <1>   0.0800 
 48 H        1.7160     2.6280    -0.3650 H     1 <1>   0.4500 
 49 H        1.9190     4.6150     1.8240 H     1 <1>   0.0800 
 50 H        2.9530     4.5440     0.4120 H     1 <1>   0.0800 
 51 H        2.9900     3.2490     1.5880 H     1 <1>   0.0800 
 52 H       -8.3570    -1.2440    -1.0790 H     1 <1>   0.0800 
 53 H       -7.4620    -1.1340     0.4200 H     1 <1>   0.0800 
 54 H       -3.2000    -3.5490     0.5250 H     1 <1>   0.2700 
 55 H       -7.9730    -3.6220    -1.2410 H     1 <1>   0.0800 
 56 H       -8.4620    -3.3330     0.4110 H     1 <1>   0.0800 
 57 H       -3.0440    -6.0370     1.8060 H     1 <1>   0.1500 
 58 H       -7.9340    -6.0110     1.0440 H     1 <1>   0.1500 
 59 H       -4.4310    -7.9500     2.5330 H     1 <1>   0.1500 
 60 H       -6.8480    -7.9410     2.1580 H     1 <1>   0.1500 
@<TRIPOS>BOND
  1   1   2  2   
  2   2   3  am  
  3   2   4  1   
  4   3   5  1   
  5   3   6  1   
  6   4   7  1   
  7   4   8  1   
  8   4   9  1   
  9   5  10  1   
 10   5  29  1   
 11   5  30  1   
 12   6  11  1   
 13   6  31  1   
 14   6  32  1   
 15   7  12  1   
 16   7  33  1   
 17   7  34  1   
 18   8  13  1   
 19   8  35  1   
 20   8  36  1   
 21   9  37  1   
 22   9  38  1   
 23   9  39  1   
 24  10  14  1   
 25  10  40  1   
 26  10  41  1   
 27  11  14  1   
 28  11  42  1   
 29  11  43  1   
 30  12  15  1   
 31  12  44  1   
 32  12  45  1   
 33  13  15  1   
 34  13  46  1   
 35  13  47  1   
 36  14  16  1   
 37  14  17  1   
 38  15  18  1   
 39  15  48  1   
 40  16  19  1   
 41  17  20  1   
 42  17  21  2   
 43  18  49  1   
 44  18  50  1   
 45  18  51  1   
 46  19  22  1   
 47  19  52  1   
 48  19  53  1   
 49  20  23  1   
 50  20  54  1   
 51  21  22  1   
 52  21  24  1   
 53  22  55  1   
 54  22  56  1   
 55  23  24  ar  
 56  23  25  ar  
 57  24  26  ar  
 58  25  27  ar  
 59  25  57  1   
 60  26  28  ar  
 61  26  58  1   
 62  27  28  ar  
 63  27  59  1   
 64  28  60  1   
@<TRIPOS>SUBSTRUCTURE
  1 ****   6 GROUP 4 **** **** 0

# MOE 2024.06 (io_trps.svl 2023.06)
