@<TRIPOS>MOLECULE
NONAME
39 40 1 0 0 
SMALL
USER_CHARGES


@<TRIPOS>ATOM
  1 F       -0.6080     0.0690    -0.4170 F     1 <1>  -0.1900 
  2 C       -1.6240    -0.7210    -0.1470 C.ar  1 <1>   0.1900 
  3 C       -2.9030    -0.2560     0.1470 C.ar  1 <1>   0.3920 
  4 C       -1.4090    -2.0750    -0.1610 C.ar  1 <1>   0.1600 
  5 O       -3.2800     1.0420     0.1990 O.3   1 <1>  -0.3630 
  6 N       -3.8760    -1.1030     0.4080 N.ar  1 <1>  -0.6200 
  7 N       -2.3750    -2.9300     0.0970 N.ar  1 <1>  -0.6200 
  8 C       -2.4120     2.1400     0.0190 C.3   1 <1>   0.0400 
  9 C       -3.5570    -2.3850     0.3750 C.ar  1 <1>   0.7200 
 10 N       -4.5860    -3.2130     0.6560 N.pl3 1 <1>  -0.8690 
 11 C       -4.6560    -4.6000     0.1680 C.3   1 <1>   0.2090 
 12 C       -6.0660    -5.1350     0.4050 C.3   1 <1>  -0.1600 
 13 C       -6.2000    -6.5840    -0.0800 C.3   1 <1>  -0.1600 
 14 C       -7.6240    -7.1100     0.1540 C.3   1 <1>  -0.1600 
 15 C       -7.8130    -8.5380    -0.3660 C.3   1 <1>   0.2000 
 16 O       -9.1270    -8.9140    -0.1500 O.3   1 <1>  -0.5600 
 17 C       -6.9950    -9.5990     0.3550 C.3   1 <1>  -0.1600 
 18 C       -9.2410   -10.3010    -0.1170 C.3   1 <1>   0.1200 
 19 C       -7.8490   -10.8450     0.1970 C.3   1 <1>  -0.1600 
 20 H       -0.4300    -2.4600    -0.3870 H     1 <1>   0.1500 
 21 H       -2.9850     3.0410     0.1470 H     1 <1>   0.0800 
 22 H       -2.0050     2.1070    -0.9760 H     1 <1>   0.0800 
 23 H       -1.6330     2.0960     0.7590 H     1 <1>   0.0800 
 24 H       -5.4710    -2.7090     0.6960 H     1 <1>   0.4000 
 25 H       -3.9340    -5.1970     0.6990 H     1 <1>   0.0800 
 26 H       -4.4180    -4.6240    -0.8830 H     1 <1>   0.0800 
 27 H       -6.7720    -4.5170    -0.1230 H     1 <1>   0.0800 
 28 H       -6.2850    -5.0900     1.4580 H     1 <1>   0.0800 
 29 H       -5.4930    -7.2010     0.4490 H     1 <1>   0.0800 
 30 H       -5.9700    -6.6330    -1.1310 H     1 <1>   0.0800 
 31 H       -8.3240    -6.4730    -0.3570 H     1 <1>   0.0800 
 32 H       -7.8520    -7.0860     1.2050 H     1 <1>   0.0800 
 33 H       -7.6360    -8.5840    -1.4280 H     1 <1>   0.0800 
 34 H       -6.9040    -9.3430     1.3960 H     1 <1>   0.0800 
 35 H       -6.0150    -9.7120    -0.0720 H     1 <1>   0.0800 
 36 H       -9.5870   -10.6350    -1.0800 H     1 <1>   0.0800 
 37 H       -9.9570   -10.5620     0.6430 H     1 <1>   0.0800 
 38 H       -7.8540   -11.4440     1.0900 H     1 <1>   0.0800 
 39 H       -7.5050   -11.4450    -0.6270 H     1 <1>   0.0800 
@<TRIPOS>BOND
  1   1   2  1   
  2   2   3  ar  
  3   2   4  ar  
  4   3   5  1   
  5   3   6  ar  
  6   4   7  ar  
  7   4  20  1   
  8   5   8  1   
  9   6   9  ar  
 10   7   9  ar  
 11   8  21  1   
 12   8  22  1   
 13   8  23  1   
 14   9  10  1   
 15  10  11  1   
 16  10  24  1   
 17  11  12  1   
 18  11  25  1   
 19  11  26  1   
 20  12  13  1   
 21  12  27  1   
 22  12  28  1   
 23  13  14  1   
 24  13  29  1   
 25  13  30  1   
 26  14  15  1   
 27  14  31  1   
 28  14  32  1   
 29  15  16  1   
 30  15  17  1   
 31  15  33  1   
 32  16  18  1   
 33  17  19  1   
 34  17  34  1   
 35  17  35  1   
 36  18  19  1   
 37  18  36  1   
 38  18  37  1   
 39  19  38  1   
 40  19  39  1   
@<TRIPOS>SUBSTRUCTURE
  1 ****  11 GROUP 4 **** **** 0

# MOE 2024.06 (io_trps.svl 2023.06)
