@<TRIPOS>MOLECULE
NONAME
39 41 1 0 0 
SMALL
USER_CHARGES


@<TRIPOS>ATOM
  1 F       -0.8140    -0.9660     0.3920 F     1 <1>  -0.3400 
  2 C       -1.9010    -1.7360     0.3920 C.3   1 <1>   0.8560 
  3 F       -2.5430    -1.4220     1.5160 F     1 <1>  -0.3400 
  4 N       -1.5100    -3.1860     0.4070 N.pl3 1 <1>   0.3140 
  5 N       -1.9450    -4.0680    -0.5190 N.2   1 <1>  -0.7070 
  6 C       -0.7010    -3.7990     1.3010 C.2   1 <1>  -0.3020 
  7 C       -1.4040    -5.2320    -0.2100 C.2   1 <1>   0.2030 
  8 C       -0.6120    -5.0930     0.9390 C.2   1 <1>  -0.1500 
  9 C       -1.5870    -6.4960    -0.9150 C.2   1 <1>   0.7160 
 10 O       -1.8510    -6.5550    -2.1040 O.2   1 <1>  -0.5700 
 11 N       -1.4850    -7.6790    -0.2350 N.am  1 <1>  -0.7300 
 12 C       -1.6910    -9.0280    -0.8120 C.3   1 <1>   0.2200 
 13 C       -3.0860    -9.5560    -0.4970 C.3   1 <1>  -0.0800 
 14 C       -0.8410   -10.0180    -0.0300 C.3   1 <1>   0.1200 
 15 C       -2.9240   -10.1460     0.9090 C.3   1 <1>   0.1200 
 16 C       -4.2420    -8.5470    -0.6330 C.3   1 <1>  -0.0160 
 17 O       -1.5490   -10.2360     1.1520 O.3   1 <1>  -0.5600 
 18 C       -5.5810    -9.2160    -0.3610 C.ar  1 <1>  -0.1430 
 19 C       -6.2270    -9.0960     0.8530 C.ar  1 <1>  -0.1500 
 20 C       -6.2180    -9.9780    -1.3180 C.ar  1 <1>  -0.1500 
 21 C       -7.4410    -9.7340     1.0470 C.ar  1 <1>   0.1600 
 22 C       -7.4320   -10.5750    -1.0220 C.ar  1 <1>   0.1600 
 23 N       -8.0580   -10.4740     0.1400 N.ar  1 <1>  -0.6200 
 24 H       -2.5160    -1.4780    -0.4490 H     1 <1>   0.0800 
 25 H       -0.2440    -3.2800     2.1250 H     1 <1>   0.1500 
 26 H       -0.0480    -5.8750     1.4150 H     1 <1>   0.1500 
 27 H       -1.3910    -7.6740     0.7810 H     1 <1>   0.3700 
 28 H       -1.4670    -9.0340    -1.8660 H     1 <1>   0.0800 
 29 H       -3.2820   -10.3760    -1.1660 H     1 <1>   0.0800 
 30 H        0.1410    -9.6430     0.1950 H     1 <1>   0.0800 
 31 H       -0.7670   -10.9570    -0.5510 H     1 <1>   0.0800 
 32 H       -3.3580   -11.1300     0.9800 H     1 <1>   0.0800 
 33 H       -3.3480    -9.5070     1.6640 H     1 <1>   0.0800 
 34 H       -4.2450    -8.1360    -1.6280 H     1 <1>   0.0800 
 35 H       -4.1120    -7.7270     0.0520 H     1 <1>   0.0800 
 36 H       -5.8010    -8.5140     1.6490 H     1 <1>   0.1500 
 37 H       -5.7820   -10.1130    -2.2910 H     1 <1>   0.1500 
 38 H       -7.9300    -9.6300     2.0000 H     1 <1>   0.1500 
 39 H       -7.9140   -11.1670    -1.7810 H     1 <1>   0.1500 
@<TRIPOS>BOND
  1   1   2  1   
  2   2   3  1   
  3   2   4  1   
  4   2  24  1   
  5   4   5  1   
  6   4   6  1   
  7   5   7  2   
  8   6   8  2   
  9   6  25  1   
 10   7   8  1   
 11   7   9  1   
 12   8  26  1   
 13   9  10  2   
 14   9  11  am  
 15  11  12  1   
 16  11  27  1   
 17  12  13  1   
 18  12  14  1   
 19  12  28  1   
 20  13  15  1   
 21  13  16  1   
 22  13  29  1   
 23  14  17  1   
 24  14  30  1   
 25  14  31  1   
 26  15  17  1   
 27  15  32  1   
 28  15  33  1   
 29  16  18  1   
 30  16  34  1   
 31  16  35  1   
 32  18  19  ar  
 33  18  20  ar  
 34  19  21  ar  
 35  19  36  1   
 36  20  22  ar  
 37  20  37  1   
 38  21  23  ar  
 39  21  38  1   
 40  22  23  ar  
 41  22  39  1   
@<TRIPOS>SUBSTRUCTURE
  1 ****  11 GROUP 4 **** **** 0

# MOE 2024.06 (io_trps.svl 2023.06)
