@<TRIPOS>MOLECULE
NONAME
50 53 1 0 0 
SMALL
USER_CHARGES


@<TRIPOS>ATOM
  1 O       -0.5220     2.7380     2.5320 O.2   1 <1>  -0.5700 
  2 C       -0.1040     3.1440     1.4700 C.2   1 <1>   0.6300 
  3 N       -0.9560     3.4600     0.4390 N.am  1 <1>  -0.6600 
  4 C        1.4190     3.2630     1.3020 C.3   1 <1>   0.0320 
  5 C       -2.4060     3.1150     0.5080 C.3   1 <1>   0.1400 
  6 C       -0.5300     3.9120    -0.9110 C.3   1 <1>   0.1400 
  7 C        1.9940     2.1190     0.4720 C.ar  1 <1>  -0.0320 
  8 C        2.2470     3.7000     2.4800 C.3   1 <1>  -0.2000 
  9 C        2.0670     4.6240     1.3210 C.3   1 <1>  -0.2000 
 10 C       -2.7070     1.9340    -0.4370 C.3   1 <1>   0.0000 
 11 C       -0.7860     2.7920    -1.9260 C.3   1 <1>  -0.1600 
 12 C        1.8410     0.8180     0.9220 C.ar  1 <1>  -0.1500 
 13 C        2.6530     2.3410    -0.7290 C.ar  1 <1>  -0.1500 
 14 C       -4.1940     1.5420    -0.3500 C.3   1 <1>   0.2000 
 15 C       -2.2440     2.2970    -1.8790 C.3   1 <1>  -0.1600 
 16 C       -2.0330     0.6330     0.0400 C.3   1 <1>  -0.1600 
 17 C        2.3310    -0.2460     0.1840 C.ar  1 <1>  -0.1500 
 18 C        3.1440     1.2790    -1.4680 C.ar  1 <1>  -0.1500 
 19 O       -5.0070     2.3180    -1.1570 O.3   1 <1>  -0.6800 
 20 C       -4.2790     0.0740    -0.7680 C.3   1 <1>  -0.1600 
 21 C       -2.8800    -0.5100    -0.5290 C.3   1 <1>  -0.1600 
 22 C        2.9860    -0.0200    -1.0150 C.ar  1 <1>  -0.1430 
 23 C        3.5200    -1.1880    -1.8250 C.3   1 <1>  -0.0970 
 24 H       -2.6870     2.8630     1.5150 H     1 <1>   0.0800 
 25 H       -2.9860     3.9720     0.2120 H     1 <1>   0.0800 
 26 H       -1.1030     4.7820    -1.1810 H     1 <1>   0.0800 
 27 H        0.5080     4.1870    -0.9210 H     1 <1>   0.0800 
 28 H        1.7420     3.9150     3.4060 H     1 <1>   0.1000 
 29 H        3.2030     3.2300     2.6310 H     1 <1>   0.1000 
 30 H        2.9260     4.8250     0.7060 H     1 <1>   0.1000 
 31 H        1.4400     5.4880     1.4500 H     1 <1>   0.1000 
 32 H       -0.5640     3.1560    -2.9140 H     1 <1>   0.0800 
 33 H       -0.1080     1.9800    -1.7290 H     1 <1>   0.0800 
 34 H        1.3320     0.6320     1.8520 H     1 <1>   0.1500 
 35 H        2.7850     3.3410    -1.0990 H     1 <1>   0.1500 
 36 H       -4.5420     1.6440     0.6650 H     1 <1>   0.0800 
 37 H       -2.3570     1.4530    -2.5370 H     1 <1>   0.0800 
 38 H       -2.8600     3.0930    -2.2590 H     1 <1>   0.0800 
 39 H       -1.0020     0.5510    -0.2520 H     1 <1>   0.0800 
 40 H       -2.0720     0.5880     1.1160 H     1 <1>   0.0800 
 41 H        2.1980    -1.2490     0.5490 H     1 <1>   0.1500 
 42 H        3.6510     1.4690    -2.3970 H     1 <1>   0.1500 
 43 H       -4.7440     2.1980    -2.0880 H     1 <1>   0.4000 
 44 H       -5.0130    -0.4370    -0.1700 H     1 <1>   0.0800 
 45 H       -4.5360    -0.0200    -1.8080 H     1 <1>   0.0800 
 46 H       -2.9090    -1.3420     0.1530 H     1 <1>   0.0800 
 47 H       -2.4610    -0.8430    -1.4640 H     1 <1>   0.0800 
 48 H        3.8470    -1.9770    -1.1720 H     1 <1>   0.0800 
 49 H        4.3560    -0.8790    -2.4260 H     1 <1>   0.0800 
 50 H        2.7480    -1.5670    -2.4700 H     1 <1>   0.0800 
@<TRIPOS>BOND
  1   1   2  2   
  2   2   3  am  
  3   2   4  1   
  4   3   5  1   
  5   3   6  1   
  6   4   7  1   
  7   4   8  1   
  8   4   9  1   
  9   5  10  1   
 10   5  24  1   
 11   5  25  1   
 12   6  11  1   
 13   6  26  1   
 14   6  27  1   
 15   7  12  ar  
 16   7  13  ar  
 17   8   9  1   
 18   8  28  1   
 19   8  29  1   
 20   9  30  1   
 21   9  31  1   
 22  10  14  1   
 23  10  15  1   
 24  10  16  1   
 25  11  15  1   
 26  11  32  1   
 27  11  33  1   
 28  12  17  ar  
 29  12  34  1   
 30  13  18  ar  
 31  13  35  1   
 32  14  19  1   
 33  14  20  1   
 34  14  36  1   
 35  15  37  1   
 36  15  38  1   
 37  16  21  1   
 38  16  39  1   
 39  16  40  1   
 40  17  22  ar  
 41  17  41  1   
 42  18  22  ar  
 43  18  42  1   
 44  19  43  1   
 45  20  21  1   
 46  20  44  1   
 47  20  45  1   
 48  21  46  1   
 49  21  47  1   
 50  22  23  1   
 51  23  48  1   
 52  23  49  1   
 53  23  50  1   
@<TRIPOS>SUBSTRUCTURE
  1 ****   3 GROUP 4 **** **** 0

# MOE 2024.06 (io_trps.svl 2023.06)
