@<TRIPOS>MOLECULE
NONAME
58 61 1 0 0 
SMALL
USER_CHARGES


@<TRIPOS>ATOM
  1 O       -0.2120     0.7990     2.7530 O.2   1 <1>  -0.5700 
  2 C       -0.9500     1.5950     2.2150 C.2   1 <1>   0.6300 
  3 N       -2.2440     1.2530     1.8790 N.am  1 <1>  -0.6600 
  4 C       -0.3830     2.9970     1.9280 C.3   1 <1>   0.0320 
  5 C       -3.1640     2.1860     1.1640 C.3   1 <1>   0.2200 
  6 C       -2.7380    -0.1270     2.1870 C.3   1 <1>   0.0600 
  7 C       -0.0770     3.2200     0.4490 C.ar  1 <1>  -0.0320 
  8 C        0.6140     3.5870     2.8890 C.3   1 <1>  -0.2000 
  9 C       -0.7710     4.1390     2.8350 C.3   1 <1>  -0.2000 
 10 C       -4.5850     2.2350     1.7280 C.3   1 <1>  -0.1600 
 11 C       -3.3440     1.8140    -0.3050 C.3   1 <1>  -0.1600 
 12 C        0.7880     2.3530    -0.1990 C.ar  1 <1>  -0.1500 
 13 C       -0.6440     4.2630    -0.2710 C.ar  1 <1>  -0.1500 
 14 C       -5.4320     2.7820     0.5700 C.3   1 <1>  -0.0800 
 15 C       -4.6470     2.5110    -0.7190 C.3   1 <1>  -0.0800 
 16 C        1.0780     2.5180    -1.5420 C.ar  1 <1>  -0.1500 
 17 C       -0.3530     4.4300    -1.6140 C.ar  1 <1>  -0.1500 
 18 C       -6.7980     2.1050     0.3780 C.3   1 <1>  -0.1600 
 19 C       -5.5790     1.6810    -1.6130 C.3   1 <1>  -0.1600 
 20 C        0.5070     3.5560    -2.2580 C.ar  1 <1>  -0.1440 
 21 C       -7.0000     2.0080    -1.1390 C.3   1 <1>   0.4230 
 22 C        0.8330     3.7370    -3.7290 C.3   1 <1>  -0.0970 
 23 N       -7.4660     3.3190    -1.6970 N.4   1 <1>  -0.9590 
 24 C       -8.8080     3.7270    -1.1680 C.3   1 <1>   0.2630 
 25 C       -7.5290     3.3220    -3.1950 C.3   1 <1>   0.2630 
 26 H       -2.7800     3.1890     1.2040 H     1 <1>   0.0800 
 27 H       -3.4030    -0.4780     1.4210 H     1 <1>   0.0800 
 28 H       -3.2550    -0.1200     3.1310 H     1 <1>   0.0800 
 29 H       -1.9160    -0.8190     2.2550 H     1 <1>   0.0800 
 30 H        0.9120     3.0010     3.7420 H     1 <1>   0.1000 
 31 H        1.4250     4.1670     2.4860 H     1 <1>   0.1000 
 32 H       -0.8880     5.1350     2.4500 H     1 <1>   0.1000 
 33 H       -1.4300     3.9370     3.6610 H     1 <1>   0.1000 
 34 H       -4.9220     1.2530     2.0000 H     1 <1>   0.0800 
 35 H       -4.6340     2.8760     2.5910 H     1 <1>   0.0800 
 36 H       -2.5100     2.1510    -0.8970 H     1 <1>   0.0800 
 37 H       -3.4310     0.7480    -0.4070 H     1 <1>   0.0800 
 38 H        1.2390     1.5420     0.3480 H     1 <1>   0.1500 
 39 H       -1.3130     4.9530     0.2070 H     1 <1>   0.1500 
 40 H       -5.5550     3.8460     0.6860 H     1 <1>   0.0800 
 41 H       -4.4140     3.4520    -1.1910 H     1 <1>   0.0800 
 42 H        1.7530     1.8330    -2.0250 H     1 <1>   0.1500 
 43 H       -0.7950     5.2480    -2.1560 H     1 <1>   0.1500 
 44 H       -7.5830     2.6090     0.9090 H     1 <1>   0.0800 
 45 H       -6.7550     1.0970     0.7540 H     1 <1>   0.0800 
 46 H       -5.4160     0.6340    -1.4240 H     1 <1>   0.0800 
 47 H       -5.3970     1.8450    -2.6580 H     1 <1>   0.0800 
 48 H       -7.6920     1.2210    -1.3960 H     1 <1>   0.0800 
 49 H        0.9610     2.7800    -4.2040 H     1 <1>   0.0800 
 50 H        1.7430     4.3000    -3.8320 H     1 <1>   0.0800 
 51 H        0.0410     4.2620    -4.2320 H     1 <1>   0.0800 
 52 H       -6.7700     4.0170    -1.3990 H     1 <1>   0.4500 
 53 H       -9.5430     2.9690    -1.3880 H     1 <1>   0.0800 
 54 H       -9.1220     4.6520    -1.6230 H     1 <1>   0.0800 
 55 H       -8.7720     3.8740    -0.1020 H     1 <1>   0.0800 
 56 H       -8.1760     2.5340    -3.5450 H     1 <1>   0.0800 
 57 H       -6.5490     3.1790    -3.6200 H     1 <1>   0.0800 
 58 H       -7.9120     4.2650    -3.5500 H     1 <1>   0.0800 
@<TRIPOS>BOND
  1   1   2  2   
  2   2   3  am  
  3   2   4  1   
  4   3   5  1   
  5   3   6  1   
  6   4   7  1   
  7   4   8  1   
  8   4   9  1   
  9   5  10  1   
 10   5  11  1   
 11   5  26  1   
 12   6  27  1   
 13   6  28  1   
 14   6  29  1   
 15   7  12  ar  
 16   7  13  ar  
 17   8   9  1   
 18   8  30  1   
 19   8  31  1   
 20   9  32  1   
 21   9  33  1   
 22  10  14  1   
 23  10  34  1   
 24  10  35  1   
 25  11  15  1   
 26  11  36  1   
 27  11  37  1   
 28  12  16  ar  
 29  12  38  1   
 30  13  17  ar  
 31  13  39  1   
 32  14  15  1   
 33  14  18  1   
 34  14  40  1   
 35  15  19  1   
 36  15  41  1   
 37  16  20  ar  
 38  16  42  1   
 39  17  20  ar  
 40  17  43  1   
 41  18  21  1   
 42  18  44  1   
 43  18  45  1   
 44  19  21  1   
 45  19  46  1   
 46  19  47  1   
 47  20  22  1   
 48  21  23  1   
 49  21  48  1   
 50  22  49  1   
 51  22  50  1   
 52  22  51  1   
 53  23  24  1   
 54  23  25  1   
 55  23  52  1   
 56  24  53  1   
 57  24  54  1   
 58  24  55  1   
 59  25  56  1   
 60  25  57  1   
 61  25  58  1   
@<TRIPOS>SUBSTRUCTURE
  1 ****  11 GROUP 4 **** **** 0

# MOE 2024.06 (io_trps.svl 2023.06)
