@<TRIPOS>MOLECULE
NONAME
53 56 1 0 0 
SMALL
USER_CHARGES


@<TRIPOS>ATOM
  1 S       -1.3290     0.3060     0.9930 S.3   1 <1>  -0.0800 
  2 C       -1.5280     1.1230    -0.5510 C.2   1 <1>  -0.1400 
  3 C       -0.0430     1.4040     1.4580 C.2   1 <1>  -0.1100 
  4 C       -0.6540     2.1410    -0.6610 C.2   1 <1>  -0.1500 
  5 C       -2.5990     0.5900    -1.4910 C.3   1 <1>   0.0810 
  6 C        0.1890     2.3020     0.4840 C.2   1 <1>  -0.1500 
  7 C       -4.0080     0.6020    -0.9050 C.2   1 <1>   0.5690 
  8 O       -4.8330    -0.1590    -1.3610 O.2   1 <1>  -0.5700 
  9 N       -4.4030     1.4900     0.0580 N.am  1 <1>  -0.6600 
 10 C       -5.4020     1.0770     1.1040 C.3   1 <1>   0.1400 
 11 C       -4.1420     2.9510    -0.0500 C.3   1 <1>   0.1400 
 12 C       -6.8510     1.4850     0.7400 C.3   1 <1>   0.4230 
 13 C       -5.4070     3.7540    -0.4470 C.3   1 <1>  -0.0800 
 14 N       -6.9390     1.6950    -0.7530 N.4   1 <1>  -0.9590 
 15 C       -7.3530     2.6820     1.5760 C.3   1 <1>   0.1200 
 16 C       -6.0550     4.4910     0.7370 C.3   1 <1>   0.1200 
 17 C       -6.4710     3.0130    -1.2860 C.3   1 <1>   0.3430 
 18 C       -8.2410     1.2570    -1.3390 C.3   1 <1>   0.5240 
 19 O       -6.3510     3.6330     1.7850 O.3   1 <1>  -0.5600 
 20 C       -8.6120    -0.1480    -0.8830 C.2   1 <1>   0.1080 
 21 N       -9.3700    -0.3730     0.1490 N.2   1 <1>  -0.7070 
 22 C       -8.1790    -1.3240    -1.4830 C.2   1 <1>  -0.1500 
 23 N       -9.4660    -1.7170     0.2230 N.pl3 1 <1>   0.3140 
 24 C       -8.7450    -2.3060    -0.7510 C.2   1 <1>  -0.3020 
 25 C      -10.2770    -2.4010     1.2530 C.3   1 <1>   0.0960 
 26 C      -11.6480    -2.8040     0.6990 C.3   1 <1>  -0.2400 
 27 H        0.4090     1.2570     2.4230 H     1 <1>   0.1500 
 28 H       -0.5530     2.7990    -1.5070 H     1 <1>   0.1500 
 29 H       -2.6010     1.1650    -2.3970 H     1 <1>   0.0800 
 30 H       -2.3510    -0.4240    -1.7480 H     1 <1>   0.0800 
 31 H        0.9300     3.0830     0.5200 H     1 <1>   0.1500 
 32 H       -5.3740     0.0050     1.2030 H     1 <1>   0.0800 
 33 H       -5.1170     1.4810     2.0600 H     1 <1>   0.0800 
 34 H       -3.7460     3.3100     0.8870 H     1 <1>   0.0800 
 35 H       -3.3840     3.1180    -0.7960 H     1 <1>   0.0800 
 36 H       -7.4730     0.6520     1.0150 H     1 <1>   0.0800 
 37 H       -5.0540     4.5490    -1.0800 H     1 <1>   0.0800 
 38 H       -6.2390     0.9960    -1.0800 H     1 <1>   0.4500 
 39 H       -7.6300     2.3200     2.5510 H     1 <1>   0.0800 
 40 H       -8.2180     3.1460     1.1370 H     1 <1>   0.0800 
 41 H       -6.9560     5.0070     0.4460 H     1 <1>   0.0800 
 42 H       -5.3670     5.2230     1.1260 H     1 <1>   0.0800 
 43 H       -6.0680     2.8520    -2.2730 H     1 <1>   0.0800 
 44 H       -7.3200     3.6680    -1.3910 H     1 <1>   0.0800 
 45 H       -9.0240     1.9290    -1.0350 H     1 <1>   0.0800 
 46 H       -8.1810     1.2670    -2.4140 H     1 <1>   0.0800 
 47 H       -7.5320    -1.4210    -2.3390 H     1 <1>   0.1500 
 48 H       -8.6790    -3.3730    -0.8690 H     1 <1>   0.1500 
 49 H       -9.7410    -3.2700     1.5890 H     1 <1>   0.0800 
 50 H      -10.4010    -1.7310     2.0850 H     1 <1>   0.0800 
 51 H      -11.5360    -3.4870    -0.1250 H     1 <1>   0.0800 
 52 H      -12.1850    -1.9320     0.3690 H     1 <1>   0.0800 
 53 H      -12.2240    -3.2880     1.4670 H     1 <1>   0.0800 
@<TRIPOS>BOND
  1   1   2  1   
  2   1   3  1   
  3   2   4  2   
  4   2   5  1   
  5   3   6  2   
  6   3  27  1   
  7   4   6  1   
  8   4  28  1   
  9   5   7  1   
 10   5  29  1   
 11   5  30  1   
 12   6  31  1   
 13   7   8  2   
 14   7   9  am  
 15   9  10  1   
 16   9  11  1   
 17  10  12  1   
 18  10  32  1   
 19  10  33  1   
 20  11  13  1   
 21  11  34  1   
 22  11  35  1   
 23  12  14  1   
 24  12  15  1   
 25  12  36  1   
 26  13  16  1   
 27  13  17  1   
 28  13  37  1   
 29  14  17  1   
 30  14  18  1   
 31  14  38  1   
 32  15  19  1   
 33  15  39  1   
 34  15  40  1   
 35  16  19  1   
 36  16  41  1   
 37  16  42  1   
 38  17  43  1   
 39  17  44  1   
 40  18  20  1   
 41  18  45  1   
 42  18  46  1   
 43  20  21  2   
 44  20  22  1   
 45  21  23  1   
 46  22  24  2   
 47  22  47  1   
 48  23  24  1   
 49  23  25  1   
 50  24  48  1   
 51  25  26  1   
 52  25  49  1   
 53  25  50  1   
 54  26  51  1   
 55  26  52  1   
 56  26  53  1   
@<TRIPOS>SUBSTRUCTURE
  1 ****  10 GROUP 4 **** **** 0

# MOE 2024.06 (io_trps.svl 2023.06)
