@<TRIPOS>MOLECULE
NONAME
54 57 1 0 0 
SMALL
USER_CHARGES


@<TRIPOS>ATOM
  1 O       -0.1400     0.9350    -0.1910 O.2   1 <1>  -0.5700 
  2 C       -0.0790     2.1340    -0.2910 C.2   1 <1>   0.5690 
  3 N       -0.9000     2.9270     0.4330 N.am  1 <1>  -0.7300 
  4 C        0.9150     2.7760    -1.2640 C.3   1 <1>   0.1810 
  5 C       -0.8980     4.4070     0.3480 C.3   1 <1>   0.3640 
  6 O        1.1600     4.1340    -0.9740 O.3   1 <1>  -0.5600 
  7 C       -2.3340     4.9020     0.2220 C.ar  1 <1>  -0.1440 
  8 C       -0.0130     4.9210    -0.8150 C.3   1 <1>   0.2610 
  9 C       -2.7560     5.9850     0.9810 C.ar  1 <1>  -0.1500 
 10 C       -3.2350     4.2970    -0.6470 C.ar  1 <1>  -0.1500 
 11 C        0.2920     6.4130    -0.6100 C.2   1 <1>   0.5690 
 12 C       -4.0540     6.4530     0.8770 C.ar  1 <1>  -0.1500 
 13 C       -4.5330     4.7640    -0.7500 C.ar  1 <1>  -0.1500 
 14 O       -0.2990     7.1690    -1.3440 O.2   1 <1>  -0.5700 
 15 N        1.1520     6.8880     0.3680 N.am  1 <1>  -0.6600 
 16 C       -4.9440     5.8420     0.0120 C.ar  1 <1>  -0.1500 
 17 C        1.3290     8.3550     0.6440 C.3   1 <1>   0.2200 
 18 C        2.0620     6.0190     1.1720 C.3   1 <1>   0.1400 
 19 C        0.0430     9.0850     1.0750 C.3   1 <1>  -0.0170 
 20 C        1.9230     9.1650    -0.5240 C.3   1 <1>  -0.0170 
 21 C        3.4580     5.9980     0.5430 C.3   1 <1>  -0.1600 
 22 C        0.2960    10.4950     0.5990 C.ar  1 <1>  -0.1430 
 23 C        1.3420    10.5400    -0.2920 C.ar  1 <1>  -0.1430 
 24 C        4.3930     5.0500     1.3010 C.3   1 <1>  -0.2400 
 25 C       -0.3790    11.6480     0.9550 C.ar  1 <1>  -0.1500 
 26 C        1.7420    11.7390    -0.8520 C.ar  1 <1>  -0.1500 
 27 C        0.0150    12.8550     0.4000 C.ar  1 <1>  -0.1500 
 28 C        1.0720    12.9010    -0.5000 C.ar  1 <1>  -0.1500 
 29 H       -1.5950     2.4940     1.0430 H     1 <1>   0.3700 
 30 H        0.5330     2.7060    -2.2660 H     1 <1>   0.0800 
 31 H        1.8530     2.2540    -1.2120 H     1 <1>   0.0800 
 32 H       -0.4980     4.7810     1.2730 H     1 <1>   0.0800 
 33 H       -0.5710     4.8350    -1.7310 H     1 <1>   0.0800 
 34 H       -2.0780     6.4780     1.6560 H     1 <1>   0.1500 
 35 H       -2.9330     3.4570    -1.2490 H     1 <1>   0.1500 
 36 H       -4.3730     7.2950     1.4670 H     1 <1>   0.1500 
 37 H       -5.2240     4.2890    -1.4250 H     1 <1>   0.1500 
 38 H       -5.9530     6.2070    -0.0700 H     1 <1>   0.1500 
 39 H        2.0190     8.4730     1.4620 H     1 <1>   0.0800 
 40 H        2.1200     6.3920     2.1810 H     1 <1>   0.0800 
 41 H        1.6860     5.0150     1.2300 H     1 <1>   0.0800 
 42 H       -0.8290     8.7020     0.5800 H     1 <1>   0.0800 
 43 H       -0.0850     9.0500     2.1410 H     1 <1>   0.0800 
 44 H        2.9960     9.1830    -0.4800 H     1 <1>   0.0800 
 45 H        1.5960     8.8010    -1.4800 H     1 <1>   0.0800 
 46 H        3.3810     5.6700    -0.4790 H     1 <1>   0.0800 
 47 H        3.8790     6.9870     0.5530 H     1 <1>   0.0800 
 48 H        4.0080     4.0460     1.2800 H     1 <1>   0.0800 
 49 H        4.5000     5.3610     2.3250 H     1 <1>   0.0800 
 50 H        5.3660     5.0500     0.8410 H     1 <1>   0.0800 
 51 H       -1.1990    11.6070     1.6490 H     1 <1>   0.1500 
 52 H        2.5590    11.7700    -1.5510 H     1 <1>   0.1500 
 53 H       -0.5010    13.7600     0.6660 H     1 <1>   0.1500 
 54 H        1.3710    13.8410    -0.9280 H     1 <1>   0.1500 
@<TRIPOS>BOND
  1   1   2  2   
  2   2   3  am  
  3   2   4  1   
  4   3   5  1   
  5   3  29  1   
  6   4   6  1   
  7   4  30  1   
  8   4  31  1   
  9   5   7  1   
 10   5   8  1   
 11   5  32  1   
 12   6   8  1   
 13   7   9  ar  
 14   7  10  ar  
 15   8  11  1   
 16   8  33  1   
 17   9  12  ar  
 18   9  34  1   
 19  10  13  ar  
 20  10  35  1   
 21  11  14  2   
 22  11  15  am  
 23  12  16  ar  
 24  12  36  1   
 25  13  16  ar  
 26  13  37  1   
 27  15  17  1   
 28  15  18  1   
 29  16  38  1   
 30  17  19  1   
 31  17  20  1   
 32  17  39  1   
 33  18  21  1   
 34  18  40  1   
 35  18  41  1   
 36  19  22  1   
 37  19  42  1   
 38  19  43  1   
 39  20  23  1   
 40  20  44  1   
 41  20  45  1   
 42  21  24  1   
 43  21  46  1   
 44  21  47  1   
 45  22  23  ar  
 46  22  25  ar  
 47  23  26  ar  
 48  24  48  1   
 49  24  49  1   
 50  24  50  1   
 51  25  27  ar  
 52  25  51  1   
 53  26  28  ar  
 54  26  52  1   
 55  27  28  ar  
 56  27  53  1   
 57  28  54  1   
@<TRIPOS>SUBSTRUCTURE
  1 ****  11 GROUP 4 **** **** 0

# MOE 2024.06 (io_trps.svl 2023.06)
