@<TRIPOS>MOLECULE
NONAME
35 35 1 0 0 
SMALL
USER_CHARGES


@<TRIPOS>ATOM
  1 O       -0.0700     0.1460    -0.0440 O.2   1 <1>  -0.5700 
  2 C       -1.1130     0.7380    -0.2430 C.2   1 <1>   0.7800 
  3 O       -2.2950     0.1290    -0.1230 O.3   1 <1>  -0.4300 
  4 N       -1.1390     2.0520    -0.5920 N.am  1 <1>  -0.5100 
  5 C       -2.5320    -1.2190     0.2220 C.3   1 <1>   0.2800 
  6 C       -0.0830     3.0630    -0.2830 C.3   1 <1>   0.2250 
  7 C       -2.2170     3.0370    -0.2600 C.3   1 <1>   0.2250 
  8 C       -1.9180    -2.1520    -0.8280 C.3   1 <1>  -0.2400 
  9 C       -4.0530    -1.3740     0.2050 C.3   1 <1>  -0.2400 
 10 C       -2.0100    -1.5040     1.6350 C.3   1 <1>  -0.2400 
 11 C       -1.1570     3.8640     0.4970 C.3   1 <1>   0.0530 
 12 C        0.4800     3.6460    -1.5820 C.3   1 <1>  -0.2400 
 13 C       -1.2090     5.3520     0.2210 C.2   1 <1>   0.6670 
 14 O       -0.2300     6.0480     0.3070 O.2   1 <1>  -0.5700 
 15 O       -2.3980     5.8590    -0.0910 O.3   1 <1>  -0.4300 
 16 C       -2.5760     7.2380    -0.3450 C.3   1 <1>   0.0400 
 17 H        0.6760     2.6570     0.3620 H     1 <1>   0.0000 
 18 H       -2.9770     2.6210     0.3770 H     1 <1>   0.0000 
 19 H       -2.5960     3.5000    -1.1540 H     1 <1>   0.0000 
 20 H       -2.2490    -1.8760    -1.8130 H     1 <1>   0.0800 
 21 H       -2.2180    -3.1660    -0.6390 H     1 <1>   0.0800 
 22 H       -0.8440    -2.1200    -0.7960 H     1 <1>   0.0800 
 23 H       -4.4390    -1.1510    -0.7730 H     1 <1>   0.0800 
 24 H       -4.5040    -0.7100     0.9210 H     1 <1>   0.0800 
 25 H       -4.3290    -2.3820     0.4570 H     1 <1>   0.0800 
 26 H       -0.9370    -1.4720     1.6670 H     1 <1>   0.0800 
 27 H       -2.3140    -2.4870     1.9460 H     1 <1>   0.0800 
 28 H       -2.4070    -0.7890     2.3330 H     1 <1>   0.0800 
 29 H       -1.1490     3.6390     1.5500 H     1 <1>   0.0000 
 30 H       -0.3010     4.0230    -2.2180 H     1 <1>   0.0800 
 31 H        1.0260     2.8840    -2.1080 H     1 <1>   0.0800 
 32 H        1.1610     4.4480    -1.3570 H     1 <1>   0.0800 
 33 H       -3.6120     7.4120    -0.5760 H     1 <1>   0.0800 
 34 H       -1.9570     7.5210    -1.1790 H     1 <1>   0.0800 
 35 H       -2.2920     7.7930     0.5320 H     1 <1>   0.0800 
@<TRIPOS>BOND
  1   1   2  2   
  2   2   3  1   
  3   2   4  am  
  4   3   5  1   
  5   4   6  1   
  6   4   7  1   
  7   5   8  1   
  8   5   9  1   
  9   5  10  1   
 10   6  11  1   
 11   6  12  1   
 12   6  17  1   
 13   7  11  1   
 14   7  18  1   
 15   7  19  1   
 16   8  20  1   
 17   8  21  1   
 18   8  22  1   
 19   9  23  1   
 20   9  24  1   
 21   9  25  1   
 22  10  26  1   
 23  10  27  1   
 24  10  28  1   
 25  11  13  1   
 26  11  29  1   
 27  12  30  1   
 28  12  31  1   
 29  12  32  1   
 30  13  14  2   
 31  13  15  1   
 32  15  16  1   
 33  16  33  1   
 34  16  34  1   
 35  16  35  1   
@<TRIPOS>SUBSTRUCTURE
  1 ****   4 GROUP 4 **** **** 0

# MOE 2024.06 (io_trps.svl 2023.06)
