@<TRIPOS>MOLECULE
NONAME
16 16 1 0 0 
SMALL
USER_CHARGES


@<TRIPOS>ATOM
  1 O        1.0870    -0.8520     2.2210 O.2   1 <1>  -0.5200 
  2 N        1.2880    -1.1340     1.0360 N.pl3 1 <1>   0.8000 
  3 O        2.0560    -0.4820     0.3130 O.2   1 <1>  -0.5200 
  4 C        0.6090    -2.3070     0.4750 C.3   1 <1>   0.0800 
  5 C        1.6200    -3.2590    -0.1700 C.3   1 <1>   0.2580 
  6 O        2.1960    -2.7570    -1.3410 O.3   1 <1>  -0.6580 
  7 C        2.6300    -3.9310     0.7810 C.3   1 <1>   0.2580 
  8 C        1.1290    -4.7080    -0.3330 C.3   1 <1>   0.2580 
  9 O        1.6520    -4.9490     0.9710 O.3   1 <1>  -0.5160 
 10 H       -0.1110    -1.9810    -0.2500 H     1 <1>   0.0800 
 11 H        0.0940    -2.8070     1.2740 H     1 <1>   0.0800 
 12 H        2.6180    -1.8850    -1.1680 H     1 <1>   0.4000 
 13 H        2.8100    -3.4190     1.7090 H     1 <1>   0.0000 
 14 H        3.5050    -4.3470     0.3100 H     1 <1>   0.0000 
 15 H        1.6640    -5.3020    -1.0560 H     1 <1>   0.0000 
 16 H        0.0620    -4.8400    -0.3310 H     1 <1>   0.0000 
@<TRIPOS>BOND
  1   1   2  2   
  2   2   3  2   
  3   2   4  1   
  4   4   5  1   
  5   4  10  1   
  6   4  11  1   
  7   5   6  1   
  8   5   7  1   
  9   5   8  1   
 10   6  12  1   
 11   7   9  1   
 12   7  13  1   
 13   7  14  1   
 14   8   9  1   
 15   8  15  1   
 16   8  16  1   
@<TRIPOS>SUBSTRUCTURE
  1 ****   5 GROUP 4 **** **** 0

# MOE 2024.06 (io_trps.svl 2023.06)
