@<TRIPOS>MOLECULE
NONAME
47 49 1 0 0 
SMALL
USER_CHARGES


@<TRIPOS>ATOM
  1 O       -0.2530     0.4650     1.7600 O.3   1 <1>  -0.5600 
  2 C        0.6990     0.5400     0.7490 C.3   1 <1>   0.1200 
  3 C       -1.5380     0.5410     1.2180 C.3   1 <1>   0.1200 
  4 C        0.0830     1.4730    -0.2890 C.3   1 <1>   0.2890 
  5 C       -1.3740     1.0220    -0.2300 C.3   1 <1>  -0.0800 
  6 N        0.2270     2.8720     0.1930 N.pl3 1 <1>  -0.8690 
  7 C       -2.4360     2.0530    -0.6610 C.3   1 <1>  -0.0170 
  8 C        0.7070     4.0080    -0.3180 C.ar  1 <1>   0.7710 
  9 C       -3.8290     1.4420    -0.6170 C.ar  1 <1>  -0.1440 
 10 N        0.6970     5.0470     0.4840 N.ar  1 <1>  -0.6200 
 11 N        1.1670     4.0620    -1.5780 N.ar  1 <1>  -0.1790 
 12 C       -4.7000     1.6830     0.4270 C.ar  1 <1>  -0.1500 
 13 C       -4.2940     0.6130    -1.6180 C.ar  1 <1>  -0.1500 
 14 C        1.1840     6.1870     0.0310 C.ar  1 <1>   0.4100 
 15 C        1.6370     5.2220    -2.0960 C.ar  1 <1>   0.2110 
 16 C       -5.9540     1.0940     0.4230 C.ar  1 <1>   0.1600 
 17 C       -5.5680     0.0760    -1.5260 C.ar  1 <1>   0.1600 
 18 N        1.2090     7.2200     0.9130 N.pl3 1 <1>  -0.8380 
 19 C        1.6510     6.3230    -1.3030 C.ar  1 <1>  -0.1430 
 20 N       -6.4070     0.2950    -0.5280 N.ar  1 <1>  -0.6200 
 21 C        2.4600     7.9450     1.2690 C.3   1 <1>   0.1290 
 22 C        0.0900     7.4480     1.8730 C.3   1 <1>   0.1290 
 23 C        2.1200     7.6650    -1.8620 C.3   1 <1>  -0.0970 
 24 H        1.6250     0.9090     1.1540 H     1 <1>   0.0800 
 25 H        0.8380    -0.4510     0.3520 H     1 <1>   0.0800 
 26 H       -1.9960    -0.4330     1.2660 H     1 <1>   0.0800 
 27 H       -2.1030     1.2350     1.8170 H     1 <1>   0.0800 
 28 H        0.5220     1.3350    -1.2620 H     1 <1>   0.0800 
 29 H       -1.4770     0.1550    -0.8600 H     1 <1>   0.0800 
 30 H       -0.0430     2.9470     1.1840 H     1 <1>   0.4000 
 31 H       -2.2350     2.3880    -1.6630 H     1 <1>   0.0800 
 32 H       -2.4090     2.9140    -0.0170 H     1 <1>   0.0800 
 33 H        1.1310     3.2030    -2.1120 H     1 <1>   0.4570 
 34 H       -4.4210     2.3200     1.2460 H     1 <1>   0.1500 
 35 H       -3.6850     0.3770    -2.4700 H     1 <1>   0.1500 
 36 H        1.9750     5.2370    -3.1190 H     1 <1>   0.1500 
 37 H       -6.6200     1.2920     1.2450 H     1 <1>   0.1500 
 38 H       -5.9150    -0.5690    -2.3160 H     1 <1>   0.1500 
 39 H        2.6200     7.9010     2.3330 H     1 <1>   0.0800 
 40 H        2.3830     8.9760     0.9700 H     1 <1>   0.0800 
 41 H        3.3090     7.4960     0.7840 H     1 <1>   0.0800 
 42 H       -0.0970     8.5030     1.9740 H     1 <1>   0.0800 
 43 H        0.3450     7.0380     2.8350 H     1 <1>   0.0800 
 44 H       -0.8090     6.9730     1.5200 H     1 <1>   0.0800 
 45 H        2.1530     7.6530    -2.9370 H     1 <1>   0.0800 
 46 H        3.1040     7.9020    -1.4990 H     1 <1>   0.0800 
 47 H        1.4450     8.4470    -1.5600 H     1 <1>   0.0800 
@<TRIPOS>BOND
  1   1   2  1   
  2   1   3  1   
  3   2   4  1   
  4   2  24  1   
  5   2  25  1   
  6   3   5  1   
  7   3  26  1   
  8   3  27  1   
  9   4   5  1   
 10   4   6  1   
 11   4  28  1   
 12   5   7  1   
 13   5  29  1   
 14   6   8  1   
 15   6  30  1   
 16   7   9  1   
 17   7  31  1   
 18   7  32  1   
 19   8  10  ar  
 20   8  11  ar  
 21   9  12  ar  
 22   9  13  ar  
 23  10  14  ar  
 24  11  15  ar  
 25  11  33  1   
 26  12  16  ar  
 27  12  34  1   
 28  13  17  ar  
 29  13  35  1   
 30  14  18  1   
 31  14  19  ar  
 32  15  19  ar  
 33  15  36  1   
 34  16  20  ar  
 35  16  37  1   
 36  17  20  ar  
 37  17  38  1   
 38  18  21  1   
 39  18  22  1   
 40  19  23  1   
 41  21  39  1   
 42  21  40  1   
 43  21  41  1   
 44  22  42  1   
 45  22  43  1   
 46  22  44  1   
 47  23  45  1   
 48  23  46  1   
 49  23  47  1   
@<TRIPOS>SUBSTRUCTURE
  1 ****   6 GROUP 4 **** **** 0

# MOE 2024.06 (io_trps.svl 2023.06)
