@<TRIPOS>MOLECULE
NONAME
42 44 1 0 0 
SMALL
USER_CHARGES


@<TRIPOS>ATOM
  1 F       -0.4190    -1.4350     1.9970 F     1 <1>  -0.3400 
  2 C       -0.2710    -1.4700     0.6750 C.3   1 <1>   0.7810 
  3 F       -1.5120    -1.4020     0.2000 F     1 <1>  -0.3400 
  4 C        0.3910    -2.7860     0.2440 C.2   1 <1>   0.1080 
  5 N        1.4710    -2.8610    -0.4870 N.2   1 <1>  -0.7070 
  6 C       -0.0780    -4.0440     0.5800 C.2   1 <1>  -0.1500 
  7 N        1.7110    -4.1750    -0.6230 N.pl3 1 <1>   0.3140 
  8 C        0.7760    -4.9360     0.0040 C.2   1 <1>  -0.2370 
  9 C        2.8780    -4.6360    -1.3940 C.3   1 <1>   0.0160 
 10 C        0.7730    -6.3730     0.0120 C.2   1 <1>   0.7150 
 11 O        1.8220    -6.9900    -0.0310 O.2   1 <1>  -0.5700 
 12 N       -0.4010    -7.0870     0.0510 N.am  1 <1>  -0.6600 
 13 C       -1.7190    -6.5640    -0.3900 C.3   1 <1>   0.1400 
 14 C       -0.4180    -8.5700     0.0940 C.3   1 <1>   0.1400 
 15 C       -2.4910    -7.7960    -0.8590 C.3   1 <1>   0.2000 
 16 C       -1.8820    -8.9700    -0.0950 C.3   1 <1>  -0.0800 
 17 O       -3.8430    -7.6900    -0.5750 O.3   1 <1>  -0.6800 
 18 C       -2.0680   -10.3130    -0.8170 C.3   1 <1>  -0.0170 
 19 C       -1.4470   -11.4510    -0.0230 C.ar  1 <1>  -0.1430 
 20 C       -2.1190   -12.0560     1.0200 C.ar  1 <1>  -0.1500 
 21 C       -0.1850   -11.9390    -0.2980 C.ar  1 <1>  -0.1500 
 22 C       -1.5140   -13.0870     1.7190 C.ar  1 <1>   0.1600 
 23 C        0.3300   -12.9750     0.4640 C.ar  1 <1>   0.1600 
 24 N       -0.3040   -13.5600     1.4670 N.ar  1 <1>  -0.6200 
 25 H        0.2660    -0.5930     0.3650 H     1 <1>   0.0800 
 26 H       -0.9450    -4.2440     1.1850 H     1 <1>   0.1500 
 27 H        2.5580    -5.3440    -2.1350 H     1 <1>   0.0800 
 28 H        3.5780    -5.1010    -0.7260 H     1 <1>   0.0800 
 29 H        3.3420    -3.7950    -1.8750 H     1 <1>   0.0800 
 30 H       -2.2120    -6.1030     0.4470 H     1 <1>   0.0800 
 31 H       -1.6020    -5.8560    -1.1930 H     1 <1>   0.0800 
 32 H        0.1910    -8.9500    -0.7090 H     1 <1>   0.0800 
 33 H       -0.0290    -8.9280     1.0330 H     1 <1>   0.0800 
 34 H       -2.3750    -7.9160    -1.9230 H     1 <1>   0.0800 
 35 H       -2.3240    -9.0270     0.8840 H     1 <1>   0.0800 
 36 H       -3.9890    -7.6100     0.3870 H     1 <1>   0.4000 
 37 H       -1.6240   -10.2700    -1.7970 H     1 <1>   0.0800 
 38 H       -3.1190   -10.5050    -0.9480 H     1 <1>   0.0800 
 39 H       -3.1070   -11.7360     1.2950 H     1 <1>   0.1500 
 40 H        0.4050   -11.5260    -1.0950 H     1 <1>   0.1500 
 41 H       -2.0530   -13.5470     2.5290 H     1 <1>   0.1500 
 42 H        1.3160   -13.3410     0.2370 H     1 <1>   0.1500 
@<TRIPOS>BOND
  1   1   2  1   
  2   2   3  1   
  3   2   4  1   
  4   2  25  1   
  5   4   5  2   
  6   4   6  1   
  7   5   7  1   
  8   6   8  2   
  9   6  26  1   
 10   7   8  1   
 11   7   9  1   
 12   8  10  1   
 13   9  27  1   
 14   9  28  1   
 15   9  29  1   
 16  10  11  2   
 17  10  12  am  
 18  12  13  1   
 19  12  14  1   
 20  13  15  1   
 21  13  30  1   
 22  13  31  1   
 23  14  16  1   
 24  14  32  1   
 25  14  33  1   
 26  15  16  1   
 27  15  17  1   
 28  15  34  1   
 29  16  18  1   
 30  16  35  1   
 31  17  36  1   
 32  18  19  1   
 33  18  37  1   
 34  18  38  1   
 35  19  20  ar  
 36  19  21  ar  
 37  20  22  ar  
 38  20  39  1   
 39  21  23  ar  
 40  21  40  1   
 41  22  24  ar  
 42  22  41  1   
 43  23  24  ar  
 44  23  42  1   
@<TRIPOS>SUBSTRUCTURE
  1 ****  12 GROUP 4 **** **** 0

# MOE 2024.06 (io_trps.svl 2023.06)
