@<TRIPOS>MOLECULE
NONAME
60 63 1 0 0 
SMALL
USER_CHARGES


@<TRIPOS>ATOM
  1 O       -1.8020     1.8780     1.6550 O.2   1 <1>  -0.5700 
  2 C       -2.0350     1.5280     0.5210 C.2   1 <1>   0.5690 
  3 N       -3.2300     0.9640     0.1650 N.am  1 <1>  -0.6600 
  4 C       -0.9490     1.7440    -0.5140 C.3   1 <1>  -0.0990 
  5 C       -4.2880     0.6820     1.1790 C.3   1 <1>   0.1400 
  6 C       -3.5820     0.4380    -1.1880 C.3   1 <1>   0.1400 
  7 C        0.2690     2.5000     0.0480 C.3   1 <1>   0.4230 
  8 C       -4.4770    -0.8320     1.3030 C.3   1 <1>  -0.1600 
  9 C       -3.7570    -1.0810    -1.1080 C.3   1 <1>  -0.1600 
 10 N        0.1180     3.9980    -0.0200 N.4   1 <1>  -0.9590 
 11 C        1.5270     2.1030    -0.7440 C.3   1 <1>  -0.1600 
 12 C       -4.8040    -1.4870    -0.0550 C.3   1 <1>   0.4240 
 13 C        1.3010     4.6900     0.5690 C.3   1 <1>   0.3430 
 14 C       -1.1140     4.5030     0.6690 C.3   1 <1>   0.2630 
 15 C        2.7870     2.8180    -0.2420 C.3   1 <1>  -0.1600 
 16 O       -5.9910    -0.8820    -0.5200 O.3   1 <1>  -0.5600 
 17 C       -4.9420    -3.0330     0.0380 C.ar  1 <1>  -0.1440 
 18 C        2.5620     4.3320    -0.2160 C.3   1 <1>  -0.1600 
 19 C       -7.2020    -1.3980    -0.0720 C.3   1 <1>   0.1200 
 20 C       -3.8730    -3.8570     0.4190 C.ar  1 <1>   0.0820 
 21 C       -6.1630    -3.6380    -0.2590 C.ar  1 <1>  -0.1440 
 22 C       -7.3600    -2.7960    -0.6470 C.3   1 <1>  -0.0170 
 23 O       -2.6800    -3.2860     0.7390 O.3   1 <1>  -0.3620 
 24 C       -4.0380    -5.2400     0.4710 C.ar  1 <1>  -0.1500 
 25 C       -6.3140    -5.0140    -0.2030 C.ar  1 <1>  -0.1500 
 26 C       -1.6200    -4.0170     1.3150 C.3   1 <1>   0.0400 
 27 C       -5.2530    -5.8160     0.1600 C.ar  1 <1>  -0.1500 
 28 H       -1.3400     2.2600    -1.3690 H     1 <1>   0.0800 
 29 H       -0.6420     0.7630    -0.8250 H     1 <1>   0.0800 
 30 H       -5.2090     1.1440     0.8690 H     1 <1>   0.0800 
 31 H       -4.0200     1.0890     2.1390 H     1 <1>   0.0800 
 32 H       -2.8270     0.6690    -1.9150 H     1 <1>   0.0800 
 33 H       -4.5030     0.8940    -1.5130 H     1 <1>   0.0800 
 34 H        0.4130     2.2040     1.0760 H     1 <1>   0.0800 
 35 H       -5.2530    -1.0500     2.0110 H     1 <1>   0.0800 
 36 H       -3.5710    -1.2390     1.7060 H     1 <1>   0.0800 
 37 H       -2.8020    -1.5120    -0.8860 H     1 <1>   0.0800 
 38 H       -4.0640    -1.4640    -2.0640 H     1 <1>   0.0800 
 39 H        0.0740     4.2560    -1.0130 H     1 <1>   0.4500 
 40 H        1.3810     2.3170    -1.7890 H     1 <1>   0.0800 
 41 H        1.6830     1.0410    -0.6530 H     1 <1>   0.0800 
 42 H        1.4210     4.3910     1.5980 H     1 <1>   0.0800 
 43 H        1.1560     5.7580     0.5420 H     1 <1>   0.0800 
 44 H       -1.1120     4.2010     1.7050 H     1 <1>   0.0800 
 45 H       -2.0000     4.1020     0.2040 H     1 <1>   0.0800 
 46 H       -1.1610     5.5790     0.6210 H     1 <1>   0.0800 
 47 H        3.6230     2.5810    -0.8800 H     1 <1>   0.0800 
 48 H        3.0250     2.4720     0.7510 H     1 <1>   0.0800 
 49 H        3.4100     4.8090     0.2450 H     1 <1>   0.0800 
 50 H        2.4830     4.7130    -1.2190 H     1 <1>   0.0800 
 51 H       -7.9880    -0.7530    -0.4230 H     1 <1>   0.0800 
 52 H       -7.2090    -1.4150     1.0040 H     1 <1>   0.0800 
 53 H       -7.4350    -2.7380    -1.7180 H     1 <1>   0.0800 
 54 H       -8.2650    -3.2330    -0.2660 H     1 <1>   0.0800 
 55 H       -3.2330    -5.8910     0.7490 H     1 <1>   0.1500 
 56 H       -7.2610    -5.4670    -0.4430 H     1 <1>   0.1500 
 57 H       -0.8320    -3.3270     1.5570 H     1 <1>   0.0800 
 58 H       -1.2650    -4.7390     0.6020 H     1 <1>   0.0800 
 59 H       -1.9720    -4.4970     2.2110 H     1 <1>   0.0800 
 60 H       -5.3730    -6.8840     0.2000 H     1 <1>   0.1500 
@<TRIPOS>BOND
  1   1   2  2   
  2   2   3  am  
  3   2   4  1   
  4   3   5  1   
  5   3   6  1   
  6   4   7  1   
  7   4  28  1   
  8   4  29  1   
  9   5   8  1   
 10   5  30  1   
 11   5  31  1   
 12   6   9  1   
 13   6  32  1   
 14   6  33  1   
 15   7  10  1   
 16   7  11  1   
 17   7  34  1   
 18   8  12  1   
 19   8  35  1   
 20   8  36  1   
 21   9  12  1   
 22   9  37  1   
 23   9  38  1   
 24  10  13  1   
 25  10  14  1   
 26  10  39  1   
 27  11  15  1   
 28  11  40  1   
 29  11  41  1   
 30  12  16  1   
 31  12  17  1   
 32  13  18  1   
 33  13  42  1   
 34  13  43  1   
 35  14  44  1   
 36  14  45  1   
 37  14  46  1   
 38  15  18  1   
 39  15  47  1   
 40  15  48  1   
 41  16  19  1   
 42  17  20  ar  
 43  17  21  ar  
 44  18  49  1   
 45  18  50  1   
 46  19  22  1   
 47  19  51  1   
 48  19  52  1   
 49  20  23  1   
 50  20  24  ar  
 51  21  22  1   
 52  21  25  ar  
 53  22  53  1   
 54  22  54  1   
 55  23  26  1   
 56  24  27  ar  
 57  24  55  1   
 58  25  27  ar  
 59  25  56  1   
 60  26  57  1   
 61  26  58  1   
 62  26  59  1   
 63  27  60  1   
@<TRIPOS>SUBSTRUCTURE
  1 ****   3 GROUP 4 **** **** 0

# MOE 2024.06 (io_trps.svl 2023.06)
