@<TRIPOS>MOLECULE
NONAME
50 52 1 0 0 
SMALL
USER_CHARGES


@<TRIPOS>ATOM
  1 S       -1.4030    -0.2440     0.1800 S.3   1 <1>  -0.3320 
  2 C       -1.0870     1.4890     0.5380 C.ar  1 <1>   0.1020 
  3 C       -1.6290    -0.3660    -1.6620 C.3   1 <1>   0.1310 
  4 C       -1.0450     2.4710    -0.4310 C.ar  1 <1>  -0.1500 
  5 C       -0.8760     1.8580     1.8460 C.ar  1 <1>  -0.1500 
  6 C       -1.8130    -1.8140    -2.0960 C.2   1 <1>   0.5690 
  7 C       -0.7950     3.7720    -0.0330 C.ar  1 <1>   0.1600 
  8 C       -0.6350     3.1900     2.1270 C.ar  1 <1>   0.1600 
  9 O       -0.9490    -2.2730    -2.8060 O.2   1 <1>  -0.5700 
 10 N       -2.9120    -2.5560    -1.7240 N.am  1 <1>  -0.6600 
 11 N       -0.5910     4.1540     1.2190 N.ar  1 <1>  -0.6200 
 12 C       -3.0200    -4.0140    -2.0710 C.3   1 <1>   0.1400 
 13 C       -4.0960    -2.0090    -1.0050 C.3   1 <1>   0.1400 
 14 C       -3.2490    -4.8910    -0.8140 C.3   1 <1>   0.0000 
 15 C       -4.3320    -2.8100     0.2730 C.3   1 <1>  -0.1600 
 16 C       -4.4730    -4.2950    -0.0660 C.3   1 <1>   0.2000 
 17 C       -3.6490    -6.3230    -1.2520 C.3   1 <1>   0.1200 
 18 C       -1.9750    -4.8990     0.0920 C.3   1 <1>  -0.0170 
 19 O       -4.7360    -4.9810     1.1080 O.3   1 <1>  -0.6800 
 20 O       -2.7970    -6.8220    -2.2270 O.3   1 <1>  -0.6800 
 21 C       -0.8180    -5.7590    -0.4090 C.ar  1 <1>  -0.1430 
 22 C       -0.6870    -7.0720     0.0230 C.ar  1 <1>  -0.1500 
 23 C        0.1140    -5.2470    -1.2970 C.ar  1 <1>  -0.1500 
 24 C        0.3480    -7.8640    -0.4410 C.ar  1 <1>  -0.1500 
 25 C        1.1490    -6.0370    -1.7640 C.ar  1 <1>  -0.1500 
 26 C        1.2660    -7.3480    -1.3380 C.ar  1 <1>  -0.1500 
 27 H       -2.4810     0.2270    -1.9330 H     1 <1>   0.0800 
 28 H       -0.7410     0.0370    -2.1130 H     1 <1>   0.0800 
 29 H       -1.1980     2.2570    -1.4690 H     1 <1>   0.1500 
 30 H       -0.8980     1.1240     2.6300 H     1 <1>   0.1500 
 31 H       -0.7600     4.5440    -0.7840 H     1 <1>   0.1500 
 32 H       -0.4690     3.4810     3.1510 H     1 <1>   0.1500 
 33 H       -3.8450    -4.1410    -2.7510 H     1 <1>   0.0800 
 34 H       -2.1370    -4.3450    -2.5890 H     1 <1>   0.0800 
 35 H       -3.9660    -0.9710    -0.7570 H     1 <1>   0.0800 
 36 H       -4.9570    -2.0870    -1.6470 H     1 <1>   0.0800 
 37 H       -5.2380    -2.4610     0.7370 H     1 <1>   0.0800 
 38 H       -3.5150    -2.6400     0.9500 H     1 <1>   0.0800 
 39 H       -5.3450    -4.4140    -0.6870 H     1 <1>   0.0800 
 40 H       -4.6390    -6.3280    -1.6740 H     1 <1>   0.0800 
 41 H       -3.6360    -6.9980    -0.4130 H     1 <1>   0.0800 
 42 H       -1.6140    -3.8950     0.2260 H     1 <1>   0.0800 
 43 H       -2.2280    -5.2610     1.0710 H     1 <1>   0.0800 
 44 H       -4.0730    -4.7580     1.7880 H     1 <1>   0.4000 
 45 H       -1.8670    -6.8030    -1.8970 H     1 <1>   0.4000 
 46 H       -1.3930    -7.4880     0.7210 H     1 <1>   0.1500 
 47 H        0.0420    -4.2280    -1.6350 H     1 <1>   0.1500 
 48 H        0.4400    -8.8820    -0.1050 H     1 <1>   0.1500 
 49 H        1.8620    -5.6280    -2.4580 H     1 <1>   0.1500 
 50 H        2.0710    -7.9620    -1.7020 H     1 <1>   0.1500 
@<TRIPOS>BOND
  1   1   2  1   
  2   1   3  1   
  3   2   4  ar  
  4   2   5  ar  
  5   3   6  1   
  6   3  27  1   
  7   3  28  1   
  8   4   7  ar  
  9   4  29  1   
 10   5   8  ar  
 11   5  30  1   
 12   6   9  2   
 13   6  10  am  
 14   7  11  ar  
 15   7  31  1   
 16   8  11  ar  
 17   8  32  1   
 18  10  12  1   
 19  10  13  1   
 20  12  14  1   
 21  12  33  1   
 22  12  34  1   
 23  13  15  1   
 24  13  35  1   
 25  13  36  1   
 26  14  16  1   
 27  14  17  1   
 28  14  18  1   
 29  15  16  1   
 30  15  37  1   
 31  15  38  1   
 32  16  19  1   
 33  16  39  1   
 34  17  20  1   
 35  17  40  1   
 36  17  41  1   
 37  18  21  1   
 38  18  42  1   
 39  18  43  1   
 40  19  44  1   
 41  20  45  1   
 42  21  22  ar  
 43  21  23  ar  
 44  22  24  ar  
 45  22  46  1   
 46  23  25  ar  
 47  23  47  1   
 48  24  26  ar  
 49  24  48  1   
 50  25  26  ar  
 51  25  49  1   
 52  26  50  1   
@<TRIPOS>SUBSTRUCTURE
  1 ****  10 GROUP 4 **** **** 0

# MOE 2024.06 (io_trps.svl 2023.06)
