@<TRIPOS>MOLECULE
NONAME
49 50 1 0 0 
SMALL
USER_CHARGES


@<TRIPOS>ATOM
  1 O       -1.6000     0.8770     2.1280 O.2   1 <1>  -0.5700 
  2 C       -1.8750     1.3900     1.0670 C.2   1 <1>   0.5690 
  3 N       -2.4490     0.6610     0.0490 N.am  1 <1>  -0.6600 
  4 C       -1.5680     2.8790     0.9100 C.3   1 <1>  -0.0190 
  5 C       -3.0230     1.2540    -1.1910 C.3   1 <1>   0.1400 
  6 C       -2.6740    -0.8020     0.2220 C.3   1 <1>   0.1400 
  7 C       -0.2010     3.2050     1.5230 C.3   1 <1>   0.2090 
  8 C       -2.6680     3.7520     1.5510 C.3   1 <1>  -0.1600 
  9 C       -2.0030     1.1960    -2.3250 C.3   1 <1>  -0.2400 
 10 C       -1.3870    -1.5700    -0.0740 C.3   1 <1>  -0.2400 
 11 N        0.0810     4.6640     1.3540 N.pl3 1 <1>  -0.8380 
 12 C       -2.3090     5.2450     1.4610 C.3   1 <1>  -0.1600 
 13 C        1.1240     5.1440     0.6050 C.ar  1 <1>   0.7200 
 14 C       -0.9150     5.5400     2.0290 C.3   1 <1>   0.2090 
 15 N        1.4640     6.4230     0.7630 N.ar  1 <1>  -0.6200 
 16 N        1.7250     4.2970    -0.2290 N.ar  1 <1>  -0.6200 
 17 C        2.4580     6.8820     0.0480 C.ar  1 <1>   0.1670 
 18 C        2.7090     4.7790    -0.9410 C.ar  1 <1>   0.1600 
 19 C        3.1320     6.0960    -0.8840 C.ar  1 <1>   0.0860 
 20 C        2.8360     8.3260     0.3360 C.3   1 <1>  -0.0970 
 21 C        4.1900     6.5230    -1.7580 C.2   1 <1>   0.4230 
 22 O        5.1610     5.8470    -1.9720 O.2   1 <1>  -0.5700 
 23 C        4.0950     7.8320    -2.5180 C.3   1 <1>  -0.1790 
 24 H       -1.4860     3.1200    -0.1310 H     1 <1>   0.0800 
 25 H       -3.3140     2.2740    -1.0130 H     1 <1>   0.0800 
 26 H       -3.9130     0.7180    -1.4740 H     1 <1>   0.0800 
 27 H       -3.4600    -1.1410    -0.4300 H     1 <1>   0.0800 
 28 H       -2.9810    -0.9980     1.2370 H     1 <1>   0.0800 
 29 H        0.5570     2.5970     1.0600 H     1 <1>   0.0800 
 30 H       -0.2050     2.9700     2.5740 H     1 <1>   0.0800 
 31 H       -2.7760     3.4740     2.5860 H     1 <1>   0.0800 
 32 H       -3.6090     3.5730     1.0610 H     1 <1>   0.0800 
 33 H       -1.0820     1.6680    -2.0310 H     1 <1>   0.0800 
 34 H       -2.3900     1.7100    -3.1850 H     1 <1>   0.0800 
 35 H       -1.8070     0.1770    -2.6030 H     1 <1>   0.0800 
 36 H       -1.0680    -1.4080    -1.0860 H     1 <1>   0.0800 
 37 H       -1.5540    -2.6220     0.0680 H     1 <1>   0.0800 
 38 H       -0.6090    -1.2570     0.6000 H     1 <1>   0.0800 
 39 H       -3.0380     5.8250     1.9970 H     1 <1>   0.0800 
 40 H       -2.3290     5.5610     0.4330 H     1 <1>   0.0800 
 41 H       -0.6870     6.5820     1.8850 H     1 <1>   0.0800 
 42 H       -0.8980     5.3390     3.0860 H     1 <1>   0.0800 
 43 H        3.2130     4.1070    -1.6160 H     1 <1>   0.1500 
 44 H        2.5380     8.5900     1.3350 H     1 <1>   0.0800 
 45 H        2.3340     8.9830    -0.3490 H     1 <1>   0.0800 
 46 H        3.8980     8.4670     0.2650 H     1 <1>   0.0800 
 47 H        3.0780     8.1710    -2.5740 H     1 <1>   0.0800 
 48 H        4.4600     7.6870    -3.5190 H     1 <1>   0.0800 
 49 H        4.7030     8.5770    -2.0400 H     1 <1>   0.0800 
@<TRIPOS>BOND
  1   1   2  2   
  2   2   3  am  
  3   2   4  1   
  4   3   5  1   
  5   3   6  1   
  6   4   7  1   
  7   4   8  1   
  8   4  24  1   
  9   5   9  1   
 10   5  25  1   
 11   5  26  1   
 12   6  10  1   
 13   6  27  1   
 14   6  28  1   
 15   7  11  1   
 16   7  29  1   
 17   7  30  1   
 18   8  12  1   
 19   8  31  1   
 20   8  32  1   
 21   9  33  1   
 22   9  34  1   
 23   9  35  1   
 24  10  36  1   
 25  10  37  1   
 26  10  38  1   
 27  11  13  1   
 28  11  14  1   
 29  12  14  1   
 30  12  39  1   
 31  12  40  1   
 32  13  15  ar  
 33  13  16  ar  
 34  14  41  1   
 35  14  42  1   
 36  15  17  ar  
 37  16  18  ar  
 38  17  19  ar  
 39  17  20  1   
 40  18  19  ar  
 41  18  43  1   
 42  19  21  1   
 43  20  44  1   
 44  20  45  1   
 45  20  46  1   
 46  21  22  2   
 47  21  23  1   
 48  23  47  1   
 49  23  48  1   
 50  23  49  1   
@<TRIPOS>SUBSTRUCTURE
  1 ****  11 GROUP 4 **** **** 0

# MOE 2024.06 (io_trps.svl 2023.06)
