@<TRIPOS>MOLECULE
NONAME
53 55 1 0 0 
SMALL
USER_CHARGES


@<TRIPOS>ATOM
  1 O       -1.7020     1.6780     2.3350 O.2   1 <1>  -0.5700 
  2 C       -1.9570     1.7840     1.1550 C.2   1 <1>   0.6300 
  3 N       -2.1820     0.6690     0.3800 N.am  1 <1>  -0.6600 
  4 C       -1.9990     3.2060     0.5610 C.3   1 <1>   0.0320 
  5 C       -2.1620    -0.6810     1.0030 C.3   1 <1>   0.3200 
  6 C       -2.3310     0.6900    -1.1070 C.3   1 <1>   0.1400 
  7 C       -0.6290     3.6130     0.0180 C.ar  1 <1>  -0.0320 
  8 C       -2.8440     4.2840     1.2030 C.3   1 <1>  -0.1900 
  9 C       -3.2680     3.7160    -0.1020 C.3   1 <1>  -0.2000 
 10 C       -3.5880    -1.1550     1.2110 C.2   1 <1>  -0.3320 
 11 C       -3.7700     0.3930    -1.5450 C.3   1 <1>   0.1200 
 12 C        0.4300     3.7500     0.9030 C.ar  1 <1>  -0.1500 
 13 C       -0.4090     3.8470    -1.3330 C.ar  1 <1>  -0.1500 
 14 C       -3.7190     3.9760     2.4270 C.3   1 <1>  -0.1450 
 15 C       -2.3570     5.7410     1.2290 C.3   1 <1>  -0.1450 
 16 N       -4.0890    -2.3420     0.8120 N.pl3 1 <1>   0.0480 
 17 C       -4.6010    -0.4970     1.8170 C.2   1 <1>   0.0770 
 18 O       -3.8850     0.6130    -2.9110 O.3   1 <1>  -0.6800 
 19 C        1.6880     4.1140     0.4560 C.ar  1 <1>  -0.1500 
 20 C        0.8470     4.2110    -1.7850 C.ar  1 <1>  -0.1500 
 21 C       -5.3840    -2.3130     1.1980 C.2   1 <1>   0.0360 
 22 C       -3.4040    -3.4350     0.0990 C.3   1 <1>   0.0160 
 23 N       -5.7320    -1.2240     1.8020 N.2   1 <1>  -0.5650 
 24 C        1.9020     4.3470    -0.8990 C.ar  1 <1>   0.0830 
 25 O        3.1000     4.7060    -1.4250 O.3   1 <1>  -0.3630 
 26 C        4.2360     4.8760    -0.6070 C.3   1 <1>   0.0400 
 27 H       -1.6550    -0.6590     1.9530 H     1 <1>   0.0800 
 28 H       -1.6210    -1.3570     0.3660 H     1 <1>   0.0800 
 29 H       -1.6720    -0.0430    -1.5370 H     1 <1>   0.0800 
 30 H       -2.0410     1.6490    -1.4890 H     1 <1>   0.0800 
 31 H       -4.1430     3.0920    -0.1140 H     1 <1>   0.1000 
 32 H       -3.2080     4.3490    -0.9690 H     1 <1>   0.1000 
 33 H       -4.4780     1.0230    -1.0370 H     1 <1>   0.0800 
 34 H       -4.0170    -0.6370    -1.3650 H     1 <1>   0.0800 
 35 H        0.2670     3.5700     1.9530 H     1 <1>   0.1500 
 36 H       -1.2110     3.7510    -2.0400 H     1 <1>   0.1500 
 37 H       -4.1460     2.9910     2.3660 H     1 <1>   0.0800 
 38 H       -4.5250     4.6850     2.5010 H     1 <1>   0.0800 
 39 H       -3.1270     4.0300     3.3230 H     1 <1>   0.0800 
 40 H       -1.8270     5.9950     0.3280 H     1 <1>   0.0800 
 41 H       -1.6950     5.8900     2.0640 H     1 <1>   0.0800 
 42 H       -3.1910     6.4120     1.3260 H     1 <1>   0.0800 
 43 H       -4.5670     0.4810     2.2690 H     1 <1>   0.1500 
 44 H       -3.9280     1.5690    -3.1070 H     1 <1>   0.4000 
 45 H        2.4800     4.2090     1.1730 H     1 <1>   0.1500 
 46 H        1.0180     4.3940    -2.8310 H     1 <1>   0.1500 
 47 H       -6.0540    -3.1330     1.0110 H     1 <1>   0.1500 
 48 H       -2.5620    -3.7670     0.6800 H     1 <1>   0.0800 
 49 H       -3.0690    -3.0810    -0.8580 H     1 <1>   0.0800 
 50 H       -4.0840    -4.2560    -0.0420 H     1 <1>   0.0800 
 51 H        5.0600     5.1580    -1.2360 H     1 <1>   0.0800 
 52 H        4.4540     3.9440    -0.1150 H     1 <1>   0.0800 
 53 H        4.0380     5.6540     0.1080 H     1 <1>   0.0800 
@<TRIPOS>BOND
  1   1   2  2   
  2   2   3  am  
  3   2   4  1   
  4   3   5  1   
  5   3   6  1   
  6   4   7  1   
  7   4   8  1   
  8   4   9  1   
  9   5  10  1   
 10   5  27  1   
 11   5  28  1   
 12   6  11  1   
 13   6  29  1   
 14   6  30  1   
 15   7  12  ar  
 16   7  13  ar  
 17   8   9  1   
 18   8  14  1   
 19   8  15  1   
 20   9  31  1   
 21   9  32  1   
 22  10  16  1   
 23  10  17  2   
 24  11  18  1   
 25  11  33  1   
 26  11  34  1   
 27  12  19  ar  
 28  12  35  1   
 29  13  20  ar  
 30  13  36  1   
 31  14  37  1   
 32  14  38  1   
 33  14  39  1   
 34  15  40  1   
 35  15  41  1   
 36  15  42  1   
 37  16  21  1   
 38  16  22  1   
 39  17  23  1   
 40  17  43  1   
 41  18  44  1   
 42  19  24  ar  
 43  19  45  1   
 44  20  24  ar  
 45  20  46  1   
 46  21  23  2   
 47  21  47  1   
 48  22  48  1   
 49  22  49  1   
 50  22  50  1   
 51  24  25  1   
 52  25  26  1   
 53  26  51  1   
 54  26  52  1   
 55  26  53  1   
@<TRIPOS>SUBSTRUCTURE
  1 ****   2 GROUP 4 **** **** 0

# MOE 2024.06 (io_trps.svl 2023.06)
