@<TRIPOS>MOLECULE
NONAME
58 61 1 0 0 
SMALL
USER_CHARGES


@<TRIPOS>ATOM
  1 O        0.3190    -0.0340    -0.9750 O.3   1 <1>  -0.5600 
  2 C        1.5660    -0.6650    -1.1520 C.3   1 <1>   0.2000 
  3 C        0.3280     1.3580    -1.0850 C.3   1 <1>   0.1200 
  4 C        2.6270    -0.0980    -0.1700 C.3   1 <1>   0.5660 
  5 C        1.3840    -2.1760    -0.9310 C.3   1 <1>   0.1200 
  6 C        1.2530     1.9660    -0.0170 C.3   1 <1>   0.3430 
  7 N        2.6380     1.3980    -0.1050 N.4   1 <1>  -0.9590 
  8 C        4.0310    -0.5520    -0.5480 C.ar  1 <1>  -0.1430 
  9 O        1.2560    -2.4510     0.4290 O.3   1 <1>  -0.6800 
 10 C        3.5160     1.8890     0.9880 C.3   1 <1>   0.4870 
 11 C        4.7320    -1.3630     0.3320 C.ar  1 <1>  -0.1500 
 12 C        4.6310    -0.1680    -1.7430 C.ar  1 <1>  -0.1500 
 13 C        3.7870     3.3510     0.7150 C.ar  1 <1>  -0.1430 
 14 C        6.0190    -1.7800     0.0400 C.ar  1 <1>   0.0830 
 15 C        5.9210    -0.5730    -2.0370 C.ar  1 <1>  -0.1500 
 16 C        4.7110     3.7100    -0.2430 C.ar  1 <1>  -0.1500 
 17 C        3.0910     4.3410     1.4270 C.ar  1 <1>  -0.1500 
 18 O        6.6230    -2.5880     0.9430 O.3   1 <1>  -0.3620 
 19 C        6.6300    -1.3610    -1.1470 C.ar  1 <1>   0.0830 
 20 C        4.9320     5.0610    -0.5180 C.ar  1 <1>   0.0000 
 21 C        3.3040     5.6740     1.1660 C.ar  1 <1>  -0.1500 
 22 C        6.9510    -3.8930     0.5130 C.3   1 <1>   0.0400 
 23 O        7.9010    -1.6870    -1.4830 O.3   1 <1>  -0.3630 
 24 C        4.2280     6.0350     0.1820 C.ar  1 <1>  -0.1520 
 25 C        5.7750     5.7440    -1.4170 C.2   1 <1>  -0.1500 
 26 C        8.9290    -1.1770    -0.6610 C.3   1 <1>   0.0400 
 27 N        4.6280     7.2700    -0.2740 N.pl3 1 <1>   0.0480 
 28 C        5.5670     7.0700    -1.2450 C.2   1 <1>  -0.3020 
 29 C        4.1520     8.5760     0.2120 C.3   1 <1>   0.0160 
 30 H        1.8670    -0.4990    -2.1700 H     1 <1>   0.0800 
 31 H        0.6420     1.6310    -2.0780 H     1 <1>   0.0800 
 32 H       -0.6810     1.7030    -0.9390 H     1 <1>   0.0800 
 33 H        2.3940    -0.4830     0.8090 H     1 <1>   0.0800 
 34 H        2.2390    -2.7190    -1.2970 H     1 <1>   0.0800 
 35 H        0.5010    -2.5220    -1.4420 H     1 <1>   0.0800 
 36 H        0.8320     1.7580     0.9530 H     1 <1>   0.0800 
 37 H        1.2880     3.0370    -0.1430 H     1 <1>   0.0800 
 38 H        3.0670     1.7330    -0.9710 H     1 <1>   0.4500 
 39 H        0.9050    -3.3570     0.5660 H     1 <1>   0.4000 
 40 H        3.0430     1.7610     1.9480 H     1 <1>   0.0800 
 41 H        4.4520     1.3540     0.9900 H     1 <1>   0.0800 
 42 H        4.2910    -1.6950     1.2570 H     1 <1>   0.1500 
 43 H        4.1150     0.4440    -2.4630 H     1 <1>   0.1500 
 44 H        6.3940    -0.2780    -2.9580 H     1 <1>   0.1500 
 45 H        5.2810     2.9840    -0.7970 H     1 <1>   0.1500 
 46 H        2.3830     4.0630     2.1900 H     1 <1>   0.1500 
 47 H        2.7760     6.4390     1.7080 H     1 <1>   0.1500 
 48 H        7.3070    -4.4470     1.3620 H     1 <1>   0.0800 
 49 H        7.7200    -3.8420    -0.2360 H     1 <1>   0.0800 
 50 H        6.0700    -4.3610     0.1120 H     1 <1>   0.0800 
 51 H        6.4520     5.2640    -2.1020 H     1 <1>   0.1500 
 52 H        9.8730    -1.4440    -1.1000 H     1 <1>   0.0800 
 53 H        8.8490    -1.6050     0.3220 H     1 <1>   0.0800 
 54 H        8.8360    -0.1070    -0.6110 H     1 <1>   0.0800 
 55 H        6.0380     7.8900    -1.7590 H     1 <1>   0.1500 
 56 H        4.6380     9.3620    -0.3350 H     1 <1>   0.0800 
 57 H        4.3840     8.6700     1.2570 H     1 <1>   0.0800 
 58 H        3.0900     8.6420     0.0680 H     1 <1>   0.0800 
@<TRIPOS>BOND
  1   1   2  1   
  2   1   3  1   
  3   2   4  1   
  4   2   5  1   
  5   2  30  1   
  6   3   6  1   
  7   3  31  1   
  8   3  32  1   
  9   4   7  1   
 10   4   8  1   
 11   4  33  1   
 12   5   9  1   
 13   5  34  1   
 14   5  35  1   
 15   6   7  1   
 16   6  36  1   
 17   6  37  1   
 18   7  10  1   
 19   7  38  1   
 20   8  11  ar  
 21   8  12  ar  
 22   9  39  1   
 23  10  13  1   
 24  10  40  1   
 25  10  41  1   
 26  11  14  ar  
 27  11  42  1   
 28  12  15  ar  
 29  12  43  1   
 30  13  16  ar  
 31  13  17  ar  
 32  14  18  1   
 33  14  19  ar  
 34  15  19  ar  
 35  15  44  1   
 36  16  20  ar  
 37  16  45  1   
 38  17  21  ar  
 39  17  46  1   
 40  18  22  1   
 41  19  23  1   
 42  20  24  ar  
 43  20  25  1   
 44  21  24  ar  
 45  21  47  1   
 46  22  48  1   
 47  22  49  1   
 48  22  50  1   
 49  23  26  1   
 50  24  27  1   
 51  25  28  2   
 52  25  51  1   
 53  26  52  1   
 54  26  53  1   
 55  26  54  1   
 56  27  28  1   
 57  27  29  1   
 58  28  55  1   
 59  29  56  1   
 60  29  57  1   
 61  29  58  1   
@<TRIPOS>SUBSTRUCTURE
  1 ****  10 GROUP 4 **** **** 0

# MOE 2024.06 (io_trps.svl 2023.06)
