@<TRIPOS>MOLECULE
NONAME
60 63 1 0 0 
SMALL
USER_CHARGES


@<TRIPOS>ATOM
  1 O       -1.1600    -1.1790     0.7750 O.2   1 <1>  -0.5700 
  2 C       -0.5400    -2.1790     0.4610 C.2   1 <1>   0.5440 
  3 N       -0.6070    -2.6090    -0.8490 N.am  1 <1>  -0.6600 
  4 C        0.2520    -2.8680     1.4700 C.ar  1 <1>   0.3960 
  5 C        0.3000    -3.6060    -1.4580 C.3   1 <1>   0.1400 
  6 C       -1.3770    -1.8870    -1.8900 C.3   1 <1>   0.1400 
  7 N        0.0510    -4.1760     1.7120 N.ar  1 <1>  -0.6200 
  8 C        1.2020    -2.1240     2.1720 C.ar  1 <1>   0.1600 
  9 C       -0.1120    -3.6660    -2.9250 C.3   1 <1>  -0.1600 
 10 C       -0.7320    -2.3000    -3.2080 C.3   1 <1>  -0.1600 
 11 C        0.8280    -4.6560     2.6680 C.ar  1 <1>   0.4100 
 12 N        2.0070    -2.6020     3.1120 N.ar  1 <1>  -0.6200 
 13 N        0.5970    -5.9770     3.0120 N.pl3 1 <1>  -0.8380 
 14 C        1.7900    -3.8820     3.3340 C.ar  1 <1>   0.1600 
 15 C       -0.4850    -6.1780     4.0220 C.3   1 <1>   0.2090 
 16 C        0.5650    -6.9790     1.9000 C.3   1 <1>   0.2090 
 17 C       -1.8720    -6.2410     3.3430 C.3   1 <1>   0.3430 
 18 C       -0.8380    -7.0770     1.2530 C.3   1 <1>   0.3430 
 19 N       -1.9480    -7.2920     2.2600 N.4   1 <1>  -0.9590 
 20 C       -3.3010    -7.2440     1.6120 C.3   1 <1>   0.3430 
 21 C       -3.5560    -8.4200     0.6650 C.3   1 <1>   0.1200 
 22 O       -4.8550    -8.2670     0.1510 O.3   1 <1>  -0.3630 
 23 C       -5.3780    -9.1590    -0.7290 C.ar  1 <1>   0.0830 
 24 C       -6.6510    -8.8870    -1.2040 C.ar  1 <1>  -0.1500 
 25 C       -4.7080   -10.3010    -1.1630 C.ar  1 <1>  -0.1500 
 26 C       -7.2620    -9.7470    -2.1110 C.ar  1 <1>   0.0830 
 27 C       -5.3150   -11.1570    -2.0650 C.ar  1 <1>  -0.1500 
 28 O       -8.5030    -9.5520    -2.6210 O.3   1 <1>  -0.3630 
 29 C       -6.5860   -10.8790    -2.5360 C.ar  1 <1>  -0.1500 
 30 C       -9.2840    -8.4400    -2.2430 C.3   1 <1>   0.0400 
 31 H        0.1970    -4.5660    -0.9840 H     1 <1>   0.0800 
 32 H        1.3170    -3.2610    -1.3710 H     1 <1>   0.0800 
 33 H       -1.3280    -0.8210    -1.7440 H     1 <1>   0.0800 
 34 H       -2.4030    -2.2080    -1.8520 H     1 <1>   0.0800 
 35 H        1.2950    -1.0780     1.9360 H     1 <1>   0.1500 
 36 H       -0.8540    -4.4340    -3.0520 H     1 <1>   0.0800 
 37 H        0.7240    -3.8760    -3.5690 H     1 <1>   0.0800 
 38 H        0.0400    -1.5910    -3.4540 H     1 <1>   0.0800 
 39 H       -1.4470    -2.3300    -4.0100 H     1 <1>   0.0800 
 40 H        2.3870    -4.3680     4.0840 H     1 <1>   0.1500 
 41 H       -0.4750    -5.3620     4.7270 H     1 <1>   0.0800 
 42 H       -0.3000    -7.0840     4.5720 H     1 <1>   0.0800 
 43 H        0.8610    -7.9410     2.2810 H     1 <1>   0.0800 
 44 H        1.2810    -6.6960     1.1470 H     1 <1>   0.0800 
 45 H       -2.0730    -5.2710     2.9160 H     1 <1>   0.0800 
 46 H       -2.6210    -6.4320     4.0940 H     1 <1>   0.0800 
 47 H       -0.8320    -7.8770     0.5330 H     1 <1>   0.0800 
 48 H       -1.0180    -6.1580     0.7190 H     1 <1>   0.0800 
 49 H       -1.8130    -8.2080     2.7070 H     1 <1>   0.4500 
 50 H       -3.4020    -6.3240     1.0590 H     1 <1>   0.0800 
 51 H       -4.0620    -7.2620     2.3760 H     1 <1>   0.0800 
 52 H       -3.5160    -9.3560     1.1940 H     1 <1>   0.0800 
 53 H       -2.8720    -8.4130    -0.1650 H     1 <1>   0.0800 
 54 H       -7.1450    -8.0020    -0.8560 H     1 <1>   0.1500 
 55 H       -3.7230   -10.5480    -0.8180 H     1 <1>   0.1500 
 56 H       -4.8040   -12.0420    -2.4050 H     1 <1>   0.1500 
 57 H       -7.0640   -11.5400    -3.2370 H     1 <1>   0.1500 
 58 H      -10.2220    -8.4980    -2.7640 H     1 <1>   0.0800 
 59 H       -8.7670    -7.5390    -2.5230 H     1 <1>   0.0800 
 60 H       -9.4520    -8.4760    -1.1810 H     1 <1>   0.0800 
@<TRIPOS>BOND
  1   1   2  2   
  2   2   3  am  
  3   2   4  1   
  4   3   5  1   
  5   3   6  1   
  6   4   7  ar  
  7   4   8  ar  
  8   5   9  1   
  9   5  31  1   
 10   5  32  1   
 11   6  10  1   
 12   6  33  1   
 13   6  34  1   
 14   7  11  ar  
 15   8  12  ar  
 16   8  35  1   
 17   9  10  1   
 18   9  36  1   
 19   9  37  1   
 20  10  38  1   
 21  10  39  1   
 22  11  13  1   
 23  11  14  ar  
 24  12  14  ar  
 25  13  15  1   
 26  13  16  1   
 27  14  40  1   
 28  15  17  1   
 29  15  41  1   
 30  15  42  1   
 31  16  18  1   
 32  16  43  1   
 33  16  44  1   
 34  17  19  1   
 35  17  45  1   
 36  17  46  1   
 37  18  19  1   
 38  18  47  1   
 39  18  48  1   
 40  19  20  1   
 41  19  49  1   
 42  20  21  1   
 43  20  50  1   
 44  20  51  1   
 45  21  22  1   
 46  21  52  1   
 47  21  53  1   
 48  22  23  1   
 49  23  24  ar  
 50  23  25  ar  
 51  24  26  ar  
 52  24  54  1   
 53  25  27  ar  
 54  25  55  1   
 55  26  28  1   
 56  26  29  ar  
 57  27  29  ar  
 58  27  56  1   
 59  28  30  1   
 60  29  57  1   
 61  30  58  1   
 62  30  59  1   
 63  30  60  1   
@<TRIPOS>SUBSTRUCTURE
  1 ****  18 GROUP 4 **** **** 0

# MOE 2024.06 (io_trps.svl 2023.06)
