@<TRIPOS>MOLECULE
NONAME
46 47 1 0 0 
SMALL
USER_CHARGES


@<TRIPOS>ATOM
  1 S        0.3330     1.2270    -1.1970 S.o2  1 <1>   1.3330 
  2 O        0.2350     0.2460    -2.2480 O.2   1 <1>  -0.6500 
  3 O        0.6010     2.6170    -1.4980 O.2   1 <1>  -0.6500 
  4 N        1.5760     0.7400    -0.1480 N.am  1 <1>  -0.8490 
  5 C       -1.1430     1.1690    -0.1630 C.3   1 <1>  -0.0550 
  6 C        2.8980     1.0610    -0.7100 C.3   1 <1>   0.1160 
  7 C        1.5560    -0.7080     0.1260 C.3   1 <1>   0.1160 
  8 C       -1.3190     2.2890     0.8990 C.3   1 <1>  -0.0800 
  9 C       -1.7750     3.6190     0.2730 C.3   1 <1>   0.2000 
 10 C       -0.0470     2.6460     1.6790 C.3   1 <1>   0.3430 
 11 O       -2.9330     4.0500     0.9050 O.3   1 <1>  -0.6800 
 12 C       -0.6410     4.6290     0.4930 C.3   1 <1>   0.3430 
 13 N        0.5140     3.8210     0.9770 N.4   1 <1>  -0.9590 
 14 C        1.5500     4.5880     1.7140 C.3   1 <1>   0.4860 
 15 C        1.9690     5.7790     0.8750 C.ar  1 <1>  -0.1440 
 16 C        1.7600     7.0660     1.3480 C.ar  1 <1>  -0.1500 
 17 C        2.5530     5.6010    -0.3720 C.ar  1 <1>  -0.1500 
 18 C        2.1220     8.1590     0.5810 C.ar  1 <1>  -0.1500 
 19 C        2.9120     6.6960    -1.1360 C.ar  1 <1>  -0.1500 
 20 C        2.6970     7.9800    -0.6660 C.ar  1 <1>  -0.1440 
 21 C        3.0950     9.1800    -1.5060 C.3   1 <1>  -0.0970 
 22 H       -2.0040     1.1870    -0.8050 H     1 <1>   0.0800 
 23 H       -1.1710     0.2210     0.3370 H     1 <1>   0.0800 
 24 H        3.6790     0.7520    -0.0350 H     1 <1>   0.0800 
 25 H        2.9940     2.1210    -0.8710 H     1 <1>   0.0800 
 26 H        3.0360     0.5600    -1.6550 H     1 <1>   0.0800 
 27 H        2.3440    -0.9680     0.8130 H     1 <1>   0.0800 
 28 H        1.6960    -1.2700    -0.7840 H     1 <1>   0.0800 
 29 H        0.6210    -1.0030     0.5680 H     1 <1>   0.0800 
 30 H       -2.0600     1.9370     1.5960 H     1 <1>   0.0800 
 31 H       -1.9950     3.5280    -0.7780 H     1 <1>   0.0800 
 32 H        0.6540     1.8280     1.7190 H     1 <1>   0.0800 
 33 H       -0.3150     2.9240     2.6860 H     1 <1>   0.0800 
 34 H       -2.8510     4.1060     1.8770 H     1 <1>   0.4000 
 35 H       -0.9320     5.3550     1.2340 H     1 <1>   0.0800 
 36 H       -0.3880     5.1330    -0.4270 H     1 <1>   0.0800 
 37 H        0.9610     3.4790     0.1020 H     1 <1>   0.4500 
 38 H        1.1570     4.9310     2.6570 H     1 <1>   0.0800 
 39 H        2.4080     3.9630     1.9060 H     1 <1>   0.0800 
 40 H        1.3160     7.2380     2.3140 H     1 <1>   0.1500 
 41 H        2.7330     4.6160    -0.7690 H     1 <1>   0.1500 
 42 H        1.9580     9.1540     0.9580 H     1 <1>   0.1500 
 43 H        3.3640     6.5470    -2.1030 H     1 <1>   0.1500 
 44 H        2.4510    10.0160    -1.3000 H     1 <1>   0.0800 
 45 H        3.0220     8.9490    -2.5530 H     1 <1>   0.0800 
 46 H        4.1090     9.4610    -1.2820 H     1 <1>   0.0800 
@<TRIPOS>BOND
  1   1   2  2   
  2   1   3  2   
  3   1   4  am  
  4   1   5  1   
  5   4   6  1   
  6   4   7  1   
  7   5   8  1   
  8   5  22  1   
  9   5  23  1   
 10   6  24  1   
 11   6  25  1   
 12   6  26  1   
 13   7  27  1   
 14   7  28  1   
 15   7  29  1   
 16   8   9  1   
 17   8  10  1   
 18   8  30  1   
 19   9  11  1   
 20   9  12  1   
 21   9  31  1   
 22  10  13  1   
 23  10  32  1   
 24  10  33  1   
 25  11  34  1   
 26  12  13  1   
 27  12  35  1   
 28  12  36  1   
 29  13  14  1   
 30  13  37  1   
 31  14  15  1   
 32  14  38  1   
 33  14  39  1   
 34  15  16  ar  
 35  15  17  ar  
 36  16  18  ar  
 37  16  40  1   
 38  17  19  ar  
 39  17  41  1   
 40  18  20  ar  
 41  18  42  1   
 42  19  20  ar  
 43  19  43  1   
 44  20  21  1   
 45  21  44  1   
 46  21  45  1   
 47  21  46  1   
@<TRIPOS>SUBSTRUCTURE
  1 ****  13 GROUP 4 **** **** 0

# MOE 2024.06 (io_trps.svl 2023.06)
