@<TRIPOS>MOLECULE
NONAME
45 47 1 0 0 
SMALL
USER_CHARGES


@<TRIPOS>ATOM
  1 O        3.4840     1.0420     1.8770 O.3   1 <1>  -0.6800 
  2 C        2.5160     0.7190     0.9400 C.3   1 <1>   0.2000 
  3 C        3.1250     0.0040    -0.3080 C.3   1 <1>   0.0000 
  4 C        1.7470     2.0160     0.6040 C.3   1 <1>  -0.1600 
  5 C        3.9250     1.0070    -1.1940 C.3   1 <1>   0.2090 
  6 C        1.9000    -0.5130    -1.1160 C.3   1 <1>   0.1200 
  7 C        3.9750    -1.2490     0.1050 C.3   1 <1>  -0.0170 
  8 C        2.3030     2.8110    -0.5880 C.3   1 <1>   0.2090 
  9 N        3.7180     2.4480    -0.8290 N.pl3 1 <1>  -0.8380 
 10 O        2.2660    -1.1760    -2.2830 O.3   1 <1>  -0.6800 
 11 C        5.4480    -1.0490     0.4820 C.ar  1 <1>  -0.1440 
 12 C        4.7450     3.2360    -0.4170 C.ar  1 <1>   0.1000 
 13 C        5.8300    -0.8440     1.7990 C.ar  1 <1>  -0.1500 
 14 C        6.4320    -1.1140    -0.4950 C.ar  1 <1>  -0.1500 
 15 C        4.8010     4.5960    -0.7430 C.ar  1 <1>  -0.1500 
 16 C        5.7990     2.7300     0.3560 C.ar  1 <1>  -0.1500 
 17 C        7.1640    -0.6780     2.1320 C.ar  1 <1>  -0.1500 
 18 C        7.7670    -0.9470    -0.1680 C.ar  1 <1>  -0.1500 
 19 C        5.8490     5.3760    -0.3270 C.ar  1 <1>   0.2110 
 20 C        6.8330     3.5290     0.7580 C.ar  1 <1>   0.2110 
 21 C        8.1340    -0.7260     1.1470 C.ar  1 <1>  -0.1500 
 22 N        6.8530     4.8420     0.4140 N.ar  1 <1>  -0.1790 
 23 H        3.0770     1.4980     2.6360 H     1 <1>   0.4000 
 24 H        1.8450     0.0400     1.4390 H     1 <1>   0.0800 
 25 H        0.7270     1.7670     0.3760 H     1 <1>   0.0800 
 26 H        1.7130     2.6550     1.4680 H     1 <1>   0.0800 
 27 H        3.6530     0.8920    -2.2260 H     1 <1>   0.0800 
 28 H        4.9720     0.7970    -1.1560 H     1 <1>   0.0800 
 29 H        1.2410     0.2880    -1.3980 H     1 <1>   0.0800 
 30 H        1.3410    -1.2150    -0.5190 H     1 <1>   0.0800 
 31 H        3.4820    -1.7440     0.9240 H     1 <1>   0.0800 
 32 H        3.9770    -1.9640    -0.6970 H     1 <1>   0.0800 
 33 H        2.2090     3.8650    -0.3920 H     1 <1>   0.0800 
 34 H        1.7360     2.5900    -1.4770 H     1 <1>   0.0800 
 35 H        2.4950    -0.5510    -2.9970 H     1 <1>   0.4000 
 36 H        5.0870    -0.8160     2.5760 H     1 <1>   0.1500 
 37 H        6.1620    -1.3010    -1.5200 H     1 <1>   0.1500 
 38 H        4.0090     5.0120    -1.3390 H     1 <1>   0.1500 
 39 H        5.7800     1.6960     0.6510 H     1 <1>   0.1500 
 40 H        7.4430    -0.5210     3.1590 H     1 <1>   0.1500 
 41 H        8.5190    -1.0000    -0.9360 H     1 <1>   0.1500 
 42 H        5.8930     6.4230    -0.5830 H     1 <1>   0.1500 
 43 H        7.6380     3.1270     1.3520 H     1 <1>   0.1500 
 44 H        9.1720    -0.6060     1.4050 H     1 <1>   0.1500 
 45 H        7.6340     5.4320     0.7200 H     1 <1>   0.4570 
@<TRIPOS>BOND
  1   1   2  1   
  2   1  23  1   
  3   2   3  1   
  4   2   4  1   
  5   2  24  1   
  6   3   5  1   
  7   3   6  1   
  8   3   7  1   
  9   4   8  1   
 10   4  25  1   
 11   4  26  1   
 12   5   9  1   
 13   5  27  1   
 14   5  28  1   
 15   6  10  1   
 16   6  29  1   
 17   6  30  1   
 18   7  11  1   
 19   7  31  1   
 20   7  32  1   
 21   8   9  1   
 22   8  33  1   
 23   8  34  1   
 24   9  12  1   
 25  10  35  1   
 26  11  13  ar  
 27  11  14  ar  
 28  12  15  ar  
 29  12  16  ar  
 30  13  17  ar  
 31  13  36  1   
 32  14  18  ar  
 33  14  37  1   
 34  15  19  ar  
 35  15  38  1   
 36  16  20  ar  
 37  16  39  1   
 38  17  21  ar  
 39  17  40  1   
 40  18  21  ar  
 41  18  41  1   
 42  19  22  ar  
 43  19  42  1   
 44  20  22  ar  
 45  20  43  1   
 46  21  44  1   
 47  22  45  1   
@<TRIPOS>SUBSTRUCTURE
  1 ****   5 GROUP 4 **** **** 0

# MOE 2024.06 (io_trps.svl 2023.06)
