@<TRIPOS>MOLECULE
NONAME
41 43 1 0 0 
SMALL
USER_CHARGES


@<TRIPOS>ATOM
  1 S       -0.3710    -1.2750     0.2570 S.3   1 <1>  -0.0800 
  2 C       -1.2540     0.0250     1.0250 C.2   1 <1>   0.1980 
  3 C       -1.8270    -1.7290    -0.5760 C.2   1 <1>  -0.1100 
  4 N       -2.4800     0.0960     0.6950 N.2   1 <1>  -0.5650 
  5 C       -0.4920     0.9120     1.9820 C.3   1 <1>  -0.0600 
  6 C       -2.8160    -0.8950    -0.2140 C.2   1 <1>   0.0460 
  7 C       -4.2590    -0.9170    -0.6880 C.3   1 <1>   0.0820 
  8 C       -4.6510    -2.2530    -1.2880 C.2   1 <1>   0.5690 
  9 O       -4.9480    -2.3160    -2.4560 O.2   1 <1>  -0.5700 
 10 N       -4.6650    -3.3530    -0.4920 N.am  1 <1>  -0.7300 
 11 C       -4.9970    -4.7240    -0.9390 C.3   1 <1>   0.2200 
 12 C       -6.3010    -5.1580    -0.2930 C.3   1 <1>  -0.0800 
 13 C       -4.0050    -5.7120    -0.3320 C.3   1 <1>   0.1200 
 14 C       -5.8320    -5.6630     1.0760 C.3   1 <1>   0.1200 
 15 C       -6.9980    -6.2590    -1.1150 C.3   1 <1>  -0.0160 
 16 O       -4.4810    -6.0040     0.9480 O.3   1 <1>  -0.5600 
 17 C       -8.3160    -6.6780    -0.4810 C.ar  1 <1>  -0.1430 
 18 C       -9.4410    -5.8830    -0.5550 C.ar  1 <1>  -0.1500 
 19 C       -8.4570    -7.8720     0.1990 C.ar  1 <1>  -0.1500 
 20 C      -10.6190    -6.3050     0.0400 C.ar  1 <1>   0.1600 
 21 C       -9.6810    -8.1990     0.7600 C.ar  1 <1>   0.1600 
 22 N      -10.7650    -7.4430     0.6980 N.ar  1 <1>  -0.6200 
 23 H       -1.7850    -2.5680    -1.2470 H     1 <1>   0.1500 
 24 H       -1.1490     1.6630     2.3810 H     1 <1>   0.0800 
 25 H        0.3170     1.3940     1.4650 H     1 <1>   0.0800 
 26 H       -0.0990     0.3240     2.7890 H     1 <1>   0.0800 
 27 H       -4.4020    -0.1390    -1.4140 H     1 <1>   0.0800 
 28 H       -4.9070    -0.7190     0.1440 H     1 <1>   0.0800 
 29 H       -4.3690    -3.2870     0.4860 H     1 <1>   0.3700 
 30 H       -5.0160    -4.7750    -2.0150 H     1 <1>   0.0800 
 31 H       -6.9770    -4.3270    -0.1870 H     1 <1>   0.0800 
 32 H       -3.0090    -5.3120    -0.2660 H     1 <1>   0.0800 
 33 H       -3.9920    -6.6300    -0.8930 H     1 <1>   0.0800 
 34 H       -6.3780    -6.5220     1.4220 H     1 <1>   0.0800 
 35 H       -5.8980    -4.8800     1.8110 H     1 <1>   0.0800 
 36 H       -6.3560    -7.1180    -1.2100 H     1 <1>   0.0800 
 37 H       -7.1970    -5.8920    -2.1070 H     1 <1>   0.0800 
 38 H       -9.4150    -4.9410    -1.0710 H     1 <1>   0.1500 
 39 H       -7.6300    -8.5500     0.3000 H     1 <1>   0.1500 
 40 H      -11.4870    -5.6710    -0.0280 H     1 <1>   0.1500 
 41 H       -9.7720    -9.1340     1.2870 H     1 <1>   0.1500 
@<TRIPOS>BOND
  1   1   2  1   
  2   1   3  1   
  3   2   4  2   
  4   2   5  1   
  5   3   6  2   
  6   3  23  1   
  7   4   6  1   
  8   5  24  1   
  9   5  25  1   
 10   5  26  1   
 11   6   7  1   
 12   7   8  1   
 13   7  27  1   
 14   7  28  1   
 15   8   9  2   
 16   8  10  am  
 17  10  11  1   
 18  10  29  1   
 19  11  12  1   
 20  11  13  1   
 21  11  30  1   
 22  12  14  1   
 23  12  15  1   
 24  12  31  1   
 25  13  16  1   
 26  13  32  1   
 27  13  33  1   
 28  14  16  1   
 29  14  34  1   
 30  14  35  1   
 31  15  17  1   
 32  15  36  1   
 33  15  37  1   
 34  17  18  ar  
 35  17  19  ar  
 36  18  20  ar  
 37  18  38  1   
 38  19  21  ar  
 39  19  39  1   
 40  20  22  ar  
 41  20  40  1   
 42  21  22  ar  
 43  21  41  1   
@<TRIPOS>SUBSTRUCTURE
  1 ****  10 GROUP 4 **** **** 0

# MOE 2024.06 (io_trps.svl 2023.06)
