@<TRIPOS>MOLECULE
NONAME
46 48 1 0 0 
SMALL
USER_CHARGES


@<TRIPOS>ATOM
  1 O        1.4130    -0.2580    -0.7380 O.2   1 <1>  -0.5700 
  2 C        2.0310    -1.1100    -0.1270 C.2   1 <1>   0.7150 
  3 N        3.3200    -0.8010     0.2160 N.am  1 <1>  -0.5100 
  4 C        1.5000    -2.4060     0.2020 C.2   1 <1>  -0.2370 
  5 C        3.6310     0.5360     0.8370 C.3   1 <1>   0.2250 
  6 C        4.3140    -0.4890    -0.8720 C.3   1 <1>   0.2250 
  7 N        0.1690    -2.7780     0.3000 N.pl3 1 <1>   0.0480 
  8 C        2.2590    -3.5170     0.4810 C.2   1 <1>  -0.1500 
  9 C        4.1310     1.0190    -0.5510 C.3   1 <1>   0.4720 
 10 C        0.1450    -4.0980     0.6240 C.2   1 <1>  -0.3020 
 11 C       -1.1090    -2.0100     0.1740 C.3   1 <1>   0.1760 
 12 C        1.4060    -4.5790     0.7420 C.2   1 <1>  -0.1500 
 13 N        5.3650     1.8890    -0.5800 N.4   1 <1>  -0.9280 
 14 C       -1.4260    -1.6560    -1.2840 C.3   1 <1>  -0.2400 
 15 C       -1.1610    -0.7960     1.1110 C.3   1 <1>  -0.2400 
 16 C        6.5170     1.3720     0.2240 C.3   1 <1>   0.3430 
 17 C        4.9990     3.2820    -0.1880 C.3   1 <1>   0.3430 
 18 C        7.7390     2.2660     0.0060 C.3   1 <1>  -0.1600 
 19 C        6.1930     4.2130    -0.4120 C.3   1 <1>  -0.1600 
 20 C        7.4390     3.7320     0.3420 C.3   1 <1>  -0.1600 
 21 H        4.3950     0.4360     1.5880 H     1 <1>   0.0000 
 22 H        2.7460     1.0430     1.1780 H     1 <1>   0.0000 
 23 H        3.9500    -0.7700    -1.8440 H     1 <1>   0.0000 
 24 H        5.2790    -0.8960    -0.6300 H     1 <1>   0.0000 
 25 H        3.3330    -3.5860     0.4990 H     1 <1>   0.1500 
 26 H        3.3390     1.4540    -1.1340 H     1 <1>   0.0000 
 27 H       -0.7720    -4.6430     0.7630 H     1 <1>   0.1500 
 28 H       -1.8910    -2.6730     0.5010 H     1 <1>   0.0800 
 29 H        1.7090    -5.5830     0.9900 H     1 <1>   0.1500 
 30 H        5.6760     1.9340    -1.5580 H     1 <1>   0.4500 
 31 H       -0.7360    -0.9370    -1.6790 H     1 <1>   0.0800 
 32 H       -2.4140    -1.2350    -1.3480 H     1 <1>   0.0800 
 33 H       -1.3970    -2.5420    -1.8920 H     1 <1>   0.0800 
 34 H       -0.5020    -0.0140     0.7890 H     1 <1>   0.0800 
 35 H       -0.9030    -1.0910     2.1120 H     1 <1>   0.0800 
 36 H       -2.1590    -0.3960     1.1240 H     1 <1>   0.0800 
 37 H        6.7610     0.3640    -0.0700 H     1 <1>   0.0800 
 38 H        6.2630     1.3690     1.2720 H     1 <1>   0.0800 
 39 H        4.7150     3.3070     0.8520 H     1 <1>   0.0800 
 40 H        4.1630     3.6250    -0.7770 H     1 <1>   0.0800 
 41 H        8.0670     2.1830    -1.0160 H     1 <1>   0.0800 
 42 H        8.5450     1.9180     0.6290 H     1 <1>   0.0800 
 43 H        5.9340     5.2020    -0.0750 H     1 <1>   0.0800 
 44 H        6.4030     4.2800    -1.4650 H     1 <1>   0.0800 
 45 H        8.2840     4.3480     0.0820 H     1 <1>   0.0800 
 46 H        7.2780     3.8320     1.4030 H     1 <1>   0.0800 
@<TRIPOS>BOND
  1   1   2  2   
  2   2   3  am  
  3   2   4  1   
  4   3   5  1   
  5   3   6  1   
  6   4   7  1   
  7   4   8  2   
  8   5   9  1   
  9   5  21  1   
 10   5  22  1   
 11   6   9  1   
 12   6  23  1   
 13   6  24  1   
 14   7  10  1   
 15   7  11  1   
 16   8  12  1   
 17   8  25  1   
 18   9  13  1   
 19   9  26  1   
 20  10  12  2   
 21  10  27  1   
 22  11  14  1   
 23  11  15  1   
 24  11  28  1   
 25  12  29  1   
 26  13  16  1   
 27  13  17  1   
 28  13  30  1   
 29  14  31  1   
 30  14  32  1   
 31  14  33  1   
 32  15  34  1   
 33  15  35  1   
 34  15  36  1   
 35  16  18  1   
 36  16  37  1   
 37  16  38  1   
 38  17  19  1   
 39  17  39  1   
 40  17  40  1   
 41  18  20  1   
 42  18  41  1   
 43  18  42  1   
 44  19  20  1   
 45  19  43  1   
 46  19  44  1   
 47  20  45  1   
 48  20  46  1   
@<TRIPOS>SUBSTRUCTURE
  1 ****   3 GROUP 4 **** **** 0

# MOE 2024.06 (io_trps.svl 2023.06)
