@<TRIPOS>MOLECULE
NONAME
47 49 1 0 0 
SMALL
USER_CHARGES


@<TRIPOS>ATOM
  1 O        4.0480    -0.5870     0.4800 O.2   1 <1>  -0.5700 
  2 C        2.8680    -0.7580     0.6730 C.2   1 <1>   0.5690 
  3 N        2.0080     0.2760     0.8380 N.am  1 <1>  -0.7300 
  4 C        2.3110    -2.1840     0.7320 C.3   1 <1>   0.1710 
  5 C        2.3340     1.7000     0.7380 C.3   1 <1>   0.2780 
  6 N        0.8760    -2.3100     0.3340 N.3   1 <1>  -0.8100 
  7 C        1.2650     2.3450    -0.1170 C.2   1 <1>  -0.2880 
  8 C        0.6660    -2.0290    -1.0940 C.3   1 <1>   0.1100 
  9 C        0.3660    -3.6740     0.5510 C.3   1 <1>   0.1100 
 10 C        0.3960     3.2740     0.2940 C.2   1 <1>  -0.3000 
 11 C       -0.6730    -2.6850    -1.4070 C.3   1 <1>   0.2000 
 12 C       -0.6200    -3.9780    -0.5950 C.3   1 <1>  -0.0800 
 13 O       -1.6640    -1.8890    -0.8680 O.3   1 <1>  -0.6800 
 14 C       -0.1510    -5.1570    -1.4680 C.3   1 <1>  -0.0170 
 15 C       -0.0630    -6.4500    -0.6740 C.ar  1 <1>   0.1670 
 16 N        1.1140    -6.8390    -0.2890 N.ar  1 <1>  -0.6200 
 17 C       -1.2450    -7.1540    -0.3930 C.ar  1 <1>  -0.1500 
 18 C        1.1980    -7.9890     0.4270 C.ar  1 <1>   0.3100 
 19 C       -1.1900    -8.3100     0.3250 C.ar  1 <1>  -0.1500 
 20 C        0.0650    -8.7630     0.7620 C.ar  1 <1>   0.0000 
 21 C        2.4590    -8.4310     0.8570 C.ar  1 <1>  -0.1500 
 22 C        0.2390    -9.9430     1.5120 C.ar  1 <1>  -0.1500 
 23 C        2.6070    -9.5810     1.5860 C.ar  1 <1>  -0.1500 
 24 C        1.4830   -10.3450     1.9160 C.ar  1 <1>  -0.1500 
 25 H        1.0150     0.0460     0.9300 H     1 <1>   0.3700 
 26 H        2.4210    -2.5270     1.7450 H     1 <1>   0.0800 
 27 H        2.9190    -2.8130     0.1050 H     1 <1>   0.0800 
 28 H        2.3430     2.1340     1.7230 H     1 <1>   0.0800 
 29 H        3.3050     1.8330     0.2900 H     1 <1>   0.0800 
 30 H        1.2740     1.9640    -1.1250 H     1 <1>   0.1500 
 31 H        0.6500    -0.9720    -1.3000 H     1 <1>   0.0800 
 32 H        1.4390    -2.4950    -1.6820 H     1 <1>   0.0800 
 33 H        1.1790    -4.3810     0.5520 H     1 <1>   0.0800 
 34 H       -0.1300    -3.7260     1.5050 H     1 <1>   0.0800 
 35 H       -0.3550     3.7140    -0.3400 H     1 <1>   0.1500 
 36 H        0.3600     3.6740     1.2930 H     1 <1>   0.1500 
 37 H       -0.8630    -2.8180    -2.4570 H     1 <1>   0.0800 
 38 H       -1.5920    -4.2150    -0.1970 H     1 <1>   0.0800 
 39 H       -1.3660    -1.6510     0.0350 H     1 <1>   0.4000 
 40 H        0.8130    -4.9390    -1.8920 H     1 <1>   0.0800 
 41 H       -0.8380    -5.2980    -2.2830 H     1 <1>   0.0800 
 42 H       -2.1830    -6.7680    -0.7480 H     1 <1>   0.1500 
 43 H       -2.0740    -8.8760     0.5600 H     1 <1>   0.1500 
 44 H        3.3100    -7.8310     0.5920 H     1 <1>   0.1500 
 45 H       -0.6290   -10.5270     1.7620 H     1 <1>   0.1500 
 46 H        3.5810    -9.9090     1.9090 H     1 <1>   0.1500 
 47 H        1.6140   -11.2480     2.4890 H     1 <1>   0.1500 
@<TRIPOS>BOND
  1   1   2  2   
  2   2   3  am  
  3   2   4  1   
  4   3   5  1   
  5   3  25  1   
  6   4   6  1   
  7   4  26  1   
  8   4  27  1   
  9   5   7  1   
 10   5  28  1   
 11   5  29  1   
 12   6   8  1   
 13   6   9  1   
 14   7  10  2   
 15   7  30  1   
 16   8  11  1   
 17   8  31  1   
 18   8  32  1   
 19   9  12  1   
 20   9  33  1   
 21   9  34  1   
 22  10  35  1   
 23  10  36  1   
 24  11  12  1   
 25  11  13  1   
 26  11  37  1   
 27  12  14  1   
 28  12  38  1   
 29  13  39  1   
 30  14  15  1   
 31  14  40  1   
 32  14  41  1   
 33  15  16  ar  
 34  15  17  ar  
 35  16  18  ar  
 36  17  19  ar  
 37  17  42  1   
 38  18  20  ar  
 39  18  21  ar  
 40  19  20  ar  
 41  19  43  1   
 42  20  22  ar  
 43  21  23  ar  
 44  21  44  1   
 45  22  24  ar  
 46  22  45  1   
 47  23  24  ar  
 48  23  46  1   
 49  24  47  1   
@<TRIPOS>SUBSTRUCTURE
  1 ****   9 GROUP 4 **** **** 0

# MOE 2024.06 (io_trps.svl 2023.06)
