@<TRIPOS>MOLECULE
NONAME
57 60 1 0 0 
SMALL
USER_CHARGES


@<TRIPOS>ATOM
  1 O       -1.3310    -0.3060    -2.0820 O.2   1 <1>  -0.5700 
  2 C       -1.7700     0.5750    -1.3640 C.2   1 <1>   0.7160 
  3 N       -2.5190     0.2130    -0.2670 N.am  1 <1>  -0.6600 
  4 C       -1.5570     1.9580    -1.7080 C.2   1 <1>  -0.0860 
  5 C       -2.6350    -1.2100     0.1640 C.3   1 <1>   0.1400 
  6 C       -3.5360     1.1090     0.3530 C.3   1 <1>   0.1400 
  7 C       -0.8030     2.9690    -1.1760 C.2   1 <1>  -0.3320 
  8 C       -2.1890     2.5600    -2.7980 C.2   1 <1>   0.1390 
  9 C       -4.0190    -1.7300    -0.2800 C.3   1 <1>   0.4230 
 10 C       -4.9420     0.5830     0.0110 C.3   1 <1>  -0.1600 
 11 N       -1.0330     4.0590    -1.9310 N.pl3 1 <1>   0.3000 
 12 C        0.1750     3.0280    -0.0040 C.3   1 <1>   0.1000 
 13 N       -1.8930     3.8120    -2.9320 N.2   1 <1>  -0.7070 
 14 N       -4.2530    -3.1960    -0.0580 N.4   1 <1>  -0.9590 
 15 C       -5.1420    -0.9120     0.4030 C.3   1 <1>  -0.1060 
 16 C        1.6150     3.0560    -0.5420 C.3   1 <1>  -0.1600 
 17 C        0.0090     1.8780     1.0010 C.3   1 <1>  -0.1600 
 18 C       -5.5580    -3.6890    -0.5910 C.3   1 <1>   0.3430 
 19 C       -3.1160    -4.0940    -0.3950 C.3   1 <1>   0.2630 
 20 C       -5.0070    -1.1150     1.9240 C.2   1 <1>   0.9060 
 21 C       -6.5480    -1.3940    -0.0620 C.3   1 <1>  -0.1600 
 22 C        2.6470     3.1450     0.5920 C.3   1 <1>  -0.1600 
 23 C        1.0260     1.9770     2.1470 C.3   1 <1>  -0.1600 
 24 C       -6.4770    -2.5550    -1.0680 C.3   1 <1>  -0.1600 
 25 O       -4.7720    -2.2590     2.3440 O.co2 1 <1>  -0.9000 
 26 O       -5.1060    -0.1560     2.6870 O.co2 1 <1>  -0.9000 
 27 C        2.4610     2.0100     1.6060 C.3   1 <1>  -0.1600 
 28 H       -1.8500    -1.7860    -0.2890 H     1 <1>   0.0800 
 29 H       -2.5230    -1.2670     1.2330 H     1 <1>   0.0800 
 30 H       -3.3930     1.1230     1.4220 H     1 <1>   0.0800 
 31 H       -3.4320     2.1200    -0.0010 H     1 <1>   0.0800 
 32 H       -2.8570     2.0370    -3.4620 H     1 <1>   0.1500 
 33 H       -4.0770    -1.5510    -1.3400 H     1 <1>   0.0800 
 34 H       -5.6640     1.1890     0.5330 H     1 <1>   0.0800 
 35 H       -5.1100     0.7180    -1.0430 H     1 <1>   0.0800 
 36 H       -0.6090     4.9860    -1.8010 H     1 <1>   0.2700 
 37 H       -0.0040     3.9470     0.5310 H     1 <1>   0.0800 
 38 H       -4.3810    -3.1990     0.9910 H     1 <1>   0.4500 
 39 H        1.7900     2.1590    -1.1120 H     1 <1>   0.0800 
 40 H        1.7450     3.8930    -1.2030 H     1 <1>   0.0800 
 41 H       -0.9840     1.8980     1.4110 H     1 <1>   0.0800 
 42 H        0.1520     0.9370     0.5000 H     1 <1>   0.0800 
 43 H       -5.3880    -4.3660    -1.4110 H     1 <1>   0.0800 
 44 H       -6.0600    -4.2360     0.1920 H     1 <1>   0.0800 
 45 H       -2.8880    -4.0280    -1.4460 H     1 <1>   0.0800 
 46 H       -3.3660    -5.1140    -0.1530 H     1 <1>   0.0800 
 47 H       -2.2430    -3.8160     0.1710 H     1 <1>   0.0800 
 48 H       -7.1080    -1.7230     0.7990 H     1 <1>   0.0800 
 49 H       -7.1080    -0.5830    -0.4950 H     1 <1>   0.0800 
 50 H        3.6400     3.0990     0.1790 H     1 <1>   0.0800 
 51 H        2.5440     4.0910     1.0960 H     1 <1>   0.0800 
 52 H        0.8360     2.8690     2.7190 H     1 <1>   0.0800 
 53 H        0.9070     1.1330     2.8050 H     1 <1>   0.0800 
 54 H       -6.1240    -2.1910    -2.0180 H     1 <1>   0.0800 
 55 H       -7.4650    -2.9490    -1.2290 H     1 <1>   0.0800 
 56 H        3.1520     2.1360     2.4220 H     1 <1>   0.0800 
 57 H        2.6820     1.0690     1.1300 H     1 <1>   0.0800 
@<TRIPOS>BOND
  1   1   2  2   
  2   2   3  am  
  3   2   4  1   
  4   3   5  1   
  5   3   6  1   
  6   4   7  2   
  7   4   8  1   
  8   5   9  1   
  9   5  28  1   
 10   5  29  1   
 11   6  10  1   
 12   6  30  1   
 13   6  31  1   
 14   7  11  1   
 15   7  12  1   
 16   8  13  2   
 17   8  32  1   
 18   9  14  1   
 19   9  15  1   
 20   9  33  1   
 21  10  15  1   
 22  10  34  1   
 23  10  35  1   
 24  11  13  1   
 25  11  36  1   
 26  12  16  1   
 27  12  17  1   
 28  12  37  1   
 29  14  18  1   
 30  14  19  1   
 31  14  38  1   
 32  15  20  1   
 33  15  21  1   
 34  16  22  1   
 35  16  39  1   
 36  16  40  1   
 37  17  23  1   
 38  17  41  1   
 39  17  42  1   
 40  18  24  1   
 41  18  43  1   
 42  18  44  1   
 43  19  45  1   
 44  19  46  1   
 45  19  47  1   
 46  20  25  ar  
 47  20  26  ar  
 48  21  24  1   
 49  21  48  1   
 50  21  49  1   
 51  22  27  1   
 52  22  50  1   
 53  22  51  1   
 54  23  27  1   
 55  23  52  1   
 56  23  53  1   
 57  24  54  1   
 58  24  55  1   
 59  27  56  1   
 60  27  57  1   
@<TRIPOS>SUBSTRUCTURE
  1 ****   3 GROUP 4 **** **** 0

# MOE 2024.06 (io_trps.svl 2023.06)
