@<TRIPOS>MOLECULE
NONAME
44 45 1 0 0 
SMALL
USER_CHARGES


@<TRIPOS>ATOM
  1 O       -0.4080     0.1310    -0.3750 O.2   1 <1>  -0.5700 
  2 C       -1.4520     0.7170    -0.2150 C.2   1 <1>   0.5690 
  3 N       -2.6350     0.0370    -0.1300 N.am  1 <1>  -0.6600 
  4 C       -1.4570     2.2390    -0.1170 C.3   1 <1>  -0.0990 
  5 C       -3.9910     0.6270    -0.0180 C.3   1 <1>   0.1400 
  6 C       -2.7050    -1.4400    -0.2130 C.3   1 <1>   0.1400 
  7 C       -0.0580     2.8750    -0.0220 C.3   1 <1>  -0.1600 
  8 C       -4.9470    -0.5530    -0.1950 C.3   1 <1>   0.2000 
  9 C       -4.1410    -1.7970     0.1760 C.3   1 <1>  -0.0800 
 10 C       -0.1420     4.4020     0.0930 C.3   1 <1>  -0.1600 
 11 O       -6.0550    -0.4390     0.6300 O.3   1 <1>  -0.6800 
 12 C       -4.6650    -3.0730    -0.5020 C.3   1 <1>  -0.0170 
 13 C        1.2560     5.0240     0.1850 C.3   1 <1>  -0.1600 
 14 C       -3.8420    -4.2860    -0.0990 C.ar  1 <1>  -0.1440 
 15 C        1.1750     6.5490     0.2990 C.3   1 <1>  -0.2400 
 16 C       -4.0930    -4.9730     1.0720 C.ar  1 <1>  -0.1500 
 17 C       -2.8050    -4.7640    -0.8750 C.ar  1 <1>  -0.1500 
 18 C       -3.3160    -6.0710     1.4020 C.ar  1 <1>   0.1600 
 19 C       -2.0880    -5.8710    -0.4530 C.ar  1 <1>   0.1600 
 20 N       -2.3190    -6.5370     0.6680 N.ar  1 <1>  -0.6200 
 21 H       -1.9590     2.6260    -0.9840 H     1 <1>   0.0800 
 22 H       -2.0210     2.5180     0.7530 H     1 <1>   0.0800 
 23 H       -4.1050     1.0720     0.9550 H     1 <1>   0.0800 
 24 H       -4.1490     1.3620    -0.7880 H     1 <1>   0.0800 
 25 H       -2.4900    -1.7390    -1.2240 H     1 <1>   0.0800 
 26 H       -1.9890    -1.8960     0.4510 H     1 <1>   0.0800 
 27 H        0.4540     2.4740     0.8370 H     1 <1>   0.0800 
 28 H        0.5110     2.6090    -0.8970 H     1 <1>   0.0800 
 29 H       -5.2870    -0.5950    -1.2160 H     1 <1>   0.0800 
 30 H       -4.1550    -1.9290     1.2430 H     1 <1>   0.0800 
 31 H       -0.6520     4.7990    -0.7690 H     1 <1>   0.0800 
 32 H       -0.7080     4.6660     0.9700 H     1 <1>   0.0800 
 33 H       -5.7850    -0.4530     1.5690 H     1 <1>   0.4000 
 34 H       -4.6410    -2.9580    -1.5720 H     1 <1>   0.0800 
 35 H       -5.6910    -3.2300    -0.2180 H     1 <1>   0.0800 
 36 H        1.7710     4.6320     1.0460 H     1 <1>   0.0800 
 37 H        1.8260     4.7650    -0.6910 H     1 <1>   0.0800 
 38 H        0.6280     6.8320     1.1820 H     1 <1>   0.0800 
 39 H        0.6830     6.9650    -0.5630 H     1 <1>   0.0800 
 40 H        2.1640     6.9660     0.3630 H     1 <1>   0.0800 
 41 H       -4.8850    -4.6660     1.7300 H     1 <1>   0.1500 
 42 H       -2.5450    -4.2880    -1.8020 H     1 <1>   0.1500 
 43 H       -3.5270    -6.5950     2.3180 H     1 <1>   0.1500 
 44 H       -1.2810    -6.2280    -1.0700 H     1 <1>   0.1500 
@<TRIPOS>BOND
  1   1   2  2   
  2   2   3  am  
  3   2   4  1   
  4   3   5  1   
  5   3   6  1   
  6   4   7  1   
  7   4  21  1   
  8   4  22  1   
  9   5   8  1   
 10   5  23  1   
 11   5  24  1   
 12   6   9  1   
 13   6  25  1   
 14   6  26  1   
 15   7  10  1   
 16   7  27  1   
 17   7  28  1   
 18   8   9  1   
 19   8  11  1   
 20   8  29  1   
 21   9  12  1   
 22   9  30  1   
 23  10  13  1   
 24  10  31  1   
 25  10  32  1   
 26  11  33  1   
 27  12  14  1   
 28  12  34  1   
 29  12  35  1   
 30  13  15  1   
 31  13  36  1   
 32  13  37  1   
 33  14  16  ar  
 34  14  17  ar  
 35  15  38  1   
 36  15  39  1   
 37  15  40  1   
 38  16  18  ar  
 39  16  41  1   
 40  17  19  ar  
 41  17  42  1   
 42  18  20  ar  
 43  18  43  1   
 44  19  20  ar  
 45  19  44  1   
@<TRIPOS>SUBSTRUCTURE
  1 ****   6 GROUP 4 **** **** 0

# MOE 2024.06 (io_trps.svl 2023.06)
