@<TRIPOS>MOLECULE
NONAME
48 50 1 0 0 
SMALL
USER_CHARGES


@<TRIPOS>ATOM
  1 O        1.2170    -3.2440    -0.0070 O.3   1 <1>  -0.3630 
  2 C        0.2120    -3.9730     0.5160 C.ar  1 <1>   0.3920 
  3 C        2.5600    -3.6600     0.1140 C.3   1 <1>   0.1200 
  4 N        0.4850    -5.1570     1.0570 N.ar  1 <1>  -0.6200 
  5 C       -1.0620    -3.4280     0.4480 C.ar  1 <1>  -0.1500 
  6 C        3.4440    -2.6100    -0.5530 C.3   1 <1>  -0.2400 
  7 C       -0.5510    -5.8050     1.5580 C.ar  1 <1>   0.1600 
  8 C       -2.1350    -4.1270     0.9560 C.ar  1 <1>  -0.1500 
  9 C       -1.8640    -5.3600     1.5190 C.ar  1 <1>  -0.1440 
 10 C       -2.9650    -6.2460     2.0570 C.3   1 <1>   0.4860 
 11 N       -3.3020    -7.1940     0.9740 N.4   1 <1>  -0.9590 
 12 C       -4.1840    -6.6800    -0.1110 C.3   1 <1>   0.3430 
 13 C       -3.7940    -8.5410     1.3330 C.3   1 <1>   0.3430 
 14 C       -4.7830    -7.9290    -0.7770 C.3   1 <1>   0.2000 
 15 C       -4.2280    -9.1380    -0.0080 C.3   1 <1>  -0.0800 
 16 O       -6.1670    -7.9030    -0.6430 O.3   1 <1>  -0.6800 
 17 C       -3.0610    -9.8350    -0.7550 C.3   1 <1>   0.0210 
 18 C       -1.7270    -9.0960    -0.7210 C.2   1 <1>   0.1080 
 19 N       -1.5630    -7.8850    -1.1590 N.2   1 <1>  -0.7070 
 20 C       -0.5500    -9.6240    -0.2030 C.2   1 <1>  -0.1500 
 21 N       -0.2500    -7.6180    -0.9660 N.pl3 1 <1>   0.3000 
 22 C        0.3720    -8.6520    -0.3650 C.2   1 <1>  -0.3320 
 23 C        1.8430    -8.6400     0.0110 C.3   1 <1>  -0.0600 
 24 H        2.7950    -3.7510     1.1610 H     1 <1>   0.0800 
 25 H        2.6690    -4.6150    -0.3700 H     1 <1>   0.0800 
 26 H       -1.1900    -2.4610    -0.0040 H     1 <1>   0.1500 
 27 H        3.3180    -1.6590    -0.0680 H     1 <1>   0.0800 
 28 H        3.1910    -2.5200    -1.5940 H     1 <1>   0.0800 
 29 H        4.4760    -2.9010    -0.4750 H     1 <1>   0.0800 
 30 H       -0.3330    -6.7600     2.0090 H     1 <1>   0.1500 
 31 H       -3.1290    -3.7170     0.9040 H     1 <1>   0.1500 
 32 H       -3.8270    -5.6630     2.3380 H     1 <1>   0.0800 
 33 H       -2.6050    -6.7790     2.9220 H     1 <1>   0.0800 
 34 H       -2.4140    -7.3720     0.4520 H     1 <1>   0.4500 
 35 H       -4.9710    -6.0600     0.2840 H     1 <1>   0.0800 
 36 H       -3.6000    -6.1210    -0.8250 H     1 <1>   0.0800 
 37 H       -3.0240    -9.1350     1.8000 H     1 <1>   0.0800 
 38 H       -4.6420    -8.4600     1.9930 H     1 <1>   0.0800 
 39 H       -4.5550    -7.9570    -1.8300 H     1 <1>   0.0800 
 40 H       -4.9980    -9.8760     0.1420 H     1 <1>   0.0800 
 41 H       -6.4720    -8.0680     0.2690 H     1 <1>   0.4000 
 42 H       -3.3350    -9.9960    -1.7830 H     1 <1>   0.0800 
 43 H       -2.9100   -10.8070    -0.3210 H     1 <1>   0.0800 
 44 H       -0.4170   -10.6030     0.2250 H     1 <1>   0.1500 
 45 H        0.1910    -6.7210    -1.2200 H     1 <1>   0.2700 
 46 H        2.1110    -9.5610     0.4980 H     1 <1>   0.0800 
 47 H        2.0520    -7.8240     0.6810 H     1 <1>   0.0800 
 48 H        2.4500    -8.5310    -0.8700 H     1 <1>   0.0800 
@<TRIPOS>BOND
  1   1   2  1   
  2   1   3  1   
  3   2   4  ar  
  4   2   5  ar  
  5   3   6  1   
  6   3  24  1   
  7   3  25  1   
  8   4   7  ar  
  9   5   8  ar  
 10   5  26  1   
 11   6  27  1   
 12   6  28  1   
 13   6  29  1   
 14   7   9  ar  
 15   7  30  1   
 16   8   9  ar  
 17   8  31  1   
 18   9  10  1   
 19  10  11  1   
 20  10  32  1   
 21  10  33  1   
 22  11  12  1   
 23  11  13  1   
 24  11  34  1   
 25  12  14  1   
 26  12  35  1   
 27  12  36  1   
 28  13  15  1   
 29  13  37  1   
 30  13  38  1   
 31  14  15  1   
 32  14  16  1   
 33  14  39  1   
 34  15  17  1   
 35  15  40  1   
 36  16  41  1   
 37  17  18  1   
 38  17  42  1   
 39  17  43  1   
 40  18  19  2   
 41  18  20  1   
 42  19  21  1   
 43  20  22  2   
 44  20  44  1   
 45  21  22  1   
 46  21  45  1   
 47  22  23  1   
 48  23  46  1   
 49  23  47  1   
 50  23  48  1   
@<TRIPOS>SUBSTRUCTURE
  1 ****   7 GROUP 4 **** **** 0

# MOE 2024.06 (io_trps.svl 2023.06)
