@<TRIPOS>MOLECULE
NONAME
47 50 1 0 0 
SMALL
USER_CHARGES


@<TRIPOS>ATOM
  1 CL      -0.1450     1.3160     0.8790 Cl    1 <1>  -0.1770 
  2 C        1.5720     0.9860     0.8130 C.ar  1 <1>   0.1770 
  3 C        2.4650     1.9120     0.2520 C.ar  1 <1>  -0.1520 
  4 C        2.0260    -0.2040     1.3270 C.ar  1 <1>  -0.1500 
  5 N        2.2970     3.1500    -0.3320 N.pl3 1 <1>   0.0480 
  6 C        3.8210     1.6020     0.2300 C.ar  1 <1>   0.0000 
  7 C        3.3930    -0.5060     1.2960 C.ar  1 <1>  -0.1500 
  8 C        3.5390     3.6300    -0.7000 C.2   1 <1>  -0.2370 
  9 C        0.9950     3.8140    -0.5770 C.3   1 <1>   0.0160 
 10 C        4.2850     0.3870     0.7520 C.ar  1 <1>  -0.1500 
 11 C        4.4700     2.6860    -0.3760 C.2   1 <1>  -0.1500 
 12 C        3.7460     4.9110    -1.3230 C.2   1 <1>   0.7150 
 13 O        3.2210     5.1590    -2.3880 O.2   1 <1>  -0.5700 
 14 N        4.5560     5.8680    -0.7460 N.am  1 <1>  -0.6600 
 15 C        5.0440     5.7450     0.6790 C.3   1 <1>   0.2200 
 16 C        4.8490     7.1220    -1.5160 C.3   1 <1>   0.1400 
 17 C        4.7190     6.9830     1.5310 C.3   1 <1>   0.1200 
 18 C        6.5580     5.4290     0.7180 C.3   1 <1>   0.3430 
 19 C        6.0200     7.9690    -0.9820 C.3   1 <1>  -0.0800 
 20 O        5.7200     7.9480     1.4080 O.3   1 <1>  -0.5600 
 21 N        7.2520     5.7590    -0.5780 N.4   1 <1>  -0.9590 
 22 C        5.6400     8.7540     0.2820 C.3   1 <1>   0.1200 
 23 C        7.3680     7.2340    -0.8230 C.3   1 <1>   0.3430 
 24 C        8.5800     5.0870    -0.6760 C.3   1 <1>   0.2630 
 25 H        1.3330    -0.9070     1.7540 H     1 <1>   0.1500 
 26 H        3.7330    -1.4440     1.7010 H     1 <1>   0.1500 
 27 H        1.1330     4.7660    -1.0530 H     1 <1>   0.0800 
 28 H        0.4880     3.9600     0.3580 H     1 <1>   0.0800 
 29 H        0.3980     3.1890    -1.2160 H     1 <1>   0.0800 
 30 H        5.3360     0.1650     0.7180 H     1 <1>   0.1500 
 31 H        5.5290     2.7150    -0.5520 H     1 <1>   0.1500 
 32 H        4.5290     4.9330     1.1600 H     1 <1>   0.0800 
 33 H        5.0630     6.8510    -2.5370 H     1 <1>   0.0800 
 34 H        3.9550     7.7230    -1.5370 H     1 <1>   0.0800 
 35 H        4.6980     6.7000     2.5690 H     1 <1>   0.0800 
 36 H        3.7590     7.4030     1.2800 H     1 <1>   0.0800 
 37 H        6.6670     4.3760     0.9180 H     1 <1>   0.0800 
 38 H        7.0180     5.9610     1.5350 H     1 <1>   0.0800 
 39 H        6.1860     8.7280    -1.7250 H     1 <1>   0.0800 
 40 H        6.6160     5.3990    -1.3100 H     1 <1>   0.4500 
 41 H        4.6500     9.1740     0.2130 H     1 <1>   0.0800 
 42 H        6.3340     9.5640     0.4310 H     1 <1>   0.0800 
 43 H        7.9240     7.6910    -0.0200 H     1 <1>   0.0800 
 44 H        7.9310     7.3820    -1.7300 H     1 <1>   0.0800 
 45 H        9.2420     5.4530     0.0920 H     1 <1>   0.0800 
 46 H        9.0270     5.2810    -1.6380 H     1 <1>   0.0800 
 47 H        8.4700     4.0210    -0.5590 H     1 <1>   0.0800 
@<TRIPOS>BOND
  1   1   2  1   
  2   2   3  ar  
  3   2   4  ar  
  4   3   5  1   
  5   3   6  ar  
  6   4   7  ar  
  7   4  25  1   
  8   5   8  1   
  9   5   9  1   
 10   6  10  ar  
 11   6  11  1   
 12   7  10  ar  
 13   7  26  1   
 14   8  11  2   
 15   8  12  1   
 16   9  27  1   
 17   9  28  1   
 18   9  29  1   
 19  10  30  1   
 20  11  31  1   
 21  12  13  2   
 22  12  14  am  
 23  14  15  1   
 24  14  16  1   
 25  15  17  1   
 26  15  18  1   
 27  15  32  1   
 28  16  19  1   
 29  16  33  1   
 30  16  34  1   
 31  17  20  1   
 32  17  35  1   
 33  17  36  1   
 34  18  21  1   
 35  18  37  1   
 36  18  38  1   
 37  19  22  1   
 38  19  23  1   
 39  19  39  1   
 40  20  22  1   
 41  21  23  1   
 42  21  24  1   
 43  21  40  1   
 44  22  41  1   
 45  22  42  1   
 46  23  43  1   
 47  23  44  1   
 48  24  45  1   
 49  24  46  1   
 50  24  47  1   
@<TRIPOS>SUBSTRUCTURE
  1 ****   8 GROUP 4 **** **** 0

# MOE 2024.06 (io_trps.svl 2023.06)
