@<TRIPOS>MOLECULE
NONAME
58 60 1 0 0 
SMALL
USER_CHARGES


@<TRIPOS>ATOM
  1 O       -0.4570     1.3220    -1.4060 O.3   1 <1>  -0.6800 
  2 C       -0.1250     2.5520    -0.8500 C.3   1 <1>   0.2000 
  3 C       -1.3050     3.1060    -0.0030 C.3   1 <1>   0.0000 
  4 C        1.1800     2.3940    -0.0500 C.3   1 <1>   0.2090 
  5 C       -0.8170     4.4260     0.6520 C.3   1 <1>  -0.1600 
  6 C       -1.6910     2.0640     1.0880 C.3   1 <1>   0.1200 
  7 C       -2.5630     3.3760    -0.8820 C.3   1 <1>  -0.1600 
  8 N        1.5500     3.6870     0.6170 N.pl3 1 <1>  -0.8380 
  9 C        0.4660     4.2550     1.4760 C.3   1 <1>   0.2090 
 10 O       -2.7200     2.5270     1.9010 O.3   1 <1>  -0.6800 
 11 C       -2.3640     4.2460    -2.1380 C.3   1 <1>  -0.1600 
 12 C        2.7050     4.3600     0.3640 C.ar  1 <1>   0.4100 
 13 C       -3.6960     4.4550    -2.8650 C.3   1 <1>  -0.2400 
 14 N        2.6720     5.6790     0.4000 N.ar  1 <1>  -0.6200 
 15 C        3.8980     3.6690     0.0720 C.ar  1 <1>  -0.1500 
 16 C        3.7830     6.3450     0.1260 C.ar  1 <1>   0.7710 
 17 C        5.0250     4.3690    -0.2010 C.ar  1 <1>   0.2180 
 18 N        4.9330     5.7180    -0.1720 N.ar  1 <1>  -0.1790 
 19 N        3.7650     7.7000     0.1480 N.pl3 1 <1>  -0.8380 
 20 C        6.3660     3.7220    -0.5260 C.3   1 <1>  -0.0170 
 21 C        4.8620     8.6510    -0.1820 C.3   1 <1>   0.2090 
 22 C        2.5280     8.4550     0.4970 C.3   1 <1>   0.2090 
 23 C        7.4350     4.0460     0.5260 C.3   1 <1>  -0.2400 
 24 C        4.1840    10.0080    -0.3070 C.3   1 <1>  -0.1600 
 25 C        2.9610     9.9100     0.5970 C.3   1 <1>  -0.1600 
 26 H       -1.2710     1.4110    -1.9410 H     1 <1>   0.4000 
 27 H        0.0860     3.2200    -1.6640 H     1 <1>   0.0800 
 28 H        1.9480     2.0900    -0.7370 H     1 <1>   0.0800 
 29 H        1.0680     1.6290     0.6970 H     1 <1>   0.0800 
 30 H       -1.5850     4.8390     1.2790 H     1 <1>   0.0800 
 31 H       -0.6050     5.1580    -0.1050 H     1 <1>   0.0800 
 32 H       -0.8610     1.8180     1.7230 H     1 <1>   0.0800 
 33 H       -2.0370     1.1530     0.6300 H     1 <1>   0.0800 
 34 H       -2.9770     2.4320    -1.1910 H     1 <1>   0.0800 
 35 H       -3.3130     3.8460    -0.2690 H     1 <1>   0.0800 
 36 H        0.2950     3.5960     2.3090 H     1 <1>   0.0800 
 37 H        0.7580     5.2080     1.8830 H     1 <1>   0.0800 
 38 H       -2.4620     3.3530     2.3510 H     1 <1>   0.4000 
 39 H       -1.9690     5.2100    -1.8710 H     1 <1>   0.0800 
 40 H       -1.6790     3.7770    -2.8210 H     1 <1>   0.0800 
 41 H       -4.4020     4.9520    -2.2230 H     1 <1>   0.0800 
 42 H       -4.1120     3.5120    -3.1720 H     1 <1>   0.0800 
 43 H       -3.5460     5.0630    -3.7400 H     1 <1>   0.0800 
 44 H        3.8920     2.5970     0.0890 H     1 <1>   0.1500 
 45 H        5.7260     6.3190    -0.3480 H     1 <1>   0.4570 
 46 H        6.2440     2.6530    -0.5730 H     1 <1>   0.0800 
 47 H        6.7010     4.0470    -1.4960 H     1 <1>   0.0800 
 48 H        5.5720     8.6770     0.6300 H     1 <1>   0.0800 
 49 H        5.3560     8.3910    -1.1030 H     1 <1>   0.0800 
 50 H        1.8030     8.3330    -0.2910 H     1 <1>   0.0800 
 51 H        2.1060     8.1090     1.4270 H     1 <1>   0.0800 
 52 H        7.1130     3.7240     1.5020 H     1 <1>   0.0800 
 53 H        7.6510     5.0990     0.5610 H     1 <1>   0.0800 
 54 H        8.3480     3.5270     0.2890 H     1 <1>   0.0800 
 55 H        4.8380    10.8140    -0.0230 H     1 <1>   0.0800 
 56 H        3.8720    10.1560    -1.3270 H     1 <1>   0.0800 
 57 H        2.1750    10.5820     0.2990 H     1 <1>   0.0800 
 58 H        3.2360    10.1260     1.6150 H     1 <1>   0.0800 
@<TRIPOS>BOND
  1   1   2  1   
  2   1  26  1   
  3   2   3  1   
  4   2   4  1   
  5   2  27  1   
  6   3   5  1   
  7   3   6  1   
  8   3   7  1   
  9   4   8  1   
 10   4  28  1   
 11   4  29  1   
 12   5   9  1   
 13   5  30  1   
 14   5  31  1   
 15   6  10  1   
 16   6  32  1   
 17   6  33  1   
 18   7  11  1   
 19   7  34  1   
 20   7  35  1   
 21   8   9  1   
 22   8  12  1   
 23   9  36  1   
 24   9  37  1   
 25  10  38  1   
 26  11  13  1   
 27  11  39  1   
 28  11  40  1   
 29  12  14  ar  
 30  12  15  ar  
 31  13  41  1   
 32  13  42  1   
 33  13  43  1   
 34  14  16  ar  
 35  15  17  ar  
 36  15  44  1   
 37  16  18  ar  
 38  16  19  1   
 39  17  18  ar  
 40  17  20  1   
 41  18  45  1   
 42  19  21  1   
 43  19  22  1   
 44  20  23  1   
 45  20  46  1   
 46  20  47  1   
 47  21  24  1   
 48  21  48  1   
 49  21  49  1   
 50  22  25  1   
 51  22  50  1   
 52  22  51  1   
 53  23  52  1   
 54  23  53  1   
 55  23  54  1   
 56  24  25  1   
 57  24  55  1   
 58  24  56  1   
 59  25  57  1   
 60  25  58  1   
@<TRIPOS>SUBSTRUCTURE
  1 ****  12 GROUP 4 **** **** 0

# MOE 2024.06 (io_trps.svl 2023.06)
