@<TRIPOS>MOLECULE
NONAME
43 45 1 0 0 
SMALL
USER_CHARGES


@<TRIPOS>ATOM
  1 O        1.5960     3.1990     1.5970 O.co2 1 <1>  -0.9000 
  2 C        1.3190     2.3110     0.7740 C.2   1 <1>   0.9060 
  3 O        0.5180     1.4120     0.9960 O.co2 1 <1>  -0.9000 
  4 C        2.1140     2.2660    -0.5140 C.3   1 <1>  -0.1860 
  5 C        3.5400     2.0400    -0.0790 C.3   1 <1>   0.3430 
  6 C        2.1660     3.6190    -1.2500 C.3   1 <1>  -0.1600 
  7 N        3.9260     3.4020     0.3190 N.4   1 <1>  -0.9590 
  8 C        3.3980     4.3340    -0.6970 C.3   1 <1>   0.3430 
  9 C        5.2860     3.6430     0.8160 C.3   1 <1>   0.5240 
 10 C        5.2620     4.9570     1.5610 C.2   1 <1>  -0.1810 
 11 C        6.2220     5.9590     1.4160 C.2   1 <1>   0.2350 
 12 C        4.3680     5.4320     2.4540 C.2   1 <1>  -0.3020 
 13 N        5.9340     6.9880     2.1710 N.2   1 <1>  -0.7070 
 14 C        7.3610     5.8480     0.5330 C.ar  1 <1>   0.0540 
 15 N        4.7980     6.6560     2.8100 N.pl3 1 <1>   0.3000 
 16 C        7.4290     6.5250    -0.6880 C.ar  1 <1>  -0.1440 
 17 C        8.4120     5.0040     0.8820 C.ar  1 <1>  -0.1500 
 18 C        8.5100     6.3260    -1.5310 C.ar  1 <1>  -0.1500 
 19 C        6.3300     7.4940    -1.1000 C.3   1 <1>  -0.0970 
 20 C        9.4920     4.8030     0.0400 C.ar  1 <1>  -0.1440 
 21 C        9.5330     5.4670    -1.1730 C.ar  1 <1>  -0.1500 
 22 C       10.6320     3.8810     0.4340 C.3   1 <1>  -0.0970 
 23 H        1.7440     1.4670    -1.1290 H     1 <1>   0.0800 
 24 H        4.1430     1.6960    -0.9030 H     1 <1>   0.0800 
 25 H        3.5910     1.3490     0.7480 H     1 <1>   0.0800 
 26 H        1.2730     4.1940    -1.0720 H     1 <1>   0.0800 
 27 H        2.2790     3.4740    -2.3100 H     1 <1>   0.0800 
 28 H        3.2750     3.5670     1.1310 H     1 <1>   0.4500 
 29 H        3.1320     5.2750    -0.2420 H     1 <1>   0.0800 
 30 H        4.1230     4.4940    -1.4770 H     1 <1>   0.0800 
 31 H        5.9820     3.6840    -0.0050 H     1 <1>   0.0800 
 32 H        5.5790     2.8550     1.4900 H     1 <1>   0.0800 
 33 H        3.4680     4.9870     2.8490 H     1 <1>   0.1500 
 34 H        4.3390     7.2860     3.4820 H     1 <1>   0.2700 
 35 H        8.3770     4.5070     1.8350 H     1 <1>   0.1500 
 36 H        8.5690     6.8440    -2.4720 H     1 <1>   0.1500 
 37 H        5.3790     6.9950    -1.1240 H     1 <1>   0.0800 
 38 H        6.5230     7.9140    -2.0700 H     1 <1>   0.0800 
 39 H        6.2760     8.3000    -0.3880 H     1 <1>   0.0800 
 40 H       10.3670     5.3250    -1.8390 H     1 <1>   0.1500 
 41 H       10.4250     3.3850     1.3650 H     1 <1>   0.0800 
 42 H       11.5370     4.4510     0.5450 H     1 <1>   0.0800 
 43 H       10.7830     3.1360    -0.3270 H     1 <1>   0.0800 
@<TRIPOS>BOND
  1   1   2  ar  
  2   2   3  ar  
  3   2   4  1   
  4   4   5  1   
  5   4   6  1   
  6   4  23  1   
  7   5   7  1   
  8   5  24  1   
  9   5  25  1   
 10   6   8  1   
 11   6  26  1   
 12   6  27  1   
 13   7   8  1   
 14   7   9  1   
 15   7  28  1   
 16   8  29  1   
 17   8  30  1   
 18   9  10  1   
 19   9  31  1   
 20   9  32  1   
 21  10  11  1   
 22  10  12  2   
 23  11  13  2   
 24  11  14  1   
 25  12  15  1   
 26  12  33  1   
 27  13  15  1   
 28  14  16  ar  
 29  14  17  ar  
 30  15  34  1   
 31  16  18  ar  
 32  16  19  1   
 33  17  20  ar  
 34  17  35  1   
 35  18  21  ar  
 36  18  36  1   
 37  19  37  1   
 38  19  38  1   
 39  19  39  1   
 40  20  21  ar  
 41  20  22  1   
 42  21  40  1   
 43  22  41  1   
 44  22  42  1   
 45  22  43  1   
@<TRIPOS>SUBSTRUCTURE
  1 ****   9 GROUP 4 **** **** 0

# MOE 2024.06 (io_trps.svl 2023.06)
