@<TRIPOS>MOLECULE
NONAME
59 62 1 0 0 
SMALL
USER_CHARGES


@<TRIPOS>ATOM
  1 O        0.9930     0.4910    -1.4910 O.3   1 <1>  -0.5600 
  2 C        2.2060    -0.2260    -1.5000 C.3   1 <1>   0.2000 
  3 C        1.1040     1.8620    -1.2350 C.3   1 <1>   0.1200 
  4 C        2.9850    -0.0290    -0.1720 C.3   1 <1>   0.5660 
  5 C        1.8920    -1.7140    -1.7260 C.3   1 <1>   0.1200 
  6 C        1.7430     2.0950     0.1440 C.3   1 <1>   0.3430 
  7 N        3.0650     1.4050     0.2360 N.4   1 <1>  -0.9590 
  8 C        4.4000    -0.5870    -0.2690 C.ar  1 <1>  -0.1430 
  9 O        1.3720    -2.2780    -0.5640 O.3   1 <1>  -0.6800 
 10 C        3.7420     1.6170     1.5320 C.3   1 <1>   0.5240 
 11 C        4.7350    -1.6980     0.4910 C.ar  1 <1>  -0.1500 
 12 C        5.3620    -0.0120    -1.0920 C.ar  1 <1>  -0.1500 
 13 C        4.3010     3.0230     1.5190 C.2   1 <1>  -0.1810 
 14 C        6.0120    -2.2300     0.4450 C.ar  1 <1>   0.0830 
 15 C        6.6440    -0.5330    -1.1350 C.ar  1 <1>  -0.1500 
 16 C        4.7100     3.7600     0.4490 C.2   1 <1>  -0.0260 
 17 C        4.5230     3.8300     2.6210 C.2   1 <1>   0.1390 
 18 O        6.2470    -3.3280     1.2020 O.3   1 <1>  -0.3620 
 19 C        6.9840    -1.6280    -0.3600 C.ar  1 <1>   0.0830 
 20 N        4.7120     3.4580    -0.9010 N.2   1 <1>  -0.5760 
 21 N        5.1610     4.9570     0.9640 N.pl3 1 <1>   0.6010 
 22 N        5.0260     4.9890     2.3070 N.2   1 <1>  -0.7070 
 23 C        6.5970    -4.5120     0.5170 C.3   1 <1>   0.0400 
 24 O        8.2650    -2.0630    -0.4260 O.3   1 <1>  -0.3630 
 25 C        5.1940     4.3680    -1.6870 C.2   1 <1>   0.3750 
 26 C        5.6690     5.9210     0.1030 C.2   1 <1>  -0.1690 
 27 C        9.0400    -1.9240     0.7450 C.3   1 <1>   0.0400 
 28 C        5.6860     5.6220    -1.2220 C.2   1 <1>  -0.1360 
 29 C        5.2380     4.0960    -3.1750 C.3   1 <1>  -0.1790 
 30 C        6.1710     7.2320     0.6930 C.3   1 <1>  -0.1020 
 31 H        2.7880     0.1360    -2.3300 H     1 <1>   0.0800 
 32 H        1.6880     2.3180    -2.0160 H     1 <1>   0.0800 
 33 H        0.1120     2.2790    -1.2590 H     1 <1>   0.0800 
 34 H        2.4560    -0.5760     0.5920 H     1 <1>   0.0800 
 35 H        2.7880    -2.2550    -1.9830 H     1 <1>   0.0800 
 36 H        1.1730    -1.8240    -2.5210 H     1 <1>   0.0800 
 37 H        1.0750     1.7190     0.9020 H     1 <1>   0.0800 
 38 H        1.8720     3.1540     0.3020 H     1 <1>   0.0800 
 39 H        3.6960     1.8820    -0.4320 H     1 <1>   0.4500 
 40 H        0.9530    -3.1440    -0.7590 H     1 <1>   0.4000 
 41 H        3.0510     1.4850     2.3480 H     1 <1>   0.0800 
 42 H        4.5590     0.9230     1.6490 H     1 <1>   0.0800 
 43 H        4.0090    -2.1780     1.1260 H     1 <1>   0.1500 
 44 H        5.1390     0.8430    -1.7070 H     1 <1>   0.1500 
 45 H        7.3950    -0.0900    -1.7670 H     1 <1>   0.1500 
 46 H        4.3130     3.5580     3.6450 H     1 <1>   0.1500 
 47 H        6.6120    -5.3190     1.2260 H     1 <1>   0.0800 
 48 H        7.5700    -4.3980     0.0750 H     1 <1>   0.0800 
 49 H        5.8620    -4.7050    -0.2450 H     1 <1>   0.0800 
 50 H       10.0420    -2.2470     0.5250 H     1 <1>   0.0800 
 51 H        8.6230    -2.5340     1.5260 H     1 <1>   0.0800 
 52 H        9.0430    -0.8900     1.0390 H     1 <1>   0.0800 
 53 H        6.0680     6.3140    -1.9520 H     1 <1>   0.1500 
 54 H        4.6830     4.8500    -3.7020 H     1 <1>   0.0800 
 55 H        4.8120     3.1350    -3.3990 H     1 <1>   0.0800 
 56 H        6.2570     4.1070    -3.5160 H     1 <1>   0.0800 
 57 H        6.9690     7.0420     1.3900 H     1 <1>   0.0800 
 58 H        5.3740     7.7310     1.2170 H     1 <1>   0.0800 
 59 H        6.5380     7.8870    -0.0780 H     1 <1>   0.0800 
@<TRIPOS>BOND
  1   1   2  1   
  2   1   3  1   
  3   2   4  1   
  4   2   5  1   
  5   2  31  1   
  6   3   6  1   
  7   3  32  1   
  8   3  33  1   
  9   4   7  1   
 10   4   8  1   
 11   4  34  1   
 12   5   9  1   
 13   5  35  1   
 14   5  36  1   
 15   6   7  1   
 16   6  37  1   
 17   6  38  1   
 18   7  10  1   
 19   7  39  1   
 20   8  11  ar  
 21   8  12  ar  
 22   9  40  1   
 23  10  13  1   
 24  10  41  1   
 25  10  42  1   
 26  11  14  ar  
 27  11  43  1   
 28  12  15  ar  
 29  12  44  1   
 30  13  16  2   
 31  13  17  1   
 32  14  18  1   
 33  14  19  ar  
 34  15  19  ar  
 35  15  45  1   
 36  16  20  1   
 37  16  21  1   
 38  17  22  2   
 39  17  46  1   
 40  18  23  1   
 41  19  24  1   
 42  20  25  2   
 43  21  22  1   
 44  21  26  1   
 45  23  47  1   
 46  23  48  1   
 47  23  49  1   
 48  24  27  1   
 49  25  28  1   
 50  25  29  1   
 51  26  28  2   
 52  26  30  1   
 53  27  50  1   
 54  27  51  1   
 55  27  52  1   
 56  28  53  1   
 57  29  54  1   
 58  29  55  1   
 59  29  56  1   
 60  30  57  1   
 61  30  58  1   
 62  30  59  1   
@<TRIPOS>SUBSTRUCTURE
  1 ****   7 GROUP 4 **** **** 0

# MOE 2024.06 (io_trps.svl 2023.06)
