@<TRIPOS>MOLECULE
NONAME
36 38 1 0 0 
SMALL
USER_CHARGES


@<TRIPOS>ATOM
  1 O       -0.5500    -0.2100     0.0080 O.2   1 <1>  -0.5700 
  2 C       -1.5090     0.5200     0.1910 C.2   1 <1>   0.5440 
  3 N       -2.7210    -0.0440     0.4990 N.am  1 <1>  -0.6600 
  4 C       -1.3290     1.9540     0.0710 C.ar  1 <1>   0.0860 
  5 C       -3.9610     0.6690     0.9210 C.3   1 <1>   0.2350 
  6 C       -3.0830    -1.4340     0.1040 C.3   1 <1>   0.2350 
  7 C       -0.3360     2.6130     0.7940 C.ar  1 <1>  -0.1500 
  8 C       -2.1180     2.7240    -0.7870 C.ar  1 <1>  -0.1500 
  9 C       -5.0820    -0.0220     0.1680 C.3   1 <1>  -0.2420 
 10 C       -4.5440    -1.3480    -0.3170 C.3   1 <1>  -0.2420 
 11 C       -0.1540     3.9760     0.6700 C.ar  1 <1>   0.0820 
 12 C       -1.9430     4.0910    -0.9130 C.ar  1 <1>  -0.1500 
 13 C       -6.4370     0.4000     0.7380 C.2   1 <1>   0.9470 
 14 C       -4.9850    -0.3030    -1.3120 C.3   1 <1>  -0.2000 
 15 C       -5.1850    -2.7370    -0.3600 C.2   1 <1>   0.9470 
 16 O        0.8120     4.5850     1.3790 O.3   1 <1>  -0.5320 
 17 C       -0.9520     4.7360    -0.1800 C.ar  1 <1>   0.0820 
 18 O       -7.2330     1.0110     0.0100 O.co2 1 <1>  -0.9000 
 19 O       -6.6380     0.2910     1.9540 O.co2 1 <1>  -0.9000 
 20 O       -5.7210    -3.1310    -1.4060 O.co2 1 <1>  -0.9000 
 21 O       -5.0220    -3.5020     0.6010 O.co2 1 <1>  -0.9000 
 22 O       -0.7110     6.0750    -0.2450 O.3   1 <1>  -0.3630 
 23 C       -1.4960     6.9190    -1.0570 C.3   1 <1>   0.0400 
 24 H       -4.1030     0.5320     1.9800 H     1 <1>   0.0800 
 25 H       -3.9440     1.7190     0.7010 H     1 <1>   0.0800 
 26 H       -2.4700    -1.7880    -0.7050 H     1 <1>   0.0800 
 27 H       -2.9760    -2.0860     0.9540 H     1 <1>   0.0800 
 28 H        0.2970     2.0470     1.4530 H     1 <1>   0.1500 
 29 H       -2.8840     2.2290    -1.3610 H     1 <1>   0.1500 
 30 H       -2.5860     4.6290    -1.5840 H     1 <1>   0.1500 
 31 H       -4.2480     0.1940    -1.9110 H     1 <1>   0.1000 
 32 H       -5.9030    -0.4810    -1.8490 H     1 <1>   0.1000 
 33 H        0.8160     5.5400     1.1650 H     1 <1>   0.4500 
 34 H       -1.1390     7.9270    -0.9390 H     1 <1>   0.0800 
 35 H       -2.5220     6.8560    -0.7390 H     1 <1>   0.0800 
 36 H       -1.3920     6.6140    -2.0840 H     1 <1>   0.0800 
@<TRIPOS>BOND
  1   1   2  2   
  2   2   3  am  
  3   2   4  1   
  4   3   5  1   
  5   3   6  1   
  6   4   7  ar  
  7   4   8  ar  
  8   5   9  1   
  9   5  24  1   
 10   5  25  1   
 11   6  10  1   
 12   6  26  1   
 13   6  27  1   
 14   7  11  ar  
 15   7  28  1   
 16   8  12  ar  
 17   8  29  1   
 18   9  10  1   
 19   9  13  1   
 20   9  14  1   
 21  10  14  1   
 22  10  15  1   
 23  11  16  1   
 24  11  17  ar  
 25  12  17  ar  
 26  12  30  1   
 27  13  18  ar  
 28  13  19  ar  
 29  14  31  1   
 30  14  32  1   
 31  15  20  ar  
 32  15  21  ar  
 33  16  33  1   
 34  17  22  1   
 35  22  23  1   
 36  23  34  1   
 37  23  35  1   
 38  23  36  1   
@<TRIPOS>SUBSTRUCTURE
  1 ****   5 GROUP 4 **** **** 0

# MOE 2024.06 (io_trps.svl 2023.06)
