@<TRIPOS>MOLECULE
NONAME
55 57 1 0 0 
SMALL
USER_CHARGES


@<TRIPOS>ATOM
  1 O        1.2790     1.5880    -0.7990 O.3   1 <1>  -0.0190 
  2 N        2.1670     0.7150    -1.1690 N.2   1 <1>  -0.4100 
  3 C        1.5790     2.1300     0.3500 C.2   1 <1>  -0.0400 
  4 C        3.0440     0.6770    -0.2310 C.2   1 <1>   0.1080 
  5 C        2.7220     1.5760     0.7820 C.2   1 <1>  -0.1500 
  6 C        0.6840     3.2080     0.9320 C.3   1 <1>   0.0200 
  7 C        4.2580    -0.2270    -0.2380 C.3   1 <1>  -0.0590 
  8 C        0.3690     4.2700    -0.1400 C.3   1 <1>  -0.0800 
  9 C       -0.3610     5.5240     0.3300 C.3   1 <1>   0.2000 
 10 C        1.6210     4.8090    -0.8370 C.3   1 <1>   0.3430 
 11 O        0.2470     6.0210     1.4790 O.3   1 <1>  -0.6800 
 12 C       -0.0860     6.5010    -0.8160 C.3   1 <1>   0.3430 
 13 N        1.3070     6.2020    -1.2980 N.4   1 <1>  -0.9590 
 14 C        2.3120     7.1570    -0.7190 C.3   1 <1>   0.3430 
 15 C        2.1780     8.5750    -1.2840 C.3   1 <1>   0.1200 
 16 O        3.2400     9.3390    -0.7650 O.3   1 <1>  -0.3630 
 17 C        3.4130    10.6380    -1.1170 C.ar  1 <1>   0.0820 
 18 C        4.5200    11.2830    -0.5870 C.ar  1 <1>  -0.1500 
 19 C        2.5510    11.3300    -1.9660 C.ar  1 <1>  -0.1500 
 20 C        4.7770    12.6140    -0.9010 C.ar  1 <1>   0.0820 
 21 C        2.8050    12.6550    -2.2770 C.ar  1 <1>  -0.1500 
 22 O        5.8380    13.3210    -0.4340 O.3   1 <1>  -0.3630 
 23 C        3.9130    13.2900    -1.7470 C.ar  1 <1>  -0.1500 
 24 C        6.7840    12.7950     0.4710 C.3   1 <1>   0.2000 
 25 C        6.2100    12.8730     1.8870 C.3   1 <1>  -0.2400 
 26 C        8.0450    13.6440     0.3430 C.3   1 <1>  -0.2400 
 27 H        3.2860     1.7510     1.6800 H     1 <1>   0.1500 
 28 H       -0.2300     2.7560     1.2760 H     1 <1>   0.0800 
 29 H        1.1850     3.6430     1.7780 H     1 <1>   0.0800 
 30 H        5.1530     0.3580    -0.1420 H     1 <1>   0.0800 
 31 H        4.3000    -0.7790    -1.1600 H     1 <1>   0.0800 
 32 H        4.1990    -0.9230     0.5780 H     1 <1>   0.0800 
 33 H       -0.2360     3.8010    -0.8980 H     1 <1>   0.0800 
 34 H       -1.4130     5.3830     0.5160 H     1 <1>   0.0800 
 35 H        1.9020     4.1710    -1.6610 H     1 <1>   0.0800 
 36 H        2.4330     4.8330    -0.1270 H     1 <1>   0.0800 
 37 H       -0.1360     5.6200     2.2890 H     1 <1>   0.4000 
 38 H       -0.1990     7.5200    -0.4860 H     1 <1>   0.0800 
 39 H       -0.7880     6.3080    -1.6110 H     1 <1>   0.0800 
 40 H        1.3480     6.2350    -2.3260 H     1 <1>   0.4500 
 41 H        2.1960     7.1950     0.3530 H     1 <1>   0.0800 
 42 H        3.3060     6.8030    -0.9400 H     1 <1>   0.0800 
 43 H        1.2570     9.0340    -0.9720 H     1 <1>   0.0800 
 44 H        2.2670     8.5710    -2.3560 H     1 <1>   0.0800 
 45 H        5.1620    10.7270     0.0650 H     1 <1>   0.1500 
 46 H        1.6830    10.8690    -2.3930 H     1 <1>   0.1500 
 47 H        2.1430    13.1950    -2.9310 H     1 <1>   0.1500 
 48 H        4.1170    14.3190    -1.9850 H     1 <1>   0.1500 
 49 H        7.0130    11.7820     0.1890 H     1 <1>   0.0800 
 50 H        5.9810    13.8920     2.1400 H     1 <1>   0.0800 
 51 H        6.9270    12.4970     2.5940 H     1 <1>   0.0800 
 52 H        5.3160    12.2820     1.9680 H     1 <1>   0.0800 
 53 H        7.8320    14.6700     0.5860 H     1 <1>   0.0800 
 54 H        8.4230    13.5880    -0.6620 H     1 <1>   0.0800 
 55 H        8.8040    13.2810     1.0120 H     1 <1>   0.0800 
@<TRIPOS>BOND
  1   1   2  1   
  2   1   3  1   
  3   2   4  2   
  4   3   5  2   
  5   3   6  1   
  6   4   5  1   
  7   4   7  1   
  8   5  27  1   
  9   6   8  1   
 10   6  28  1   
 11   6  29  1   
 12   7  30  1   
 13   7  31  1   
 14   7  32  1   
 15   8   9  1   
 16   8  10  1   
 17   8  33  1   
 18   9  11  1   
 19   9  12  1   
 20   9  34  1   
 21  10  13  1   
 22  10  35  1   
 23  10  36  1   
 24  11  37  1   
 25  12  13  1   
 26  12  38  1   
 27  12  39  1   
 28  13  14  1   
 29  13  40  1   
 30  14  15  1   
 31  14  41  1   
 32  14  42  1   
 33  15  16  1   
 34  15  43  1   
 35  15  44  1   
 36  16  17  1   
 37  17  18  ar  
 38  17  19  ar  
 39  18  20  ar  
 40  18  45  1   
 41  19  21  ar  
 42  19  46  1   
 43  20  22  1   
 44  20  23  ar  
 45  21  23  ar  
 46  21  47  1   
 47  22  24  1   
 48  23  48  1   
 49  24  25  1   
 50  24  26  1   
 51  24  49  1   
 52  25  50  1   
 53  25  51  1   
 54  25  52  1   
 55  26  53  1   
 56  26  54  1   
 57  26  55  1   
@<TRIPOS>SUBSTRUCTURE
  1 ****  14 GROUP 4 **** **** 0

# MOE 2024.06 (io_trps.svl 2023.06)
