@<TRIPOS>MOLECULE
NONAME
44 45 1 0 0 
SMALL
USER_CHARGES


@<TRIPOS>ATOM
  1 CL      -5.2160     2.8220     2.3890 Cl    1 <1>  -0.1770 
  2 C       -4.6490     1.4160     1.5200 C.ar  1 <1>   0.1770 
  3 C       -3.8850     0.4490     2.1520 C.ar  1 <1>   0.1770 
  4 C       -4.9980     1.2770     0.1890 C.ar  1 <1>  -0.1500 
  5 CL      -3.4600     0.6030     3.8380 Cl    1 <1>  -0.1770 
  6 C       -3.4610    -0.6660     1.4540 C.ar  1 <1>  -0.1500 
  7 C       -4.5940     0.1490    -0.5140 C.ar  1 <1>  -0.1440 
  8 C       -3.8170    -0.8130     0.1220 C.ar  1 <1>  -0.1500 
  9 C       -4.9850    -0.0440    -1.9770 C.3   1 <1>   0.0440 
 10 C       -5.8160    -1.3030    -2.2020 C.2   1 <1>   0.5690 
 11 O       -5.2200    -2.3180    -2.4800 O.2   1 <1>  -0.5700 
 12 N       -7.1870    -1.3110    -2.0950 N.am  1 <1>  -0.6600 
 13 C       -7.9510    -2.3370    -2.8660 C.3   1 <1>   0.3200 
 14 C       -7.9960    -0.2820    -1.3530 C.3   1 <1>   0.1400 
 15 C       -8.1310    -3.5440    -1.9760 C.2   1 <1>  -0.3320 
 16 C       -8.8890    -0.8660    -0.2280 C.3   1 <1>   0.3430 
 17 N       -7.0880    -4.2910    -1.5660 N.pl3 1 <1>   0.0330 
 18 C       -9.2380    -4.0960    -1.4350 C.2   1 <1>   0.0770 
 19 N       -8.2160    -1.9250     0.5930 N.4   1 <1>  -0.9590 
 20 C       -7.6250    -5.2230    -0.7530 C.2   1 <1>   0.0360 
 21 N       -8.9100    -5.1210    -0.6290 N.2   1 <1>  -0.5650 
 22 C       -9.1840    -2.6400     1.4810 C.3   1 <1>   0.2630 
 23 C       -7.0460    -1.4330     1.3770 C.3   1 <1>   0.2630 
 24 H       -5.5760     2.0540    -0.2790 H     1 <1>   0.1500 
 25 H       -2.8550    -1.4070     1.9480 H     1 <1>   0.1500 
 26 H       -3.4790    -1.6820    -0.4210 H     1 <1>   0.1500 
 27 H       -4.0860    -0.1250    -2.5630 H     1 <1>   0.0800 
 28 H       -5.5210     0.8100    -2.3480 H     1 <1>   0.0800 
 29 H       -7.4080    -2.6160    -3.7550 H     1 <1>   0.0800 
 30 H       -8.9060    -1.9420    -3.1710 H     1 <1>   0.0800 
 31 H       -8.6210     0.2440    -2.0540 H     1 <1>   0.0800 
 32 H       -7.3460     0.4480    -0.9100 H     1 <1>   0.0800 
 33 H       -9.7630    -1.2930    -0.6910 H     1 <1>   0.0800 
 34 H       -9.2230    -0.0660     0.4110 H     1 <1>   0.0800 
 35 H       -6.1000    -4.1510    -1.8330 H     1 <1>   0.2700 
 36 H      -10.2680    -3.8040    -1.5680 H     1 <1>   0.1500 
 37 H       -7.8770    -2.6300    -0.0960 H     1 <1>   0.4500 
 38 H       -7.0230    -5.9720    -0.2660 H     1 <1>   0.1500 
 39 H       -9.5880    -1.9690     2.2200 H     1 <1>   0.0800 
 40 H       -8.6920    -3.4580     1.9830 H     1 <1>   0.0800 
 41 H       -9.9940    -3.0500     0.8990 H     1 <1>   0.0800 
 42 H       -7.3540    -0.6790     2.0820 H     1 <1>   0.0800 
 43 H       -6.3100    -1.0130     0.7160 H     1 <1>   0.0800 
 44 H       -6.5910    -2.2470     1.9170 H     1 <1>   0.0800 
@<TRIPOS>BOND
  1   1   2  1   
  2   2   3  ar  
  3   2   4  ar  
  4   3   5  1   
  5   3   6  ar  
  6   4   7  ar  
  7   4  24  1   
  8   6   8  ar  
  9   6  25  1   
 10   7   8  ar  
 11   7   9  1   
 12   8  26  1   
 13   9  10  1   
 14   9  27  1   
 15   9  28  1   
 16  10  11  2   
 17  10  12  am  
 18  12  13  1   
 19  12  14  1   
 20  13  15  1   
 21  13  29  1   
 22  13  30  1   
 23  14  16  1   
 24  14  31  1   
 25  14  32  1   
 26  15  17  1   
 27  15  18  2   
 28  16  19  1   
 29  16  33  1   
 30  16  34  1   
 31  17  20  1   
 32  17  35  1   
 33  18  21  1   
 34  18  36  1   
 35  19  22  1   
 36  19  23  1   
 37  19  37  1   
 38  20  21  2   
 39  20  38  1   
 40  22  39  1   
 41  22  40  1   
 42  22  41  1   
 43  23  42  1   
 44  23  43  1   
 45  23  44  1   
@<TRIPOS>SUBSTRUCTURE
  1 ****  23 GROUP 4 **** **** 0

# MOE 2024.06 (io_trps.svl 2023.06)
