@<TRIPOS>MOLECULE
NONAME
48 49 1 0 0 
SMALL
USER_CHARGES


@<TRIPOS>ATOM
  1 S        1.0940     2.1550    -1.7190 S.o2  1 <1>   1.3330 
  2 O        0.9470     3.3910    -2.4570 O.2   1 <1>  -0.6500 
  3 O        1.2750     0.9240    -2.4540 O.2   1 <1>  -0.6500 
  4 N        2.4080     2.3030    -0.6580 N.am  1 <1>  -0.8490 
  5 C       -0.3360     1.9510    -0.6410 C.3   1 <1>  -0.0550 
  6 C        2.9260     1.0250    -0.1630 C.3   1 <1>   0.1160 
  7 C        3.5020     3.1030    -1.2080 C.3   1 <1>   0.1160 
  8 C       -0.7110     3.0680     0.3660 C.3   1 <1>  -0.0800 
  9 C       -0.8680     4.4620    -0.2580 C.3   1 <1>   0.2000 
 10 C        0.2880     3.2550     1.5180 C.3   1 <1>   0.1400 
 11 O       -1.9030     5.1000     0.4070 O.3   1 <1>  -0.6800 
 12 C        0.4280     5.2040     0.0680 C.3   1 <1>   0.1400 
 13 N        0.9260     4.5750     1.3120 N.am  1 <1>  -0.6600 
 14 C        2.0020     4.9880     2.0510 C.2   1 <1>   0.5690 
 15 O        2.3970     4.3360     2.9910 O.2   1 <1>  -0.5700 
 16 C        2.7170     6.2980     1.7440 C.3   1 <1>   0.0440 
 17 C        3.8350     6.1330     0.7140 C.ar  1 <1>  -0.1440 
 18 C        3.7210     6.6020    -0.5940 C.ar  1 <1>   0.0820 
 19 C        5.0020     5.4960     1.1090 C.ar  1 <1>  -0.1500 
 20 O        2.5630     7.2060    -0.9640 O.3   1 <1>  -0.3620 
 21 C        4.7830     6.4330    -1.4800 C.ar  1 <1>  -0.1500 
 22 C        6.0520     5.3290     0.2240 C.ar  1 <1>  -0.1500 
 23 C        2.1960     7.3060    -2.3240 C.3   1 <1>   0.0400 
 24 C        5.9420     5.7990    -1.0720 C.ar  1 <1>  -0.1500 
 25 H       -1.1880     1.8010    -1.2750 H     1 <1>   0.0800 
 26 H       -0.2100     1.0400    -0.0890 H     1 <1>   0.0800 
 27 H        3.6790     1.2000     0.5870 H     1 <1>   0.0800 
 28 H        3.3570     0.4550    -0.9700 H     1 <1>   0.0800 
 29 H        2.1330     0.4490     0.2820 H     1 <1>   0.0800 
 30 H        4.2830     3.2170    -0.4770 H     1 <1>   0.0800 
 31 H        3.1470     4.0830    -1.4710 H     1 <1>   0.0800 
 32 H        3.9050     2.6340    -2.0900 H     1 <1>   0.0800 
 33 H       -1.6520     2.7640     0.7910 H     1 <1>   0.0800 
 34 H       -1.1000     4.4540    -1.3100 H     1 <1>   0.0800 
 35 H        1.0350     2.4810     1.5470 H     1 <1>   0.0800 
 36 H       -0.2270     3.2670     2.4640 H     1 <1>   0.0800 
 37 H       -1.6290     5.2580     1.3330 H     1 <1>   0.4000 
 38 H        0.2560     6.2590     0.1870 H     1 <1>   0.0800 
 39 H        1.1540     5.0510    -0.7080 H     1 <1>   0.0800 
 40 H        2.0050     7.0370     1.4360 H     1 <1>   0.0800 
 41 H        3.1500     6.6590     2.6590 H     1 <1>   0.0800 
 42 H        5.0940     5.1230     2.1160 H     1 <1>   0.1500 
 43 H        4.7270     6.7950    -2.4890 H     1 <1>   0.1500 
 44 H        6.9520     4.8360     0.5460 H     1 <1>   0.1500 
 45 H        1.1840     7.6670    -2.3720 H     1 <1>   0.0800 
 46 H        2.2570     6.3310    -2.7770 H     1 <1>   0.0800 
 47 H        2.8520     8.0030    -2.8150 H     1 <1>   0.0800 
 48 H        6.7600     5.6740    -1.7600 H     1 <1>   0.1500 
@<TRIPOS>BOND
  1   1   2  2   
  2   1   3  2   
  3   1   4  am  
  4   1   5  1   
  5   4   6  1   
  6   4   7  1   
  7   5   8  1   
  8   5  25  1   
  9   5  26  1   
 10   6  27  1   
 11   6  28  1   
 12   6  29  1   
 13   7  30  1   
 14   7  31  1   
 15   7  32  1   
 16   8   9  1   
 17   8  10  1   
 18   8  33  1   
 19   9  11  1   
 20   9  12  1   
 21   9  34  1   
 22  10  13  1   
 23  10  35  1   
 24  10  36  1   
 25  11  37  1   
 26  12  13  1   
 27  12  38  1   
 28  12  39  1   
 29  13  14  am  
 30  14  15  2   
 31  14  16  1   
 32  16  17  1   
 33  16  40  1   
 34  16  41  1   
 35  17  18  ar  
 36  17  19  ar  
 37  18  20  1   
 38  18  21  ar  
 39  19  22  ar  
 40  19  42  1   
 41  20  23  1   
 42  21  24  ar  
 43  21  43  1   
 44  22  24  ar  
 45  22  44  1   
 46  23  45  1   
 47  23  46  1   
 48  23  47  1   
 49  24  48  1   
@<TRIPOS>SUBSTRUCTURE
  1 ****  12 GROUP 4 **** **** 0

# MOE 2024.06 (io_trps.svl 2023.06)
