@<TRIPOS>MOLECULE
NONAME
52 55 1 0 0 
SMALL
USER_CHARGES


@<TRIPOS>ATOM
  1 O       -2.3050     0.1500    -2.0250 O.2   1 <1>  -0.5700 
  2 C       -2.1200     0.2820    -0.8400 C.2   1 <1>   0.5690 
  3 N       -1.9330    -0.7900    -0.0320 N.am  1 <1>  -0.7300 
  4 C       -2.1420     1.6740    -0.2110 C.3   1 <1>  -0.0190 
  5 C       -1.9350    -2.2040    -0.4780 C.3   1 <1>   0.2200 
  6 C       -3.5890     2.1980    -0.1020 C.3   1 <1>  -0.1600 
  7 C       -1.2570     2.6710    -0.9880 C.3   1 <1>  -0.1600 
  8 C       -3.2770    -2.8730    -0.1960 C.3   1 <1>  -0.0800 
  9 C       -1.0310    -3.0010     0.4490 C.3   1 <1>   0.1200 
 10 C       -3.6390     3.6040     0.5160 C.3   1 <1>  -0.1600 
 11 C       -1.3060     4.0760    -0.3670 C.3   1 <1>  -0.1600 
 12 C       -3.1500    -3.2610     1.2840 C.3   1 <1>   0.1200 
 13 C       -4.5180    -2.0200    -0.5340 C.3   1 <1>  -0.0170 
 14 O       -1.7890    -3.2000     1.6040 O.3   1 <1>  -0.5600 
 15 C       -2.7490     4.5750    -0.2640 C.3   1 <1>   0.2000 
 16 C       -5.8870    -2.6860    -0.3570 C.ar  1 <1>  -0.1440 
 17 O       -2.7450     5.7830     0.3960 O.3   1 <1>  -0.6800 
 18 C       -7.0620    -1.9010    -0.4650 C.ar  1 <1>   0.0000 
 19 C       -6.0540    -4.0190    -0.1010 C.ar  1 <1>  -0.1500 
 20 C       -8.3100    -2.5400    -0.2620 C.ar  1 <1>   0.3100 
 21 C       -7.0720    -0.5190    -0.7710 C.ar  1 <1>  -0.1500 
 22 C       -7.3370    -4.5530     0.0710 C.ar  1 <1>   0.1600 
 23 N       -8.4300    -3.8640     0.0050 N.ar  1 <1>  -0.6200 
 24 C       -9.4870    -1.7790    -0.3440 C.ar  1 <1>  -0.1500 
 25 C       -8.2380     0.1940    -0.8470 C.ar  1 <1>  -0.1500 
 26 C       -9.4630    -0.4410    -0.6280 C.ar  1 <1>  -0.1500 
 27 H       -1.8310    -0.6800     0.9790 H     1 <1>   0.3700 
 28 H       -1.7420     1.5920     0.7840 H     1 <1>   0.0800 
 29 H       -1.6390    -2.2780    -1.5120 H     1 <1>   0.0800 
 30 H       -4.0270     2.2270    -1.0860 H     1 <1>   0.0800 
 31 H       -4.1740     1.5220     0.4970 H     1 <1>   0.0800 
 32 H       -0.2410     2.3170    -1.0020 H     1 <1>   0.0800 
 33 H       -1.5960     2.7260    -2.0100 H     1 <1>   0.0800 
 34 H       -3.3100    -3.7750    -0.7810 H     1 <1>   0.0800 
 35 H       -0.1200    -2.4840     0.6940 H     1 <1>   0.0800 
 36 H       -0.8050    -3.9660     0.0300 H     1 <1>   0.0800 
 37 H       -3.3080     3.5490     1.5380 H     1 <1>   0.0800 
 38 H       -4.6530     3.9620     0.5020 H     1 <1>   0.0800 
 39 H       -0.7380     4.7550    -0.9800 H     1 <1>   0.0800 
 40 H       -0.8610     4.0410     0.6120 H     1 <1>   0.0800 
 41 H       -3.5030    -4.2590     1.4740 H     1 <1>   0.0800 
 42 H       -3.6670    -2.5660     1.9220 H     1 <1>   0.0800 
 43 H       -4.4350    -1.6910    -1.5560 H     1 <1>   0.0800 
 44 H       -4.5010    -1.1460     0.0920 H     1 <1>   0.0800 
 45 H       -3.1550     4.7410    -1.2490 H     1 <1>   0.0800 
 46 H       -2.3640     5.6740     1.2860 H     1 <1>   0.4000 
 47 H       -5.2330    -4.7040    -0.0220 H     1 <1>   0.1500 
 48 H       -6.1460    -0.0080    -0.9550 H     1 <1>   0.1500 
 49 H       -7.4180    -5.6070     0.2740 H     1 <1>   0.1500 
 50 H      -10.4170    -2.2900    -0.1770 H     1 <1>   0.1500 
 51 H       -8.2280     1.2450    -1.0790 H     1 <1>   0.1500 
 52 H      -10.3740     0.1290    -0.6890 H     1 <1>   0.1500 
@<TRIPOS>BOND
  1   1   2  2   
  2   2   3  am  
  3   2   4  1   
  4   3   5  1   
  5   3  27  1   
  6   4   6  1   
  7   4   7  1   
  8   4  28  1   
  9   5   8  1   
 10   5   9  1   
 11   5  29  1   
 12   6  10  1   
 13   6  30  1   
 14   6  31  1   
 15   7  11  1   
 16   7  32  1   
 17   7  33  1   
 18   8  12  1   
 19   8  13  1   
 20   8  34  1   
 21   9  14  1   
 22   9  35  1   
 23   9  36  1   
 24  10  15  1   
 25  10  37  1   
 26  10  38  1   
 27  11  15  1   
 28  11  39  1   
 29  11  40  1   
 30  12  14  1   
 31  12  41  1   
 32  12  42  1   
 33  13  16  1   
 34  13  43  1   
 35  13  44  1   
 36  15  17  1   
 37  15  45  1   
 38  16  18  ar  
 39  16  19  ar  
 40  17  46  1   
 41  18  20  ar  
 42  18  21  ar  
 43  19  22  ar  
 44  19  47  1   
 45  20  23  ar  
 46  20  24  ar  
 47  21  25  ar  
 48  21  48  1   
 49  22  23  ar  
 50  22  49  1   
 51  24  26  ar  
 52  24  50  1   
 53  25  26  ar  
 54  25  51  1   
 55  26  52  1   
@<TRIPOS>SUBSTRUCTURE
  1 ****  13 GROUP 4 **** **** 0

# MOE 2024.06 (io_trps.svl 2023.06)
