@<TRIPOS>MOLECULE
NONAME
47 48 1 0 0 
SMALL
USER_CHARGES


@<TRIPOS>ATOM
  1 O       -0.8120    -2.8360     0.3580 O.2   1 <1>  -0.5700 
  2 C        0.3150    -2.3800     0.3760 C.2   1 <1>   0.6900 
  3 N        1.2180    -2.7820     1.3360 N.am  1 <1>  -0.4200 
  4 N        0.7280    -1.5320    -0.6100 N.am  1 <1>  -0.5390 
  5 C        2.5610    -2.5080     1.1720 C.2   1 <1>   0.6160 
  6 C        0.7490    -3.4860     2.5670 C.3   1 <1>   0.1400 
  7 C        2.0440    -1.1360    -0.7460 C.2   1 <1>  -0.0290 
  8 O        3.3690    -3.0630     1.8910 O.2   1 <1>  -0.5700 
  9 C        2.9540    -1.6210     0.1270 C.2   1 <1>  -0.1360 
 10 C        0.7510    -5.0140     2.3940 C.3   1 <1>   0.3430 
 11 C        2.3650    -0.1830    -1.8810 C.3   1 <1>  -0.1020 
 12 N       -0.0060    -5.4320     1.1700 N.4   1 <1>  -0.9590 
 13 C       -1.0140    -6.5060     1.4620 C.3   1 <1>   0.3430 
 14 C        0.9160    -5.8280     0.0690 C.3   1 <1>   0.3430 
 15 C       -1.8510    -6.8680     0.2230 C.3   1 <1>   0.2000 
 16 C        0.1040    -6.0960    -1.1990 C.3   1 <1>  -0.1600 
 17 O       -2.5890    -7.9970     0.5600 O.3   1 <1>  -0.5600 
 18 C       -0.9550    -7.1910    -0.9840 C.3   1 <1>  -0.1600 
 19 C       -3.7280    -8.2340    -0.2090 C.3   1 <1>   0.1200 
 20 C       -4.4190    -9.4740     0.3540 C.3   1 <1>  -0.1600 
 21 C       -5.6890    -9.8110    -0.4340 C.3   1 <1>  -0.2400 
 22 H        0.0010    -1.2070    -1.2530 H     1 <1>   0.3700 
 23 H       -0.2430    -3.1530     2.8170 H     1 <1>   0.0800 
 24 H        1.3880    -3.2240     3.3950 H     1 <1>   0.0800 
 25 H        3.9980    -1.3720     0.0820 H     1 <1>   0.1500 
 26 H        0.3050    -5.4570     3.2690 H     1 <1>   0.0800 
 27 H        1.7710    -5.3600     2.3370 H     1 <1>   0.0800 
 28 H        1.8110     0.7320    -1.7630 H     1 <1>   0.0800 
 29 H        2.1070    -0.6280    -2.8250 H     1 <1>   0.0800 
 30 H        3.4140     0.0540    -1.8910 H     1 <1>   0.0800 
 31 H       -0.5310    -4.5970     0.8330 H     1 <1>   0.4500 
 32 H       -1.6810    -6.1810     2.2430 H     1 <1>   0.0800 
 33 H       -0.5030    -7.3940     1.7940 H     1 <1>   0.0800 
 34 H        1.4580    -6.7180     0.3470 H     1 <1>   0.0800 
 35 H        1.6280    -5.0400    -0.1190 H     1 <1>   0.0800 
 36 H       -2.5280    -6.0590     0.0020 H     1 <1>   0.0800 
 37 H        0.7730    -6.4030    -1.9840 H     1 <1>   0.0800 
 38 H       -0.3690    -5.1830    -1.5190 H     1 <1>   0.0800 
 39 H       -1.5530    -7.2800    -1.8740 H     1 <1>   0.0800 
 40 H       -0.4600    -8.1320    -0.8130 H     1 <1>   0.0800 
 41 H       -3.4390    -8.4020    -1.2320 H     1 <1>   0.0800 
 42 H       -4.3800    -7.3790    -0.1450 H     1 <1>   0.0800 
 43 H       -4.6780    -9.3000     1.3840 H     1 <1>   0.0800 
 44 H       -3.7420   -10.3090     0.3060 H     1 <1>   0.0800 
 45 H       -6.3910    -8.9960    -0.3860 H     1 <1>   0.0800 
 46 H       -6.1560   -10.6870    -0.0190 H     1 <1>   0.0800 
 47 H       -5.4530   -10.0070    -1.4650 H     1 <1>   0.0800 
@<TRIPOS>BOND
  1   1   2  2   
  2   2   3  am  
  3   2   4  am  
  4   3   5  am  
  5   3   6  1   
  6   4   7  1   
  7   4  22  1   
  8   5   8  2   
  9   5   9  1   
 10   6  10  1   
 11   6  23  1   
 12   6  24  1   
 13   7   9  2   
 14   7  11  1   
 15   9  25  1   
 16  10  12  1   
 17  10  26  1   
 18  10  27  1   
 19  11  28  1   
 20  11  29  1   
 21  11  30  1   
 22  12  13  1   
 23  12  14  1   
 24  12  31  1   
 25  13  15  1   
 26  13  32  1   
 27  13  33  1   
 28  14  16  1   
 29  14  34  1   
 30  14  35  1   
 31  15  17  1   
 32  15  18  1   
 33  15  36  1   
 34  16  18  1   
 35  16  37  1   
 36  16  38  1   
 37  17  19  1   
 38  18  39  1   
 39  18  40  1   
 40  19  20  1   
 41  19  41  1   
 42  19  42  1   
 43  20  21  1   
 44  20  43  1   
 45  20  44  1   
 46  21  45  1   
 47  21  46  1   
 48  21  47  1   
@<TRIPOS>SUBSTRUCTURE
  1 ****  12 GROUP 4 **** **** 0

# MOE 2024.06 (io_trps.svl 2023.06)
