@<TRIPOS>MOLECULE
NONAME
50 53 1 0 0 
SMALL
USER_CHARGES


@<TRIPOS>ATOM
  1 S       -0.3540    -0.5110     2.0940 S.3   1 <1>  -0.3320 
  2 C       -0.3810    -2.0770     1.2400 C.ar  1 <1>   0.7220 
  3 C       -1.4340     0.6050     1.0920 C.3   1 <1>  -0.0100 
  4 N       -1.1310    -2.1360     0.1490 N.ar  1 <1>  -0.6200 
  5 N        0.3570    -3.0270     1.7910 N.ar  1 <1>  -0.6200 
  6 C       -1.1290    -3.3070    -0.4500 C.ar  1 <1>   0.1600 
  7 C        0.3280    -4.1800     1.1570 C.ar  1 <1>   0.1600 
  8 C       -0.4230    -4.4010     0.0180 C.ar  1 <1>   0.0860 
  9 C       -0.4530    -5.6830    -0.6360 C.2   1 <1>   0.5440 
 10 O        0.5950    -6.2700    -0.8170 O.2   1 <1>  -0.5700 
 11 N       -1.6320    -6.2670    -1.0470 N.am  1 <1>  -0.6600 
 12 C       -2.9610    -5.9920    -0.4300 C.3   1 <1>   0.1400 
 13 C       -1.6430    -7.4210    -1.9910 C.3   1 <1>   0.1400 
 14 C       -3.4260    -7.2360     0.3300 C.3   1 <1>  -0.1600 
 15 C       -2.1020    -8.6780    -1.2510 C.3   1 <1>  -0.1600 
 16 C       -3.4670    -8.4800    -0.5750 C.3   1 <1>   0.4240 
 17 O       -4.3680    -8.2190    -1.6260 O.3   1 <1>  -0.5600 
 18 C       -3.8610    -9.7410     0.2250 C.ar  1 <1>  -0.1430 
 19 C       -5.7220    -8.4520    -1.3890 C.3   1 <1>   0.1200 
 20 C       -5.0310   -10.4370    -0.0600 C.ar  1 <1>  -0.1430 
 21 C       -3.0490   -10.2030     1.2560 C.ar  1 <1>  -0.1500 
 22 C       -5.9360    -9.9460    -1.1720 C.3   1 <1>  -0.0170 
 23 C       -5.3750   -11.5690     0.6610 C.ar  1 <1>  -0.1500 
 24 C       -3.3930   -11.3310     1.9780 C.ar  1 <1>  -0.1500 
 25 C       -4.5540   -12.0230     1.6880 C.ar  1 <1>   0.0830 
 26 O       -4.8180   -13.1200     2.4410 O.3   1 <1>  -0.3630 
 27 C       -5.9650   -13.9080     2.2130 C.3   1 <1>   0.0400 
 28 H       -1.4430     1.5680     1.5690 H     1 <1>   0.0800 
 29 H       -2.4200     0.1760     1.0670 H     1 <1>   0.0800 
 30 H       -1.0170     0.6680     0.1030 H     1 <1>   0.0800 
 31 H       -1.7120    -3.4130    -1.3500 H     1 <1>   0.1500 
 32 H        0.9210    -4.9890     1.5530 H     1 <1>   0.1500 
 33 H       -3.6680    -5.7490    -1.2060 H     1 <1>   0.0800 
 34 H       -2.9100    -5.1630     0.2530 H     1 <1>   0.0800 
 35 H       -0.6630    -7.5820    -2.4080 H     1 <1>   0.0800 
 36 H       -2.3160    -7.2070    -2.8040 H     1 <1>   0.0800 
 37 H       -4.3930    -7.0650     0.7630 H     1 <1>   0.0800 
 38 H       -2.7450    -7.4070     1.1430 H     1 <1>   0.0800 
 39 H       -1.3550    -8.9250    -0.5210 H     1 <1>   0.0800 
 40 H       -2.1670    -9.5030    -1.9370 H     1 <1>   0.0800 
 41 H       -6.2700    -8.1140    -2.2500 H     1 <1>   0.0800 
 42 H       -6.0340    -7.8880    -0.5280 H     1 <1>   0.0800 
 43 H       -2.1390    -9.6900     1.5090 H     1 <1>   0.1500 
 44 H       -5.7130   -10.4750    -2.0810 H     1 <1>   0.0800 
 45 H       -6.9660   -10.1230    -0.9210 H     1 <1>   0.0800 
 46 H       -6.2810   -12.0870     0.4140 H     1 <1>   0.1500 
 47 H       -2.7610   -11.6830     2.7720 H     1 <1>   0.1500 
 48 H       -5.9580   -14.7190     2.9180 H     1 <1>   0.0800 
 49 H       -5.9280   -14.2950     1.2100 H     1 <1>   0.0800 
 50 H       -6.8400   -13.3010     2.3630 H     1 <1>   0.0800 
@<TRIPOS>BOND
  1   1   2  1   
  2   1   3  1   
  3   2   4  ar  
  4   2   5  ar  
  5   3  28  1   
  6   3  29  1   
  7   3  30  1   
  8   4   6  ar  
  9   5   7  ar  
 10   6   8  ar  
 11   6  31  1   
 12   7   8  ar  
 13   7  32  1   
 14   8   9  1   
 15   9  10  2   
 16   9  11  am  
 17  11  12  1   
 18  11  13  1   
 19  12  14  1   
 20  12  33  1   
 21  12  34  1   
 22  13  15  1   
 23  13  35  1   
 24  13  36  1   
 25  14  16  1   
 26  14  37  1   
 27  14  38  1   
 28  15  16  1   
 29  15  39  1   
 30  15  40  1   
 31  16  17  1   
 32  16  18  1   
 33  17  19  1   
 34  18  20  ar  
 35  18  21  ar  
 36  19  22  1   
 37  19  41  1   
 38  19  42  1   
 39  20  22  1   
 40  20  23  ar  
 41  21  24  ar  
 42  21  43  1   
 43  22  44  1   
 44  22  45  1   
 45  23  25  ar  
 46  23  46  1   
 47  24  25  ar  
 48  24  47  1   
 49  25  26  1   
 50  26  27  1   
 51  27  48  1   
 52  27  49  1   
 53  27  50  1   
@<TRIPOS>SUBSTRUCTURE
  1 ****  14 GROUP 4 **** **** 0

# MOE 2024.06 (io_trps.svl 2023.06)
