@<TRIPOS>MOLECULE
NONAME
47 50 1 0 0 
SMALL
USER_CHARGES


@<TRIPOS>ATOM
  1 CL      -0.7350    -0.2800    -1.5290 Cl    1 <1>  -0.1770 
  2 C       -2.0390    -1.1500    -0.7610 C.ar  1 <1>   0.1770 
  3 C       -2.0070    -2.5310    -0.7380 C.ar  1 <1>  -0.1500 
  4 C       -3.0810    -0.4390    -0.1920 C.ar  1 <1>  -0.1500 
  5 C       -3.0390    -3.2360    -0.1290 C.ar  1 <1>   0.0280 
  6 C       -4.1130    -1.1320     0.4180 C.ar  1 <1>  -0.1500 
  7 C       -4.0890    -2.5170     0.4530 C.ar  1 <1>   0.0830 
  8 C       -3.0890    -4.6710    -0.0840 C.2   1 <1>  -0.1780 
  9 O       -5.1230    -3.1610     1.0520 O.3   1 <1>  -0.3630 
 10 C       -4.0090    -5.2940     0.6690 C.2   1 <1>  -0.2760 
 11 C       -4.9780    -4.4880     1.5340 C.3   1 <1>   0.2580 
 12 C       -4.1810    -6.7910     0.7730 C.3   1 <1>   0.4810 
 13 N       -4.6990    -7.2930    -0.5280 N.4   1 <1>  -0.9590 
 14 C       -6.0280    -6.6880    -0.8730 C.3   1 <1>   0.3430 
 15 C       -4.9160    -8.7730    -0.4640 C.3   1 <1>   0.3430 
 16 C       -7.0740    -7.6680    -0.3380 C.3   1 <1>   0.2000 
 17 C       -6.4220    -9.0160    -0.6390 C.3   1 <1>  -0.0800 
 18 O       -7.1860    -7.4880     1.0400 O.3   1 <1>  -0.6800 
 19 C       -6.9360   -10.2310     0.1590 C.3   1 <1>   0.0200 
 20 C       -6.0600   -11.4410    -0.1040 C.2   1 <1>  -0.0400 
 21 O       -5.7280   -11.7480    -1.3290 O.3   1 <1>  -0.0190 
 22 C       -5.4820   -12.3320     0.7160 C.2   1 <1>  -0.1500 
 23 N       -4.9450   -12.7830    -1.3730 N.2   1 <1>  -0.4100 
 24 C       -4.7870   -13.1650    -0.1560 C.2   1 <1>   0.1080 
 25 C       -3.9560   -14.3600     0.2580 C.3   1 <1>  -0.0590 
 26 H       -1.1810    -3.0460    -1.1920 H     1 <1>   0.1500 
 27 H       -3.0800     0.6360    -0.2280 H     1 <1>   0.1500 
 28 H       -4.9350    -0.6040     0.8660 H     1 <1>   0.1500 
 29 H       -2.3590    -5.1870    -0.6830 H     1 <1>   0.1500 
 30 H       -4.6200    -4.4300     2.5470 H     1 <1>   0.0800 
 31 H       -5.9610    -4.9260     1.5380 H     1 <1>   0.0800 
 32 H       -4.8660    -7.0360     1.5700 H     1 <1>   0.0800 
 33 H       -3.2290    -7.2480     0.9880 H     1 <1>   0.0800 
 34 H       -4.0120    -7.0420    -1.2490 H     1 <1>   0.4500 
 35 H       -6.1610    -5.7020    -0.4620 H     1 <1>   0.0800 
 36 H       -6.1240    -6.6300    -1.9450 H     1 <1>   0.0800 
 37 H       -4.3640    -9.2830    -1.2380 H     1 <1>   0.0800 
 38 H       -4.5970    -9.1540     0.4930 H     1 <1>   0.0800 
 39 H       -8.0410    -7.5330    -0.7940 H     1 <1>   0.0800 
 40 H       -6.5790    -9.2260    -1.6840 H     1 <1>   0.0800 
 41 H       -8.0390    -7.8420     1.3730 H     1 <1>   0.4000 
 42 H       -7.9450   -10.4590    -0.1380 H     1 <1>   0.0800 
 43 H       -6.9320   -10.0350     1.2170 H     1 <1>   0.0800 
 44 H       -5.5170   -12.4210     1.7860 H     1 <1>   0.1500 
 45 H       -3.1960   -14.0580     0.9530 H     1 <1>   0.0800 
 46 H       -3.4850   -14.7980    -0.6040 H     1 <1>   0.0800 
 47 H       -4.5860   -15.0990     0.7200 H     1 <1>   0.0800 
@<TRIPOS>BOND
  1   1   2  1   
  2   2   3  ar  
  3   2   4  ar  
  4   3   5  ar  
  5   3  26  1   
  6   4   6  ar  
  7   4  27  1   
  8   5   7  ar  
  9   5   8  1   
 10   6   7  ar  
 11   6  28  1   
 12   7   9  1   
 13   8  10  2   
 14   8  29  1   
 15   9  11  1   
 16  10  11  1   
 17  10  12  1   
 18  11  30  1   
 19  11  31  1   
 20  12  13  1   
 21  12  32  1   
 22  12  33  1   
 23  13  14  1   
 24  13  15  1   
 25  13  34  1   
 26  14  16  1   
 27  14  35  1   
 28  14  36  1   
 29  15  17  1   
 30  15  37  1   
 31  15  38  1   
 32  16  17  1   
 33  16  18  1   
 34  16  39  1   
 35  17  19  1   
 36  17  40  1   
 37  18  41  1   
 38  19  20  1   
 39  19  42  1   
 40  19  43  1   
 41  20  21  1   
 42  20  22  2   
 43  21  23  1   
 44  22  24  1   
 45  22  44  1   
 46  23  24  2   
 47  24  25  1   
 48  25  45  1   
 49  25  46  1   
 50  25  47  1   
@<TRIPOS>SUBSTRUCTURE
  1 ****  13 GROUP 4 **** **** 0

# MOE 2024.06 (io_trps.svl 2023.06)
