@<TRIPOS>MOLECULE
NONAME
46 48 1 0 0 
SMALL
USER_CHARGES


@<TRIPOS>ATOM
  1 O       -3.4730     1.5060    -2.8820 O.2   1 <1>  -0.5700 
  2 C       -2.7120     1.5480    -1.9450 C.2   1 <1>   0.5690 
  3 N       -2.3050     0.4210    -1.3090 N.am  1 <1>  -0.7300 
  4 C       -2.2040     2.9030    -1.4670 C.3   1 <1>   0.1810 
  5 C       -2.7150    -0.9610    -1.6390 C.3   1 <1>   0.2200 
  6 O       -1.4400     2.7710    -0.2750 O.3   1 <1>  -0.3630 
  7 C       -3.6480    -1.4740    -0.5560 C.3   1 <1>  -0.0800 
  8 C       -1.5200    -1.9000    -1.5010 C.3   1 <1>   0.1200 
  9 C       -0.8780     3.8450     0.3370 C.ar  1 <1>   0.0820 
 10 C       -2.6570    -1.9540     0.5070 C.3   1 <1>   0.1200 
 11 C       -4.5450    -2.6140    -1.0760 C.3   1 <1>  -0.0160 
 12 O       -1.4840    -2.3100    -0.1640 O.3   1 <1>  -0.5600 
 13 C       -0.1300     3.6100     1.4880 C.ar  1 <1>  -0.1440 
 14 C       -1.0220     5.1470    -0.1380 C.ar  1 <1>  -0.1500 
 15 C       -5.4880    -3.1160     0.0070 C.ar  1 <1>  -0.1440 
 16 C        0.4630     4.6740     2.1480 C.ar  1 <1>  -0.1500 
 17 C        0.0440     2.1960     2.0270 C.3   1 <1>  -0.0970 
 18 C       -0.4250     6.2010     0.5300 C.ar  1 <1>  -0.1500 
 19 C       -6.6010    -2.3960     0.3900 C.ar  1 <1>  -0.1500 
 20 C       -5.2820    -4.3150     0.6610 C.ar  1 <1>  -0.1500 
 21 C        0.3170     5.9650     1.6720 C.ar  1 <1>  -0.1500 
 22 C       -7.4280    -2.8930     1.3850 C.ar  1 <1>   0.1600 
 23 C       -6.1710    -4.7200     1.6420 C.ar  1 <1>   0.1600 
 24 N       -7.2390    -4.0370     2.0210 N.ar  1 <1>  -0.6200 
 25 H       -1.6700     0.5190    -0.5110 H     1 <1>   0.3700 
 26 H       -3.0420     3.5450    -1.2650 H     1 <1>   0.0800 
 27 H       -1.5790     3.3360    -2.2260 H     1 <1>   0.0800 
 28 H       -3.1480    -0.9940    -2.6250 H     1 <1>   0.0800 
 29 H       -4.2730    -0.6860    -0.1750 H     1 <1>   0.0800 
 30 H       -0.5890    -1.4260    -1.7590 H     1 <1>   0.0800 
 31 H       -1.6580    -2.7790    -2.1050 H     1 <1>   0.0800 
 32 H       -3.0110    -2.7980     1.0720 H     1 <1>   0.0800 
 33 H       -2.4110    -1.1520     1.1820 H     1 <1>   0.0800 
 34 H       -3.9420    -3.4300    -1.4350 H     1 <1>   0.0800 
 35 H       -5.1320    -2.2560    -1.9040 H     1 <1>   0.0800 
 36 H       -1.5920     5.3660    -1.0210 H     1 <1>   0.1500 
 37 H        1.0440     4.5050     3.0380 H     1 <1>   0.1500 
 38 H        0.6410     2.1920     2.9210 H     1 <1>   0.0800 
 39 H        0.5280     1.5820     1.2890 H     1 <1>   0.0800 
 40 H       -0.9170     1.7730     2.2560 H     1 <1>   0.0800 
 41 H       -0.5380     7.2070     0.1620 H     1 <1>   0.1500 
 42 H       -6.8330    -1.4550    -0.0740 H     1 <1>   0.1500 
 43 H       -4.4390    -4.9360     0.4190 H     1 <1>   0.1500 
 44 H        0.7820     6.7850     2.1920 H     1 <1>   0.1500 
 45 H       -8.2920    -2.3170     1.6710 H     1 <1>   0.1500 
 46 H       -5.9940    -5.6570     2.1420 H     1 <1>   0.1500 
@<TRIPOS>BOND
  1   1   2  2   
  2   2   3  am  
  3   2   4  1   
  4   3   5  1   
  5   3  25  1   
  6   4   6  1   
  7   4  26  1   
  8   4  27  1   
  9   5   7  1   
 10   5   8  1   
 11   5  28  1   
 12   6   9  1   
 13   7  10  1   
 14   7  11  1   
 15   7  29  1   
 16   8  12  1   
 17   8  30  1   
 18   8  31  1   
 19   9  13  ar  
 20   9  14  ar  
 21  10  12  1   
 22  10  32  1   
 23  10  33  1   
 24  11  15  1   
 25  11  34  1   
 26  11  35  1   
 27  13  16  ar  
 28  13  17  1   
 29  14  18  ar  
 30  14  36  1   
 31  15  19  ar  
 32  15  20  ar  
 33  16  21  ar  
 34  16  37  1   
 35  17  38  1   
 36  17  39  1   
 37  17  40  1   
 38  18  21  ar  
 39  18  41  1   
 40  19  22  ar  
 41  19  42  1   
 42  20  23  ar  
 43  20  43  1   
 44  21  44  1   
 45  22  24  ar  
 46  22  45  1   
 47  23  24  ar  
 48  23  46  1   
@<TRIPOS>SUBSTRUCTURE
  1 ****   3 GROUP 4 **** **** 0

# MOE 2024.06 (io_trps.svl 2023.06)
