@<TRIPOS>MOLECULE
NONAME
42 44 1 0 0 
SMALL
USER_CHARGES


@<TRIPOS>ATOM
  1 F       -0.0650     2.9800     1.7910 F     1 <1>  -0.1900 
  2 C       -1.0080     2.5080     1.0090 C.ar  1 <1>   0.1900 
  3 C       -0.9070     2.6670    -0.3820 C.ar  1 <1>   0.1000 
  4 C       -2.0690     1.8670     1.6170 C.ar  1 <1>  -0.1500 
  5 N        0.1510     3.3090    -1.0380 N.pl3 1 <1>  -0.8380 
  6 C       -1.9360     2.1460    -1.1610 C.ar  1 <1>  -0.1500 
  7 C       -3.0600     1.3700     0.7940 C.ar  1 <1>   0.1900 
  8 C        0.2750     4.7830    -0.7900 C.3   1 <1>   0.2090 
  9 C        1.4840     2.6280    -0.9500 C.3   1 <1>   0.2090 
 10 C       -3.0160     1.4970    -0.5830 C.ar  1 <1>  -0.1500 
 11 F       -4.0800     0.7570     1.3380 F     1 <1>  -0.1900 
 12 C        1.3080     5.4400    -1.7260 C.3   1 <1>   0.2090 
 13 C        2.5210     3.2740    -1.8890 C.3   1 <1>   0.2090 
 14 N        2.6370     4.7480    -1.6330 N.pl3 1 <1>  -0.8380 
 15 C        3.7800     5.3530    -1.1760 C.ar  1 <1>   0.7200 
 16 N        3.7330     6.6640    -0.9410 N.ar  1 <1>  -0.6200 
 17 N        4.8550     4.5890    -1.0000 N.ar  1 <1>  -0.6200 
 18 C        4.8190     7.2420    -0.4950 C.ar  1 <1>   0.1670 
 19 C        5.9260     5.1850    -0.5440 C.ar  1 <1>   0.1600 
 20 C        5.9870     6.5320    -0.2300 C.ar  1 <1>   0.0860 
 21 C        4.7120     8.7480    -0.3170 C.3   1 <1>  -0.0970 
 22 C        7.2030     7.0620     0.3220 C.2   1 <1>   0.4230 
 23 O        8.2890     6.7470    -0.0890 O.2   1 <1>  -0.5700 
 24 C        7.1770     8.0010     1.5120 C.3   1 <1>  -0.1790 
 25 H       -2.1210     1.7590     2.6830 H     1 <1>   0.1500 
 26 H       -1.8760     2.2580    -2.2290 H     1 <1>   0.1500 
 27 H        0.5760     4.9550     0.2290 H     1 <1>   0.0800 
 28 H       -0.6840     5.2490    -0.9380 H     1 <1>   0.0800 
 29 H        1.3690     1.5900    -1.2090 H     1 <1>   0.0800 
 30 H        1.8530     2.6820     0.0600 H     1 <1>   0.0800 
 31 H       -3.8100     1.0950    -1.1860 H     1 <1>   0.1500 
 32 H        1.3870     6.4820    -1.4780 H     1 <1>   0.0800 
 33 H        0.9510     5.3740    -2.7380 H     1 <1>   0.0800 
 34 H        2.2090     3.1210    -2.9070 H     1 <1>   0.0800 
 35 H        3.4640     2.7740    -1.7630 H     1 <1>   0.0800 
 36 H        6.8090     4.5850    -0.4000 H     1 <1>   0.1500 
 37 H        3.9550     9.1410    -0.9730 H     1 <1>   0.0800 
 38 H        5.6390     9.2320    -0.5620 H     1 <1>   0.0800 
 39 H        4.4340     8.9810     0.6950 H     1 <1>   0.0800 
 40 H        6.2430     7.9300     2.0370 H     1 <1>   0.0800 
 41 H        7.3370     9.0110     1.1850 H     1 <1>   0.0800 
 42 H        7.9680     7.7350     2.1900 H     1 <1>   0.0800 
@<TRIPOS>BOND
  1   1   2  1   
  2   2   3  ar  
  3   2   4  ar  
  4   3   5  1   
  5   3   6  ar  
  6   4   7  ar  
  7   4  25  1   
  8   5   8  1   
  9   5   9  1   
 10   6  10  ar  
 11   6  26  1   
 12   7  10  ar  
 13   7  11  1   
 14   8  12  1   
 15   8  27  1   
 16   8  28  1   
 17   9  13  1   
 18   9  29  1   
 19   9  30  1   
 20  10  31  1   
 21  12  14  1   
 22  12  32  1   
 23  12  33  1   
 24  13  14  1   
 25  13  34  1   
 26  13  35  1   
 27  14  15  1   
 28  15  16  ar  
 29  15  17  ar  
 30  16  18  ar  
 31  17  19  ar  
 32  18  20  ar  
 33  18  21  1   
 34  19  20  ar  
 35  19  36  1   
 36  20  22  1   
 37  21  37  1   
 38  21  38  1   
 39  21  39  1   
 40  22  23  2   
 41  22  24  1   
 42  24  40  1   
 43  24  41  1   
 44  24  42  1   
@<TRIPOS>SUBSTRUCTURE
  1 ****  14 GROUP 4 **** **** 0

# MOE 2024.06 (io_trps.svl 2023.06)
