@<TRIPOS>MOLECULE
NONAME
47 48 1 0 0 
SMALL
USER_CHARGES


@<TRIPOS>ATOM
  1 F        1.5890     0.1000    -2.4310 F     1 <1>  -0.1900 
  2 C        2.0160    -0.7970    -1.5840 C.ar  1 <1>   0.1900 
  3 C        1.4510    -2.0530    -1.6090 C.ar  1 <1>  -0.1500 
  4 C        3.0100    -0.4540    -0.6940 C.ar  1 <1>  -0.1500 
  5 C        1.8630    -3.0310    -0.7030 C.ar  1 <1>   0.0860 
  6 C        3.4530    -1.4200     0.1910 C.ar  1 <1>  -0.1500 
  7 C        2.9010    -2.6960     0.1880 C.ar  1 <1>  -0.1440 
  8 C        1.1900    -4.3220    -0.7310 C.2   1 <1>   0.5440 
  9 C        3.4860    -3.7100     1.1650 C.3   1 <1>  -0.0960 
 10 O        0.8330    -4.8150    -1.7820 O.2   1 <1>  -0.5700 
 11 N        0.7870    -4.9730     0.4040 N.am  1 <1>  -0.6600 
 12 C        1.0660    -6.4350     0.5610 C.3   1 <1>   0.3210 
 13 C       -0.0760    -4.3040     1.4270 C.3   1 <1>   0.1400 
 14 C       -0.1600    -7.3220     0.3570 C.2   1 <1>   0.0460 
 15 C       -1.5800    -4.4650     1.1100 C.3   1 <1>   0.3430 
 16 N       -1.0590    -7.5150     1.3470 N.2   1 <1>  -0.5650 
 17 C       -0.4900    -8.0550    -0.7340 C.2   1 <1>  -0.3320 
 18 N       -1.8380    -4.4630    -0.3670 N.4   1 <1>  -0.9590 
 19 C       -1.8810    -8.3870     0.8590 C.2   1 <1>   0.0360 
 20 N       -1.5930    -8.7530    -0.4070 N.pl3 1 <1>   0.0330 
 21 C        0.1860    -8.1820    -2.0910 C.3   1 <1>  -0.0600 
 22 C       -1.9750    -3.0950    -0.9420 C.3   1 <1>   0.2630 
 23 C       -2.9900    -5.3370    -0.7130 C.3   1 <1>   0.2630 
 24 H        0.6940    -2.2710    -2.3400 H     1 <1>   0.1500 
 25 H        3.4290     0.5370    -0.7010 H     1 <1>   0.1500 
 26 H        4.2410    -1.1680     0.8810 H     1 <1>   0.1500 
 27 H        3.6300    -4.6600     0.6810 H     1 <1>   0.0800 
 28 H        2.8330    -3.8390     2.0080 H     1 <1>   0.0800 
 29 H        4.4440    -3.3850     1.5290 H     1 <1>   0.0800 
 30 H        1.4650    -6.6170     1.5430 H     1 <1>   0.0800 
 31 H        1.8220    -6.7240    -0.1480 H     1 <1>   0.0800 
 32 H        0.1600    -3.2540     1.4610 H     1 <1>   0.0800 
 33 H        0.1280    -4.7130     2.4010 H     1 <1>   0.0800 
 34 H       -2.1460    -3.6890     1.5960 H     1 <1>   0.0800 
 35 H       -1.9060    -5.4020     1.5260 H     1 <1>   0.0800 
 36 H       -0.9840    -4.9080    -0.7790 H     1 <1>   0.4500 
 37 H       -2.7180    -8.8010     1.3950 H     1 <1>   0.1500 
 38 H       -2.0870    -9.4450    -0.9800 H     1 <1>   0.2700 
 39 H        1.0380    -7.5300    -2.1600 H     1 <1>   0.0800 
 40 H       -0.5000    -7.9170    -2.8760 H     1 <1>   0.0800 
 41 H        0.5190    -9.1930    -2.2470 H     1 <1>   0.0800 
 42 H       -2.8560    -2.6110    -0.5540 H     1 <1>   0.0800 
 43 H       -2.0530    -3.1530    -2.0160 H     1 <1>   0.0800 
 44 H       -1.1120    -2.4990    -0.6940 H     1 <1>   0.0800 
 45 H       -3.9010    -4.9450    -0.2920 H     1 <1>   0.0800 
 46 H       -2.8250    -6.3290    -0.3250 H     1 <1>   0.0800 
 47 H       -3.0980    -5.4030    -1.7830 H     1 <1>   0.0800 
@<TRIPOS>BOND
  1   1   2  1   
  2   2   3  ar  
  3   2   4  ar  
  4   3   5  ar  
  5   3  24  1   
  6   4   6  ar  
  7   4  25  1   
  8   5   7  ar  
  9   5   8  1   
 10   6   7  ar  
 11   6  26  1   
 12   7   9  1   
 13   8  10  2   
 14   8  11  am  
 15   9  27  1   
 16   9  28  1   
 17   9  29  1   
 18  11  12  1   
 19  11  13  1   
 20  12  14  1   
 21  12  30  1   
 22  12  31  1   
 23  13  15  1   
 24  13  32  1   
 25  13  33  1   
 26  14  16  1   
 27  14  17  2   
 28  15  18  1   
 29  15  34  1   
 30  15  35  1   
 31  16  19  2   
 32  17  20  1   
 33  17  21  1   
 34  18  22  1   
 35  18  23  1   
 36  18  36  1   
 37  19  20  1   
 38  19  37  1   
 39  20  38  1   
 40  21  39  1   
 41  21  40  1   
 42  21  41  1   
 43  22  42  1   
 44  22  43  1   
 45  22  44  1   
 46  23  45  1   
 47  23  46  1   
 48  23  47  1   
@<TRIPOS>SUBSTRUCTURE
  1 ****   8 GROUP 4 **** **** 0

# MOE 2024.06 (io_trps.svl 2023.06)
