@<TRIPOS>MOLECULE
NONAME
42 44 1 0 0 
SMALL
USER_CHARGES


@<TRIPOS>ATOM
  1 S        0.2820     0.0070    -0.1130 S.3   1 <1>  -0.0800 
  2 C        0.6590     1.6520    -0.5720 C.2   1 <1>  -0.1100 
  3 C       -1.2820     0.4970     0.5030 C.2   1 <1>  -0.1100 
  4 C       -0.3410     2.5100    -0.2510 C.2   1 <1>  -0.0860 
  5 C       -1.4520     1.8230     0.3550 C.2   1 <1>  -0.1500 
  6 C       -0.3740     3.9430    -0.4680 C.2   1 <1>   0.7160 
  7 O       -1.3400     4.4290    -1.0260 O.2   1 <1>  -0.5700 
  8 N        0.6420     4.7760    -0.0390 N.am  1 <1>  -0.6600 
  9 C        1.6020     4.3620     1.0340 C.3   1 <1>   0.1400 
 10 C        0.5830     6.2290    -0.3820 C.3   1 <1>   0.1400 
 11 C        3.0070     4.0750     0.4820 C.3   1 <1>   0.1400 
 12 C        1.9390     6.9480    -0.3740 C.3   1 <1>  -0.1600 
 13 N        3.7360     5.3200     0.0860 N.am  1 <1>  -0.6600 
 14 C        3.0820     6.1290    -0.9780 C.3   1 <1>   0.1400 
 15 C        5.0090     5.5820     0.5670 C.2   1 <1>   0.6160 
 16 O        5.6210     4.6730     1.0970 O.2   1 <1>  -0.5700 
 17 C        5.6610     6.8750     0.4640 C.2   1 <1>   0.0910 
 18 O        4.8700     7.9680     0.5130 O.3   1 <1>  -0.1530 
 19 C        7.0090     7.0500     0.3530 C.2   1 <1>  -0.1360 
 20 C        5.3560     9.2110     0.4430 C.2   1 <1>  -0.0620 
 21 C        7.5920     8.3370     0.2700 C.2   1 <1>   0.5410 
 22 C        6.6850     9.4290     0.3230 C.2   1 <1>  -0.1360 
 23 C        4.2990    10.2950     0.5130 C.3   1 <1>  -0.1020 
 24 O        8.7930     8.5030     0.1540 O.2   1 <1>  -0.5700 
 25 H        1.6040     1.8180    -1.0540 H     1 <1>   0.1500 
 26 H       -1.9170    -0.2690     0.9110 H     1 <1>   0.1500 
 27 H       -2.3320     2.3740     0.6440 H     1 <1>   0.1500 
 28 H        1.2390     3.4740     1.5190 H     1 <1>   0.0800 
 29 H        1.6620     5.1270     1.7880 H     1 <1>   0.0800 
 30 H       -0.0890     6.7210     0.3010 H     1 <1>   0.0800 
 31 H        0.1620     6.3270    -1.3690 H     1 <1>   0.0800 
 32 H        2.9440     3.4190    -0.3660 H     1 <1>   0.0800 
 33 H        3.5570     3.5580     1.2480 H     1 <1>   0.0800 
 34 H        2.1890     7.2530     0.6260 H     1 <1>   0.0800 
 35 H        1.8250     7.8470    -0.9520 H     1 <1>   0.0800 
 36 H        3.8020     6.7880    -1.4290 H     1 <1>   0.0800 
 37 H        2.7120     5.4810    -1.7560 H     1 <1>   0.0800 
 38 H        7.6860     6.2160     0.3280 H     1 <1>   0.1500 
 39 H        7.1190    10.4090     0.2650 H     1 <1>   0.1500 
 40 H        3.7570    10.2170     1.4390 H     1 <1>   0.0800 
 41 H        3.6080    10.1870    -0.3040 H     1 <1>   0.0800 
 42 H        4.7490    11.2690     0.4580 H     1 <1>   0.0800 
@<TRIPOS>BOND
  1   1   2  1   
  2   1   3  1   
  3   2   4  2   
  4   2  25  1   
  5   3   5  2   
  6   3  26  1   
  7   4   5  1   
  8   4   6  1   
  9   5  27  1   
 10   6   7  2   
 11   6   8  am  
 12   8   9  1   
 13   8  10  1   
 14   9  11  1   
 15   9  28  1   
 16   9  29  1   
 17  10  12  1   
 18  10  30  1   
 19  10  31  1   
 20  11  13  1   
 21  11  32  1   
 22  11  33  1   
 23  12  14  1   
 24  12  34  1   
 25  12  35  1   
 26  13  14  1   
 27  13  15  am  
 28  14  36  1   
 29  14  37  1   
 30  15  16  2   
 31  15  17  1   
 32  17  18  1   
 33  17  19  2   
 34  18  20  1   
 35  19  21  1   
 36  19  38  1   
 37  20  22  2   
 38  20  23  1   
 39  21  22  1   
 40  21  24  2   
 41  22  39  1   
 42  23  40  1   
 43  23  41  1   
 44  23  42  1   
@<TRIPOS>SUBSTRUCTURE
  1 ****  13 GROUP 4 **** **** 0

# MOE 2024.06 (io_trps.svl 2023.06)
