@<TRIPOS>MOLECULE
NONAME
46 48 1 0 0 
SMALL
USER_CHARGES


@<TRIPOS>ATOM
  1 S       -0.1250    -0.0460     0.3550 S.o2  1 <1>   1.3330 
  2 O        0.0510    -0.7890     1.5820 O.2   1 <1>  -0.6500 
  3 O       -0.8460     1.2060     0.3790 O.2   1 <1>  -0.6500 
  4 N       -0.8790    -1.0730    -0.7680 N.am  1 <1>  -0.8490 
  5 C        1.4700     0.2580    -0.4080 C.3   1 <1>  -0.0550 
  6 C       -0.5250    -2.4860    -0.5940 C.3   1 <1>   0.1160 
  7 C       -2.3370    -0.9210    -0.7690 C.3   1 <1>   0.1160 
  8 C        2.3470     1.2560     0.3740 C.3   1 <1>  -0.0800 
  9 C        3.5750     1.6510    -0.4280 C.3   1 <1>   0.2200 
 10 C        2.9740     0.6190     1.6200 C.3   1 <1>   0.1200 
 11 N        4.0730     2.9560     0.0620 N.am  1 <1>  -0.7300 
 12 C        4.5630     0.5510    -0.0560 C.3   1 <1>   0.1200 
 13 O        4.2380     0.1550     1.2440 O.3   1 <1>  -0.5600 
 14 C        4.1790     4.0940    -0.6860 C.2   1 <1>   0.5440 
 15 O        3.8720     4.0390    -1.8610 O.2   1 <1>  -0.5700 
 16 C        4.6620     5.3290    -0.0950 C.ar  1 <1>   0.0860 
 17 C        5.2840     6.3020    -0.8880 C.ar  1 <1>  -0.1500 
 18 C        4.5250     5.5950     1.2760 C.ar  1 <1>  -0.1500 
 19 C        5.7510     7.4690    -0.3180 C.ar  1 <1>  -0.1440 
 20 C        4.9960     6.7680     1.8440 C.ar  1 <1>  -0.1500 
 21 C        5.6100     7.6940     1.0240 C.ar  1 <1>   0.0820 
 22 C        6.4430     8.6500    -0.9300 C.3   1 <1>  -0.0170 
 23 O        6.1170     8.8700     1.4140 O.3   1 <1>  -0.3620 
 24 C        6.6580     9.5590     0.2950 C.3   1 <1>   0.1200 
 25 H        1.9940    -0.6690    -0.5250 H     1 <1>   0.0800 
 26 H        1.2920     0.6590    -1.3870 H     1 <1>   0.0800 
 27 H       -0.9540    -3.0750    -1.3860 H     1 <1>   0.0800 
 28 H       -0.8890    -2.8520     0.3530 H     1 <1>   0.0800 
 29 H        0.5440    -2.6080    -0.6210 H     1 <1>   0.0800 
 30 H       -2.7800    -1.5740    -1.5010 H     1 <1>   0.0800 
 31 H       -2.6020     0.0930    -1.0200 H     1 <1>   0.0800 
 32 H       -2.7380    -1.1520     0.2040 H     1 <1>   0.0800 
 33 H        1.7540     2.1190     0.6260 H     1 <1>   0.0800 
 34 H        3.3950     1.6880    -1.4900 H     1 <1>   0.0800 
 35 H        2.4080    -0.2030     2.0190 H     1 <1>   0.0800 
 36 H        3.1170     1.3570     2.3910 H     1 <1>   0.0800 
 37 H        4.4660     2.9310     1.0040 H     1 <1>   0.3700 
 38 H        5.5850     0.8850    -0.0890 H     1 <1>   0.0800 
 39 H        4.4380    -0.3030    -0.6970 H     1 <1>   0.0800 
 40 H        5.3940     6.1320    -1.9450 H     1 <1>   0.1500 
 41 H        4.0340     4.8790     1.9090 H     1 <1>   0.1500 
 42 H        4.8930     6.9720     2.8940 H     1 <1>   0.1500 
 43 H        5.8220     9.1320    -1.6640 H     1 <1>   0.0800 
 44 H        7.3820     8.3690    -1.3720 H     1 <1>   0.0800 
 45 H        6.1350    10.4930     0.1920 H     1 <1>   0.0800 
 46 H        7.7030     9.7320     0.4810 H     1 <1>   0.0800 
@<TRIPOS>BOND
  1   1   2  2   
  2   1   3  2   
  3   1   4  am  
  4   1   5  1   
  5   4   6  1   
  6   4   7  1   
  7   5   8  1   
  8   5  25  1   
  9   5  26  1   
 10   6  27  1   
 11   6  28  1   
 12   6  29  1   
 13   7  30  1   
 14   7  31  1   
 15   7  32  1   
 16   8   9  1   
 17   8  10  1   
 18   8  33  1   
 19   9  11  1   
 20   9  12  1   
 21   9  34  1   
 22  10  13  1   
 23  10  35  1   
 24  10  36  1   
 25  11  14  am  
 26  11  37  1   
 27  12  13  1   
 28  12  38  1   
 29  12  39  1   
 30  14  15  2   
 31  14  16  1   
 32  16  17  ar  
 33  16  18  ar  
 34  17  19  ar  
 35  17  40  1   
 36  18  20  ar  
 37  18  41  1   
 38  19  21  ar  
 39  19  22  1   
 40  20  21  ar  
 41  20  42  1   
 42  21  23  1   
 43  22  24  1   
 44  22  43  1   
 45  22  44  1   
 46  23  24  1   
 47  24  45  1   
 48  24  46  1   
@<TRIPOS>SUBSTRUCTURE
  1 ****  11 GROUP 4 **** **** 0

# MOE 2024.06 (io_trps.svl 2023.06)
