@<TRIPOS>MOLECULE
NONAME
45 47 1 0 0 
SMALL
USER_CHARGES


@<TRIPOS>ATOM
  1 F        2.6770     0.9810    -1.2830 F     1 <1>  -0.3400 
  2 C        2.5240     0.4010    -0.1000 C.3   1 <1>   1.1640 
  3 F        1.2150     0.2390     0.0480 F     1 <1>  -0.3400 
  4 F        2.8790     1.2970     0.8140 F     1 <1>  -0.3400 
  5 C        3.3100    -0.9130     0.0450 C.ar  1 <1>  -0.1440 
  6 C        4.6340    -1.0300    -0.4140 C.ar  1 <1>   0.0860 
  7 C        2.6940    -2.0130     0.6400 C.ar  1 <1>  -0.1500 
  8 C        5.4010     0.0560    -1.0030 C.2   1 <1>   0.5440 
  9 C        5.2660    -2.2670    -0.2850 C.ar  1 <1>  -0.1500 
 10 C        3.3520    -3.2210     0.7690 C.ar  1 <1>  -0.1500 
 11 O        6.0210    -0.1030    -2.0370 O.2   1 <1>  -0.5700 
 12 N        5.5640     1.2540    -0.3600 N.am  1 <1>  -0.6600 
 13 C        4.6420    -3.3500     0.2990 C.ar  1 <1>  -0.1500 
 14 C        6.3490     1.2360     0.9260 C.3   1 <1>   0.2200 
 15 C        5.5500     2.5190    -1.1700 C.3   1 <1>   0.1400 
 16 C        6.0520     2.4520     1.8200 C.3   1 <1>   0.1200 
 17 C        7.8680     1.0960     0.6410 C.3   1 <1>   0.3430 
 18 C        6.7270     3.4810    -0.9140 C.3   1 <1>  -0.0800 
 19 O        6.8860     3.5250     1.5060 O.3   1 <1>  -0.5600 
 20 N        8.2170     1.4120    -0.7890 N.4   1 <1>  -0.9590 
 21 C        6.5470     4.2750     0.3890 C.3   1 <1>   0.1200 
 22 C        8.1430     2.8790    -1.0510 C.3   1 <1>   0.3430 
 23 C        9.6290     0.9250    -1.0720 C.3   1 <1>   0.2370 
 24 C       10.7000     1.5130    -0.1490 C.2   1 <1>   0.9060 
 25 O       11.2520     2.5610    -0.4950 O.co2 1 <1>  -0.9000 
 26 O       10.8630     0.9800     0.9530 O.co2 1 <1>  -0.9000 
 27 H        1.6830    -1.9490     1.0110 H     1 <1>   0.1500 
 28 H        6.2710    -2.3830    -0.6550 H     1 <1>   0.1500 
 29 H        2.8580    -4.0610     1.2300 H     1 <1>   0.1500 
 30 H        5.1550    -4.2930     0.3870 H     1 <1>   0.1500 
 31 H        6.0450     0.3720     1.4890 H     1 <1>   0.0800 
 32 H        5.5370     2.2690    -2.2180 H     1 <1>   0.0800 
 33 H        4.6260     3.0340    -0.9680 H     1 <1>   0.0800 
 34 H        6.2690     2.1930     2.8410 H     1 <1>   0.0800 
 35 H        5.0210     2.7540     1.7590 H     1 <1>   0.0800 
 36 H        8.1630     0.0830     0.8570 H     1 <1>   0.0800 
 37 H        8.4310     1.7310     1.3080 H     1 <1>   0.0800 
 38 H        6.6590     4.2260    -1.6860 H     1 <1>   0.0800 
 39 H        7.5270     0.9240    -1.3940 H     1 <1>   0.4500 
 40 H        5.5360     4.6300     0.5030 H     1 <1>   0.0800 
 41 H        7.2030     5.1290     0.3840 H     1 <1>   0.0800 
 42 H        8.8190     3.3970    -0.3850 H     1 <1>   0.0800 
 43 H        8.4920     3.0580    -2.0550 H     1 <1>   0.0800 
 44 H        9.6720    -0.1430    -0.9620 H     1 <1>   0.0800 
 45 H        9.9050     1.1720    -2.0800 H     1 <1>   0.0800 
@<TRIPOS>BOND
  1   1   2  1   
  2   2   3  1   
  3   2   4  1   
  4   2   5  1   
  5   5   6  ar  
  6   5   7  ar  
  7   6   8  1   
  8   6   9  ar  
  9   7  10  ar  
 10   7  27  1   
 11   8  11  2   
 12   8  12  am  
 13   9  13  ar  
 14   9  28  1   
 15  10  13  ar  
 16  10  29  1   
 17  12  14  1   
 18  12  15  1   
 19  13  30  1   
 20  14  16  1   
 21  14  17  1   
 22  14  31  1   
 23  15  18  1   
 24  15  32  1   
 25  15  33  1   
 26  16  19  1   
 27  16  34  1   
 28  16  35  1   
 29  17  20  1   
 30  17  36  1   
 31  17  37  1   
 32  18  21  1   
 33  18  22  1   
 34  18  38  1   
 35  19  21  1   
 36  20  22  1   
 37  20  23  1   
 38  20  39  1   
 39  21  40  1   
 40  21  41  1   
 41  22  42  1   
 42  22  43  1   
 43  23  24  1   
 44  23  44  1   
 45  23  45  1   
 46  24  25  ar  
 47  24  26  ar  
@<TRIPOS>SUBSTRUCTURE
  1 ****  12 GROUP 4 **** **** 0

# MOE 2024.06 (io_trps.svl 2023.06)
