@<TRIPOS>MOLECULE
NONAME
53 56 1 0 0 
SMALL
USER_CHARGES


@<TRIPOS>ATOM
  1 S       -0.9460     0.6140     1.6980 S.3   1 <1>  -0.0800 
  2 C       -0.4100     1.9410     0.6910 C.2   1 <1>  -0.1400 
  3 C        0.5800     0.6360     2.5700 C.2   1 <1>  -0.1100 
  4 C        0.8300     2.3400     1.0020 C.2   1 <1>  -0.1810 
  5 C       -1.2740     2.5420    -0.3850 C.3   1 <1>   0.0200 
  6 C        1.3980     1.5930     2.0890 C.2   1 <1>  -0.1500 
  7 C        1.5070     3.4810     0.2360 C.3   1 <1>   0.4610 
  8 C       -0.6790     3.9180    -0.7220 C.3   1 <1>   0.1200 
  9 O        0.7200     3.8430    -0.8820 O.3   1 <1>  -0.5600 
 10 C        2.8350     2.9930    -0.3530 C.3   1 <1>  -0.1600 
 11 C        1.6830     4.7340     1.1220 C.3   1 <1>  -0.1600 
 12 C        3.6190     4.1520    -0.9700 C.3   1 <1>   0.1400 
 13 C        3.1460     5.1350     1.3280 C.3   1 <1>   0.1400 
 14 N        3.8360     5.2680     0.0080 N.am  1 <1>  -0.6600 
 15 C        4.5710     6.3550    -0.3950 C.2   1 <1>   0.5690 
 16 O        5.0810     6.4100    -1.4920 O.2   1 <1>  -0.5700 
 17 C        4.8040     7.5710     0.5210 C.3   1 <1>   0.4040 
 18 N        5.9620     8.4360     0.0740 N.4   1 <1>  -0.9590 
 19 C        7.2630     7.7550     0.3350 C.3   1 <1>   0.3430 
 20 C        5.8500     9.8250     0.5930 C.3   1 <1>   0.3430 
 21 C        8.2860     8.1760    -0.7200 C.3   1 <1>  -0.1600 
 22 C        6.8530    10.7740    -0.0660 C.3   1 <1>  -0.1600 
 23 C        9.0530     9.4720    -0.4100 C.3   1 <1>  -0.1600 
 24 C        8.2990    10.5410     0.3940 C.3   1 <1>  -0.1600 
 25 H        0.7030    -0.0810     3.3620 H     1 <1>   0.1500 
 26 H       -2.2840     2.6560    -0.0380 H     1 <1>   0.0800 
 27 H       -1.2720     1.9100    -1.2550 H     1 <1>   0.0800 
 28 H        2.3860     1.8000     2.4600 H     1 <1>   0.1500 
 29 H       -0.8940     4.6190     0.0650 H     1 <1>   0.0800 
 30 H       -1.0960     4.2900    -1.6410 H     1 <1>   0.0800 
 31 H        2.6350     2.2470    -1.1000 H     1 <1>   0.0800 
 32 H        3.4380     2.5290     0.4040 H     1 <1>   0.0800 
 33 H        1.2420     4.5530     2.0850 H     1 <1>   0.0800 
 34 H        1.1650     5.5680     0.6840 H     1 <1>   0.0800 
 35 H        3.0760     4.5360    -1.8190 H     1 <1>   0.0800 
 36 H        4.5720     3.7950    -1.3250 H     1 <1>   0.0800 
 37 H        3.6470     4.3790     1.9110 H     1 <1>   0.0800 
 38 H        3.1800     6.0550     1.8820 H     1 <1>   0.0800 
 39 H        4.9730     7.2270     1.5260 H     1 <1>   0.0800 
 40 H        3.8990     8.1530     0.5110 H     1 <1>   0.0800 
 41 H        5.8750     8.4570    -0.9570 H     1 <1>   0.4500 
 42 H        7.1270     6.6890     0.2500 H     1 <1>   0.0800 
 43 H        7.6250     7.9740     1.3260 H     1 <1>   0.0800 
 44 H        6.0000     9.8320     1.6610 H     1 <1>   0.0800 
 45 H        4.8570    10.1950     0.3950 H     1 <1>   0.0800 
 46 H        7.8020     8.2540    -1.6780 H     1 <1>   0.0800 
 47 H        9.0110     7.3870    -0.8110 H     1 <1>   0.0800 
 48 H        6.5780    11.7720     0.2320 H     1 <1>   0.0800 
 49 H        6.7730    10.7370    -1.1380 H     1 <1>   0.0800 
 50 H        9.3760     9.9020    -1.3440 H     1 <1>   0.0800 
 51 H        9.9490     9.2240     0.1370 H     1 <1>   0.0800 
 52 H        8.3130    10.2900     1.4410 H     1 <1>   0.0800 
 53 H        8.8440    11.4650     0.2940 H     1 <1>   0.0800 
@<TRIPOS>BOND
  1   1   2  1   
  2   1   3  1   
  3   2   4  2   
  4   2   5  1   
  5   3   6  2   
  6   3  25  1   
  7   4   6  1   
  8   4   7  1   
  9   5   8  1   
 10   5  26  1   
 11   5  27  1   
 12   6  28  1   
 13   7   9  1   
 14   7  10  1   
 15   7  11  1   
 16   8   9  1   
 17   8  29  1   
 18   8  30  1   
 19  10  12  1   
 20  10  31  1   
 21  10  32  1   
 22  11  13  1   
 23  11  33  1   
 24  11  34  1   
 25  12  14  1   
 26  12  35  1   
 27  12  36  1   
 28  13  14  1   
 29  13  37  1   
 30  13  38  1   
 31  14  15  am  
 32  15  16  2   
 33  15  17  1   
 34  17  18  1   
 35  17  39  1   
 36  17  40  1   
 37  18  19  1   
 38  18  20  1   
 39  18  41  1   
 40  19  21  1   
 41  19  42  1   
 42  19  43  1   
 43  20  22  1   
 44  20  44  1   
 45  20  45  1   
 46  21  23  1   
 47  21  46  1   
 48  21  47  1   
 49  22  24  1   
 50  22  48  1   
 51  22  49  1   
 52  23  24  1   
 53  23  50  1   
 54  23  51  1   
 55  24  52  1   
 56  24  53  1   
@<TRIPOS>SUBSTRUCTURE
  1 ****  14 GROUP 4 **** **** 0

# MOE 2024.06 (io_trps.svl 2023.06)
