@<TRIPOS>MOLECULE
NONAME
40 42 1 0 0 
SMALL
USER_CHARGES


@<TRIPOS>ATOM
  1 O       -0.8550     0.6500    -1.6020 O.2   1 <1>  -0.5700 
  2 C       -1.9280     0.9720    -1.1640 C.2   1 <1>   0.4230 
  3 C       -2.8180     0.0320    -0.5420 C.ar  1 <1>   0.0860 
  4 C       -2.3340     2.4190    -1.3630 C.3   1 <1>  -0.1790 
  5 C       -3.5690     0.2420     0.6140 C.ar  1 <1>   0.1660 
  6 C       -2.9750    -1.2200    -1.1160 C.ar  1 <1>   0.1600 
  7 N       -4.4050    -0.6520     1.0800 N.ar  1 <1>  -0.6200 
  8 C       -3.4620     1.5100     1.4460 C.3   1 <1>  -0.0960 
  9 N       -3.7960    -2.1330    -0.6630 N.ar  1 <1>  -0.6200 
 10 C       -4.4840    -1.7970     0.4200 C.ar  1 <1>   0.7200 
 11 N       -5.3610    -2.6800     0.9280 N.pl3 1 <1>  -0.8690 
 12 C       -5.5950    -4.0630     0.4780 C.3   1 <1>   0.2890 
 13 C       -6.8470    -4.1150    -0.4020 C.3   1 <1>  -0.0170 
 14 C       -5.7620    -4.9520     1.7070 C.3   1 <1>  -0.1600 
 15 C       -7.3380    -5.5390    -0.6400 C.ar  1 <1>  -0.1430 
 16 C       -5.9040    -6.4170     1.2790 C.3   1 <1>  -0.0170 
 17 C       -6.9120    -6.6030     0.1500 C.ar  1 <1>  -0.1430 
 18 C       -8.2450    -5.7670    -1.6630 C.ar  1 <1>  -0.1500 
 19 C       -7.4000    -7.8770    -0.1000 C.ar  1 <1>  -0.1500 
 20 C       -8.7280    -7.0400    -1.9060 C.ar  1 <1>  -0.1500 
 21 C       -8.3040    -8.0970    -1.1220 C.ar  1 <1>  -0.1500 
 22 H       -3.4000     2.5320    -1.2970 H     1 <1>   0.0800 
 23 H       -2.0190     2.7440    -2.3380 H     1 <1>   0.0800 
 24 H       -1.8550     3.0380    -0.6280 H     1 <1>   0.0800 
 25 H       -2.3950    -1.4600    -1.9920 H     1 <1>   0.1500 
 26 H       -2.4560     1.8860     1.4480 H     1 <1>   0.0800 
 27 H       -3.7350     1.3030     2.4660 H     1 <1>   0.0800 
 28 H       -4.1310     2.2590     1.0650 H     1 <1>   0.0800 
 29 H       -5.8700    -2.3620     1.7490 H     1 <1>   0.4000 
 30 H       -4.7500    -4.4120    -0.0930 H     1 <1>   0.0800 
 31 H       -6.6210    -3.6480    -1.3440 H     1 <1>   0.0800 
 32 H       -7.6380    -3.5630     0.0720 H     1 <1>   0.0800 
 33 H       -6.6420    -4.6560     2.2480 H     1 <1>   0.0800 
 34 H       -4.9050    -4.8520     2.3490 H     1 <1>   0.0800 
 35 H       -6.1990    -7.0060     2.1300 H     1 <1>   0.0800 
 36 H       -4.9500    -6.7800     0.9400 H     1 <1>   0.0800 
 37 H       -8.5820    -4.9500    -2.2770 H     1 <1>   0.1500 
 38 H       -7.0740    -8.7060     0.5030 H     1 <1>   0.1500 
 39 H       -9.4310    -7.2070    -2.7030 H     1 <1>   0.1500 
 40 H       -8.6770    -9.0890    -1.3080 H     1 <1>   0.1500 
@<TRIPOS>BOND
  1   1   2  2   
  2   2   3  1   
  3   2   4  1   
  4   3   5  ar  
  5   3   6  ar  
  6   4  22  1   
  7   4  23  1   
  8   4  24  1   
  9   5   7  ar  
 10   5   8  1   
 11   6   9  ar  
 12   6  25  1   
 13   7  10  ar  
 14   8  26  1   
 15   8  27  1   
 16   8  28  1   
 17   9  10  ar  
 18  10  11  1   
 19  11  12  1   
 20  11  29  1   
 21  12  13  1   
 22  12  14  1   
 23  12  30  1   
 24  13  15  1   
 25  13  31  1   
 26  13  32  1   
 27  14  16  1   
 28  14  33  1   
 29  14  34  1   
 30  15  17  ar  
 31  15  18  ar  
 32  16  17  1   
 33  16  35  1   
 34  16  36  1   
 35  17  19  ar  
 36  18  20  ar  
 37  18  37  1   
 38  19  21  ar  
 39  19  38  1   
 40  20  21  ar  
 41  20  39  1   
 42  21  40  1   
@<TRIPOS>SUBSTRUCTURE
  1 ****  11 GROUP 4 **** **** 0

# MOE 2024.06 (io_trps.svl 2023.06)
