@<TRIPOS>MOLECULE
NONAME
46 47 1 0 0 
SMALL
USER_CHARGES


@<TRIPOS>ATOM
  1 S       -0.7720     0.4840     1.7290 S.o2  1 <1>   1.4470 
  2 O       -0.6160    -0.7180     2.5190 O.2   1 <1>  -0.6500 
  3 O       -1.3420     1.6560     2.3630 O.2   1 <1>  -0.6500 
  4 N       -1.7420     0.1500     0.3740 N.am  1 <1>  -0.8490 
  5 C        0.8280     0.9480     1.0080 C.ar  1 <1>  -0.0090 
  6 C       -1.2740    -0.9280    -0.5220 C.3   1 <1>   0.1960 
  7 C       -3.1790     0.0780     0.6520 C.3   1 <1>   0.1960 
  8 C        1.0660     2.2400     0.5570 C.ar  1 <1>  -0.1500 
  9 C        1.8460     0.0160     0.8580 C.ar  1 <1>  -0.1500 
 10 C       -1.6570    -2.3300    -0.0360 C.3   1 <1>  -0.1860 
 11 C       -3.5950    -1.2920     1.1930 C.3   1 <1>  -0.1600 
 12 C        2.2700     2.6200    -0.0230 C.ar  1 <1>  -0.1440 
 13 C        3.0530     0.3620     0.2820 C.ar  1 <1>  -0.1500 
 14 C       -1.2510    -3.3660    -1.0620 C.2   1 <1>   0.9060 
 15 C       -3.1600    -2.3860     0.2250 C.3   1 <1>   0.2000 
 16 C        3.2770     1.6610    -0.1640 C.ar  1 <1>   0.0820 
 17 C        2.4080     4.0790    -0.4810 C.3   1 <1>   0.0630 
 18 O       -0.5100    -3.0370    -1.9940 O.co2 1 <1>  -0.9000 
 19 O       -1.6800    -4.5200    -0.9390 O.co2 1 <1>  -0.9000 
 20 O       -3.4750    -3.6080     0.7720 O.3   1 <1>  -0.6800 
 21 O        4.4530     2.0230    -0.7400 O.3   1 <1>  -0.3630 
 22 C        2.5870     4.1880    -1.9990 C.3   1 <1>  -0.2400 
 23 C        3.5190     4.8200     0.2720 C.3   1 <1>  -0.2400 
 24 C        5.4480     1.0810    -1.0750 C.3   1 <1>   0.0400 
 25 H       -1.7160    -0.7750    -1.4930 H     1 <1>   0.0800 
 26 H       -0.2080    -0.8710    -0.6590 H     1 <1>   0.0800 
 27 H       -3.4630     0.8490     1.3480 H     1 <1>   0.0800 
 28 H       -3.7110     0.2620    -0.2660 H     1 <1>   0.0800 
 29 H        0.2740     2.9610     0.6690 H     1 <1>   0.1500 
 30 H        1.6860    -0.9960     1.1920 H     1 <1>   0.1500 
 31 H       -1.1220    -2.5560     0.8650 H     1 <1>   0.0800 
 32 H       -4.6630    -1.3210     1.3050 H     1 <1>   0.0800 
 33 H       -3.1470    -1.4540     2.1570 H     1 <1>   0.0800 
 34 H        3.8020    -0.4000     0.1900 H     1 <1>   0.1500 
 35 H       -3.6940    -2.3010    -0.7070 H     1 <1>   0.0800 
 36 H        1.4910     4.5910    -0.2460 H     1 <1>   0.0800 
 37 H       -2.9430    -4.2770     0.2480 H     1 <1>   0.4000 
 38 H        3.5330     3.7810    -2.3070 H     1 <1>   0.0800 
 39 H        2.5440     5.2170    -2.3050 H     1 <1>   0.0800 
 40 H        1.8040     3.6470    -2.4990 H     1 <1>   0.0800 
 41 H        4.4870     4.4260     0.0190 H     1 <1>   0.0800 
 42 H        3.3740     4.7150     1.3320 H     1 <1>   0.0800 
 43 H        3.5020     5.8650     0.0230 H     1 <1>   0.0800 
 44 H        6.2390     1.6000    -1.5850 H     1 <1>   0.0800 
 45 H        5.0200     0.3370    -1.7240 H     1 <1>   0.0800 
 46 H        5.8260     0.6370    -0.1710 H     1 <1>   0.0800 
@<TRIPOS>BOND
  1   1   2  2   
  2   1   3  2   
  3   1   4  am  
  4   1   5  1   
  5   4   6  1   
  6   4   7  1   
  7   5   8  ar  
  8   5   9  ar  
  9   6  10  1   
 10   6  25  1   
 11   6  26  1   
 12   7  11  1   
 13   7  27  1   
 14   7  28  1   
 15   8  12  ar  
 16   8  29  1   
 17   9  13  ar  
 18   9  30  1   
 19  10  14  1   
 20  10  15  1   
 21  10  31  1   
 22  11  15  1   
 23  11  32  1   
 24  11  33  1   
 25  12  16  ar  
 26  12  17  1   
 27  13  16  ar  
 28  13  34  1   
 29  14  18  ar  
 30  14  19  ar  
 31  15  20  1   
 32  15  35  1   
 33  16  21  1   
 34  17  22  1   
 35  17  23  1   
 36  17  36  1   
 37  20  37  1   
 38  21  24  1   
 39  22  38  1   
 40  22  39  1   
 41  22  40  1   
 42  23  41  1   
 43  23  42  1   
 44  23  43  1   
 45  24  44  1   
 46  24  45  1   
 47  24  46  1   
@<TRIPOS>SUBSTRUCTURE
  1 ****   5 GROUP 4 **** **** 0

# MOE 2024.06 (io_trps.svl 2023.06)
