@<TRIPOS>MOLECULE
NONAME
55 57 1 0 0 
SMALL
USER_CHARGES


@<TRIPOS>ATOM
  1 O        0.4310    -0.3880    -0.9640 O.2   1 <1>  -0.5700 
  2 C        1.4540    -0.6870    -0.3730 C.2   1 <1>   0.7160 
  3 N        2.3830     0.3000    -0.1070 N.am  1 <1>  -0.6600 
  4 C        1.6560    -2.0530     0.0490 C.2   1 <1>  -0.0860 
  5 C        3.4570     0.1260     0.9170 C.3   1 <1>   0.1400 
  6 C        2.1770     1.6750    -0.6440 C.3   1 <1>   0.1400 
  7 C        0.7710    -2.8150     0.8200 C.2   1 <1>   0.1080 
  8 C        2.6890    -2.9160    -0.1700 C.2   1 <1>  -0.3020 
  9 C        4.8280    -0.1080     0.2660 C.3   1 <1>   0.1100 
 10 C        3.4640     2.5000    -0.7720 C.3   1 <1>  -0.1600 
 11 N        1.2130    -4.0050     1.0660 N.2   1 <1>  -0.7070 
 12 C       -0.5690    -2.3320     1.3310 C.3   1 <1>  -0.0590 
 13 N        2.3990    -4.0720     0.4440 N.pl3 1 <1>   0.3140 
 14 N        5.4440     1.1160    -0.2850 N.3   1 <1>  -0.8100 
 15 C        4.6470     1.7300    -1.3620 C.3   1 <1>   0.1100 
 16 C        3.2160    -5.3010     0.4620 C.3   1 <1>   0.0960 
 17 C        6.8430     0.8490    -0.7160 C.3   1 <1>   0.2900 
 18 C        2.9660    -6.1430    -0.7970 C.3   1 <1>  -0.1600 
 19 C        7.7500     2.0770    -0.6850 C.2   1 <1>   0.2980 
 20 C        3.8110    -7.4210    -0.7920 C.3   1 <1>  -0.2400 
 21 O        7.6050     3.0030    -1.6010 O.3   1 <1>  -0.0190 
 22 N        8.6850     2.2850     0.1560 N.2   1 <1>  -0.5650 
 23 N        8.5190     3.8780    -1.3160 N.2   1 <1>  -0.4100 
 24 C        9.1480     3.4460    -0.2940 C.2   1 <1>   0.3350 
 25 C       10.3010     4.1740     0.3900 C.3   1 <1>   0.3010 
 26 O       11.5380     3.6090     0.0410 O.3   1 <1>  -0.5600 
 27 C       12.6310     4.2090     0.6550 C.3   1 <1>   0.0400 
 28 H        3.2240    -0.7180     1.5420 H     1 <1>   0.0800 
 29 H        3.5030     0.9880     1.5590 H     1 <1>   0.0800 
 30 H        1.4780     2.1960    -0.0130 H     1 <1>   0.0800 
 31 H        1.7320     1.5960    -1.6220 H     1 <1>   0.0800 
 32 H        3.5870    -2.7620    -0.7360 H     1 <1>   0.1500 
 33 H        4.7410    -0.8550    -0.5030 H     1 <1>   0.0800 
 34 H        5.4770    -0.4960     1.0330 H     1 <1>   0.0800 
 35 H        3.7380     2.9220     0.1790 H     1 <1>   0.0800 
 36 H        3.2450     3.3280    -1.4220 H     1 <1>   0.0800 
 37 H       -0.4490    -1.4070     1.8630 H     1 <1>   0.0800 
 38 H       -0.9950    -3.0640     1.9920 H     1 <1>   0.0800 
 39 H       -1.2360    -2.1790     0.5020 H     1 <1>   0.0800 
 40 H        5.2510     2.4370    -1.9000 H     1 <1>   0.0800 
 41 H        4.3100     0.9830    -2.0630 H     1 <1>   0.0800 
 42 H        2.9530    -5.8630     1.3390 H     1 <1>   0.0800 
 43 H        4.2510    -5.0220     0.5280 H     1 <1>   0.0800 
 44 H        6.8500     0.4240    -1.7040 H     1 <1>   0.0800 
 45 H        7.2860     0.1290    -0.0500 H     1 <1>   0.0800 
 46 H        3.2050    -5.5630    -1.6730 H     1 <1>   0.0800 
 47 H        1.9230    -6.4080    -0.8400 H     1 <1>   0.0800 
 48 H        4.8600    -7.1840    -0.7670 H     1 <1>   0.0800 
 49 H        3.6130    -7.9950    -1.6810 H     1 <1>   0.0800 
 50 H        3.5710    -8.0280     0.0640 H     1 <1>   0.0800 
 51 H       10.1800     4.1080     1.4560 H     1 <1>   0.0800 
 52 H       10.3020     5.2060     0.0870 H     1 <1>   0.0800 
 53 H       13.5200     3.7040     0.3180 H     1 <1>   0.0800 
 54 H       12.5410     4.1070     1.7220 H     1 <1>   0.0800 
 55 H       12.6750     5.2470     0.3710 H     1 <1>   0.0800 
@<TRIPOS>BOND
  1   1   2  2   
  2   2   3  am  
  3   2   4  1   
  4   3   5  1   
  5   3   6  1   
  6   4   7  1   
  7   4   8  2   
  8   5   9  1   
  9   5  28  1   
 10   5  29  1   
 11   6  10  1   
 12   6  30  1   
 13   6  31  1   
 14   7  11  2   
 15   7  12  1   
 16   8  13  1   
 17   8  32  1   
 18   9  14  1   
 19   9  33  1   
 20   9  34  1   
 21  10  15  1   
 22  10  35  1   
 23  10  36  1   
 24  11  13  1   
 25  12  37  1   
 26  12  38  1   
 27  12  39  1   
 28  13  16  1   
 29  14  15  1   
 30  14  17  1   
 31  15  40  1   
 32  15  41  1   
 33  16  18  1   
 34  16  42  1   
 35  16  43  1   
 36  17  19  1   
 37  17  44  1   
 38  17  45  1   
 39  18  20  1   
 40  18  46  1   
 41  18  47  1   
 42  19  21  1   
 43  19  22  2   
 44  20  48  1   
 45  20  49  1   
 46  20  50  1   
 47  21  23  1   
 48  22  24  1   
 49  23  24  2   
 50  24  25  1   
 51  25  26  1   
 52  25  51  1   
 53  25  52  1   
 54  26  27  1   
 55  27  53  1   
 56  27  54  1   
 57  27  55  1   
@<TRIPOS>SUBSTRUCTURE
  1 ****   9 GROUP 4 **** **** 0

# MOE 2024.06 (io_trps.svl 2023.06)
