@<TRIPOS>MOLECULE
NONAME
52 53 1 0 0 
SMALL
USER_CHARGES


@<TRIPOS>ATOM
  1 O        2.2160     0.5470    -0.8620 O.2   1 <1>  -0.5700 
  2 C        2.4290    -0.2000     0.0730 C.2   1 <1>   0.5440 
  3 N        2.9850     0.3260     1.2080 N.am  1 <1>  -0.7300 
  4 C        2.0980    -1.6120    -0.0080 C.ar  1 <1>   0.0860 
  5 C        3.2900     1.7620     1.4020 C.3   1 <1>   0.1400 
  6 C        1.0320    -2.0510    -0.7900 C.ar  1 <1>  -0.1500 
  7 C        2.8250    -2.5830     0.6860 C.ar  1 <1>  -0.1500 
  8 C        4.6820     2.0700     0.8540 C.3   1 <1>  -0.0990 
  9 C        0.6870    -3.3880    -0.8740 C.ar  1 <1>   0.0830 
 10 C        2.4920    -3.9240     0.6110 C.ar  1 <1>  -0.1500 
 11 C        4.9000     3.5680     0.8090 C.2   1 <1>   0.5690 
 12 O       -0.3730    -3.6960    -1.6620 O.3   1 <1>  -0.3630 
 13 C        1.4240    -4.3320    -0.1660 C.ar  1 <1>  -0.1500 
 14 O        5.5720     4.0510     1.6890 O.2   1 <1>  -0.5700 
 15 N        4.3550     4.3470    -0.1850 N.am  1 <1>  -0.6600 
 16 C       -0.7920    -5.0300    -1.8430 C.3   1 <1>   0.0400 
 17 C        4.5440     5.8270    -0.1520 C.3   1 <1>   0.1400 
 18 C        3.5230     3.8560    -1.3270 C.3   1 <1>   0.0600 
 19 C        5.9260     6.1980    -0.6880 C.3   1 <1>   0.0960 
 20 N        6.1470     7.6380    -0.4970 N.pl3 1 <1>   0.3140 
 21 N        5.7760     8.5310    -1.4330 N.2   1 <1>  -0.7070 
 22 C        6.6830     8.2510     0.5830 C.2   1 <1>  -0.3320 
 23 C        6.0900     9.6850    -0.9350 C.2   1 <1>   0.1080 
 24 C        6.6620     9.5750     0.3260 C.2   1 <1>  -0.1500 
 25 C        7.1910     7.5340     1.8240 C.3   1 <1>  -0.0600 
 26 C        5.8450    10.9780    -1.6740 C.3   1 <1>  -0.0590 
 27 H        3.0940    -0.2700     2.0300 H     1 <1>   0.3700 
 28 H        3.2390     2.0110     2.4480 H     1 <1>   0.0800 
 29 H        2.5520     2.3510     0.8830 H     1 <1>   0.0800 
 30 H        0.4560    -1.3320    -1.3460 H     1 <1>   0.1500 
 31 H        3.6680    -2.2880     1.2850 H     1 <1>   0.1500 
 32 H        4.8070     1.6580    -0.1280 H     1 <1>   0.0800 
 33 H        5.4220     1.6300     1.4960 H     1 <1>   0.0800 
 34 H        3.0670    -4.6540     1.1550 H     1 <1>   0.1500 
 35 H        1.1830    -5.3770    -0.2090 H     1 <1>   0.1500 
 36 H       -1.6340    -5.0270    -2.5110 H     1 <1>   0.0800 
 37 H       -1.0830    -5.4370    -0.8910 H     1 <1>   0.0800 
 38 H        0.0150    -5.5940    -2.2750 H     1 <1>   0.0800 
 39 H        4.4520     6.1690     0.8650 H     1 <1>   0.0800 
 40 H        3.7850     6.3130    -0.7410 H     1 <1>   0.0800 
 41 H        3.4560     2.7840    -1.3490 H     1 <1>   0.0800 
 42 H        3.9530     4.1860    -2.2570 H     1 <1>   0.0800 
 43 H        2.5260     4.2520    -1.2440 H     1 <1>   0.0800 
 44 H        5.9890     5.9790    -1.7370 H     1 <1>   0.0800 
 45 H        6.6900     5.6580    -0.1620 H     1 <1>   0.0800 
 46 H        7.0020    10.3870     0.9420 H     1 <1>   0.1500 
 47 H        6.4050     6.9480     2.2680 H     1 <1>   0.0800 
 48 H        7.5370     8.2480     2.5500 H     1 <1>   0.0800 
 49 H        8.0080     6.8810     1.5690 H     1 <1>   0.0800 
 50 H        4.7950    11.0820    -1.8750 H     1 <1>   0.0800 
 51 H        6.3790    10.9630    -2.6060 H     1 <1>   0.0800 
 52 H        6.1780    11.8150    -1.0890 H     1 <1>   0.0800 
@<TRIPOS>BOND
  1   1   2  2   
  2   2   3  am  
  3   2   4  1   
  4   3   5  1   
  5   3  27  1   
  6   4   6  ar  
  7   4   7  ar  
  8   5   8  1   
  9   5  28  1   
 10   5  29  1   
 11   6   9  ar  
 12   6  30  1   
 13   7  10  ar  
 14   7  31  1   
 15   8  11  1   
 16   8  32  1   
 17   8  33  1   
 18   9  12  1   
 19   9  13  ar  
 20  10  13  ar  
 21  10  34  1   
 22  11  14  2   
 23  11  15  am  
 24  12  16  1   
 25  13  35  1   
 26  15  17  1   
 27  15  18  1   
 28  16  36  1   
 29  16  37  1   
 30  16  38  1   
 31  17  19  1   
 32  17  39  1   
 33  17  40  1   
 34  18  41  1   
 35  18  42  1   
 36  18  43  1   
 37  19  20  1   
 38  19  44  1   
 39  19  45  1   
 40  20  21  1   
 41  20  22  1   
 42  21  23  2   
 43  22  24  2   
 44  22  25  1   
 45  23  24  1   
 46  23  26  1   
 47  24  46  1   
 48  25  47  1   
 49  25  48  1   
 50  25  49  1   
 51  26  50  1   
 52  26  51  1   
 53  26  52  1   
@<TRIPOS>SUBSTRUCTURE
  1 ****   8 GROUP 4 **** **** 0

# MOE 2024.06 (io_trps.svl 2023.06)
