@<TRIPOS>MOLECULE
NONAME
47 49 1 0 0 
SMALL
USER_CHARGES


@<TRIPOS>ATOM
  1 O       -3.1180    -1.2650     1.1580 O.2   1 <1>  -0.5700 
  2 C       -2.9430    -0.1930     0.6030 C.2   1 <1>   0.5690 
  3 N       -3.2250    -0.0630    -0.7350 N.am  1 <1>  -0.6600 
  4 C       -2.4600     1.0070     1.4270 C.3   1 <1>  -0.0190 
  5 C       -3.5070    -1.2940    -1.5070 C.3   1 <1>   0.1400 
  6 C       -3.9000     1.1640    -1.2930 C.3   1 <1>   0.1400 
  7 C       -1.1590     0.6870     2.1810 C.3   1 <1>  -0.2400 
  8 C       -3.5350     1.4770     2.4210 C.3   1 <1>  -0.2400 
  9 C       -5.0230    -1.4590    -1.3830 C.3   1 <1>   0.2890 
 10 C       -4.8770     0.8450    -2.4610 C.3   1 <1>  -0.1600 
 11 N       -5.4290    -2.8670    -1.5320 N.pl3 1 <1>  -0.8690 
 12 C       -5.7120    -0.4630    -2.3200 C.3   1 <1>  -0.1600 
 13 C       -5.3170    -3.8210    -0.5730 C.ar  1 <1>   0.7710 
 14 N       -4.5800    -3.5570     0.5560 N.ar  1 <1>  -0.1790 
 15 N       -5.9200    -4.9570    -0.7750 N.ar  1 <1>  -0.5670 
 16 C       -4.4160    -4.4370     1.5450 C.ar  1 <1>   0.4610 
 17 C       -5.7800    -5.8770     0.2150 C.ar  1 <1>   0.1050 
 18 N       -3.6690    -4.1020     2.6080 N.pl3 1 <1>  -0.9000 
 19 C       -5.0570    -5.6680     1.3670 C.ar  1 <1>   0.0000 
 20 N       -6.2860    -7.1330     0.2990 N.pl3 1 <1>   0.3140 
 21 C       -5.1930    -6.8690     2.0790 C.2   1 <1>   0.1390 
 22 N       -5.9170    -7.7360     1.4560 N.2   1 <1>  -0.7070 
 23 C       -7.1300    -7.8290    -0.6840 C.3   1 <1>   0.0160 
 24 H       -2.2450     1.8190     0.7560 H     1 <1>   0.0800 
 25 H       -2.9680    -2.1290    -1.0950 H     1 <1>   0.0800 
 26 H       -3.2000    -1.1780    -2.5330 H     1 <1>   0.0800 
 27 H       -3.1480     1.8560    -1.6350 H     1 <1>   0.0800 
 28 H       -4.4550     1.6450    -0.5060 H     1 <1>   0.0800 
 29 H       -1.3160    -0.1050     2.8920 H     1 <1>   0.0800 
 30 H       -0.8050     1.5560     2.7070 H     1 <1>   0.0800 
 31 H       -0.3960     0.3770     1.4880 H     1 <1>   0.0800 
 32 H       -3.7580     0.7000     3.1310 H     1 <1>   0.0800 
 33 H       -4.4410     1.7380     1.9040 H     1 <1>   0.0800 
 34 H       -3.1930     2.3430     2.9600 H     1 <1>   0.0800 
 35 H       -5.3080    -1.1660    -0.3840 H     1 <1>   0.0800 
 36 H       -4.2850     0.7710    -3.3580 H     1 <1>   0.0800 
 37 H       -5.5370     1.6820    -2.6090 H     1 <1>   0.0800 
 38 H       -6.0040    -3.0990    -2.3480 H     1 <1>   0.4000 
 39 H       -6.6830    -0.2280    -1.9200 H     1 <1>   0.0800 
 40 H       -5.8430    -0.8970    -3.2960 H     1 <1>   0.0800 
 41 H       -4.1170    -2.6480     0.6410 H     1 <1>   0.4570 
 42 H       -3.5010    -4.7310     3.4020 H     1 <1>   0.4000 
 43 H       -3.1910    -3.1940     2.7210 H     1 <1>   0.4000 
 44 H       -4.7460    -7.0540     3.0420 H     1 <1>   0.1500 
 45 H       -7.3140    -7.1890    -1.5270 H     1 <1>   0.0800 
 46 H       -8.0620    -8.0930    -0.2190 H     1 <1>   0.0800 
 47 H       -6.6270    -8.7210    -1.0070 H     1 <1>   0.0800 
@<TRIPOS>BOND
  1   1   2  2   
  2   2   3  am  
  3   2   4  1   
  4   3   5  1   
  5   3   6  1   
  6   4   7  1   
  7   4   8  1   
  8   4  24  1   
  9   5   9  1   
 10   5  25  1   
 11   5  26  1   
 12   6  10  1   
 13   6  27  1   
 14   6  28  1   
 15   7  29  1   
 16   7  30  1   
 17   7  31  1   
 18   8  32  1   
 19   8  33  1   
 20   8  34  1   
 21   9  11  1   
 22   9  12  1   
 23   9  35  1   
 24  10  12  1   
 25  10  36  1   
 26  10  37  1   
 27  11  13  1   
 28  11  38  1   
 29  12  39  1   
 30  12  40  1   
 31  13  14  ar  
 32  13  15  ar  
 33  14  16  ar  
 34  14  41  1   
 35  15  17  ar  
 36  16  18  1   
 37  16  19  ar  
 38  17  19  ar  
 39  17  20  1   
 40  18  42  1   
 41  18  43  1   
 42  19  21  1   
 43  20  22  1   
 44  20  23  1   
 45  21  22  2   
 46  21  44  1   
 47  23  45  1   
 48  23  46  1   
 49  23  47  1   
@<TRIPOS>SUBSTRUCTURE
  1 ****  14 GROUP 4 **** **** 0

# MOE 2024.06 (io_trps.svl 2023.06)
