@<TRIPOS>MOLECULE
NONAME
34 36 1 0 0 
SMALL
USER_CHARGES


@<TRIPOS>ATOM
  1 F        0.1140    -0.5690     0.0400 F     1 <1>  -0.1900 
  2 C       -0.0160    -1.8420     0.2910 C.ar  1 <1>   0.1900 
  3 C        0.2100    -2.7500    -0.7250 C.ar  1 <1>  -0.1500 
  4 C       -0.3740    -2.2390     1.5630 C.ar  1 <1>  -0.1500 
  5 C        0.0760    -4.1050    -0.4620 C.ar  1 <1>  -0.1440 
  6 C       -0.5050    -3.5920     1.8170 C.ar  1 <1>  -0.1500 
  7 C       -0.2840    -4.5460     0.8210 C.ar  1 <1>   0.0860 
  8 C        0.3160    -5.1130    -1.5790 C.3   1 <1>  -0.0960 
  9 C       -0.4330    -5.9520     1.1420 C.2   1 <1>   0.5440 
 10 O        0.5210    -6.5680     1.5840 O.2   1 <1>  -0.5700 
 11 N       -1.6310    -6.5900     0.9670 N.am  1 <1>  -0.6600 
 12 C       -2.8370    -5.9890     0.3310 C.3   1 <1>   0.2350 
 13 C       -1.8290    -8.0570     1.1320 C.3   1 <1>   0.2350 
 14 C       -3.5300    -7.1390    -0.3760 C.3   1 <1>  -0.2420 
 15 C       -2.9210    -8.4230     0.1380 C.3   1 <1>  -0.2420 
 16 C       -4.9630    -6.7450    -0.7420 C.2   1 <1>   0.9470 
 17 C       -2.7750    -8.0480    -1.3140 C.3   1 <1>  -0.2000 
 18 C       -3.5600    -9.7670     0.4990 C.2   1 <1>   0.9470 
 19 O       -5.3210    -6.7820    -1.9280 O.co2 1 <1>  -0.9000 
 20 O       -5.6790    -6.2240     0.1240 O.co2 1 <1>  -0.9000 
 21 O       -3.5160   -10.7020    -0.3140 O.co2 1 <1>  -0.9000 
 22 O       -3.9720    -9.9460     1.6530 O.co2 1 <1>  -0.9000 
 23 H        0.4830    -2.3920    -1.7010 H     1 <1>   0.1500 
 24 H       -0.5440    -1.5060     2.3310 H     1 <1>   0.1500 
 25 H       -0.7840    -3.9320     2.8000 H     1 <1>   0.1500 
 26 H        0.7020    -4.6340    -2.4600 H     1 <1>   0.0800 
 27 H       -0.6060    -5.6050    -1.8340 H     1 <1>   0.0800 
 28 H        1.0240    -5.8590    -1.2600 H     1 <1>   0.0800 
 29 H       -3.4780    -5.5890     1.0980 H     1 <1>   0.0800 
 30 H       -2.5840    -5.2150    -0.3710 H     1 <1>   0.0800 
 31 H       -0.9240    -8.6020     0.9270 H     1 <1>   0.0800 
 32 H       -2.1560    -8.2610     2.1370 H     1 <1>   0.0800 
 33 H       -1.8100    -7.7610    -1.6860 H     1 <1>   0.1000 
 34 H       -3.3440    -8.6120    -2.0340 H     1 <1>   0.1000 
@<TRIPOS>BOND
  1   1   2  1   
  2   2   3  ar  
  3   2   4  ar  
  4   3   5  ar  
  5   3  23  1   
  6   4   6  ar  
  7   4  24  1   
  8   5   7  ar  
  9   5   8  1   
 10   6   7  ar  
 11   6  25  1   
 12   7   9  1   
 13   8  26  1   
 14   8  27  1   
 15   8  28  1   
 16   9  10  2   
 17   9  11  am  
 18  11  12  1   
 19  11  13  1   
 20  12  14  1   
 21  12  29  1   
 22  12  30  1   
 23  13  15  1   
 24  13  31  1   
 25  13  32  1   
 26  14  15  1   
 27  14  16  1   
 28  14  17  1   
 29  15  17  1   
 30  15  18  1   
 31  16  19  ar  
 32  16  20  ar  
 33  17  33  1   
 34  17  34  1   
 35  18  21  ar  
 36  18  22  ar  
@<TRIPOS>SUBSTRUCTURE
  1 ****  12 GROUP 4 **** **** 0

# MOE 2024.06 (io_trps.svl 2023.06)
