@<TRIPOS>MOLECULE
NONAME
49 51 1 0 0 
SMALL
USER_CHARGES


@<TRIPOS>ATOM
  1 O       -1.3000     0.1070     0.3860 O.2   1 <1>  -0.5700 
  2 C       -1.9720     1.0330    -0.0300 C.2   1 <1>   0.5440 
  3 N       -3.1690     0.7210    -0.6380 N.am  1 <1>  -0.6600 
  4 C       -1.5310     2.3920     0.1540 C.ar  1 <1>   0.0860 
  5 C       -3.3580    -0.6550    -1.1830 C.3   1 <1>   0.1400 
  6 C       -4.4340     1.3740    -0.1970 C.3   1 <1>   0.1400 
  7 C       -1.8760     3.4200    -0.7060 C.ar  1 <1>   0.1600 
  8 C       -0.7250     2.7660     1.2140 C.ar  1 <1>   0.1600 
  9 C       -3.9560    -1.5350    -0.0690 C.3   1 <1>   0.4230 
 10 C       -5.1250     0.4800     0.8510 C.3   1 <1>  -0.1600 
 11 N       -1.5080     4.6640    -0.5290 N.ar  1 <1>  -0.6200 
 12 N       -0.3370     4.0000     1.4230 N.ar  1 <1>  -0.6200 
 13 N       -3.8600    -3.0300    -0.3190 N.4   1 <1>  -0.9590 
 14 C       -5.3440    -0.9920     0.3970 C.3   1 <1>   0.0000 
 15 C       -0.7540     4.8980     0.5360 C.ar  1 <1>   0.7200 
 16 C       -4.8270    -3.8300     0.4990 C.3   1 <1>   0.3430 
 17 C       -3.9730    -3.4400    -1.7540 C.3   1 <1>   0.2630 
 18 C       -5.8570    -1.8060     1.6230 C.3   1 <1>  -0.1600 
 19 C       -6.4300    -0.9550    -0.7200 C.3   1 <1>   0.1200 
 20 N       -0.3980     6.1860     0.6980 N.pl3 1 <1>  -0.8690 
 21 C       -5.1210    -3.1420     1.8310 C.3   1 <1>  -0.1600 
 22 O       -6.7510    -2.2190    -1.1900 O.3   1 <1>  -0.6800 
 23 C        0.4710     6.7630     1.7530 C.3   1 <1>   0.1290 
 24 H       -4.0010    -0.6160    -2.0430 H     1 <1>   0.0800 
 25 H       -2.4020    -1.0470    -1.4870 H     1 <1>   0.0800 
 26 H       -4.2290     2.3370     0.2410 H     1 <1>   0.0800 
 27 H       -5.0710     1.5340    -1.0500 H     1 <1>   0.0800 
 28 H       -2.4780     3.1980    -1.5710 H     1 <1>   0.1500 
 29 H       -0.3980     2.0120     1.9110 H     1 <1>   0.1500 
 30 H       -3.3090    -1.3600     0.7750 H     1 <1>   0.0800 
 31 H       -4.5100     0.4970     1.7360 H     1 <1>   0.0800 
 32 H       -6.0660     0.9280     1.1210 H     1 <1>   0.0800 
 33 H       -2.9190    -3.2930     0.0040 H     1 <1>   0.4500 
 34 H       -5.7550    -3.9410    -0.0380 H     1 <1>   0.0800 
 35 H       -4.4280    -4.8150     0.6760 H     1 <1>   0.0800 
 36 H       -4.9230    -3.1370    -2.1610 H     1 <1>   0.0800 
 37 H       -3.8920    -4.5110    -1.8430 H     1 <1>   0.0800 
 38 H       -3.1880    -2.9910    -2.3390 H     1 <1>   0.0800 
 39 H       -5.7680    -1.2390     2.5340 H     1 <1>   0.0800 
 40 H       -6.9080    -2.0110     1.5050 H     1 <1>   0.0800 
 41 H       -6.1210    -0.3640    -1.5640 H     1 <1>   0.0800 
 42 H       -7.3360    -0.5220    -0.3260 H     1 <1>   0.0800 
 43 H       -0.7290     6.8100    -0.0380 H     1 <1>   0.4000 
 44 H       -5.7350    -3.7890     2.4330 H     1 <1>   0.0800 
 45 H       -4.2000    -2.9870     2.3670 H     1 <1>   0.0800 
 46 H       -7.5850    -2.1880    -1.7090 H     1 <1>   0.4000 
 47 H        0.7390     6.0160     2.4820 H     1 <1>   0.0800 
 48 H       -0.0490     7.5610     2.2540 H     1 <1>   0.0800 
 49 H        1.3720     7.1500     1.3090 H     1 <1>   0.0800 
@<TRIPOS>BOND
  1   1   2  2   
  2   2   3  am  
  3   2   4  1   
  4   3   5  1   
  5   3   6  1   
  6   4   7  ar  
  7   4   8  ar  
  8   5   9  1   
  9   5  24  1   
 10   5  25  1   
 11   6  10  1   
 12   6  26  1   
 13   6  27  1   
 14   7  11  ar  
 15   7  28  1   
 16   8  12  ar  
 17   8  29  1   
 18   9  13  1   
 19   9  14  1   
 20   9  30  1   
 21  10  14  1   
 22  10  31  1   
 23  10  32  1   
 24  11  15  ar  
 25  12  15  ar  
 26  13  16  1   
 27  13  17  1   
 28  13  33  1   
 29  14  18  1   
 30  14  19  1   
 31  15  20  1   
 32  16  21  1   
 33  16  34  1   
 34  16  35  1   
 35  17  36  1   
 36  17  37  1   
 37  17  38  1   
 38  18  21  1   
 39  18  39  1   
 40  18  40  1   
 41  19  22  1   
 42  19  41  1   
 43  19  42  1   
 44  20  23  1   
 45  20  43  1   
 46  21  44  1   
 47  21  45  1   
 48  22  46  1   
 49  23  47  1   
 50  23  48  1   
 51  23  49  1   
@<TRIPOS>SUBSTRUCTURE
  1 ****   3 GROUP 4 **** **** 0

# MOE 2024.06 (io_trps.svl 2023.06)
