@<TRIPOS>MOLECULE
NONAME
35 36 1 0 0 
SMALL
USER_CHARGES


@<TRIPOS>ATOM
  1 O       -0.9430    -0.2220     0.1070 O.3   1 <1>  -0.2800 
  2 C       -0.8830     0.9880     0.5630 C.2   1 <1>   0.2980 
  3 C       -1.1510    -0.9430     1.1630 C.2   1 <1>   0.2980 
  4 N       -1.0310     1.0300     1.8340 N.2   1 <1>  -0.3380 
  5 C       -0.6600     2.1450    -0.4100 C.3   1 <1>   0.1000 
  6 N       -1.2030    -0.2330     2.2270 N.2   1 <1>  -0.3380 
  7 C       -1.2590    -2.4640     1.0640 C.3   1 <1>   0.2900 
  8 C        0.7460     2.0750    -1.0220 C.3   1 <1>  -0.2400 
  9 C       -0.8730     3.5160     0.2520 C.3   1 <1>  -0.2400 
 10 N       -2.5300    -2.9800     0.4870 N.3   1 <1>  -0.8100 
 11 C       -2.6330    -4.4480     0.6820 C.3   1 <1>   0.2530 
 12 C       -2.7340    -2.5710    -0.9120 C.3   1 <1>   0.0300 
 13 C       -4.0140    -5.0240     0.3680 C.ar  1 <1>   0.1670 
 14 N       -4.9100    -5.0450     1.3470 N.ar  1 <1>  -0.6200 
 15 C       -4.2670    -5.5230    -0.9080 C.ar  1 <1>   0.1600 
 16 C       -6.0610    -5.5670     0.9590 C.ar  1 <1>   0.1600 
 17 N       -5.4150    -6.0540    -1.2970 N.ar  1 <1>  -0.6200 
 18 C       -6.3050    -6.0550    -0.3190 C.ar  1 <1>   0.1600 
 19 H       -1.3830     2.0420    -1.2000 H     1 <1>   0.0800 
 20 H       -1.1590    -2.8460     2.0650 H     1 <1>   0.0800 
 21 H       -0.4270    -2.8280     0.4890 H     1 <1>   0.0800 
 22 H        1.4920     2.1590    -0.2510 H     1 <1>   0.0800 
 23 H        0.8880     2.8710    -1.7310 H     1 <1>   0.0800 
 24 H        0.8830     1.1370    -1.5310 H     1 <1>   0.0800 
 25 H       -0.1630     3.6620     1.0480 H     1 <1>   0.0800 
 26 H       -1.8640     3.5740     0.6660 H     1 <1>   0.0800 
 27 H       -0.7550     4.3050    -0.4680 H     1 <1>   0.0800 
 28 H       -2.4210    -4.6790     1.7120 H     1 <1>   0.0800 
 29 H       -1.8930    -4.9420     0.0780 H     1 <1>   0.0800 
 30 H       -2.7500    -1.4980    -0.9870 H     1 <1>   0.0800 
 31 H       -3.6860    -2.9220    -1.2690 H     1 <1>   0.0800 
 32 H       -1.9510    -2.9570    -1.5420 H     1 <1>   0.0800 
 33 H       -3.4850    -5.4780    -1.6430 H     1 <1>   0.1500 
 34 H       -6.8490    -5.6120     1.6890 H     1 <1>   0.1500 
 35 H       -7.2760    -6.4620    -0.5390 H     1 <1>   0.1500 
@<TRIPOS>BOND
  1   1   2  1   
  2   1   3  1   
  3   2   4  2   
  4   2   5  1   
  5   3   6  2   
  6   3   7  1   
  7   4   6  1   
  8   5   8  1   
  9   5   9  1   
 10   5  19  1   
 11   7  10  1   
 12   7  20  1   
 13   7  21  1   
 14   8  22  1   
 15   8  23  1   
 16   8  24  1   
 17   9  25  1   
 18   9  26  1   
 19   9  27  1   
 20  10  11  1   
 21  10  12  1   
 22  11  13  1   
 23  11  28  1   
 24  11  29  1   
 25  12  30  1   
 26  12  31  1   
 27  12  32  1   
 28  13  14  ar  
 29  13  15  ar  
 30  14  16  ar  
 31  15  17  ar  
 32  15  33  1   
 33  16  18  ar  
 34  16  34  1   
 35  17  18  ar  
 36  18  35  1   
@<TRIPOS>SUBSTRUCTURE
  1 ****  10 GROUP 4 **** **** 0

# MOE 2024.06 (io_trps.svl 2023.06)
