@<TRIPOS>MOLECULE
NONAME
50 51 1 0 0 
SMALL
USER_CHARGES


@<TRIPOS>ATOM
  1 S        0.7410     0.1280    -0.0490 S.o2  1 <1>   1.3330 
  2 O        0.1520     0.2260     1.2680 O.2   1 <1>  -0.6500 
  3 O        1.1630    -1.1630    -0.5460 O.2   1 <1>  -0.6500 
  4 N       -0.3570     0.7940    -1.1580 N.am  1 <1>  -0.8490 
  5 C        2.1420     1.2370    -0.1490 C.3   1 <1>  -0.0550 
  6 C       -1.2530    -0.2160    -1.7280 C.3   1 <1>   0.1160 
  7 C       -1.1400     1.9060    -0.6090 C.3   1 <1>   0.1160 
  8 C        3.3460     0.7700     0.6930 C.3   1 <1>  -0.0800 
  9 C        4.5940     1.6280     0.5570 C.3   1 <1>   0.2200 
 10 C        3.1030     0.7580     2.2070 C.3   1 <1>   0.1200 
 11 N        4.2470     3.0670     0.5580 N.am  1 <1>  -0.7300 
 12 C        5.3080     1.2910     1.8580 C.3   1 <1>   0.1200 
 13 O        4.2960     1.1690     2.8100 O.3   1 <1>  -0.5600 
 14 C        4.1760     3.8700    -0.5360 C.2   1 <1>   0.5690 
 15 O        4.3350     3.4080    -1.6430 O.2   1 <1>  -0.5700 
 16 C        3.8350     5.3710    -0.3540 C.3   1 <1>   0.2040 
 17 C        4.3520     5.8690     1.0180 C.ar  1 <1>  -0.1440 
 18 C        4.4910     6.2370    -1.4500 C.3   1 <1>  -0.2400 
 19 C        2.3070     5.5230    -0.5050 C.3   1 <1>  -0.2400 
 20 C        5.7020     5.7150     1.3180 C.ar  1 <1>  -0.1500 
 21 C        3.5350     6.4580     1.9800 C.ar  1 <1>  -0.1500 
 22 C        6.2200     6.1250     2.5330 C.ar  1 <1>  -0.1500 
 23 C        4.0500     6.8690     3.1970 C.ar  1 <1>  -0.1500 
 24 C        5.3930     6.7030     3.4760 C.ar  1 <1>  -0.1500 
 25 H        2.4520     1.3100    -1.1740 H     1 <1>   0.0800 
 26 H        1.8360     2.2140     0.1680 H     1 <1>   0.0800 
 27 H       -1.9230     0.2360    -2.4390 H     1 <1>   0.0800 
 28 H       -1.8280    -0.6900    -0.9490 H     1 <1>   0.0800 
 29 H       -0.6790    -0.9700    -2.2410 H     1 <1>   0.0800 
 30 H       -1.7520     2.3430    -1.3800 H     1 <1>   0.0800 
 31 H       -0.4840     2.6670    -0.2240 H     1 <1>   0.0800 
 32 H       -1.7760     1.5600     0.1900 H     1 <1>   0.0800 
 33 H        3.5990    -0.2340     0.3960 H     1 <1>   0.0800 
 34 H        5.1800     1.3790    -0.3120 H     1 <1>   0.0800 
 35 H        2.8480    -0.2250     2.5660 H     1 <1>   0.0800 
 36 H        2.3360     1.4570     2.4950 H     1 <1>   0.0800 
 37 H        4.1450     3.4820     1.4920 H     1 <1>   0.3700 
 38 H        6.0050     2.0530     2.1620 H     1 <1>   0.0800 
 39 H        5.8080     0.3410     1.7840 H     1 <1>   0.0800 
 40 H        4.2880     7.2790    -1.2760 H     1 <1>   0.0800 
 41 H        4.1120     5.9690    -2.4210 H     1 <1>   0.0800 
 42 H        5.5560     6.0930    -1.4610 H     1 <1>   0.0800 
 43 H        2.0170     6.5560    -0.4430 H     1 <1>   0.0800 
 44 H        1.7970     4.9640     0.2590 H     1 <1>   0.0800 
 45 H        1.9940     5.1430    -1.4620 H     1 <1>   0.0800 
 46 H        6.3690     5.2670     0.6010 H     1 <1>   0.1500 
 47 H        2.4850     6.6120     1.8120 H     1 <1>   0.1500 
 48 H        7.2670     5.9960     2.7440 H     1 <1>   0.1500 
 49 H        3.4040     7.3220     3.9290 H     1 <1>   0.1500 
 50 H        5.7920     7.0220     4.4230 H     1 <1>   0.1500 
@<TRIPOS>BOND
  1   1   2  2   
  2   1   3  2   
  3   1   4  am  
  4   1   5  1   
  5   4   6  1   
  6   4   7  1   
  7   5   8  1   
  8   5  25  1   
  9   5  26  1   
 10   6  27  1   
 11   6  28  1   
 12   6  29  1   
 13   7  30  1   
 14   7  31  1   
 15   7  32  1   
 16   8   9  1   
 17   8  10  1   
 18   8  33  1   
 19   9  11  1   
 20   9  12  1   
 21   9  34  1   
 22  10  13  1   
 23  10  35  1   
 24  10  36  1   
 25  11  14  am  
 26  11  37  1   
 27  12  13  1   
 28  12  38  1   
 29  12  39  1   
 30  14  15  2   
 31  14  16  1   
 32  16  17  1   
 33  16  18  1   
 34  16  19  1   
 35  17  20  ar  
 36  17  21  ar  
 37  18  40  1   
 38  18  41  1   
 39  18  42  1   
 40  19  43  1   
 41  19  44  1   
 42  19  45  1   
 43  20  22  ar  
 44  20  46  1   
 45  21  23  ar  
 46  21  47  1   
 47  22  24  ar  
 48  22  48  1   
 49  23  24  ar  
 50  23  49  1   
 51  24  50  1   
@<TRIPOS>SUBSTRUCTURE
  1 ****  11 GROUP 4 **** **** 0

# MOE 2024.06 (io_trps.svl 2023.06)
