@<TRIPOS>MOLECULE
NONAME
41 42 1 0 0 
SMALL
USER_CHARGES


@<TRIPOS>ATOM
  1 F       -0.7630     0.0970     0.9520 F     1 <1>  -0.1900 
  2 C       -1.3730     0.9330     0.1390 C.ar  1 <1>   0.1900 
  3 C       -0.9380     2.2550     0.0240 C.ar  1 <1>   0.4100 
  4 C       -2.4590     0.5100    -0.5890 C.ar  1 <1>   0.1660 
  5 N       -1.5910     3.0860    -0.7750 N.ar  1 <1>  -0.6200 
  6 N        0.1590     2.7760     0.7000 N.pl3 1 <1>  -0.8380 
  7 N       -3.0980     1.3450    -1.3940 N.ar  1 <1>  -0.6200 
  8 C       -2.9920    -0.9160    -0.5180 C.3   1 <1>  -0.0170 
  9 C       -2.6210     2.5790    -1.4300 C.ar  1 <1>   0.4700 
 10 C        0.2030     4.2060     1.1140 C.3   1 <1>   0.2090 
 11 C        1.4840     2.1060     0.6460 C.3   1 <1>   0.2090 
 12 C       -4.1890    -1.0190     0.4350 C.3   1 <1>  -0.2400 
 13 C        1.1120     5.0110     0.1680 C.3   1 <1>  -0.0800 
 14 C        2.4130     2.8870    -0.2880 C.3   1 <1>  -0.1600 
 15 C        2.5130     4.3710     0.0950 C.3   1 <1>  -0.1600 
 16 C        1.1640     6.4830     0.6200 C.3   1 <1>  -0.1600 
 17 C        1.8960     7.4040    -0.3730 C.3   1 <1>  -0.0990 
 18 C        1.8030     8.8580     0.0410 C.2   1 <1>   0.5690 
 19 O        2.6690     9.3480     0.7150 O.2   1 <1>  -0.5700 
 20 N        0.7450     9.5910    -0.3470 N.am  1 <1>  -0.8000 
 21 H       -2.2180    -1.5890    -0.1920 H     1 <1>   0.0800 
 22 H       -3.2920    -1.2250    -1.5040 H     1 <1>   0.0800 
 23 H       -3.1420     3.2620    -2.0800 H     1 <1>   0.1500 
 24 H        0.5800     4.2640     2.1200 H     1 <1>   0.0800 
 25 H       -0.7910     4.6200     1.1100 H     1 <1>   0.0800 
 26 H        1.3850     1.0980     0.2850 H     1 <1>   0.0800 
 27 H        1.9000     2.0700     1.6390 H     1 <1>   0.0800 
 28 H       -3.8990    -0.7280     1.4290 H     1 <1>   0.0800 
 29 H       -4.5560    -2.0290     0.4620 H     1 <1>   0.0800 
 30 H       -4.9810    -0.3710     0.1020 H     1 <1>   0.0800 
 31 H        0.6620     4.9720    -0.8100 H     1 <1>   0.0800 
 32 H        2.0350     2.8000    -1.2920 H     1 <1>   0.0800 
 33 H        3.3910     2.4400    -0.2670 H     1 <1>   0.0800 
 34 H        3.0000     4.4590     1.0510 H     1 <1>   0.0800 
 35 H        3.1190     4.8730    -0.6370 H     1 <1>   0.0800 
 36 H        1.6430     6.5530     1.5820 H     1 <1>   0.0800 
 37 H        0.1550     6.8430     0.7340 H     1 <1>   0.0800 
 38 H        1.4780     7.2930    -1.3570 H     1 <1>   0.0800 
 39 H        2.9370     7.1430    -0.4220 H     1 <1>   0.0800 
 40 H        0.6910    10.5700    -0.0640 H     1 <1>   0.3700 
 41 H       -0.0250     9.2300    -0.9070 H     1 <1>   0.3700 
@<TRIPOS>BOND
  1   1   2  1   
  2   2   3  ar  
  3   2   4  ar  
  4   3   5  ar  
  5   3   6  1   
  6   4   7  ar  
  7   4   8  1   
  8   5   9  ar  
  9   6  10  1   
 10   6  11  1   
 11   7   9  ar  
 12   8  12  1   
 13   8  21  1   
 14   8  22  1   
 15   9  23  1   
 16  10  13  1   
 17  10  24  1   
 18  10  25  1   
 19  11  14  1   
 20  11  26  1   
 21  11  27  1   
 22  12  28  1   
 23  12  29  1   
 24  12  30  1   
 25  13  15  1   
 26  13  16  1   
 27  13  31  1   
 28  14  15  1   
 29  14  32  1   
 30  14  33  1   
 31  15  34  1   
 32  15  35  1   
 33  16  17  1   
 34  16  36  1   
 35  16  37  1   
 36  17  18  1   
 37  17  38  1   
 38  17  39  1   
 39  18  19  2   
 40  18  20  am  
 41  20  40  1   
 42  20  41  1   
@<TRIPOS>SUBSTRUCTURE
  1 ****   6 GROUP 4 **** **** 0

# MOE 2024.06 (io_trps.svl 2023.06)
