@<TRIPOS>MOLECULE
NONAME
60 62 1 0 0 
SMALL
USER_CHARGES


@<TRIPOS>ATOM
  1 O       -0.4750    -0.6060    -1.1710 O.2   1 <1>  -0.5700 
  2 C       -1.0740     0.4230    -0.9330 C.2   1 <1>   0.5690 
  3 N       -2.4530     0.4230    -1.0840 N.am  1 <1>  -0.6600 
  4 C       -0.2520     1.6640    -0.4490 C.3   1 <1>   0.3410 
  5 C       -3.1620    -0.8280    -1.4620 C.3   1 <1>   0.1400 
  6 C       -3.3850     1.4540    -0.5460 C.3   1 <1>   0.1400 
  7 O       -0.7980     2.0880     0.8070 O.3   1 <1>  -0.3630 
  8 C       -0.3180     2.7990    -1.4910 C.3   1 <1>  -0.2400 
  9 C        1.2340     1.3070    -0.2260 C.3   1 <1>  -0.2400 
 10 C       -3.7750    -1.4390    -0.1840 C.3   1 <1>   0.4230 
 11 C       -4.0160     0.9000     0.7370 C.3   1 <1>  -0.1600 
 12 C       -0.3580     3.1970     1.4630 C.ar  1 <1>   0.0820 
 13 N       -4.3320    -2.8430    -0.3730 N.4   1 <1>  -0.9590 
 14 C       -4.7550    -0.4550     0.5270 C.3   1 <1>   0.0000 
 15 C       -0.9870     4.4360     1.2980 C.ar  1 <1>   0.0820 
 16 C        0.6950     3.0670     2.3560 C.ar  1 <1>  -0.1500 
 17 C       -5.2680    -3.2790     0.7140 C.3   1 <1>   0.3430 
 18 C       -4.9370    -3.1210    -1.7170 C.3   1 <1>   0.2630 
 19 C       -5.1400    -1.0370     1.9190 C.3   1 <1>  -0.1600 
 20 C       -6.0280    -0.2450    -0.3440 C.3   1 <1>   0.1200 
 21 O       -2.0600     4.5140     0.4600 O.3   1 <1>  -0.3630 
 22 C       -0.5060     5.5370     2.0020 C.ar  1 <1>  -0.1500 
 23 C        1.1610     4.1670     3.0520 C.ar  1 <1>  -0.1500 
 24 C       -4.9560    -2.5630     2.0280 C.3   1 <1>  -0.1600 
 25 O       -6.8300     0.7690     0.1510 O.3   1 <1>  -0.6800 
 26 C       -2.8100     5.7010     0.3280 C.3   1 <1>   0.0400 
 27 C        0.5640     5.4020     2.8700 C.ar  1 <1>  -0.1500 
 28 H       -3.9150    -0.5910    -2.1910 H     1 <1>   0.0800 
 29 H       -2.4770    -1.5280    -1.9080 H     1 <1>   0.0800 
 30 H       -2.8780     2.3710    -0.3290 H     1 <1>   0.0800 
 31 H       -4.1430     1.6780    -1.2770 H     1 <1>   0.0800 
 32 H        0.0890     2.4510    -2.4230 H     1 <1>   0.0800 
 33 H        0.2590     3.6480    -1.1730 H     1 <1>   0.0800 
 34 H       -1.3290     3.1080    -1.6710 H     1 <1>   0.0800 
 35 H        1.6530     0.9070    -1.1310 H     1 <1>   0.0800 
 36 H        1.3240     0.5590     0.5410 H     1 <1>   0.0800 
 37 H        1.8090     2.1740     0.0420 H     1 <1>   0.0800 
 38 H       -2.9420    -1.5380     0.4940 H     1 <1>   0.0800 
 39 H       -3.2200     0.7810     1.4530 H     1 <1>   0.0800 
 40 H       -4.6800     1.6430     1.1430 H     1 <1>   0.0800 
 41 H       -3.5020    -3.4510    -0.2920 H     1 <1>   0.4500 
 42 H        1.1480     2.1050     2.5080 H     1 <1>   0.1500 
 43 H       -6.2830    -3.0500     0.4350 H     1 <1>   0.0800 
 44 H       -5.1960    -4.3460     0.8540 H     1 <1>   0.0800 
 45 H       -5.7880    -2.4820    -1.8880 H     1 <1>   0.0800 
 46 H       -5.2620    -4.1480    -1.7740 H     1 <1>   0.0800 
 47 H       -4.2150    -2.9530    -2.4990 H     1 <1>   0.0800 
 48 H       -4.5420    -0.5870     2.6950 H     1 <1>   0.0800 
 49 H       -6.1610    -0.7910     2.1540 H     1 <1>   0.0800 
 50 H       -6.6290    -1.1350    -0.3830 H     1 <1>   0.0800 
 51 H       -5.7740     0.0370    -1.3500 H     1 <1>   0.0800 
 52 H       -0.9490     6.5080     1.8930 H     1 <1>   0.1500 
 53 H        1.9860     4.0620     3.7370 H     1 <1>   0.1500 
 54 H       -5.6040    -2.9410     2.8010 H     1 <1>   0.0800 
 55 H       -3.9470    -2.7950     2.3240 H     1 <1>   0.0800 
 56 H       -7.1120     0.6030     1.0720 H     1 <1>   0.4000 
 57 H       -3.6240     5.5100    -0.3470 H     1 <1>   0.0800 
 58 H       -2.1770     6.4720    -0.0730 H     1 <1>   0.0800 
 59 H       -3.1950     5.9800     1.2940 H     1 <1>   0.0800 
 60 H        0.9300     6.2580     3.4100 H     1 <1>   0.1500 
@<TRIPOS>BOND
  1   1   2  2   
  2   2   3  am  
  3   2   4  1   
  4   3   5  1   
  5   3   6  1   
  6   4   7  1   
  7   4   8  1   
  8   4   9  1   
  9   5  10  1   
 10   5  28  1   
 11   5  29  1   
 12   6  11  1   
 13   6  30  1   
 14   6  31  1   
 15   7  12  1   
 16   8  32  1   
 17   8  33  1   
 18   8  34  1   
 19   9  35  1   
 20   9  36  1   
 21   9  37  1   
 22  10  13  1   
 23  10  14  1   
 24  10  38  1   
 25  11  14  1   
 26  11  39  1   
 27  11  40  1   
 28  12  15  ar  
 29  12  16  ar  
 30  13  17  1   
 31  13  18  1   
 32  13  41  1   
 33  14  19  1   
 34  14  20  1   
 35  15  21  1   
 36  15  22  ar  
 37  16  23  ar  
 38  16  42  1   
 39  17  24  1   
 40  17  43  1   
 41  17  44  1   
 42  18  45  1   
 43  18  46  1   
 44  18  47  1   
 45  19  24  1   
 46  19  48  1   
 47  19  49  1   
 48  20  25  1   
 49  20  50  1   
 50  20  51  1   
 51  21  26  1   
 52  22  27  ar  
 53  22  52  1   
 54  23  27  ar  
 55  23  53  1   
 56  24  54  1   
 57  24  55  1   
 58  25  56  1   
 59  26  57  1   
 60  26  58  1   
 61  26  59  1   
 62  27  60  1   
@<TRIPOS>SUBSTRUCTURE
  1 ****   6 GROUP 4 **** **** 0

# MOE 2024.06 (io_trps.svl 2023.06)
