@<TRIPOS>MOLECULE
NONAME
51 54 1 0 0 
SMALL
USER_CHARGES


@<TRIPOS>ATOM
  1 O       -0.2630    -3.1850     2.0160 O.2   1 <1>  -0.5700 
  2 C        0.7420    -2.7460     1.4920 C.2   1 <1>   0.6900 
  3 N        0.7730    -2.3760     0.1580 N.am  1 <1>  -0.4690 
  4 N        1.8790    -2.6300     2.2240 N.am  1 <1>  -0.4900 
  5 C        1.9570    -1.9370    -0.4240 C.2   1 <1>  -0.0410 
  6 C       -0.4720    -2.4810    -0.6700 C.3   1 <1>   0.2010 
  7 C        3.0570    -2.1920     1.7050 C.2   1 <1>   0.6160 
  8 C        3.0880    -1.8380     0.3160 C.2   1 <1>  -0.1240 
  9 C       -0.7680    -3.9100    -1.1170 C.2   1 <1>   0.5690 
 10 O        4.0180    -2.1270     2.4450 O.2   1 <1>  -0.5700 
 11 C        4.4040    -1.3620    -0.2860 C.3   1 <1>  -0.1020 
 12 O       -0.8020    -4.1610    -2.2980 O.2   1 <1>  -0.5700 
 13 N       -0.9930    -4.8620    -0.1770 N.am  1 <1>  -0.7300 
 14 C       -1.2320    -6.2990    -0.4350 C.3   1 <1>   0.2200 
 15 C       -2.5290    -6.7150     0.2360 C.3   1 <1>  -0.0800 
 16 C       -0.1920    -7.1400     0.3070 C.3   1 <1>   0.1200 
 17 C       -2.0510    -7.0020     1.6590 C.3   1 <1>   0.1200 
 18 C       -3.1340    -7.9640    -0.4360 C.3   1 <1>  -0.0170 
 19 O       -0.7520    -7.4960     1.5390 O.3   1 <1>  -0.5600 
 20 C       -4.4560    -8.3710     0.2080 C.ar  1 <1>  -0.1440 
 21 C       -5.6680    -7.6850    -0.0420 C.ar  1 <1>   0.0000 
 22 C       -4.4980    -9.4340     1.0620 C.ar  1 <1>  -0.1500 
 23 C       -6.8320    -8.1440     0.6230 C.ar  1 <1>   0.3100 
 24 C       -5.7960    -6.5770    -0.9120 C.ar  1 <1>  -0.1500 
 25 C       -5.7050    -9.8090     1.6650 C.ar  1 <1>   0.1600 
 26 N       -6.8340    -9.2040     1.4710 N.ar  1 <1>  -0.6200 
 27 C       -8.0480    -7.4800     0.4000 C.ar  1 <1>  -0.1500 
 28 C       -6.9980    -5.9530    -1.1080 C.ar  1 <1>  -0.1500 
 29 C       -8.1400    -6.4070    -0.4450 C.ar  1 <1>  -0.1500 
 30 H        1.8570    -2.8970     3.2010 H     1 <1>   0.3700 
 31 H        1.9320    -1.6870    -1.4730 H     1 <1>   0.1500 
 32 H       -1.3090    -2.1190    -0.1000 H     1 <1>   0.0800 
 33 H       -0.3770    -1.8610    -1.5420 H     1 <1>   0.0800 
 34 H        4.7420    -0.4790     0.2270 H     1 <1>   0.0800 
 35 H        4.2930    -1.1330    -1.3300 H     1 <1>   0.0800 
 36 H        5.1530    -2.1260    -0.1770 H     1 <1>   0.0800 
 37 H       -0.8980    -4.6000     0.8160 H     1 <1>   0.3700 
 38 H       -1.2220    -6.4920    -1.4950 H     1 <1>   0.0800 
 39 H       -3.2500    -5.9170     0.2270 H     1 <1>   0.0800 
 40 H        0.7260    -6.6040     0.4720 H     1 <1>   0.0800 
 41 H        0.0110    -8.0500    -0.2290 H     1 <1>   0.0800 
 42 H       -2.6590    -7.7190     2.1810 H     1 <1>   0.0800 
 43 H       -2.0010    -6.0920     2.2340 H     1 <1>   0.0800 
 44 H       -2.4380    -8.7820    -0.3690 H     1 <1>   0.0800 
 45 H       -3.2930    -7.7790    -1.4840 H     1 <1>   0.0800 
 46 H       -3.6170   -10.0050     1.2970 H     1 <1>   0.1500 
 47 H       -4.9320    -6.2120    -1.4350 H     1 <1>   0.1500 
 48 H       -5.6920   -10.6530     2.3330 H     1 <1>   0.1500 
 49 H       -8.9140    -7.8480     0.9190 H     1 <1>   0.1500 
 50 H       -7.0800    -5.1100    -1.7730 H     1 <1>   0.1500 
 51 H       -9.0800    -5.9080    -0.6070 H     1 <1>   0.1500 
@<TRIPOS>BOND
  1   1   2  2   
  2   2   3  am  
  3   2   4  am  
  4   3   5  1   
  5   3   6  1   
  6   4   7  am  
  7   4  30  1   
  8   5   8  2   
  9   5  31  1   
 10   6   9  1   
 11   6  32  1   
 12   6  33  1   
 13   7   8  1   
 14   7  10  2   
 15   8  11  1   
 16   9  12  2   
 17   9  13  am  
 18  11  34  1   
 19  11  35  1   
 20  11  36  1   
 21  13  14  1   
 22  13  37  1   
 23  14  15  1   
 24  14  16  1   
 25  14  38  1   
 26  15  17  1   
 27  15  18  1   
 28  15  39  1   
 29  16  19  1   
 30  16  40  1   
 31  16  41  1   
 32  17  19  1   
 33  17  42  1   
 34  17  43  1   
 35  18  20  1   
 36  18  44  1   
 37  18  45  1   
 38  20  21  ar  
 39  20  22  ar  
 40  21  23  ar  
 41  21  24  ar  
 42  22  25  ar  
 43  22  46  1   
 44  23  26  ar  
 45  23  27  ar  
 46  24  28  ar  
 47  24  47  1   
 48  25  26  ar  
 49  25  48  1   
 50  27  29  ar  
 51  27  49  1   
 52  28  29  ar  
 53  28  50  1   
 54  29  51  1   
@<TRIPOS>SUBSTRUCTURE
  1 ****  13 GROUP 4 **** **** 0

# MOE 2024.06 (io_trps.svl 2023.06)
