@<TRIPOS>MOLECULE
NONAME
47 49 1 0 0 
SMALL
USER_CHARGES


@<TRIPOS>ATOM
  1 N       -0.0070     2.8980    -0.6680 N.2   1 <1>  -0.7070 
  2 N       -0.1400     3.5960     0.4740 N.pl3 1 <1>   0.3140 
  3 C       -1.1910     2.4150    -0.9020 C.2   1 <1>   0.1390 
  4 C       -1.4030     3.5440     0.9370 C.2   1 <1>  -0.3020 
  5 C        0.9970     4.3000     1.0850 C.3   1 <1>   0.0960 
  6 C       -2.1090     2.7880     0.0710 C.2   1 <1>  -0.1500 
  7 C        2.0510     4.5640     0.0040 C.3   1 <1>   0.3430 
  8 N        3.2560     5.2900     0.5220 N.4   1 <1>  -0.9590 
  9 C        4.0670     5.8220    -0.6130 C.3   1 <1>   0.4380 
 10 C        4.0960     4.4550     1.4350 C.3   1 <1>   0.2630 
 11 C        4.9130     7.0090    -0.1280 C.3   1 <1>  -0.0630 
 12 C        4.0470     8.0000     0.6430 C.ar  1 <1>  -0.0320 
 13 C        6.0550     7.5230    -0.9550 C.3   1 <1>  -0.1900 
 14 C        6.3430     6.7770     0.3070 C.3   1 <1>  -0.2000 
 15 C        4.1110     8.0800     2.0270 C.ar  1 <1>  -0.1500 
 16 C        3.1510     8.8050    -0.0430 C.ar  1 <1>  -0.1500 
 17 C        6.4330     6.8590    -2.2870 C.3   1 <1>  -0.1450 
 18 C        6.3830     9.0240    -0.9770 C.3   1 <1>  -0.1450 
 19 C        3.2780     8.9450     2.7160 C.ar  1 <1>  -0.1500 
 20 C        2.3170     9.6690     0.6450 C.ar  1 <1>  -0.1500 
 21 C        2.3780     9.7360     2.0260 C.ar  1 <1>  -0.1500 
 22 H       -1.4270     1.7980    -1.7540 H     1 <1>   0.1500 
 23 H       -1.7310     4.0310     1.8380 H     1 <1>   0.1500 
 24 H        1.3920     3.6740     1.8620 H     1 <1>   0.0800 
 25 H        0.6410     5.2250     1.4990 H     1 <1>   0.0800 
 26 H       -3.1500     2.5150     0.0990 H     1 <1>   0.1500 
 27 H        1.5870     5.1490    -0.7750 H     1 <1>   0.0800 
 28 H        2.3540     3.6230    -0.4270 H     1 <1>   0.0800 
 29 H        2.9520     6.1410     1.0300 H     1 <1>   0.4500 
 30 H        3.4120     6.1750    -1.3920 H     1 <1>   0.0800 
 31 H        4.6980     5.0510    -1.0230 H     1 <1>   0.0800 
 32 H        4.4520     3.5780     0.9200 H     1 <1>   0.0800 
 33 H        3.5260     4.1430     2.2950 H     1 <1>   0.0800 
 34 H        4.9470     5.0210     1.7790 H     1 <1>   0.0800 
 35 H        6.7880     5.8010     0.2230 H     1 <1>   0.1000 
 36 H        6.7560     7.3360     1.1290 H     1 <1>   0.1000 
 37 H        4.8110     7.4790     2.5790 H     1 <1>   0.1500 
 38 H        3.1010     8.7690    -1.1170 H     1 <1>   0.1500 
 39 H        6.3270     5.7910    -2.2520 H     1 <1>   0.0800 
 40 H        7.4610     7.0760    -2.5250 H     1 <1>   0.0800 
 41 H        5.8180     7.2430    -3.0820 H     1 <1>   0.0800 
 42 H        6.2030     9.4830    -0.0210 H     1 <1>   0.0800 
 43 H        5.7790     9.5280    -1.7110 H     1 <1>   0.0800 
 44 H        7.4190     9.1760    -1.2250 H     1 <1>   0.0800 
 45 H        3.3320     9.0100     3.7900 H     1 <1>   0.1500 
 46 H        1.6240    10.2960     0.1080 H     1 <1>   0.1500 
 47 H        1.7320    10.4120     2.5610 H     1 <1>   0.1500 
@<TRIPOS>BOND
  1   1   2  1   
  2   1   3  2   
  3   2   4  1   
  4   2   5  1   
  5   3   6  1   
  6   3  22  1   
  7   4   6  2   
  8   4  23  1   
  9   5   7  1   
 10   5  24  1   
 11   5  25  1   
 12   6  26  1   
 13   7   8  1   
 14   7  27  1   
 15   7  28  1   
 16   8   9  1   
 17   8  10  1   
 18   8  29  1   
 19   9  11  1   
 20   9  30  1   
 21   9  31  1   
 22  10  32  1   
 23  10  33  1   
 24  10  34  1   
 25  11  12  1   
 26  11  13  1   
 27  11  14  1   
 28  12  15  ar  
 29  12  16  ar  
 30  13  14  1   
 31  13  17  1   
 32  13  18  1   
 33  14  35  1   
 34  14  36  1   
 35  15  19  ar  
 36  15  37  1   
 37  16  20  ar  
 38  16  38  1   
 39  17  39  1   
 40  17  40  1   
 41  17  41  1   
 42  18  42  1   
 43  18  43  1   
 44  18  44  1   
 45  19  21  ar  
 46  19  45  1   
 47  20  21  ar  
 48  20  46  1   
 49  21  47  1   
@<TRIPOS>SUBSTRUCTURE
  1 ****   8 GROUP 4 **** **** 0

# MOE 2024.06 (io_trps.svl 2023.06)
