@<TRIPOS>MOLECULE
NONAME
45 46 1 0 0 
SMALL
USER_CHARGES


@<TRIPOS>ATOM
  1 CL      -0.6810    -0.4440    -1.8370 Cl    1 <1>  -0.1770 
  2 C       -0.8210    -2.1030    -1.3130 C.ar  1 <1>   0.1770 
  3 C       -0.6850    -3.1200    -2.2390 C.ar  1 <1>  -0.1500 
  4 C       -1.0650    -2.3740     0.0210 C.ar  1 <1>  -0.1500 
  5 C       -0.7970    -4.4340    -1.8180 C.ar  1 <1>  -0.1500 
  6 C       -1.1770    -3.6900     0.4390 C.ar  1 <1>  -0.1500 
  7 C       -1.0450    -4.7260    -0.4840 C.ar  1 <1>   0.0830 
  8 O       -1.1450    -6.0390    -0.1620 O.3   1 <1>  -0.3630 
  9 C       -1.4440    -6.4530     1.1640 C.3   1 <1>   0.1810 
 10 C       -1.5490    -7.9720     1.2730 C.2   1 <1>   0.5690 
 11 O       -0.8130    -8.5300     2.0540 O.2   1 <1>  -0.5700 
 12 N       -2.4730    -8.6760     0.5450 N.am  1 <1>  -0.6600 
 13 C       -3.3900    -8.1230    -0.4840 C.3   1 <1>   0.1400 
 14 C       -2.6280   -10.1450     0.6600 C.3   1 <1>   0.1400 
 15 C       -4.0480    -9.3490    -1.1150 C.3   1 <1>   0.2000 
 16 C       -3.9340   -10.4600    -0.0750 C.3   1 <1>  -0.0800 
 17 O       -5.3790    -9.1220    -1.4210 O.3   1 <1>  -0.6800 
 18 C       -3.9850   -11.8600    -0.7090 C.3   1 <1>  -0.0550 
 19 S       -3.9710   -13.1830     0.4990 S.o2  1 <1>   1.3330 
 20 O       -5.1510   -13.0380     1.3210 O.2   1 <1>  -0.6500 
 21 O       -2.6660   -13.2400     1.1190 O.2   1 <1>  -0.6500 
 22 N       -4.1520   -14.5720    -0.4600 N.am  1 <1>  -0.8490 
 23 C       -2.8880   -15.0640    -1.0200 C.3   1 <1>   0.1160 
 24 C       -4.8350   -15.6550     0.2540 C.3   1 <1>   0.1160 
 25 H       -0.4930    -2.8830    -3.2700 H     1 <1>   0.1500 
 26 H       -1.1640    -1.5610     0.7180 H     1 <1>   0.1500 
 27 H       -0.6920    -5.2400    -2.5220 H     1 <1>   0.1500 
 28 H       -1.3640    -3.8810     1.4790 H     1 <1>   0.1500 
 29 H       -0.6550    -6.1070     1.8070 H     1 <1>   0.0800 
 30 H       -2.3770    -6.0120     1.4580 H     1 <1>   0.0800 
 31 H       -4.1210    -7.4920    -0.0100 H     1 <1>   0.0800 
 32 H       -2.8410    -7.5700    -1.2260 H     1 <1>   0.0800 
 33 H       -1.7870   -10.6220     0.1850 H     1 <1>   0.0800 
 34 H       -2.6680   -10.4480     1.6940 H     1 <1>   0.0800 
 35 H       -3.5310    -9.6070    -2.0240 H     1 <1>   0.0800 
 36 H       -4.7330   -10.3620     0.6410 H     1 <1>   0.0800 
 37 H       -5.8980    -8.9640    -0.6080 H     1 <1>   0.4000 
 38 H       -3.1570   -11.9790    -1.3800 H     1 <1>   0.0800 
 39 H       -4.8870   -11.9380    -1.2850 H     1 <1>   0.0800 
 40 H       -3.0750   -15.8860    -1.6880 H     1 <1>   0.0800 
 41 H       -2.2310   -15.3950    -0.2320 H     1 <1>   0.0800 
 42 H       -2.3970   -14.2820    -1.5730 H     1 <1>   0.0800 
 43 H       -4.9480   -16.5130    -0.3860 H     1 <1>   0.0800 
 44 H       -5.8170   -15.3340     0.5590 H     1 <1>   0.0800 
 45 H       -4.2760   -15.9370     1.1310 H     1 <1>   0.0800 
@<TRIPOS>BOND
  1   1   2  1   
  2   2   3  ar  
  3   2   4  ar  
  4   3   5  ar  
  5   3  25  1   
  6   4   6  ar  
  7   4  26  1   
  8   5   7  ar  
  9   5  27  1   
 10   6   7  ar  
 11   6  28  1   
 12   7   8  1   
 13   8   9  1   
 14   9  10  1   
 15   9  29  1   
 16   9  30  1   
 17  10  11  2   
 18  10  12  am  
 19  12  13  1   
 20  12  14  1   
 21  13  15  1   
 22  13  31  1   
 23  13  32  1   
 24  14  16  1   
 25  14  33  1   
 26  14  34  1   
 27  15  16  1   
 28  15  17  1   
 29  15  35  1   
 30  16  18  1   
 31  16  36  1   
 32  17  37  1   
 33  18  19  1   
 34  18  38  1   
 35  18  39  1   
 36  19  20  2   
 37  19  21  2   
 38  19  22  am  
 39  22  23  1   
 40  22  24  1   
 41  23  40  1   
 42  23  41  1   
 43  23  42  1   
 44  24  43  1   
 45  24  44  1   
 46  24  45  1   
@<TRIPOS>SUBSTRUCTURE
  1 ****  12 GROUP 4 **** **** 0

# MOE 2024.06 (io_trps.svl 2023.06)
