@<TRIPOS>MOLECULE
NONAME
42 44 1 0 0 
SMALL
USER_CHARGES


@<TRIPOS>ATOM
  1 O        0.7120    -0.4490    -1.4390 O.3   1 <1>  -0.0190 
  2 N        1.0810     0.7950    -1.4640 N.2   1 <1>  -0.4100 
  3 C        1.2070    -0.9080    -0.3160 C.2   1 <1>   0.2980 
  4 C        1.7620     1.0060    -0.4060 C.2   1 <1>   0.3350 
  5 N        1.8680    -0.0650     0.3740 N.2   1 <1>  -0.5650 
  6 C        0.9840    -2.3770     0.0360 C.3   1 <1>   0.2900 
  7 C        2.3840     2.3470    -0.0240 C.3   1 <1>   0.3010 
  8 N       -0.4070    -2.7060     0.4380 N.3   1 <1>  -0.8100 
  9 O        3.7560     2.3740    -0.3190 O.3   1 <1>  -0.5600 
 10 C       -1.4160    -2.4760    -0.6050 C.3   1 <1>   0.1100 
 11 C       -0.5640    -4.1000     0.8830 C.3   1 <1>   0.1100 
 12 C        4.3910     3.5600     0.0310 C.3   1 <1>   0.0400 
 13 C       -2.6060    -3.3190    -0.1630 C.3   1 <1>   0.2000 
 14 C       -1.9470    -4.5760     0.3990 C.3   1 <1>  -0.0800 
 15 O       -3.2190    -2.6570     0.8820 O.3   1 <1>  -0.6800 
 16 C       -1.8430    -5.6720    -0.6790 C.3   1 <1>   0.0200 
 17 C       -1.1020    -6.8960    -0.1740 C.2   1 <1>  -0.0400 
 18 O       -1.5220    -7.5240     0.8920 O.3   1 <1>  -0.0190 
 19 C       -0.0090    -7.5310    -0.6230 C.2   1 <1>  -0.1500 
 20 N       -0.7650    -8.5420     1.1830 N.2   1 <1>  -0.4100 
 21 C        0.1540    -8.5720     0.2870 C.2   1 <1>   0.1080 
 22 C        1.2580    -9.6050     0.2360 C.3   1 <1>  -0.0590 
 23 H        1.6400    -2.6170     0.8550 H     1 <1>   0.0800 
 24 H        1.2720    -2.9800    -0.8060 H     1 <1>   0.0800 
 25 H        2.2550     2.5100     1.0300 H     1 <1>   0.0800 
 26 H        1.9030     3.1340    -0.5760 H     1 <1>   0.0800 
 27 H       -1.6770    -1.4340    -0.6860 H     1 <1>   0.0800 
 28 H       -1.0550    -2.8290    -1.5560 H     1 <1>   0.0800 
 29 H        0.2210    -4.7220     0.4850 H     1 <1>   0.0800 
 30 H       -0.5140    -4.1360     1.9590 H     1 <1>   0.0800 
 31 H        5.4280     3.4740    -0.2400 H     1 <1>   0.0800 
 32 H        4.3060     3.7100     1.0930 H     1 <1>   0.0800 
 33 H        3.9430     4.3770    -0.5080 H     1 <1>   0.0800 
 34 H       -3.3340    -3.4980    -0.9360 H     1 <1>   0.0800 
 35 H       -2.5180    -4.9700     1.2230 H     1 <1>   0.0800 
 36 H       -2.5000    -2.3220     1.4610 H     1 <1>   0.4000 
 37 H       -1.3350    -5.2920    -1.5480 H     1 <1>   0.0800 
 38 H       -2.8320    -5.9710    -0.9760 H     1 <1>   0.0800 
 39 H        0.6160    -7.3200    -1.4710 H     1 <1>   0.1500 
 40 H        1.2100   -10.1450    -0.6910 H     1 <1>   0.0800 
 41 H        1.1460   -10.3010     1.0490 H     1 <1>   0.0800 
 42 H        2.2140    -9.1240     0.3190 H     1 <1>   0.0800 
@<TRIPOS>BOND
  1   1   2  1   
  2   1   3  1   
  3   2   4  2   
  4   3   5  2   
  5   3   6  1   
  6   4   5  1   
  7   4   7  1   
  8   6   8  1   
  9   6  23  1   
 10   6  24  1   
 11   7   9  1   
 12   7  25  1   
 13   7  26  1   
 14   8  10  1   
 15   8  11  1   
 16   9  12  1   
 17  10  13  1   
 18  10  27  1   
 19  10  28  1   
 20  11  14  1   
 21  11  29  1   
 22  11  30  1   
 23  12  31  1   
 24  12  32  1   
 25  12  33  1   
 26  13  14  1   
 27  13  15  1   
 28  13  34  1   
 29  14  16  1   
 30  14  35  1   
 31  15  36  1   
 32  16  17  1   
 33  16  37  1   
 34  16  38  1   
 35  17  18  1   
 36  17  19  2   
 37  18  20  1   
 38  19  21  1   
 39  19  39  1   
 40  20  21  2   
 41  21  22  1   
 42  22  40  1   
 43  22  41  1   
 44  22  42  1   
@<TRIPOS>SUBSTRUCTURE
  1 ****   8 GROUP 4 **** **** 0

# MOE 2024.06 (io_trps.svl 2023.06)
