@<TRIPOS>MOLECULE
NONAME
51 54 1 0 0 
SMALL
USER_CHARGES


@<TRIPOS>ATOM
  1 O       -0.8830     0.1040     1.7260 O.2   1 <1>  -0.5700 
  2 C       -1.5110     0.7140     0.8920 C.2   1 <1>   0.5690 
  3 N       -2.3610     0.0370     0.0510 N.am  1 <1>  -0.6600 
  4 C       -1.3060     2.2360     0.8560 C.3   1 <1>  -0.0190 
  5 C       -3.2340     0.5620    -1.0310 C.3   1 <1>   0.1400 
  6 C       -2.5520    -1.4320     0.1750 C.3   1 <1>   0.1400 
  7 C       -2.5090     3.0150     1.4280 C.3   1 <1>  -0.1600 
  8 C       -0.8620     2.7930    -0.5140 C.3   1 <1>  -0.1600 
  9 C       -4.3130    -0.5040    -1.1940 C.3   1 <1>   0.2000 
 10 C       -3.5660    -1.8130    -0.9130 C.3   1 <1>  -0.0800 
 11 C       -2.2280     4.5240     1.4780 C.3   1 <1>  -0.1600 
 12 C       -0.5830     4.3000    -0.4360 C.3   1 <1>  -0.1600 
 13 O       -5.2730    -0.2920    -0.2160 O.3   1 <1>  -0.6800 
 14 C       -4.4780    -3.0020    -0.5400 C.3   1 <1>  -0.0170 
 15 C       -1.8010     5.0610     0.1050 C.3   1 <1>  -0.1600 
 16 C       -3.8060    -4.3740    -0.4040 C.ar  1 <1>  -0.1440 
 17 C       -4.5520    -5.4710     0.0960 C.ar  1 <1>   0.0000 
 18 C       -2.5060    -4.6200    -0.7520 C.ar  1 <1>  -0.1500 
 19 C       -3.8980    -6.7220     0.2190 C.ar  1 <1>   0.3100 
 20 C       -5.9140    -5.4030     0.4770 C.ar  1 <1>  -0.1500 
 21 C       -1.9570    -5.8980    -0.5930 C.ar  1 <1>   0.1600 
 22 N       -2.6020    -6.9180    -0.1290 N.ar  1 <1>  -0.6200 
 23 C       -4.6140    -7.8220     0.7180 C.ar  1 <1>  -0.1500 
 24 C       -6.5840    -6.4940     0.9580 C.ar  1 <1>  -0.1500 
 25 C       -5.9290    -7.7210     1.0830 C.ar  1 <1>  -0.1500 
 26 H       -0.4860     2.4260     1.5280 H     1 <1>   0.0800 
 27 H       -3.6630     1.5180    -0.8000 H     1 <1>   0.0800 
 28 H       -2.6580     0.6330    -1.9370 H     1 <1>   0.0800 
 29 H       -1.6120    -1.9410     0.0470 H     1 <1>   0.0800 
 30 H       -2.9370    -1.6530     1.1570 H     1 <1>   0.0800 
 31 H       -3.3850     2.8460     0.8320 H     1 <1>   0.0800 
 32 H       -2.7180     2.6610     2.4220 H     1 <1>   0.0800 
 33 H        0.0280     2.2800    -0.8360 H     1 <1>   0.0800 
 34 H       -1.6220     2.6320    -1.2530 H     1 <1>   0.0800 
 35 H       -4.7920    -0.4810    -2.1580 H     1 <1>   0.0800 
 36 H       -3.0230    -2.0590    -1.8080 H     1 <1>   0.0800 
 37 H       -3.1090     5.0440     1.8110 H     1 <1>   0.0800 
 38 H       -1.4440     4.7160     2.1910 H     1 <1>   0.0800 
 39 H        0.2620     4.4760     0.2090 H     1 <1>   0.0800 
 40 H       -0.3310     4.6720    -1.4150 H     1 <1>   0.0800 
 41 H       -4.8190    -0.1670     0.6430 H     1 <1>   0.4000 
 42 H       -5.2490    -3.0820    -1.2860 H     1 <1>   0.0800 
 43 H       -4.9580    -2.7730     0.3950 H     1 <1>   0.0800 
 44 H       -1.5630     6.1070     0.1880 H     1 <1>   0.0800 
 45 H       -2.6200     4.9640    -0.5870 H     1 <1>   0.0800 
 46 H       -1.8580    -3.8680    -1.1550 H     1 <1>   0.1500 
 47 H       -6.4450    -4.4740     0.3870 H     1 <1>   0.1500 
 48 H       -0.9280    -6.0400    -0.8770 H     1 <1>   0.1500 
 49 H       -4.0890    -8.7550     0.8030 H     1 <1>   0.1500 
 50 H       -7.6200    -6.4240     1.2450 H     1 <1>   0.1500 
 51 H       -6.4660    -8.5730     1.4640 H     1 <1>   0.1500 
@<TRIPOS>BOND
  1   1   2  2   
  2   2   3  am  
  3   2   4  1   
  4   3   5  1   
  5   3   6  1   
  6   4   7  1   
  7   4   8  1   
  8   4  26  1   
  9   5   9  1   
 10   5  27  1   
 11   5  28  1   
 12   6  10  1   
 13   6  29  1   
 14   6  30  1   
 15   7  11  1   
 16   7  31  1   
 17   7  32  1   
 18   8  12  1   
 19   8  33  1   
 20   8  34  1   
 21   9  10  1   
 22   9  13  1   
 23   9  35  1   
 24  10  14  1   
 25  10  36  1   
 26  11  15  1   
 27  11  37  1   
 28  11  38  1   
 29  12  15  1   
 30  12  39  1   
 31  12  40  1   
 32  13  41  1   
 33  14  16  1   
 34  14  42  1   
 35  14  43  1   
 36  15  44  1   
 37  15  45  1   
 38  16  17  ar  
 39  16  18  ar  
 40  17  19  ar  
 41  17  20  ar  
 42  18  21  ar  
 43  18  46  1   
 44  19  22  ar  
 45  19  23  ar  
 46  20  24  ar  
 47  20  47  1   
 48  21  22  ar  
 49  21  48  1   
 50  23  25  ar  
 51  23  49  1   
 52  24  25  ar  
 53  24  50  1   
 54  25  51  1   
@<TRIPOS>SUBSTRUCTURE
  1 ****   6 GROUP 4 **** **** 0

# MOE 2024.06 (io_trps.svl 2023.06)
