@<TRIPOS>MOLECULE
NONAME
51 54 1 0 0 
SMALL
USER_CHARGES


@<TRIPOS>ATOM
  1 O       -0.9130    -3.5960     1.9970 O.co2 1 <1>  -0.9000 
  2 C       -0.9020    -2.8710     0.9860 C.2   1 <1>   1.0330 
  3 O       -1.8860    -2.1300     0.8050 O.co2 1 <1>  -0.9000 
  4 C        0.1370    -2.9600     0.0190 C.2   1 <1>  -0.2330 
  5 C        0.1480    -3.8740    -1.0260 C.2   1 <1>   0.3720 
  6 C        1.2930    -2.2710    -0.1460 C.2   1 <1>   0.0870 
  7 N        1.2070    -3.7630    -1.7440 N.2   1 <1>  -0.4100 
  8 N       -0.8660    -4.7910    -1.2800 N.pl3 1 <1>  -0.8210 
  9 O        1.8900    -2.7890    -1.1970 O.3   1 <1>  -0.0190 
 10 C        1.8940    -1.1760     0.5770 C.ar  1 <1>   0.0530 
 11 C       -0.6880    -6.2100    -0.8990 C.3   1 <1>   0.2090 
 12 C       -1.8550    -4.5080    -2.3440 C.3   1 <1>   0.2090 
 13 C        1.1370    -0.3190     1.3770 C.ar  1 <1>  -0.1500 
 14 C        3.2660    -0.9300     0.4980 C.ar  1 <1>  -0.1500 
 15 C       -2.0600    -6.7720    -0.4580 C.3   1 <1>   0.0000 
 16 C       -3.2230    -5.0680    -1.8960 C.3   1 <1>   0.0000 
 17 C        1.7200     0.7280     2.0680 C.ar  1 <1>  -0.1500 
 18 C        3.8550     0.1160     1.1850 C.ar  1 <1>  -0.1500 
 19 C       -2.4980    -5.9760     0.7990 C.3   1 <1>   0.3430 
 20 C       -3.0670    -6.5830    -1.6180 C.3   1 <1>  -0.1600 
 21 C       -1.9330    -8.2680    -0.1220 C.3   1 <1>  -0.2400 
 22 C       -3.6320    -4.3000    -0.6110 C.3   1 <1>   0.3430 
 23 C       -4.2710    -4.8510    -3.0010 C.3   1 <1>  -0.2400 
 24 C        3.0820     0.9480     1.9730 C.ar  1 <1>  -0.1500 
 25 N       -3.7540    -5.1750     0.6030 N.4   1 <1>  -0.9590 
 26 C       -3.9500    -4.2990     1.7990 C.3   1 <1>   0.2630 
 27 H        0.0280    -6.2790    -0.0960 H     1 <1>   0.0800 
 28 H       -0.3050    -6.7570    -1.7430 H     1 <1>   0.0800 
 29 H       -1.5320    -4.9740    -3.2590 H     1 <1>   0.0800 
 30 H       -1.9130    -3.4440    -2.5060 H     1 <1>   0.0800 
 31 H        0.0740    -0.4670     1.4590 H     1 <1>   0.1500 
 32 H        3.8780    -1.5720    -0.1100 H     1 <1>   0.1500 
 33 H        1.1080     1.3690     2.6780 H     1 <1>   0.1500 
 34 H        4.9150     0.2810     1.1060 H     1 <1>   0.1500 
 35 H       -1.6970    -5.3130     1.0640 H     1 <1>   0.0800 
 36 H       -2.6300    -6.6530     1.6260 H     1 <1>   0.0800 
 37 H       -4.0180    -7.0170    -1.3630 H     1 <1>   0.0800 
 38 H       -2.7070    -7.0820    -2.5010 H     1 <1>   0.0800 
 39 H       -1.2170    -8.4180     0.6670 H     1 <1>   0.0800 
 40 H       -1.6050    -8.8220    -0.9850 H     1 <1>   0.0800 
 41 H       -2.8800    -8.6680     0.1970 H     1 <1>   0.0800 
 42 H       -4.5640    -3.7870    -0.7790 H     1 <1>   0.0800 
 43 H       -2.8900    -3.5470    -0.4260 H     1 <1>   0.0800 
 44 H       -3.9790    -5.3610    -3.9030 H     1 <1>   0.0800 
 45 H       -4.3720    -3.8030    -3.2250 H     1 <1>   0.0800 
 46 H       -5.2310    -5.2280    -2.6950 H     1 <1>   0.0800 
 47 H        3.5350     1.7620     2.5110 H     1 <1>   0.1500 
 48 H       -4.5440    -5.8130     0.4810 H     1 <1>   0.4500 
 49 H       -3.1230    -3.6200     1.9100 H     1 <1>   0.0800 
 50 H       -4.0170    -4.8930     2.6950 H     1 <1>   0.0800 
 51 H       -4.8480    -3.7150     1.6950 H     1 <1>   0.0800 
@<TRIPOS>BOND
  1   1   2  ar  
  2   2   3  ar  
  3   2   4  1   
  4   4   5  1   
  5   4   6  2   
  6   5   7  2   
  7   5   8  1   
  8   6   9  1   
  9   6  10  1   
 10   7   9  1   
 11   8  11  1   
 12   8  12  1   
 13  10  13  ar  
 14  10  14  ar  
 15  11  15  1   
 16  11  27  1   
 17  11  28  1   
 18  12  16  1   
 19  12  29  1   
 20  12  30  1   
 21  13  17  ar  
 22  13  31  1   
 23  14  18  ar  
 24  14  32  1   
 25  15  19  1   
 26  15  20  1   
 27  15  21  1   
 28  16  20  1   
 29  16  22  1   
 30  16  23  1   
 31  17  24  ar  
 32  17  33  1   
 33  18  24  ar  
 34  18  34  1   
 35  19  25  1   
 36  19  35  1   
 37  19  36  1   
 38  20  37  1   
 39  20  38  1   
 40  21  39  1   
 41  21  40  1   
 42  21  41  1   
 43  22  25  1   
 44  22  42  1   
 45  22  43  1   
 46  23  44  1   
 47  23  45  1   
 48  23  46  1   
 49  24  47  1   
 50  25  26  1   
 51  25  48  1   
 52  26  49  1   
 53  26  50  1   
 54  26  51  1   
@<TRIPOS>SUBSTRUCTURE
  1 ****   4 GROUP 4 **** **** 0

# MOE 2024.06 (io_trps.svl 2023.06)
