@<TRIPOS>MOLECULE
NONAME
50 53 1 0 0 
SMALL
USER_CHARGES


@<TRIPOS>ATOM
  1 O        0.6390     0.3560    -0.1670 O.3   1 <1>  -0.6800 
  2 C        1.8500    -0.0140    -0.7350 C.3   1 <1>   0.2000 
  3 C        2.3720    -1.2240     0.0390 C.3   1 <1>  -0.0800 
  4 C        2.8700     1.0990    -0.4380 C.3   1 <1>   0.3430 
  5 C        2.9490    -0.5520     1.2870 C.3   1 <1>   0.3430 
  6 C        3.4320    -2.0010    -0.7770 C.3   1 <1>  -0.0170 
  7 N        3.6430     0.6500     0.7660 N.4   1 <1>  -0.9590 
  8 C        4.0830    -3.1200     0.0230 C.ar  1 <1>   0.1670 
  9 C        3.8500     1.7190     1.7750 C.3   1 <1>   0.5240 
 10 N        4.9920    -2.7540     0.9140 N.ar  1 <1>  -0.6200 
 11 C        3.7190    -4.4460    -0.2070 C.ar  1 <1>   0.1600 
 12 C        4.5350     2.9080     1.1300 C.2   1 <1>  -0.1810 
 13 C        5.5140    -3.7960     1.5460 C.ar  1 <1>   0.1600 
 14 N        4.2320    -5.4820     0.4330 N.ar  1 <1>  -0.6200 
 15 C        5.6220     2.8750     0.2480 C.2   1 <1>   0.2350 
 16 C        4.2240     4.2150     1.2580 C.2   1 <1>  -0.3020 
 17 C        5.1450    -5.1150     1.3140 C.ar  1 <1>   0.1600 
 18 N        5.9330     4.0800    -0.1460 N.2   1 <1>  -0.7070 
 19 C        6.2790     1.6780    -0.2250 C.ar  1 <1>   0.0540 
 20 N        5.0860     4.9010     0.4850 N.pl3 1 <1>   0.3140 
 21 C        6.3340     1.4000    -1.5880 C.ar  1 <1>  -0.1500 
 22 C        6.8170     0.7420     0.6560 C.ar  1 <1>  -0.1500 
 23 C        5.1420     6.3580     0.3080 C.3   1 <1>   0.0160 
 24 C        6.8590     0.2080    -2.0550 C.ar  1 <1>  -0.1500 
 25 C        7.3380    -0.4520     0.1950 C.ar  1 <1>  -0.1500 
 26 C        7.3520    -0.7250    -1.1610 C.ar  1 <1>  -0.1500 
 27 H       -0.0970    -0.2090    -0.4840 H     1 <1>   0.4000 
 28 H        1.7040    -0.1780    -1.7900 H     1 <1>   0.0800 
 29 H        1.5770    -1.8980     0.3080 H     1 <1>   0.0800 
 30 H        2.3550     2.0280    -0.2560 H     1 <1>   0.0800 
 31 H        3.5420     1.2230    -1.2710 H     1 <1>   0.0800 
 32 H        3.6120    -1.1930     1.8430 H     1 <1>   0.0800 
 33 H        2.1340    -0.2510     1.9250 H     1 <1>   0.0800 
 34 H        4.2120    -1.3440    -1.1220 H     1 <1>   0.0800 
 35 H        2.9650    -2.4180    -1.6520 H     1 <1>   0.0800 
 36 H        4.5800     0.3520     0.4470 H     1 <1>   0.4500 
 37 H        2.9010     2.0300     2.1810 H     1 <1>   0.0800 
 38 H        4.4610     1.3480     2.5820 H     1 <1>   0.0800 
 39 H        2.9720    -4.6660    -0.9500 H     1 <1>   0.1500 
 40 H        6.2720    -3.6010     2.2850 H     1 <1>   0.1500 
 41 H        3.4570     4.7000     1.8360 H     1 <1>   0.1500 
 42 H        5.6240    -5.8960     1.8780 H     1 <1>   0.1500 
 43 H        5.9640     2.1340    -2.2830 H     1 <1>   0.1500 
 44 H        6.8340     0.9540     1.7110 H     1 <1>   0.1500 
 45 H        5.3270     6.8230     1.2570 H     1 <1>   0.0800 
 46 H        4.2090     6.7030    -0.0950 H     1 <1>   0.0800 
 47 H        5.9390     6.6000    -0.3720 H     1 <1>   0.0800 
 48 H        6.8930     0.0100    -3.1130 H     1 <1>   0.1500 
 49 H        7.7410    -1.1730     0.8860 H     1 <1>   0.1500 
 50 H        7.7600    -1.6550    -1.5200 H     1 <1>   0.1500 
@<TRIPOS>BOND
  1   1   2  1   
  2   1  27  1   
  3   2   3  1   
  4   2   4  1   
  5   2  28  1   
  6   3   5  1   
  7   3   6  1   
  8   3  29  1   
  9   4   7  1   
 10   4  30  1   
 11   4  31  1   
 12   5   7  1   
 13   5  32  1   
 14   5  33  1   
 15   6   8  1   
 16   6  34  1   
 17   6  35  1   
 18   7   9  1   
 19   7  36  1   
 20   8  10  ar  
 21   8  11  ar  
 22   9  12  1   
 23   9  37  1   
 24   9  38  1   
 25  10  13  ar  
 26  11  14  ar  
 27  11  39  1   
 28  12  15  1   
 29  12  16  2   
 30  13  17  ar  
 31  13  40  1   
 32  14  17  ar  
 33  15  18  2   
 34  15  19  1   
 35  16  20  1   
 36  16  41  1   
 37  17  42  1   
 38  18  20  1   
 39  19  21  ar  
 40  19  22  ar  
 41  20  23  1   
 42  21  24  ar  
 43  21  43  1   
 44  22  25  ar  
 45  22  44  1   
 46  23  45  1   
 47  23  46  1   
 48  23  47  1   
 49  24  26  ar  
 50  24  48  1   
 51  25  26  ar  
 52  25  49  1   
 53  26  50  1   
@<TRIPOS>SUBSTRUCTURE
  1 ****   7 GROUP 4 **** **** 0

# MOE 2024.06 (io_trps.svl 2023.06)
