@<TRIPOS>MOLECULE
NONAME
59 62 1 0 0 
SMALL
USER_CHARGES


@<TRIPOS>ATOM
  1 N       -1.6080    -0.3090    -0.3690 N.ar  1 <1>  -0.6200 
  2 C       -0.2800    -0.2480    -0.3690 C.ar  1 <1>   0.7710 
  3 C       -2.2650     0.7120     0.1420 C.ar  1 <1>   0.4100 
  4 N        0.3770     0.8230     0.1080 N.ar  1 <1>  -0.1790 
  5 N        0.4510    -1.2840    -0.8710 N.pl3 1 <1>  -0.8380 
  6 N       -3.6130     0.6100     0.1250 N.pl3 1 <1>  -0.8380 
  7 C       -1.6190     1.8520     0.6750 C.ar  1 <1>  -0.1430 
  8 C       -0.2620     1.8910     0.6370 C.ar  1 <1>   0.2180 
  9 C       -0.1900    -2.4710    -1.5240 C.3   1 <1>   0.1290 
 10 C        1.9410    -1.4440    -0.8030 C.3   1 <1>   0.1290 
 11 C       -4.3120    -0.3500     1.0420 C.3   1 <1>   0.2090 
 12 C       -4.4220     1.2480    -0.9450 C.3   1 <1>   0.2090 
 13 C       -2.4350     2.9970     1.2810 C.3   1 <1>  -0.0170 
 14 C        0.5750     3.0540     1.1630 C.3   1 <1>  -0.0170 
 15 C       -5.0420    -1.4730     0.2800 C.3   1 <1>   0.3430 
 16 C       -4.3330     0.4160    -2.2290 C.3   1 <1>  -0.1600 
 17 C       -1.5790     3.9330     2.1450 C.3   1 <1>  -0.1600 
 18 C       -0.2760     4.3040     1.4280 C.3   1 <1>  -0.1600 
 19 N       -4.3480    -1.7680    -1.0140 N.4   1 <1>  -0.9590 
 20 C       -4.9190    -0.9970    -2.1470 C.3   1 <1>   0.3430 
 21 C       -4.2310    -3.2370    -1.2950 C.3   1 <1>   0.4860 
 22 C       -3.6000    -4.0100    -0.1340 C.ar  1 <1>   0.1670 
 23 N       -2.5710    -3.4420     0.4850 N.ar  1 <1>  -0.6200 
 24 C       -4.1300    -5.2420     0.2210 C.ar  1 <1>  -0.1500 
 25 C       -2.0510    -4.1310     1.4910 C.ar  1 <1>   0.1600 
 26 C       -3.5790    -5.9450     1.2710 C.ar  1 <1>  -0.1500 
 27 C       -2.5100    -5.3640     1.9160 C.ar  1 <1>  -0.1500 
 28 H        1.3840     0.7800     0.0330 H     1 <1>   0.4570 
 29 H       -1.2170    -2.2810    -1.7800 H     1 <1>   0.0800 
 30 H       -0.1540    -3.3170    -0.8590 H     1 <1>   0.0800 
 31 H        0.3350    -2.7220    -2.4300 H     1 <1>   0.0800 
 32 H        2.3760    -0.8530    -0.0160 H     1 <1>   0.0800 
 33 H        2.3830    -1.1670    -1.7460 H     1 <1>   0.0800 
 34 H        2.1890    -2.4750    -0.6050 H     1 <1>   0.0800 
 35 H       -5.0120     0.1820     1.6640 H     1 <1>   0.0800 
 36 H       -3.5840    -0.8040     1.6940 H     1 <1>   0.0800 
 37 H       -4.0350     2.2340    -1.1410 H     1 <1>   0.0800 
 38 H       -5.4460     1.3540    -0.6270 H     1 <1>   0.0800 
 39 H       -3.2320     2.6040     1.8880 H     1 <1>   0.0800 
 40 H       -2.8800     3.5650     0.4830 H     1 <1>   0.0800 
 41 H        1.3480     3.3090     0.4590 H     1 <1>   0.0800 
 42 H        1.0450     2.7520     2.0830 H     1 <1>   0.0800 
 43 H       -6.0600    -1.1770     0.0920 H     1 <1>   0.0800 
 44 H       -5.0640    -2.3450     0.9110 H     1 <1>   0.0800 
 45 H       -3.3070     0.3580    -2.5460 H     1 <1>   0.0800 
 46 H       -4.8610     0.9440    -3.0030 H     1 <1>   0.0800 
 47 H       -1.3510     3.4520     3.0810 H     1 <1>   0.0800 
 48 H       -2.1400     4.8260     2.3660 H     1 <1>   0.0800 
 49 H       -0.5120     4.7870     0.4950 H     1 <1>   0.0800 
 50 H        0.2830     5.0030     2.0260 H     1 <1>   0.0800 
 51 H       -3.3810    -1.4100    -0.8400 H     1 <1>   0.4500 
 52 H       -4.7020    -1.5030    -3.0740 H     1 <1>   0.0800 
 53 H       -5.9900    -0.9420    -2.0450 H     1 <1>   0.0800 
 54 H       -3.6170    -3.3820    -2.1670 H     1 <1>   0.0800 
 55 H       -5.2060    -3.6450    -1.5000 H     1 <1>   0.0800 
 56 H       -4.9660    -5.6640    -0.3100 H     1 <1>   0.1500 
 57 H       -1.2130    -3.6920     2.0070 H     1 <1>   0.1500 
 58 H       -3.9630    -6.9060     1.5740 H     1 <1>   0.1500 
 59 H       -2.0350    -5.8640     2.7430 H     1 <1>   0.1500 
@<TRIPOS>BOND
  1   1   2  ar  
  2   1   3  ar  
  3   2   4  ar  
  4   2   5  1   
  5   3   6  1   
  6   3   7  ar  
  7   4   8  ar  
  8   4  28  1   
  9   5   9  1   
 10   5  10  1   
 11   6  11  1   
 12   6  12  1   
 13   7   8  ar  
 14   7  13  1   
 15   8  14  1   
 16   9  29  1   
 17   9  30  1   
 18   9  31  1   
 19  10  32  1   
 20  10  33  1   
 21  10  34  1   
 22  11  15  1   
 23  11  35  1   
 24  11  36  1   
 25  12  16  1   
 26  12  37  1   
 27  12  38  1   
 28  13  17  1   
 29  13  39  1   
 30  13  40  1   
 31  14  18  1   
 32  14  41  1   
 33  14  42  1   
 34  15  19  1   
 35  15  43  1   
 36  15  44  1   
 37  16  20  1   
 38  16  45  1   
 39  16  46  1   
 40  17  18  1   
 41  17  47  1   
 42  17  48  1   
 43  18  49  1   
 44  18  50  1   
 45  19  20  1   
 46  19  21  1   
 47  19  51  1   
 48  20  52  1   
 49  20  53  1   
 50  21  22  1   
 51  21  54  1   
 52  21  55  1   
 53  22  23  ar  
 54  22  24  ar  
 55  23  25  ar  
 56  24  26  ar  
 57  24  56  1   
 58  25  27  ar  
 59  25  57  1   
 60  26  27  ar  
 61  26  58  1   
 62  27  59  1   
@<TRIPOS>SUBSTRUCTURE
  1 ****   1 GROUP 4 **** **** 0

# MOE 2024.06 (io_trps.svl 2023.06)
