@<TRIPOS>MOLECULE
NONAME
41 43 1 0 0 
SMALL
USER_CHARGES


@<TRIPOS>ATOM
  1 O        1.4750     0.3540    -1.2010 O.3   1 <1>  -0.6800 
  2 C        1.6610     0.0760     0.1400 C.3   1 <1>   0.2800 
  3 C        3.1790     0.0960     0.4960 C.3   1 <1>  -0.0800 
  4 C        1.0750    -1.3280     0.3790 C.3   1 <1>  -0.1600 
  5 C        0.8520     1.1280     0.9320 C.3   1 <1>  -0.1600 
  6 C        3.8600    -1.2830     0.5260 C.3   1 <1>  -0.0800 
  7 C        4.0790     0.9370    -0.4190 C.3   1 <1>   0.2090 
  8 C        1.7970    -2.4400    -0.4140 C.3   1 <1>  -0.1600 
  9 C        1.2750     2.5920     0.7150 C.3   1 <1>  -0.2400 
 10 C        3.3060    -2.1880    -0.5870 C.3   1 <1>  -0.1600 
 11 C        5.3520    -0.9800     0.3630 C.3   1 <1>   0.2090 
 12 N        5.4350     0.3460    -0.2990 N.pl3 1 <1>  -0.8380 
 13 C        6.5650     1.1370    -0.2260 C.ar  1 <1>   0.4100 
 14 N        7.5200     0.7720     0.6250 N.ar  1 <1>  -0.6200 
 15 C        6.6820     2.2680    -1.0330 C.ar  1 <1>  -0.1500 
 16 C        8.5890     1.5470     0.6790 C.ar  1 <1>   0.1600 
 17 C        7.7990     3.0650    -0.9630 C.ar  1 <1>  -0.1500 
 18 C        8.7940     2.6960    -0.0720 C.ar  1 <1>   0.0730 
 19 C        9.9940     3.4590     0.0770 C.1   1 <1>   0.4840 
 20 N       10.9520     4.0660     0.2000 N.1   1 <1>  -0.5570 
 21 H        0.5340     0.2430    -1.4240 H     1 <1>   0.4000 
 22 H        3.2850     0.4960     1.4880 H     1 <1>   0.0800 
 23 H        1.1670    -1.5500     1.4270 H     1 <1>   0.0800 
 24 H        0.0240    -1.3440     0.1500 H     1 <1>   0.0800 
 25 H       -0.1890     1.0310     0.6770 H     1 <1>   0.0800 
 26 H        0.9350     0.9060     1.9810 H     1 <1>   0.0800 
 27 H        3.7000    -1.7670     1.4730 H     1 <1>   0.0800 
 28 H        4.0750     1.9710    -0.1220 H     1 <1>   0.0800 
 29 H        3.7810     0.8620    -1.4500 H     1 <1>   0.0800 
 30 H        1.6450    -3.3780     0.0930 H     1 <1>   0.0800 
 31 H        1.3550    -2.5280    -1.3920 H     1 <1>   0.0800 
 32 H        1.2450     2.8470    -0.3300 H     1 <1>   0.0800 
 33 H        2.2680     2.7640     1.0870 H     1 <1>   0.0800 
 34 H        0.6040     3.2470     1.2410 H     1 <1>   0.0800 
 35 H        3.4740    -1.7070    -1.5370 H     1 <1>   0.0800 
 36 H        3.8310    -3.1270    -0.6020 H     1 <1>   0.0800 
 37 H        5.8520    -1.7260    -0.2290 H     1 <1>   0.0800 
 38 H        5.8140    -0.9310     1.3340 H     1 <1>   0.0800 
 39 H        5.8880     2.5020    -1.7170 H     1 <1>   0.1500 
 40 H        9.3570     1.2480     1.3720 H     1 <1>   0.1500 
 41 H        7.9000     3.9420    -1.5800 H     1 <1>   0.1500 
@<TRIPOS>BOND
  1   1   2  1   
  2   1  21  1   
  3   2   3  1   
  4   2   4  1   
  5   2   5  1   
  6   3   6  1   
  7   3   7  1   
  8   3  22  1   
  9   4   8  1   
 10   4  23  1   
 11   4  24  1   
 12   5   9  1   
 13   5  25  1   
 14   5  26  1   
 15   6  10  1   
 16   6  11  1   
 17   6  27  1   
 18   7  12  1   
 19   7  28  1   
 20   7  29  1   
 21   8  10  1   
 22   8  30  1   
 23   8  31  1   
 24   9  32  1   
 25   9  33  1   
 26   9  34  1   
 27  10  35  1   
 28  10  36  1   
 29  11  12  1   
 30  11  37  1   
 31  11  38  1   
 32  12  13  1   
 33  13  14  ar  
 34  13  15  ar  
 35  14  16  ar  
 36  15  17  ar  
 37  15  39  1   
 38  16  18  ar  
 39  16  40  1   
 40  17  18  ar  
 41  17  41  1   
 42  18  19  1   
 43  19  20  3   
@<TRIPOS>SUBSTRUCTURE
  1 ****  12 GROUP 4 **** **** 0

# MOE 2024.06 (io_trps.svl 2023.06)
