@<TRIPOS>MOLECULE
NONAME
58 61 1 0 0 
SMALL
USER_CHARGES


@<TRIPOS>ATOM
  1 O       -0.5870    -1.9780     1.1510 O.2   1 <1>  -0.5700 
  2 C        0.3250    -1.1850     1.1290 C.2   1 <1>   0.5690 
  3 N        1.3890    -1.3170     0.2730 N.am  1 <1>  -0.6600 
  4 C        0.2420    -0.0040     2.0830 C.3   1 <1>  -0.0990 
  5 C        2.5820    -0.4260     0.2870 C.3   1 <1>   0.1400 
  6 C        1.4740    -2.4710    -0.6620 C.3   1 <1>   0.1400 
  7 C        1.5890     0.6890     2.3230 C.3   1 <1>  -0.1600 
  8 C        2.2950     0.9080     0.9830 C.3   1 <1>  -0.1600 
  9 C        1.0240    -2.0550    -2.0610 C.3   1 <1>  -0.0990 
 10 C        0.8020    -3.3060    -2.8830 C.2   1 <1>   0.5690 
 11 O        1.7300    -3.6690    -3.5670 O.2   1 <1>  -0.5700 
 12 N       -0.3690    -4.0200    -2.8040 N.am  1 <1>  -0.6600 
 13 C       -1.6340    -3.5830    -2.1420 C.3   1 <1>   0.1400 
 14 C       -0.4370    -5.4240    -3.2900 C.3   1 <1>   0.1400 
 15 C       -1.9160    -4.4730    -0.9340 C.3   1 <1>  -0.1600 
 16 C       -0.6630    -6.3480    -2.0890 C.3   1 <1>  -0.1600 
 17 C       -1.9270    -5.9710    -1.2970 C.3   1 <1>   0.4240 
 18 O       -2.9740    -6.1540    -2.2270 O.3   1 <1>  -0.5600 
 19 C       -2.1000    -6.8800    -0.0480 C.ar  1 <1>  -0.1440 
 20 C       -4.2570    -6.3540    -1.7300 C.3   1 <1>   0.1200 
 21 C       -1.1650    -6.9010     0.9950 C.ar  1 <1>   0.0820 
 22 C       -3.2200    -7.7020     0.0690 C.ar  1 <1>  -0.1440 
 23 C       -4.2840    -7.6930    -1.0090 C.3   1 <1>  -0.0170 
 24 O       -0.0670    -6.1110     0.9590 O.3   1 <1>  -0.3630 
 25 C       -1.3380    -7.7420     2.0870 C.ar  1 <1>  -0.1500 
 26 C       -3.3900    -8.5330     1.1660 C.ar  1 <1>  -0.1500 
 27 C        0.1500    -5.2260     2.0390 C.3   1 <1>   0.0400 
 28 C       -2.4480    -8.5570     2.1750 C.ar  1 <1>  -0.1500 
 29 H       -0.1630    -0.3420     3.0190 H     1 <1>   0.0800 
 30 H       -0.4510     0.7000     1.6610 H     1 <1>   0.0800 
 31 H        2.9040    -0.2350    -0.7230 H     1 <1>   0.0800 
 32 H        3.3800    -0.9340     0.8020 H     1 <1>   0.0800 
 33 H        0.8490    -3.2710    -0.3070 H     1 <1>   0.0800 
 34 H        2.4830    -2.8470    -0.6970 H     1 <1>   0.0800 
 35 H        2.2040     0.0710     2.9560 H     1 <1>   0.0800 
 36 H        1.4320     1.6300     2.8210 H     1 <1>   0.0800 
 37 H        1.6840     1.5180     0.3410 H     1 <1>   0.0800 
 38 H        3.2230     1.4290     1.1410 H     1 <1>   0.0800 
 39 H        1.7950    -1.4700    -2.5260 H     1 <1>   0.0800 
 40 H        0.1370    -1.4590    -2.0190 H     1 <1>   0.0800 
 41 H       -2.4410    -3.6690    -2.8500 H     1 <1>   0.0800 
 42 H       -1.5890    -2.5590    -1.8230 H     1 <1>   0.0800 
 43 H        0.4740    -5.7020    -3.7920 H     1 <1>   0.0800 
 44 H       -1.2470    -5.5190    -3.9940 H     1 <1>   0.0800 
 45 H       -2.8480    -4.1950    -0.4810 H     1 <1>   0.0800 
 46 H       -1.1590    -4.2730    -0.2080 H     1 <1>   0.0800 
 47 H        0.2070    -6.2920    -1.4650 H     1 <1>   0.0800 
 48 H       -0.7500    -7.3650    -2.4220 H     1 <1>   0.0800 
 49 H       -4.9370    -6.3590    -2.5640 H     1 <1>   0.0800 
 50 H       -4.5140    -5.5480    -1.0660 H     1 <1>   0.0800 
 51 H       -4.0980    -8.4850    -1.7130 H     1 <1>   0.0800 
 52 H       -5.2560    -7.8420    -0.5770 H     1 <1>   0.0800 
 53 H       -0.6010    -7.7680     2.8670 H     1 <1>   0.1500 
 54 H       -4.2560    -9.1670     1.2380 H     1 <1>   0.1500 
 55 H        0.9200    -4.5320     1.7560 H     1 <1>   0.0800 
 56 H        0.4610    -5.7850     2.9020 H     1 <1>   0.0800 
 57 H       -0.7620    -4.6900     2.2400 H     1 <1>   0.0800 
 58 H       -2.5790    -9.2070     3.0220 H     1 <1>   0.1500 
@<TRIPOS>BOND
  1   1   2  2   
  2   2   3  am  
  3   2   4  1   
  4   3   5  1   
  5   3   6  1   
  6   4   7  1   
  7   4  29  1   
  8   4  30  1   
  9   5   8  1   
 10   5  31  1   
 11   5  32  1   
 12   6   9  1   
 13   6  33  1   
 14   6  34  1   
 15   7   8  1   
 16   7  35  1   
 17   7  36  1   
 18   8  37  1   
 19   8  38  1   
 20   9  10  1   
 21   9  39  1   
 22   9  40  1   
 23  10  11  2   
 24  10  12  am  
 25  12  13  1   
 26  12  14  1   
 27  13  15  1   
 28  13  41  1   
 29  13  42  1   
 30  14  16  1   
 31  14  43  1   
 32  14  44  1   
 33  15  17  1   
 34  15  45  1   
 35  15  46  1   
 36  16  17  1   
 37  16  47  1   
 38  16  48  1   
 39  17  18  1   
 40  17  19  1   
 41  18  20  1   
 42  19  21  ar  
 43  19  22  ar  
 44  20  23  1   
 45  20  49  1   
 46  20  50  1   
 47  21  24  1   
 48  21  25  ar  
 49  22  23  1   
 50  22  26  ar  
 51  23  51  1   
 52  23  52  1   
 53  24  27  1   
 54  25  28  ar  
 55  25  53  1   
 56  26  28  ar  
 57  26  54  1   
 58  27  55  1   
 59  27  56  1   
 60  27  57  1   
 61  28  58  1   
@<TRIPOS>SUBSTRUCTURE
  1 ****  15 GROUP 4 **** **** 0

# MOE 2024.06 (io_trps.svl 2023.06)
