@<TRIPOS>MOLECULE
NONAME
49 51 1 0 0 
SMALL
USER_CHARGES


@<TRIPOS>ATOM
  1 O       -0.0870     0.0000     0.6660 O.2   1 <1>  -0.5700 
  2 C       -1.1690     0.5120     0.8320 C.2   1 <1>   0.5690 
  3 N       -2.3050    -0.2480     0.9590 N.am  1 <1>  -0.6600 
  4 C       -1.2330     2.0360     0.9250 C.3   1 <1>  -0.0990 
  5 C       -2.2090    -1.7340     0.8620 C.3   1 <1>   0.3200 
  6 C       -3.6350     0.3100     1.3640 C.3   1 <1>   0.1400 
  7 C       -0.0390     2.7550     0.2700 C.3   1 <1>  -0.1600 
  8 C       -3.2940    -2.2820    -0.0420 C.2   1 <1>  -0.3320 
  9 C       -4.4820     0.7030     0.1460 C.3   1 <1>   0.1200 
 10 C       -0.1770     4.2810     0.3470 C.3   1 <1>   0.0210 
 11 N       -4.4580    -2.8090     0.3840 N.pl3 1 <1>   0.0330 
 12 C       -3.3220    -2.3470    -1.3910 C.2   1 <1>   0.0770 
 13 O       -5.6340     1.3300     0.5970 O.3   1 <1>  -0.6800 
 14 C        0.9830     5.0050    -0.3160 C.2   1 <1>  -0.1810 
 15 C       -5.1260    -3.1490    -0.7390 C.2   1 <1>   0.0070 
 16 N       -4.4770    -2.8850    -1.8240 N.2   1 <1>  -0.5650 
 17 C        1.0700     6.4140    -0.4010 C.ar  1 <1>   0.0000 
 18 C        2.0860     4.4940    -0.9150 C.2   1 <1>  -0.3020 
 19 C       -6.5020    -3.7780    -0.7160 C.3   1 <1>  -0.0600 
 20 C        2.2570     6.6980    -1.0680 C.ar  1 <1>  -0.1520 
 21 C        0.2540     7.4670     0.0260 C.ar  1 <1>  -0.1500 
 22 N        2.8700     5.5120    -1.3780 N.pl3 1 <1>   0.0330 
 23 C        2.6450     8.0170    -1.3190 C.ar  1 <1>  -0.1500 
 24 C        0.6350     8.7660    -0.2200 C.ar  1 <1>  -0.1500 
 25 C        1.8320     9.0410    -0.8930 C.ar  1 <1>  -0.1500 
 26 H       -1.2790     2.3020     1.9650 H     1 <1>   0.0800 
 27 H       -2.1300     2.3810     0.4490 H     1 <1>   0.0800 
 28 H       -2.2850    -2.1630     1.8460 H     1 <1>   0.0800 
 29 H       -1.2550    -2.0240     0.4540 H     1 <1>   0.0800 
 30 H       -3.4900     1.1760     1.9840 H     1 <1>   0.0800 
 31 H       -4.1690    -0.4200     1.9450 H     1 <1>   0.0800 
 32 H        0.0290     2.4570    -0.7620 H     1 <1>   0.0800 
 33 H        0.8710     2.4580     0.7620 H     1 <1>   0.0800 
 34 H       -4.7760    -0.1600    -0.4250 H     1 <1>   0.0800 
 35 H       -3.9520     1.3910    -0.4890 H     1 <1>   0.0800 
 36 H       -0.2270     4.5870     1.3780 H     1 <1>   0.0800 
 37 H       -1.0880     4.5850    -0.1370 H     1 <1>   0.0800 
 38 H       -4.7830    -2.9290     1.3470 H     1 <1>   0.2700 
 39 H       -2.5620    -2.0220    -2.0830 H     1 <1>   0.1500 
 40 H       -6.2200     1.5460    -0.1560 H     1 <1>   0.4000 
 41 H        2.3670     3.4630    -1.0430 H     1 <1>   0.1500 
 42 H       -7.2010    -3.1210    -0.2330 H     1 <1>   0.0800 
 43 H       -6.4700    -4.7160    -0.1930 H     1 <1>   0.0800 
 44 H       -6.8350    -3.9560    -1.7230 H     1 <1>   0.0800 
 45 H       -0.6610     7.2450     0.5420 H     1 <1>   0.1500 
 46 H        3.7630     5.4170    -1.8700 H     1 <1>   0.2700 
 47 H        3.5660     8.2180    -1.8370 H     1 <1>   0.1500 
 48 H        0.0170     9.5850     0.1030 H     1 <1>   0.1500 
 49 H        2.1080    10.0650    -1.0740 H     1 <1>   0.1500 
@<TRIPOS>BOND
  1   1   2  2   
  2   2   3  am  
  3   2   4  1   
  4   3   5  1   
  5   3   6  1   
  6   4   7  1   
  7   4  26  1   
  8   4  27  1   
  9   5   8  1   
 10   5  28  1   
 11   5  29  1   
 12   6   9  1   
 13   6  30  1   
 14   6  31  1   
 15   7  10  1   
 16   7  32  1   
 17   7  33  1   
 18   8  11  1   
 19   8  12  2   
 20   9  13  1   
 21   9  34  1   
 22   9  35  1   
 23  10  14  1   
 24  10  36  1   
 25  10  37  1   
 26  11  15  1   
 27  11  38  1   
 28  12  16  1   
 29  12  39  1   
 30  13  40  1   
 31  14  17  1   
 32  14  18  2   
 33  15  16  2   
 34  15  19  1   
 35  17  20  ar  
 36  17  21  ar  
 37  18  22  1   
 38  18  41  1   
 39  19  42  1   
 40  19  43  1   
 41  19  44  1   
 42  20  22  1   
 43  20  23  ar  
 44  21  24  ar  
 45  21  45  1   
 46  22  46  1   
 47  23  25  ar  
 48  23  47  1   
 49  24  25  ar  
 50  24  48  1   
 51  25  49  1   
@<TRIPOS>SUBSTRUCTURE
  1 ****   4 GROUP 4 **** **** 0

# MOE 2024.06 (io_trps.svl 2023.06)
