@<TRIPOS>MOLECULE
NONAME
53 55 1 0 0 
SMALL
USER_CHARGES


@<TRIPOS>ATOM
  1 O       -1.6000    -0.4640     2.0870 O.2   1 <1>  -0.5700 
  2 C       -1.9330     0.1800     1.1140 C.2   1 <1>   0.6340 
  3 O       -1.4670     1.4260     0.9760 O.3   1 <1>  -0.4300 
  4 C       -2.8220    -0.3350     0.0880 C.ar  1 <1>   0.0860 
  5 C       -0.5960     2.0040     1.9280 C.3   1 <1>   0.0400 
  6 C       -3.2640     0.4610    -0.9700 C.ar  1 <1>  -0.1500 
  7 C       -3.2730    -1.6560     0.1240 C.ar  1 <1>  -0.1500 
  8 C       -4.1140    -0.0530    -1.9310 C.ar  1 <1>   0.0830 
  9 C       -4.1340    -2.1960    -0.8290 C.ar  1 <1>   0.0860 
 10 O       -4.5310     0.7170    -2.9460 O.3   1 <1>  -0.5320 
 11 C       -4.5450    -1.3630    -1.8660 C.ar  1 <1>  -0.1500 
 12 C       -4.5740    -3.5790    -0.7420 C.2   1 <1>   0.5440 
 13 O       -3.8260    -4.4360    -0.3100 O.2   1 <1>  -0.5700 
 14 N       -5.8460    -3.9740    -1.0980 N.am  1 <1>  -0.6600 
 15 C       -6.1140    -5.4170    -1.3250 C.3   1 <1>   0.1400 
 16 C       -7.0370    -3.2180    -0.6290 C.3   1 <1>   0.1400 
 17 C       -6.5220    -6.0560     0.0210 C.3   1 <1>   0.4230 
 18 C       -7.4950    -3.8270     0.7050 C.3   1 <1>  -0.1600 
 19 N       -6.6050    -7.5760    -0.0120 N.4   1 <1>  -0.9590 
 20 C       -7.7730    -5.3600     0.6400 C.3   1 <1>   0.0000 
 21 C       -7.3810    -8.1710     1.1230 C.3   1 <1>   0.3430 
 22 C       -7.0530    -8.1740    -1.3130 C.3   1 <1>   0.2630 
 23 C       -7.9870    -5.8920     2.0890 C.3   1 <1>  -0.1600 
 24 C       -9.0290    -5.6420    -0.2340 C.3   1 <1>   0.1200 
 25 C       -7.3360    -7.2650     2.3520 C.3   1 <1>  -0.1600 
 26 O      -10.1240    -4.9040     0.1850 O.3   1 <1>  -0.6800 
 27 H       -0.3550     3.0020     1.6090 H     1 <1>   0.0800 
 28 H        0.2980     1.4070     1.9890 H     1 <1>   0.0800 
 29 H       -1.0910     2.0280     2.8830 H     1 <1>   0.0800 
 30 H       -2.9390     1.4840    -1.0380 H     1 <1>   0.1500 
 31 H       -2.9360    -2.2920     0.9270 H     1 <1>   0.1500 
 32 H       -4.1590     1.6180    -2.9380 H     1 <1>   0.4500 
 33 H       -5.2000    -1.7360    -2.6330 H     1 <1>   0.1500 
 34 H       -6.8840    -5.5160    -2.0670 H     1 <1>   0.0800 
 35 H       -5.2200    -5.8880    -1.6970 H     1 <1>   0.0800 
 36 H       -6.7950    -2.1780    -0.4870 H     1 <1>   0.0800 
 37 H       -7.8220    -3.2760    -1.3660 H     1 <1>   0.0800 
 38 H       -5.7110    -5.8180     0.6900 H     1 <1>   0.0800 
 39 H       -6.7180    -3.6290     1.4240 H     1 <1>   0.0800 
 40 H       -8.3670    -3.2960     1.0460 H     1 <1>   0.0800 
 41 H       -5.6260    -7.8740     0.1280 H     1 <1>   0.4500 
 42 H       -8.4110    -8.3010     0.8330 H     1 <1>   0.0800 
 43 H       -6.9810    -9.1420     1.3710 H     1 <1>   0.0800 
 44 H       -8.0580    -7.8630    -1.5450 H     1 <1>   0.0800 
 45 H       -7.0310    -9.2500    -1.2550 H     1 <1>   0.0800 
 46 H       -6.4010    -7.8670    -2.1150 H     1 <1>   0.0800 
 47 H       -7.5780    -5.2030     2.8090 H     1 <1>   0.0800 
 48 H       -9.0380    -5.9590     2.3080 H     1 <1>   0.0800 
 49 H       -9.3110    -6.6780    -0.1990 H     1 <1>   0.0800 
 50 H       -8.8610    -5.3710    -1.2610 H     1 <1>   0.0800 
 51 H       -7.8480    -7.7460     3.1670 H     1 <1>   0.0800 
 52 H       -6.3110    -7.1360     2.6570 H     1 <1>   0.0800 
 53 H      -10.3970    -5.1290     1.0960 H     1 <1>   0.4000 
@<TRIPOS>BOND
  1   1   2  2   
  2   2   3  1   
  3   2   4  1   
  4   3   5  1   
  5   4   6  ar  
  6   4   7  ar  
  7   5  27  1   
  8   5  28  1   
  9   5  29  1   
 10   6   8  ar  
 11   6  30  1   
 12   7   9  ar  
 13   7  31  1   
 14   8  10  1   
 15   8  11  ar  
 16   9  11  ar  
 17   9  12  1   
 18  10  32  1   
 19  11  33  1   
 20  12  13  2   
 21  12  14  am  
 22  14  15  1   
 23  14  16  1   
 24  15  17  1   
 25  15  34  1   
 26  15  35  1   
 27  16  18  1   
 28  16  36  1   
 29  16  37  1   
 30  17  19  1   
 31  17  20  1   
 32  17  38  1   
 33  18  20  1   
 34  18  39  1   
 35  18  40  1   
 36  19  21  1   
 37  19  22  1   
 38  19  41  1   
 39  20  23  1   
 40  20  24  1   
 41  21  25  1   
 42  21  42  1   
 43  21  43  1   
 44  22  44  1   
 45  22  45  1   
 46  22  46  1   
 47  23  25  1   
 48  23  47  1   
 49  23  48  1   
 50  24  26  1   
 51  24  49  1   
 52  24  50  1   
 53  25  51  1   
 54  25  52  1   
 55  26  53  1   
@<TRIPOS>SUBSTRUCTURE
  1 ****  12 GROUP 4 **** **** 0

# MOE 2024.06 (io_trps.svl 2023.06)
