@<TRIPOS>MOLECULE
NONAME
57 59 1 0 0 
SMALL
USER_CHARGES


@<TRIPOS>ATOM
  1 O       -1.6120     0.8080    -2.0060 O.2   1 <1>  -0.5700 
  2 C       -2.2670     1.3700    -1.1480 C.2   1 <1>   0.5440 
  3 N       -3.1400     0.6340    -0.3760 N.am  1 <1>  -0.6600 
  4 C       -2.0660     2.7960    -0.9570 C.ar  1 <1>   0.0860 
  5 C       -3.5760    -0.7460    -0.7700 C.3   1 <1>   0.1400 
  6 C       -3.6450     1.0470     0.9640 C.3   1 <1>   0.1400 
  7 C       -0.7750     3.3210    -0.9320 C.ar  1 <1>  -0.1500 
  8 C       -3.1250     3.6920    -0.8170 C.ar  1 <1>  -0.1500 
  9 C       -5.1110    -0.8480    -0.7310 C.3   1 <1>   0.2000 
 10 C       -5.1770     0.9750     0.9760 C.3   1 <1>  -0.1600 
 11 C       -0.5360     4.6740    -0.7480 C.ar  1 <1>  -0.1440 
 12 C       -2.9030     5.0440    -0.6350 C.ar  1 <1>  -0.1500 
 13 O       -5.4820    -2.1440    -1.0580 O.3   1 <1>  -0.6800 
 14 C       -5.6870    -0.4610     0.6580 C.3   1 <1>  -0.1060 
 15 C       -1.6110     5.5370    -0.5980 C.ar  1 <1>  -0.1500 
 16 C        0.8880     5.1980    -0.7190 C.3   1 <1>   0.4860 
 17 C       -5.2100    -1.4580     1.7300 C.2   1 <1>   0.9060 
 18 C       -7.2370    -0.4960     0.6760 C.3   1 <1>  -0.0170 
 19 N        1.5520     4.7130     0.5260 N.4   1 <1>  -0.9590 
 20 O       -5.1020    -2.6590     1.4400 O.co2 1 <1>  -0.9000 
 21 O       -4.9640    -1.0520     2.8720 O.co2 1 <1>  -0.9000 
 22 C       -7.9230     0.4640    -0.2940 C.ar  1 <1>  -0.1440 
 23 C        0.9020     5.2740     1.7530 C.3   1 <1>   0.2630 
 24 C        3.0180     4.9960     0.5080 C.3   1 <1>   0.2630 
 25 C       -8.1600     0.0820    -1.6050 C.ar  1 <1>  -0.1500 
 26 C       -8.3280     1.7210     0.1290 C.ar  1 <1>  -0.1500 
 27 C       -8.7850     0.9480    -2.4860 C.ar  1 <1>  -0.1500 
 28 C       -8.9530     2.5890    -0.7500 C.ar  1 <1>  -0.1500 
 29 C       -9.1810     2.2030    -2.0590 C.ar  1 <1>  -0.1500 
 30 H       -3.2380    -0.9750    -1.7650 H     1 <1>   0.0800 
 31 H       -3.1450    -1.4570    -0.0870 H     1 <1>   0.0800 
 32 H       -3.2400     0.3830     1.7100 H     1 <1>   0.0800 
 33 H       -3.3240     2.0410     1.2120 H     1 <1>   0.0800 
 34 H        0.0390     2.6290    -1.0730 H     1 <1>   0.1500 
 35 H       -4.1330     3.3150    -0.8590 H     1 <1>   0.1500 
 36 H       -5.5060    -0.2040    -1.4950 H     1 <1>   0.0800 
 37 H       -5.5290     1.2730     1.9480 H     1 <1>   0.0800 
 38 H       -5.5580     1.6770     0.2590 H     1 <1>   0.0800 
 39 H       -3.7420     5.7130    -0.5280 H     1 <1>   0.1500 
 40 H       -5.3580    -2.6700    -0.2090 H     1 <1>   0.4000 
 41 H       -1.4620     6.5960    -0.4610 H     1 <1>   0.1500 
 42 H        0.8860     6.2760    -0.7470 H     1 <1>   0.0800 
 43 H        1.4140     4.8350    -1.5870 H     1 <1>   0.0800 
 44 H       -7.5660    -1.4990     0.4620 H     1 <1>   0.0800 
 45 H       -7.5700    -0.2790     1.6760 H     1 <1>   0.0800 
 46 H        1.4090     3.6910     0.5410 H     1 <1>   0.4500 
 47 H        0.9960     6.3470     1.7720 H     1 <1>   0.0800 
 48 H        1.3650     4.8700     2.6390 H     1 <1>   0.0800 
 49 H       -0.1460     5.0190     1.7710 H     1 <1>   0.0800 
 50 H        3.1960     6.0590     0.4810 H     1 <1>   0.0800 
 51 H        3.4780     4.5470    -0.3580 H     1 <1>   0.0800 
 52 H        3.4870     4.5910     1.3910 H     1 <1>   0.0800 
 53 H       -7.8520    -0.8950    -1.9390 H     1 <1>   0.1500 
 54 H       -8.1550     2.0240     1.1460 H     1 <1>   0.1500 
 55 H       -8.9600     0.6410    -3.5020 H     1 <1>   0.1500 
 56 H       -9.2620     3.5630    -0.4140 H     1 <1>   0.1500 
 57 H       -9.6660     2.8760    -2.7440 H     1 <1>   0.1500 
@<TRIPOS>BOND
  1   1   2  2   
  2   2   3  am  
  3   2   4  1   
  4   3   5  1   
  5   3   6  1   
  6   4   7  ar  
  7   4   8  ar  
  8   5   9  1   
  9   5  30  1   
 10   5  31  1   
 11   6  10  1   
 12   6  32  1   
 13   6  33  1   
 14   7  11  ar  
 15   7  34  1   
 16   8  12  ar  
 17   8  35  1   
 18   9  13  1   
 19   9  14  1   
 20   9  36  1   
 21  10  14  1   
 22  10  37  1   
 23  10  38  1   
 24  11  15  ar  
 25  11  16  1   
 26  12  15  ar  
 27  12  39  1   
 28  13  40  1   
 29  14  17  1   
 30  14  18  1   
 31  15  41  1   
 32  16  19  1   
 33  16  42  1   
 34  16  43  1   
 35  17  20  ar  
 36  17  21  ar  
 37  18  22  1   
 38  18  44  1   
 39  18  45  1   
 40  19  23  1   
 41  19  24  1   
 42  19  46  1   
 43  22  25  ar  
 44  22  26  ar  
 45  23  47  1   
 46  23  48  1   
 47  23  49  1   
 48  24  50  1   
 49  24  51  1   
 50  24  52  1   
 51  25  27  ar  
 52  25  53  1   
 53  26  28  ar  
 54  26  54  1   
 55  27  29  ar  
 56  27  55  1   
 57  28  29  ar  
 58  28  56  1   
 59  29  57  1   
@<TRIPOS>SUBSTRUCTURE
  1 ****   3 GROUP 4 **** **** 0

# MOE 2024.06 (io_trps.svl 2023.06)
