@<TRIPOS>MOLECULE
NONAME
63 66 1 0 0 
SMALL
USER_CHARGES


@<TRIPOS>ATOM
  1 S       -0.1930     0.5080     0.3390 S.3   1 <1>  -0.3320 
  2 C        1.2840    -0.5000     0.1640 C.ar  1 <1>   0.4120 
  3 C       -1.6480    -0.5680    -0.0310 C.3   1 <1>   0.0700 
  4 N        2.3960     0.1320     0.3630 N.ar  1 <1>  -0.6200 
  5 C        1.1810    -1.8620    -0.1630 C.ar  1 <1>  -0.1500 
  6 C       -2.9110     0.2870     0.0990 C.3   1 <1>  -0.0990 
  7 C        3.5360    -0.5890     0.2410 C.ar  1 <1>   0.3100 
  8 C        2.3120    -2.6120    -0.2930 C.ar  1 <1>  -0.1440 
  9 C       -4.1780    -0.4950    -0.2060 C.2   1 <1>   0.5690 
 10 C        3.5540    -1.9670    -0.0860 C.ar  1 <1>   0.0000 
 11 C        4.7570     0.0690     0.4500 C.ar  1 <1>  -0.1500 
 12 C        2.2290    -4.0900    -0.6470 C.3   1 <1>  -0.0970 
 13 O       -4.0950    -1.6970    -0.3210 O.2   1 <1>  -0.5700 
 14 N       -5.3770     0.1560    -0.3430 N.am  1 <1>  -0.6600 
 15 C        4.8070    -2.6120    -0.1860 C.ar  1 <1>  -0.1500 
 16 C        5.9560    -0.5840     0.3460 C.ar  1 <1>  -0.1500 
 17 C       -6.5890    -0.6170    -0.7520 C.3   1 <1>   0.1400 
 18 C       -5.5690     1.6210    -0.1170 C.3   1 <1>   0.1400 
 19 C        5.9840    -1.9440     0.0230 C.ar  1 <1>  -0.1440 
 20 C       -7.6260     0.3070    -1.3930 C.3   1 <1>  -0.1600 
 21 C       -6.9440     1.8600     0.5070 C.3   1 <1>  -0.1600 
 22 C        7.3280    -2.6430    -0.0850 C.3   1 <1>  -0.0970 
 23 C       -8.0960     1.4270    -0.4370 C.3   1 <1>   0.2800 
 24 O       -8.3650     2.5020    -1.2890 O.3   1 <1>  -0.5600 
 25 C       -9.3670     0.9730     0.3450 C.3   1 <1>  -0.1600 
 26 C       -9.0870     3.6390    -0.8670 C.3   1 <1>   0.1200 
 27 C      -10.5780     1.9140     0.2460 C.3   1 <1>   0.2800 
 28 C      -10.0960     3.3800     0.2650 C.3   1 <1>   0.2000 
 29 O      -11.2220     1.6730    -0.9530 O.3   1 <1>  -0.6800 
 30 C      -11.6160     1.6130     1.3330 C.3   1 <1>  -0.2400 
 31 O       -9.4860     3.6780     1.4880 O.3   1 <1>  -0.6800 
 32 H       -1.5320    -0.9450    -1.0320 H     1 <1>   0.0800 
 33 H       -1.6480    -1.3750     0.6810 H     1 <1>   0.0800 
 34 H        0.2190    -2.3050    -0.3090 H     1 <1>   0.1500 
 35 H       -2.9740     0.6650     1.1030 H     1 <1>   0.0800 
 36 H       -2.8380     1.1120    -0.5830 H     1 <1>   0.0800 
 37 H        4.7190     1.1140     0.6970 H     1 <1>   0.1500 
 38 H        1.2060    -4.4010    -0.7640 H     1 <1>   0.0800 
 39 H        2.6750    -4.6810     0.1330 H     1 <1>   0.0800 
 40 H        2.7470    -4.2770    -1.5710 H     1 <1>   0.0800 
 41 H        4.8300    -3.6560    -0.4340 H     1 <1>   0.1500 
 42 H        6.8800    -0.0580     0.5110 H     1 <1>   0.1500 
 43 H       -6.3060    -1.3810    -1.4580 H     1 <1>   0.0800 
 44 H       -7.0070    -1.1010     0.1140 H     1 <1>   0.0800 
 45 H       -4.8130     2.0050     0.5450 H     1 <1>   0.0800 
 46 H       -5.4970     2.1420    -1.0580 H     1 <1>   0.0800 
 47 H       -8.4600    -0.2740    -1.7430 H     1 <1>   0.0800 
 48 H       -7.1700     0.7410    -2.2660 H     1 <1>   0.0800 
 49 H       -7.0300     2.8980     0.7660 H     1 <1>   0.0800 
 50 H       -6.9690     1.2960     1.4210 H     1 <1>   0.0800 
 51 H        7.9230    -2.1740    -0.8480 H     1 <1>   0.0800 
 52 H        7.2030    -3.6800    -0.3380 H     1 <1>   0.0800 
 53 H        7.8500    -2.5790     0.8520 H     1 <1>   0.0800 
 54 H       -9.6700    -0.0160     0.0580 H     1 <1>   0.0800 
 55 H       -9.1100     0.8840     1.3840 H     1 <1>   0.0800 
 56 H       -8.3890     4.4090    -0.5910 H     1 <1>   0.0800 
 57 H       -9.6290     3.9770    -1.7320 H     1 <1>   0.0800 
 58 H      -10.9350     4.0470     0.1700 H     1 <1>   0.0800 
 59 H      -11.5000     0.7410    -1.0000 H     1 <1>   0.4000 
 60 H      -11.1970     1.7860     2.3070 H     1 <1>   0.0800 
 61 H      -11.9380     0.5880     1.2830 H     1 <1>   0.0800 
 62 H      -12.4670     2.2600     1.2200 H     1 <1>   0.0800 
 63 H       -8.6950     3.1190     1.5980 H     1 <1>   0.4000 
@<TRIPOS>BOND
  1   1   2  1   
  2   1   3  1   
  3   2   4  ar  
  4   2   5  ar  
  5   3   6  1   
  6   3  32  1   
  7   3  33  1   
  8   4   7  ar  
  9   5   8  ar  
 10   5  34  1   
 11   6   9  1   
 12   6  35  1   
 13   6  36  1   
 14   7  10  ar  
 15   7  11  ar  
 16   8  10  ar  
 17   8  12  1   
 18   9  13  2   
 19   9  14  am  
 20  10  15  ar  
 21  11  16  ar  
 22  11  37  1   
 23  12  38  1   
 24  12  39  1   
 25  12  40  1   
 26  14  17  1   
 27  14  18  1   
 28  15  19  ar  
 29  15  41  1   
 30  16  19  ar  
 31  16  42  1   
 32  17  20  1   
 33  17  43  1   
 34  17  44  1   
 35  18  21  1   
 36  18  45  1   
 37  18  46  1   
 38  19  22  1   
 39  20  23  1   
 40  20  47  1   
 41  20  48  1   
 42  21  23  1   
 43  21  49  1   
 44  21  50  1   
 45  22  51  1   
 46  22  52  1   
 47  22  53  1   
 48  23  24  1   
 49  23  25  1   
 50  24  26  1   
 51  25  27  1   
 52  25  54  1   
 53  25  55  1   
 54  26  28  1   
 55  26  56  1   
 56  26  57  1   
 57  27  28  1   
 58  27  29  1   
 59  27  30  1   
 60  28  31  1   
 61  28  58  1   
 62  29  59  1   
 63  30  60  1   
 64  30  61  1   
 65  30  62  1   
 66  31  63  1   
@<TRIPOS>SUBSTRUCTURE
  1 ****   6 GROUP 4 **** **** 0

# MOE 2024.06 (io_trps.svl 2023.06)
