@<TRIPOS>MOLECULE
NONAME
51 54 1 0 0 
SMALL
USER_CHARGES


@<TRIPOS>ATOM
  1 O       -0.5490     0.3190    -1.6110 O.2   1 <1>  -0.5700 
  2 C       -1.5360     0.8530    -1.1410 C.2   1 <1>   0.5440 
  3 N       -2.7330     0.1670    -1.1580 N.am  1 <1>  -0.6600 
  4 C       -1.4160     2.1900    -0.5930 C.ar  1 <1>   0.0860 
  5 C       -4.0820     0.7850    -0.9700 C.3   1 <1>   0.1400 
  6 C       -2.8030    -1.2900    -1.4830 C.3   1 <1>   0.1400 
  7 C       -1.8770     2.5040     0.6850 C.ar  1 <1>  -0.1500 
  8 C       -0.8180     3.2130    -1.3310 C.ar  1 <1>  -0.1500 
  9 C       -4.9040    -0.0050     0.0670 C.3   1 <1>   0.1900 
 10 C       -3.6740    -2.0380    -0.4590 C.3   1 <1>   0.1100 
 11 C       -1.7640     3.7860     1.1830 C.ar  1 <1>   0.0820 
 12 C       -0.6950     4.4990    -0.8330 C.ar  1 <1>  -0.1500 
 13 N       -5.0200    -1.4300    -0.3340 N.3   1 <1>  -0.8100 
 14 C       -6.3010     0.6240     0.2390 C.3   1 <1>   0.1200 
 15 O       -2.2330     4.0610     2.4110 O.3   1 <1>  -0.5320 
 16 C       -1.1730     4.8020     0.4380 C.ar  1 <1>   0.0820 
 17 C       -5.8700    -2.1600     0.6360 C.3   1 <1>   0.3330 
 18 O       -7.0550    -0.1000     1.1690 O.3   1 <1>  -0.5600 
 19 O       -1.0940     6.0370     1.0040 O.3   1 <1>  -0.3620 
 20 C       -6.1120    -3.6000     0.1850 C.ar  1 <1>  -0.1440 
 21 C       -7.2270    -1.4460     0.8150 C.3   1 <1>   0.1200 
 22 C       -0.4560     7.1080     0.3410 C.3   1 <1>   0.0400 
 23 C       -6.4910    -3.8830    -1.1200 C.ar  1 <1>  -0.1500 
 24 C       -5.9590    -4.6450     1.0840 C.ar  1 <1>  -0.1500 
 25 C       -6.7140    -5.1890    -1.5210 C.ar  1 <1>  -0.1500 
 26 C       -6.1810    -5.9520     0.6860 C.ar  1 <1>  -0.1500 
 27 C       -6.5590    -6.2250    -0.6170 C.ar  1 <1>  -0.1500 
 28 H       -3.9960     1.8100    -0.6600 H     1 <1>   0.0800 
 29 H       -4.6020     0.7710    -1.9110 H     1 <1>   0.0800 
 30 H       -3.2240    -1.4130    -2.4650 H     1 <1>   0.0800 
 31 H       -1.8180    -1.7230    -1.4870 H     1 <1>   0.0800 
 32 H       -2.3220     1.7390     1.2950 H     1 <1>   0.1500 
 33 H       -0.4400     2.9810    -2.3120 H     1 <1>   0.1500 
 34 H       -4.3960     0.0620     1.0140 H     1 <1>   0.0800 
 35 H       -3.1770    -2.0310     0.4960 H     1 <1>   0.0800 
 36 H       -3.7640    -3.0620    -0.7790 H     1 <1>   0.0800 
 37 H       -0.2260     5.2460    -1.4460 H     1 <1>   0.1500 
 38 H       -6.8310     0.6360    -0.6980 H     1 <1>   0.0800 
 39 H       -6.2150     1.6320     0.6050 H     1 <1>   0.0800 
 40 H       -2.0590     5.0010     2.6210 H     1 <1>   0.4500 
 41 H       -5.3760    -2.1720     1.5920 H     1 <1>   0.0800 
 42 H       -7.7910    -1.9230     1.5960 H     1 <1>   0.0800 
 43 H       -7.7950    -1.4920    -0.0970 H     1 <1>   0.0800 
 44 H       -0.4960     7.9700     0.9820 H     1 <1>   0.0800 
 45 H       -0.9770     7.3120    -0.5770 H     1 <1>   0.0800 
 46 H        0.5690     6.8410     0.1530 H     1 <1>   0.0800 
 47 H       -6.6060    -3.0800    -1.8280 H     1 <1>   0.1500 
 48 H       -5.6660    -4.4490     2.1010 H     1 <1>   0.1500 
 49 H       -7.0060    -5.3970    -2.5350 H     1 <1>   0.1500 
 50 H       -6.0610    -6.7580     1.3890 H     1 <1>   0.1500 
 51 H       -6.7330    -7.2410    -0.9270 H     1 <1>   0.1500 
@<TRIPOS>BOND
  1   1   2  2   
  2   2   3  am  
  3   2   4  1   
  4   3   5  1   
  5   3   6  1   
  6   4   7  ar  
  7   4   8  ar  
  8   5   9  1   
  9   5  28  1   
 10   5  29  1   
 11   6  10  1   
 12   6  30  1   
 13   6  31  1   
 14   7  11  ar  
 15   7  32  1   
 16   8  12  ar  
 17   8  33  1   
 18   9  13  1   
 19   9  14  1   
 20   9  34  1   
 21  10  13  1   
 22  10  35  1   
 23  10  36  1   
 24  11  15  1   
 25  11  16  ar  
 26  12  16  ar  
 27  12  37  1   
 28  13  17  1   
 29  14  18  1   
 30  14  38  1   
 31  14  39  1   
 32  15  40  1   
 33  16  19  1   
 34  17  20  1   
 35  17  21  1   
 36  17  41  1   
 37  18  21  1   
 38  19  22  1   
 39  20  23  ar  
 40  20  24  ar  
 41  21  42  1   
 42  21  43  1   
 43  22  44  1   
 44  22  45  1   
 45  22  46  1   
 46  23  25  ar  
 47  23  47  1   
 48  24  26  ar  
 49  24  48  1   
 50  25  27  ar  
 51  25  49  1   
 52  26  27  ar  
 53  26  50  1   
 54  27  51  1   
@<TRIPOS>SUBSTRUCTURE
  1 ****   5 GROUP 4 **** **** 0

# MOE 2024.06 (io_trps.svl 2023.06)
