@<TRIPOS>MOLECULE
NONAME
52 54 1 0 0 
SMALL
USER_CHARGES


@<TRIPOS>ATOM
  1 O        0.8890    -2.0590    -2.1270 O.2   1 <1>  -0.5700 
  2 C        1.7090    -2.0810    -1.2420 C.2   1 <1>   0.4230 
  3 C        1.4650    -1.5190     0.0740 C.ar  1 <1>   0.0860 
  4 C        3.0550    -2.7200    -1.5720 C.3   1 <1>   0.1810 
  5 C        0.2640    -0.8530     0.3360 C.ar  1 <1>  -0.1500 
  6 C        2.3820    -1.5970     1.1290 C.ar  1 <1>  -0.1500 
  7 O        3.2710    -3.9090    -0.8250 O.3   1 <1>  -0.3620 
  8 C       -0.0090    -0.2940     1.5710 C.ar  1 <1>  -0.1500 
  9 C        2.1150    -1.0400     2.3670 C.ar  1 <1>  -0.1500 
 10 C        2.5150    -5.0210    -1.0040 C.ar  1 <1>   0.0820 
 11 C        0.9180    -0.3860     2.5910 C.ar  1 <1>  -0.1500 
 12 C        1.6410    -5.2050    -2.0700 C.ar  1 <1>  -0.1500 
 13 C        2.6410    -6.0170    -0.0500 C.ar  1 <1>  -0.1500 
 14 C        0.8920    -6.3640    -2.1610 C.ar  1 <1>  -0.1500 
 15 C        1.8930    -7.1770    -0.1400 C.ar  1 <1>  -0.1500 
 16 C        1.0050    -7.3520    -1.1930 C.ar  1 <1>  -0.1430 
 17 C        0.1550    -8.6030    -1.2800 C.3   1 <1>   0.4860 
 18 N       -0.9540    -8.4850    -0.2950 N.4   1 <1>  -0.9590 
 19 C       -1.6840    -9.7880    -0.1480 C.3   1 <1>   0.3430 
 20 C       -1.8770    -7.3620    -0.6430 C.3   1 <1>   0.3430 
 21 C       -2.8240    -9.7070     0.8830 C.3   1 <1>   0.2000 
 22 C       -2.9700    -7.2370     0.4180 C.3   1 <1>  -0.1600 
 23 O       -3.5140   -10.9040     0.8220 O.3   1 <1>  -0.6800 
 24 C       -3.7820    -8.5410     0.5790 C.3   1 <1>  -0.0800 
 25 C       -4.8720    -8.4060     1.6580 C.3   1 <1>   0.1200 
 26 O       -5.6860    -7.3350     1.3380 O.3   1 <1>  -0.6800 
 27 H        3.8480    -2.0360    -1.3310 H     1 <1>   0.0800 
 28 H        3.1210    -2.9540    -2.6190 H     1 <1>   0.0800 
 29 H       -0.4710    -0.7720    -0.4470 H     1 <1>   0.1500 
 30 H        3.3220    -2.1020     1.0000 H     1 <1>   0.1500 
 31 H       -0.9450     0.2120     1.7380 H     1 <1>   0.1500 
 32 H        2.8390    -1.1150     3.1600 H     1 <1>   0.1500 
 33 H        0.7100     0.0490     3.5530 H     1 <1>   0.1500 
 34 H        1.5270    -4.4610    -2.8370 H     1 <1>   0.1500 
 35 H        3.3300    -5.8740     0.7640 H     1 <1>   0.1500 
 36 H        0.2240    -6.4790    -2.9980 H     1 <1>   0.1500 
 37 H        2.0180    -7.9320     0.6160 H     1 <1>   0.1500 
 38 H        0.7660    -9.4620    -1.0530 H     1 <1>   0.0800 
 39 H       -0.2380    -8.7160    -2.2770 H     1 <1>   0.0800 
 40 H       -0.5150    -8.2380     0.6000 H     1 <1>   0.4500 
 41 H       -2.1110   -10.0650    -1.0970 H     1 <1>   0.0800 
 42 H       -0.9980   -10.5610     0.1560 H     1 <1>   0.0800 
 43 H       -1.3290    -6.4340    -0.6990 H     1 <1>   0.0800 
 44 H       -2.3310    -7.5440    -1.6040 H     1 <1>   0.0800 
 45 H       -2.4120    -9.6160     1.8740 H     1 <1>   0.0800 
 46 H       -2.5310    -6.9470     1.3570 H     1 <1>   0.0800 
 47 H       -3.6270    -6.4390     0.1170 H     1 <1>   0.0800 
 48 H       -4.2150   -10.9590     1.5040 H     1 <1>   0.4000 
 49 H       -4.2710    -8.7490    -0.3590 H     1 <1>   0.0800 
 50 H       -4.4430    -8.2220     2.6290 H     1 <1>   0.0800 
 51 H       -5.4900    -9.2880     1.6960 H     1 <1>   0.0800 
 52 H       -6.4290    -7.2510     1.9700 H     1 <1>   0.4000 
@<TRIPOS>BOND
  1   1   2  2   
  2   2   3  1   
  3   2   4  1   
  4   3   5  ar  
  5   3   6  ar  
  6   4   7  1   
  7   4  27  1   
  8   4  28  1   
  9   5   8  ar  
 10   5  29  1   
 11   6   9  ar  
 12   6  30  1   
 13   7  10  1   
 14   8  11  ar  
 15   8  31  1   
 16   9  11  ar  
 17   9  32  1   
 18  10  12  ar  
 19  10  13  ar  
 20  11  33  1   
 21  12  14  ar  
 22  12  34  1   
 23  13  15  ar  
 24  13  35  1   
 25  14  16  ar  
 26  14  36  1   
 27  15  16  ar  
 28  15  37  1   
 29  16  17  1   
 30  17  18  1   
 31  17  38  1   
 32  17  39  1   
 33  18  19  1   
 34  18  20  1   
 35  18  40  1   
 36  19  21  1   
 37  19  41  1   
 38  19  42  1   
 39  20  22  1   
 40  20  43  1   
 41  20  44  1   
 42  21  23  1   
 43  21  24  1   
 44  21  45  1   
 45  22  24  1   
 46  22  46  1   
 47  22  47  1   
 48  23  48  1   
 49  24  25  1   
 50  24  49  1   
 51  25  26  1   
 52  25  50  1   
 53  25  51  1   
 54  26  52  1   
@<TRIPOS>SUBSTRUCTURE
  1 ****  16 GROUP 4 **** **** 0

# MOE 2024.06 (io_trps.svl 2023.06)
