@<TRIPOS>MOLECULE
NONAME
48 51 1 0 0 
SMALL
USER_CHARGES


@<TRIPOS>ATOM
  1 S        0.0480     0.8020    -2.1600 S.3   1 <1>  -0.0800 
  2 C       -1.0320     1.3100    -0.8700 C.2   1 <1>  -0.1400 
  3 C       -1.0840    -0.4490    -2.6570 C.2   1 <1>  -0.1100 
  4 C       -2.1480     0.5710    -0.8680 C.2   1 <1>  -0.1810 
  5 C       -0.6950     2.4470     0.0880 C.3   1 <1>   0.4600 
  6 C       -2.1850    -0.4390    -1.8800 C.2   1 <1>  -0.1500 
  7 C       -3.2260     0.8520     0.1540 C.3   1 <1>   0.0210 
  8 O       -1.6930     2.5040     1.0910 O.3   1 <1>  -0.5600 
  9 C        0.6280     2.1780     0.8150 C.3   1 <1>  -0.1600 
 10 C       -0.6410     3.7990    -0.6370 C.3   1 <1>  -0.1600 
 11 C       -3.0310     2.2760     0.7120 C.3   1 <1>   0.1200 
 12 C        1.0050     3.3300     1.7480 C.3   1 <1>   0.1400 
 13 C       -0.2600     4.9310     0.3180 C.3   1 <1>   0.1400 
 14 N        1.0380     4.6020     0.9710 N.am  1 <1>  -0.6600 
 15 C        2.1810     5.3650     0.8930 C.2   1 <1>   0.5690 
 16 O        3.2000     5.0450     1.4680 O.2   1 <1>  -0.5700 
 17 C        2.2030     6.6590     0.0660 C.3   1 <1>   0.2010 
 18 N        3.5330     7.3330     0.0620 N.am  1 <1>  -0.7300 
 19 C        3.8260     8.4780    -0.6150 C.2   1 <1>   0.5440 
 20 O        2.9310     8.9950    -1.2560 O.2   1 <1>  -0.5700 
 21 C        5.1560     9.0670    -0.5670 C.ar  1 <1>   0.0860 
 22 C        5.3600    10.4020    -0.9190 C.ar  1 <1>  -0.1500 
 23 C        6.2810     8.3360    -0.1720 C.ar  1 <1>  -0.1500 
 24 C        6.6150    10.9840    -0.8740 C.ar  1 <1>  -0.1500 
 25 C        7.5380     8.9110    -0.1230 C.ar  1 <1>  -0.1500 
 26 C        7.7080    10.2380    -0.4740 C.ar  1 <1>  -0.1500 
 27 H       -0.8010    -1.0670    -3.4900 H     1 <1>   0.1500 
 28 H       -3.0250    -1.1040    -1.9760 H     1 <1>   0.1500 
 29 H       -3.1670     0.1350     0.9530 H     1 <1>   0.0800 
 30 H       -4.1970     0.7770    -0.3010 H     1 <1>   0.0800 
 31 H        1.4170     2.0500     0.0980 H     1 <1>   0.0800 
 32 H        0.5450     1.2650     1.3740 H     1 <1>   0.0800 
 33 H       -1.5860     4.0060    -1.1010 H     1 <1>   0.0800 
 34 H        0.0930     3.7490    -1.4200 H     1 <1>   0.0800 
 35 H       -3.6460     2.4200     1.5820 H     1 <1>   0.0800 
 36 H       -3.3050     3.0070    -0.0280 H     1 <1>   0.0800 
 37 H        1.9620     3.1290     2.1990 H     1 <1>   0.0800 
 38 H        0.2780     3.4180     2.5380 H     1 <1>   0.0800 
 39 H       -1.0160     5.0360     1.0790 H     1 <1>   0.0800 
 40 H       -0.2070     5.8570    -0.2250 H     1 <1>   0.0800 
 41 H        1.4750     7.3400     0.4660 H     1 <1>   0.0800 
 42 H        1.9340     6.4290    -0.9490 H     1 <1>   0.0800 
 43 H        4.2150     6.8750     0.6760 H     1 <1>   0.3700 
 44 H        4.5160    10.9910    -1.2340 H     1 <1>   0.1500 
 45 H        6.1780     7.3000     0.0970 H     1 <1>   0.1500 
 46 H        6.7400    12.0170    -1.1510 H     1 <1>   0.1500 
 47 H        8.3870     8.3260     0.1860 H     1 <1>   0.1500 
 48 H        8.6850    10.6880    -0.4370 H     1 <1>   0.1500 
@<TRIPOS>BOND
  1   1   2  1   
  2   1   3  1   
  3   2   4  2   
  4   2   5  1   
  5   3   6  2   
  6   3  27  1   
  7   4   6  1   
  8   4   7  1   
  9   5   8  1   
 10   5   9  1   
 11   5  10  1   
 12   6  28  1   
 13   7  11  1   
 14   7  29  1   
 15   7  30  1   
 16   8  11  1   
 17   9  12  1   
 18   9  31  1   
 19   9  32  1   
 20  10  13  1   
 21  10  33  1   
 22  10  34  1   
 23  11  35  1   
 24  11  36  1   
 25  12  14  1   
 26  12  37  1   
 27  12  38  1   
 28  13  14  1   
 29  13  39  1   
 30  13  40  1   
 31  14  15  am  
 32  15  16  2   
 33  15  17  1   
 34  17  18  1   
 35  17  41  1   
 36  17  42  1   
 37  18  19  am  
 38  18  43  1   
 39  19  20  2   
 40  19  21  1   
 41  21  22  ar  
 42  21  23  ar  
 43  22  24  ar  
 44  22  44  1   
 45  23  25  ar  
 46  23  45  1   
 47  24  26  ar  
 48  24  46  1   
 49  25  26  ar  
 50  25  47  1   
 51  26  48  1   
@<TRIPOS>SUBSTRUCTURE
  1 ****  15 GROUP 4 **** **** 0

# MOE 2024.06 (io_trps.svl 2023.06)
