@<TRIPOS>MOLECULE
NONAME
44 46 1 0 0 
SMALL
USER_CHARGES


@<TRIPOS>ATOM
  1 O        0.5310     0.1870     0.3470 O.2   1 <1>  -0.5700 
  2 C        0.4020    -0.8700     0.9300 C.2   1 <1>   0.5440 
  3 N       -0.2600    -0.8140     2.1060 N.am  1 <1>  -0.8000 
  4 C        0.9430    -2.1030     0.4010 C.ar  1 <1>   0.0860 
  5 C        0.3770    -3.3710     0.6520 C.ar  1 <1>   0.4100 
  6 C        2.0870    -2.0610    -0.3830 C.ar  1 <1>  -0.1500 
  7 N        0.9120    -4.5100     0.2140 N.ar  1 <1>  -0.6200 
  8 N       -0.8130    -3.5310     1.3530 N.pl3 1 <1>  -0.8380 
  9 C        2.6320    -3.2370    -0.8490 C.ar  1 <1>  -0.1430 
 10 C        2.0080    -4.4330    -0.5100 C.ar  1 <1>   0.1670 
 11 C       -2.0750    -3.1090     0.6900 C.3   1 <1>   0.2090 
 12 C       -0.9560    -4.6300     2.3500 C.3   1 <1>   0.2090 
 13 C        3.8890    -3.1820    -1.7080 C.3   1 <1>  -0.0970 
 14 C        2.5680    -5.7640    -0.9760 C.3   1 <1>  -0.0970 
 15 C       -2.7180    -4.3150     0.0090 C.3   1 <1>  -0.1600 
 16 C       -1.6400    -5.8430     1.7150 C.3   1 <1>  -0.1600 
 17 C       -2.9470    -5.4590     1.0070 C.3   1 <1>   0.1000 
 18 C       -3.5550    -6.6640     0.3080 C.2   1 <1>   0.0060 
 19 N       -4.7140    -7.1610     0.5600 N.2   1 <1>  -0.3380 
 20 N       -2.9410    -7.3460    -0.6670 N.pl3 1 <1>   0.0330 
 21 N       -4.8890    -8.2030    -0.2680 N.2   1 <1>  -0.3380 
 22 C       -3.8200    -8.2950    -0.9850 C.2   1 <1>   0.2700 
 23 N       -3.6230    -9.2560    -1.9510 N.pl3 1 <1>  -0.8840 
 24 H       -0.6660     0.0660     2.4210 H     1 <1>   0.3700 
 25 H       -0.5920    -1.6860     2.5300 H     1 <1>   0.3700 
 26 H        2.5370    -1.1100    -0.6120 H     1 <1>   0.1500 
 27 H       -1.8710    -2.3470    -0.0450 H     1 <1>   0.0800 
 28 H       -2.7440    -2.6960     1.4250 H     1 <1>   0.0800 
 29 H       -1.5400    -4.2750     3.1820 H     1 <1>   0.0800 
 30 H        0.0160    -4.9130     2.7200 H     1 <1>   0.0800 
 31 H        4.1370    -2.1670    -1.9620 H     1 <1>   0.0800 
 32 H        3.7410    -3.7280    -2.6230 H     1 <1>   0.0800 
 33 H        4.7190    -3.6090    -1.1740 H     1 <1>   0.0800 
 34 H        2.1060    -6.5720    -0.4390 H     1 <1>   0.0800 
 35 H        3.6270    -5.8090    -0.8010 H     1 <1>   0.0800 
 36 H        2.3730    -5.8920    -2.0240 H     1 <1>   0.0800 
 37 H       -2.0720    -4.6380    -0.7880 H     1 <1>   0.0800 
 38 H       -3.6580    -4.0210    -0.4230 H     1 <1>   0.0800 
 39 H       -1.8440    -6.5730     2.4760 H     1 <1>   0.0800 
 40 H       -0.9560    -6.2860     1.0140 H     1 <1>   0.0800 
 41 H       -3.6480    -5.1210     1.7520 H     1 <1>   0.0800 
 42 H       -2.0330    -7.1740    -1.0970 H     1 <1>   0.2700 
 43 H       -4.4940    -9.7720    -2.1110 H     1 <1>   0.4000 
 44 H       -2.8880    -9.9270    -1.7160 H     1 <1>   0.4000 
@<TRIPOS>BOND
  1   1   2  2   
  2   2   3  am  
  3   2   4  1   
  4   3  24  1   
  5   3  25  1   
  6   4   5  ar  
  7   4   6  ar  
  8   5   7  ar  
  9   5   8  1   
 10   6   9  ar  
 11   6  26  1   
 12   7  10  ar  
 13   8  11  1   
 14   8  12  1   
 15   9  10  ar  
 16   9  13  1   
 17  10  14  1   
 18  11  15  1   
 19  11  27  1   
 20  11  28  1   
 21  12  16  1   
 22  12  29  1   
 23  12  30  1   
 24  13  31  1   
 25  13  32  1   
 26  13  33  1   
 27  14  34  1   
 28  14  35  1   
 29  14  36  1   
 30  15  17  1   
 31  15  37  1   
 32  15  38  1   
 33  16  17  1   
 34  16  39  1   
 35  16  40  1   
 36  17  18  1   
 37  17  41  1   
 38  18  19  2   
 39  18  20  1   
 40  19  21  1   
 41  20  22  1   
 42  20  42  1   
 43  21  22  2   
 44  22  23  1   
 45  23  43  1   
 46  23  44  1   
@<TRIPOS>SUBSTRUCTURE
  1 ****   8 GROUP 4 **** **** 0

# MOE 2024.06 (io_trps.svl 2023.06)
