@<TRIPOS>MOLECULE
NONAME
50 51 1 0 0 
SMALL
USER_CHARGES


@<TRIPOS>ATOM
  1 CL       0.5790     0.7890    -2.6400 Cl    1 <1>  -0.1770 
  2 C        1.9030     1.6240    -1.8650 C.ar  1 <1>   0.1770 
  3 C        2.7940     0.9070    -1.0890 C.ar  1 <1>  -0.1500 
  4 C        2.0400     2.9870    -2.0420 C.ar  1 <1>  -0.1500 
  5 C        3.8480     1.5620    -0.4710 C.ar  1 <1>  -0.1440 
  6 C        3.0890     3.6470    -1.4280 C.ar  1 <1>  -0.1500 
  7 C        3.9970     2.9390    -0.6380 C.ar  1 <1>   0.0830 
  8 C        4.8310     0.7730     0.3820 C.3   1 <1>  -0.0960 
  9 O        5.0440     3.5360    -0.0100 O.3   1 <1>  -0.3630 
 10 C        5.2370     4.9340    -0.0560 C.3   1 <1>   0.1200 
 11 C        6.4930     5.2760     0.7440 C.3   1 <1>   0.1400 
 12 N        6.5970     6.7520     0.9510 N.am  1 <1>  -0.6600 
 13 C        7.1050     7.5480    -0.0510 C.2   1 <1>   0.5690 
 14 C        6.1210     7.2290     2.2800 C.3   1 <1>   0.0600 
 15 O        7.2920     7.0980    -1.1580 O.2   1 <1>  -0.5700 
 16 C        7.4280     9.0300     0.1950 C.3   1 <1>  -0.0190 
 17 C        6.2720     9.9360    -0.2710 C.3   1 <1>  -0.1600 
 18 C        8.7610     9.4740    -0.4630 C.3   1 <1>  -0.1600 
 19 C        6.4900    11.4120     0.1270 C.3   1 <1>   0.2000 
 20 C        8.8910    11.0010    -0.6390 C.3   1 <1>  -0.1600 
 21 O        5.9570    12.2280    -0.8870 O.3   1 <1>  -0.5600 
 22 C        7.9870    11.7670     0.3300 C.3   1 <1>   0.2000 
 23 C        4.5730    12.3880    -0.8570 C.3   1 <1>   0.0400 
 24 O        8.1670    13.1170     0.1110 O.3   1 <1>  -0.6800 
 25 H        2.6560    -0.1530    -0.9770 H     1 <1>   0.1500 
 26 H        1.3330     3.5190    -2.6530 H     1 <1>   0.1500 
 27 H        3.1830     4.7050    -1.5780 H     1 <1>   0.1500 
 28 H        4.5790    -0.2720     0.4000 H     1 <1>   0.0800 
 29 H        4.8200     1.1470     1.3900 H     1 <1>   0.0800 
 30 H        5.8240     0.8800    -0.0160 H     1 <1>   0.0800 
 31 H        5.3610     5.2300    -1.0820 H     1 <1>   0.0800 
 32 H        4.3730     5.4040     0.3780 H     1 <1>   0.0800 
 33 H        7.3580     4.9290     0.2050 H     1 <1>   0.0800 
 34 H        6.4630     4.7780     1.6970 H     1 <1>   0.0800 
 35 H        5.2970     6.6210     2.6150 H     1 <1>   0.0800 
 36 H        5.7800     8.2470     2.2230 H     1 <1>   0.0800 
 37 H        6.9200     7.1580     2.9970 H     1 <1>   0.0800 
 38 H        7.5540     9.1690     1.2520 H     1 <1>   0.0800 
 39 H        5.3460     9.5890     0.1510 H     1 <1>   0.0800 
 40 H        6.2020     9.8580    -1.3430 H     1 <1>   0.0800 
 41 H        9.5750     9.1100     0.1400 H     1 <1>   0.0800 
 42 H        8.8640     9.0240    -1.4360 H     1 <1>   0.0800 
 43 H        5.9770    11.6280     1.0480 H     1 <1>   0.0800 
 44 H        8.6020    11.2580    -1.6440 H     1 <1>   0.0800 
 45 H        9.9160    11.2960    -0.4960 H     1 <1>   0.0800 
 46 H        8.2880    11.5550     1.3420 H     1 <1>   0.0800 
 47 H        4.2950    13.0400    -1.6660 H     1 <1>   0.0800 
 48 H        4.2860    12.8340     0.0800 H     1 <1>   0.0800 
 49 H        4.0960    11.4330    -0.9860 H     1 <1>   0.0800 
 50 H        7.5170    13.3640    -0.5850 H     1 <1>   0.4000 
@<TRIPOS>BOND
  1   1   2  1   
  2   2   3  ar  
  3   2   4  ar  
  4   3   5  ar  
  5   3  25  1   
  6   4   6  ar  
  7   4  26  1   
  8   5   7  ar  
  9   5   8  1   
 10   6   7  ar  
 11   6  27  1   
 12   7   9  1   
 13   8  28  1   
 14   8  29  1   
 15   8  30  1   
 16   9  10  1   
 17  10  11  1   
 18  10  31  1   
 19  10  32  1   
 20  11  12  1   
 21  11  33  1   
 22  11  34  1   
 23  12  13  am  
 24  12  14  1   
 25  13  15  2   
 26  13  16  1   
 27  14  35  1   
 28  14  36  1   
 29  14  37  1   
 30  16  17  1   
 31  16  18  1   
 32  16  38  1   
 33  17  19  1   
 34  17  39  1   
 35  17  40  1   
 36  18  20  1   
 37  18  41  1   
 38  18  42  1   
 39  19  21  1   
 40  19  22  1   
 41  19  43  1   
 42  20  22  1   
 43  20  44  1   
 44  20  45  1   
 45  21  23  1   
 46  22  24  1   
 47  22  46  1   
 48  23  47  1   
 49  23  48  1   
 50  23  49  1   
 51  24  50  1   
@<TRIPOS>SUBSTRUCTURE
  1 ****  10 GROUP 4 **** **** 0

# MOE 2024.06 (io_trps.svl 2023.06)
