@<TRIPOS>MOLECULE
NONAME
53 55 1 0 0 
SMALL
USER_CHARGES


@<TRIPOS>ATOM
  1 O        0.3760     2.7380     0.6950 O.3   1 <1>  -0.3630 
  2 C        1.4820     2.0080     0.3800 C.ar  1 <1>   0.0830 
  3 C       -0.7860     2.6590    -0.0950 C.3   1 <1>   0.1200 
  4 C        1.4670     0.6680    -0.0450 C.ar  1 <1>   0.0820 
  5 C        2.6880     2.6750     0.5180 C.ar  1 <1>  -0.1500 
  6 C       -1.8490     1.9160     0.7200 C.3   1 <1>   0.3430 
  7 O        0.2780    -0.0010    -0.1400 O.3   1 <1>  -0.3630 
  8 C        2.6800     0.0490    -0.3450 C.ar  1 <1>  -0.1500 
  9 C        3.8820     2.0450     0.2220 C.ar  1 <1>  -0.1500 
 10 N       -3.0870     1.6100    -0.0680 N.4   1 <1>  -0.9590 
 11 C        0.2400    -1.3900    -0.3840 C.3   1 <1>   0.1200 
 12 C        3.8760     0.7330    -0.2130 C.ar  1 <1>  -0.1500 
 13 C       -4.0040     0.7550     0.7520 C.3   1 <1>   0.3430 
 14 C       -3.7860     2.8440    -0.5350 C.3   1 <1>   0.3430 
 15 C       -1.2190    -1.8320    -0.3740 C.3   1 <1>  -0.2400 
 16 C       -5.2330     0.2990    -0.0520 C.3   1 <1>   0.0000 
 17 C       -4.9850     2.4650    -1.4030 C.3   1 <1>  -0.1600 
 18 C       -6.1390    -0.5470     0.8560 C.3   1 <1>   0.2000 
 19 C       -5.9540     1.5380    -0.6530 C.3   1 <1>  -0.1600 
 20 C       -4.9090    -0.7230    -1.1570 C.3   1 <1>  -0.1600 
 21 O       -6.8690     0.2360     1.7270 O.3   1 <1>  -0.6800 
 22 C       -7.0400    -1.3360    -0.0860 C.3   1 <1>  -0.1600 
 23 C       -6.2010    -1.5300    -1.3590 C.3   1 <1>  -0.1600 
 24 H       -1.0940     3.6680    -0.3000 H     1 <1>   0.0800 
 25 H       -0.5540     2.1580    -1.0190 H     1 <1>   0.0800 
 26 H        2.6910     3.6950     0.8570 H     1 <1>   0.1500 
 27 H       -2.1050     2.5130     1.5810 H     1 <1>   0.0800 
 28 H       -1.4170     0.9930     1.0700 H     1 <1>   0.0800 
 29 H        2.7300    -0.9680    -0.6830 H     1 <1>   0.1500 
 30 H        4.8130     2.5750     0.3290 H     1 <1>   0.1500 
 31 H       -2.8150     1.0610    -0.8940 H     1 <1>   0.4500 
 32 H        0.6840    -1.5840    -1.3450 H     1 <1>   0.0800 
 33 H        0.7970    -1.8890     0.3920 H     1 <1>   0.0800 
 34 H        4.8060     0.2430    -0.4470 H     1 <1>   0.1500 
 35 H       -3.4750    -0.1120     1.1100 H     1 <1>   0.0800 
 36 H       -4.3470     1.3130     1.6090 H     1 <1>   0.0800 
 37 H       -4.1260     3.4130     0.3150 H     1 <1>   0.0800 
 38 H       -3.1140     3.4610    -1.1100 H     1 <1>   0.0800 
 39 H       -1.7570    -1.3360    -1.1600 H     1 <1>   0.0800 
 40 H       -1.6660    -1.6200     0.5810 H     1 <1>   0.0800 
 41 H       -1.2720    -2.8930    -0.5450 H     1 <1>   0.0800 
 42 H       -5.5080     3.3640    -1.6820 H     1 <1>   0.0800 
 43 H       -4.6430     2.0050    -2.3120 H     1 <1>   0.0800 
 44 H       -5.5500    -1.2350     1.4410 H     1 <1>   0.0800 
 45 H       -6.7500     1.2380    -1.3130 H     1 <1>   0.0800 
 46 H       -6.4070     2.1110     0.1390 H     1 <1>   0.0800 
 47 H       -4.5800    -0.2760    -2.0790 H     1 <1>   0.0800 
 48 H       -4.1460    -1.3980    -0.8130 H     1 <1>   0.0800 
 49 H       -7.5690    -0.2960     2.1570 H     1 <1>   0.4000 
 50 H       -7.3200    -2.2820     0.3430 H     1 <1>   0.0800 
 51 H       -7.9260    -0.7700    -0.3240 H     1 <1>   0.0800 
 52 H       -5.9780    -2.5710    -1.5240 H     1 <1>   0.0800 
 53 H       -6.7460    -1.1600    -2.2110 H     1 <1>   0.0800 
@<TRIPOS>BOND
  1   1   2  1   
  2   1   3  1   
  3   2   4  ar  
  4   2   5  ar  
  5   3   6  1   
  6   3  24  1   
  7   3  25  1   
  8   4   7  1   
  9   4   8  ar  
 10   5   9  ar  
 11   5  26  1   
 12   6  10  1   
 13   6  27  1   
 14   6  28  1   
 15   7  11  1   
 16   8  12  ar  
 17   8  29  1   
 18   9  12  ar  
 19   9  30  1   
 20  10  13  1   
 21  10  14  1   
 22  10  31  1   
 23  11  15  1   
 24  11  32  1   
 25  11  33  1   
 26  12  34  1   
 27  13  16  1   
 28  13  35  1   
 29  13  36  1   
 30  14  17  1   
 31  14  37  1   
 32  14  38  1   
 33  15  39  1   
 34  15  40  1   
 35  15  41  1   
 36  16  18  1   
 37  16  19  1   
 38  16  20  1   
 39  17  19  1   
 40  17  42  1   
 41  17  43  1   
 42  18  21  1   
 43  18  22  1   
 44  18  44  1   
 45  19  45  1   
 46  19  46  1   
 47  20  23  1   
 48  20  47  1   
 49  20  48  1   
 50  21  49  1   
 51  22  23  1   
 52  22  50  1   
 53  22  51  1   
 54  23  52  1   
 55  23  53  1   
@<TRIPOS>SUBSTRUCTURE
  1 ****   6 GROUP 4 **** **** 0

# MOE 2024.06 (io_trps.svl 2023.06)
