@<TRIPOS>MOLECULE
NONAME
42 44 1 0 0 
SMALL
USER_CHARGES


@<TRIPOS>ATOM
  1 O       -1.1170    -1.5220     0.3990 O.2   1 <1>  -0.5700 
  2 C        0.0350    -1.8080     0.1780 C.2   1 <1>   0.5690 
  3 N        0.7470    -2.7490     0.8280 N.am  1 <1>  -0.6600 
  4 C        0.8570    -1.1720    -0.9070 C.3   1 <1>  -0.0990 
  5 C        2.0970    -2.9400     0.2800 C.3   1 <1>   0.1400 
  6 C        0.2300    -3.6310     1.9200 C.3   1 <1>   0.2010 
  7 C        2.2610    -1.7720    -0.7040 C.3   1 <1>  -0.1600 
  8 C        0.0930    -5.0970     1.5050 C.2   1 <1>   0.5690 
  9 O        0.9050    -5.8840     1.9350 O.2   1 <1>  -0.5700 
 10 N       -0.9190    -5.5020     0.6740 N.am  1 <1>  -0.6600 
 11 C       -1.9570    -4.6310     0.0640 C.3   1 <1>   0.1400 
 12 C       -1.1350    -6.9150     0.2930 C.3   1 <1>   0.1400 
 13 C       -2.9150    -5.5890    -0.6500 C.3   1 <1>   0.2000 
 14 C       -2.6110    -6.9820    -0.0990 C.3   1 <1>  -0.0800 
 15 O       -4.2410    -5.2720    -0.4020 O.3   1 <1>  -0.6800 
 16 C       -2.9470    -8.1010    -1.0990 C.3   1 <1>  -0.0170 
 17 C       -2.6400    -9.4740    -0.5250 C.ar  1 <1>   0.1670 
 18 N       -1.4000    -9.9130    -0.6730 N.ar  1 <1>  -0.6200 
 19 C       -3.6410   -10.1960     0.1230 C.ar  1 <1>   0.1600 
 20 C       -1.2290   -11.1080    -0.1320 C.ar  1 <1>   0.1600 
 21 N       -3.4720   -11.3910     0.6650 N.ar  1 <1>  -0.6200 
 22 C       -2.2310   -11.8220     0.5150 C.ar  1 <1>   0.1600 
 23 H        0.4490    -1.4490    -1.8620 H     1 <1>   0.0800 
 24 H        0.8580    -0.1030    -0.8020 H     1 <1>   0.0800 
 25 H        2.8360    -2.9050     1.0620 H     1 <1>   0.0800 
 26 H        2.1490    -3.8880    -0.2310 H     1 <1>   0.0800 
 27 H        0.9010    -3.5730     2.7570 H     1 <1>   0.0800 
 28 H       -0.7290    -3.2720     2.2470 H     1 <1>   0.0800 
 29 H        2.9110    -1.0350    -0.2660 H     1 <1>   0.0800 
 30 H        2.6940    -2.1030    -1.6320 H     1 <1>   0.0800 
 31 H       -2.4610    -4.0650     0.8280 H     1 <1>   0.0800 
 32 H       -1.5040    -3.9640    -0.6480 H     1 <1>   0.0800 
 33 H       -0.5010    -7.1540    -0.5450 H     1 <1>   0.0800 
 34 H       -0.9080    -7.5800     1.1100 H     1 <1>   0.0800 
 35 H       -2.7490    -5.5420    -1.7130 H     1 <1>   0.0800 
 36 H       -3.1680    -7.1370     0.8090 H     1 <1>   0.0800 
 37 H       -4.3990    -5.2040     0.5600 H     1 <1>   0.4000 
 38 H       -2.3840    -7.9660    -2.0060 H     1 <1>   0.0800 
 39 H       -3.9900    -8.0430    -1.3550 H     1 <1>   0.0800 
 40 H       -4.6230    -9.7650     0.1990 H     1 <1>   0.1500 
 41 H       -0.2490   -11.5440    -0.2030 H     1 <1>   0.1500 
 42 H       -1.9940   -12.7880     0.9240 H     1 <1>   0.1500 
@<TRIPOS>BOND
  1   1   2  2   
  2   2   3  am  
  3   2   4  1   
  4   3   5  1   
  5   3   6  1   
  6   4   7  1   
  7   4  23  1   
  8   4  24  1   
  9   5   7  1   
 10   5  25  1   
 11   5  26  1   
 12   6   8  1   
 13   6  27  1   
 14   6  28  1   
 15   7  29  1   
 16   7  30  1   
 17   8   9  2   
 18   8  10  am  
 19  10  11  1   
 20  10  12  1   
 21  11  13  1   
 22  11  31  1   
 23  11  32  1   
 24  12  14  1   
 25  12  33  1   
 26  12  34  1   
 27  13  14  1   
 28  13  15  1   
 29  13  35  1   
 30  14  16  1   
 31  14  36  1   
 32  15  37  1   
 33  16  17  1   
 34  16  38  1   
 35  16  39  1   
 36  17  18  ar  
 37  17  19  ar  
 38  18  20  ar  
 39  19  21  ar  
 40  19  40  1   
 41  20  22  ar  
 42  20  41  1   
 43  21  22  ar  
 44  22  42  1   
@<TRIPOS>SUBSTRUCTURE
  1 ****  10 GROUP 4 **** **** 0

# MOE 2024.06 (io_trps.svl 2023.06)
