@<TRIPOS>MOLECULE
NONAME
44 46 1 0 0 
SMALL
USER_CHARGES


@<TRIPOS>ATOM
  1 O        1.2610     4.0100     2.8220 O.2   1 <1>  -0.5700 
  2 C        1.7310     3.7310     1.7470 C.2   1 <1>   0.6900 
  3 N        1.5480     2.5080     1.1880 N.am  1 <1>  -0.4900 
  4 N        2.4710     4.6570     1.0630 N.am  1 <1>  -0.5390 
  5 C        2.0670     2.1750    -0.0260 C.2   1 <1>   0.6160 
  6 C        3.0360     4.3870    -0.1820 C.2   1 <1>  -0.0290 
  7 O        1.8800     1.0640    -0.4660 O.2   1 <1>  -0.5700 
  8 C        2.8290     3.1610    -0.7200 C.2   1 <1>  -0.1360 
  9 C        3.8620     5.4720    -0.8650 C.3   1 <1>   0.4810 
 10 N        5.1030     5.7060    -0.0780 N.4   1 <1>  -0.9590 
 11 C        5.7680     6.9830    -0.5030 C.3   1 <1>   0.3430 
 12 C        6.0460     4.5490    -0.1440 C.3   1 <1>   0.3430 
 13 C        6.9930     7.3000     0.3740 C.3   1 <1>   0.2000 
 14 C        7.2680     4.8190     0.7420 C.3   1 <1>  -0.1600 
 15 O        7.6450     8.4100    -0.1550 O.3   1 <1>  -0.5600 
 16 C        7.9800     6.1300     0.3690 C.3   1 <1>  -0.1600 
 17 C        7.3620     9.6360     0.4770 C.3   1 <1>   0.2630 
 18 C        5.9100    10.0700     0.2580 C.ar  1 <1>   0.1670 
 19 N        4.9910     9.5920     1.0950 N.ar  1 <1>  -0.6200 
 20 C        5.6230    10.9350    -0.7880 C.ar  1 <1>  -0.1500 
 21 C        3.7560    10.0350     0.9050 C.ar  1 <1>   0.1600 
 22 C        4.3290    11.3630    -0.9880 C.ar  1 <1>  -0.1500 
 23 C        3.3770    10.9000    -0.1070 C.ar  1 <1>  -0.1500 
 24 H        0.9930     1.8210     1.6880 H     1 <1>   0.3700 
 25 H        2.4760     5.5690     1.5270 H     1 <1>   0.3700 
 26 H        3.2140     2.8530    -1.6760 H     1 <1>   0.1500 
 27 H        3.2790     6.3780    -0.9170 H     1 <1>   0.0800 
 28 H        4.1120     5.1720    -1.8690 H     1 <1>   0.0800 
 29 H        4.8250     5.8170     0.9050 H     1 <1>   0.4500 
 30 H        5.0660     7.7960    -0.4400 H     1 <1>   0.0800 
 31 H        6.0980     6.8960    -1.5250 H     1 <1>   0.0800 
 32 H        6.3710     4.3990    -1.1610 H     1 <1>   0.0800 
 33 H        5.5550     3.6480     0.1920 H     1 <1>   0.0800 
 34 H        6.6840     7.5100     1.3850 H     1 <1>   0.0800 
 35 H        7.9600     4.0010     0.6390 H     1 <1>   0.0800 
 36 H        6.9610     4.8480     1.7740 H     1 <1>   0.0800 
 37 H        8.7720     6.3260     1.0720 H     1 <1>   0.0800 
 38 H        8.4150     6.0350    -0.6120 H     1 <1>   0.0800 
 39 H        8.0290    10.3700     0.0610 H     1 <1>   0.0800 
 40 H        7.5760     9.5480     1.5280 H     1 <1>   0.0800 
 41 H        6.4060    11.2790    -1.4400 H     1 <1>   0.1500 
 42 H        3.0020     9.6950     1.5940 H     1 <1>   0.1500 
 43 H        4.0750    12.0370    -1.7900 H     1 <1>   0.1500 
 44 H        2.3520    11.2120    -0.1980 H     1 <1>   0.1500 
@<TRIPOS>BOND
  1   1   2  2   
  2   2   3  am  
  3   2   4  am  
  4   3   5  am  
  5   3  24  1   
  6   4   6  1   
  7   4  25  1   
  8   5   7  2   
  9   5   8  1   
 10   6   8  2   
 11   6   9  1   
 12   8  26  1   
 13   9  10  1   
 14   9  27  1   
 15   9  28  1   
 16  10  11  1   
 17  10  12  1   
 18  10  29  1   
 19  11  13  1   
 20  11  30  1   
 21  11  31  1   
 22  12  14  1   
 23  12  32  1   
 24  12  33  1   
 25  13  15  1   
 26  13  16  1   
 27  13  34  1   
 28  14  16  1   
 29  14  35  1   
 30  14  36  1   
 31  15  17  1   
 32  16  37  1   
 33  16  38  1   
 34  17  18  1   
 35  17  39  1   
 36  17  40  1   
 37  18  19  ar  
 38  18  20  ar  
 39  19  21  ar  
 40  20  22  ar  
 41  20  41  1   
 42  21  23  ar  
 43  21  42  1   
 44  22  23  ar  
 45  22  43  1   
 46  23  44  1   
@<TRIPOS>SUBSTRUCTURE
  1 ****  10 GROUP 4 **** **** 0

# MOE 2024.06 (io_trps.svl 2023.06)
