@<TRIPOS>MOLECULE
NONAME
41 42 1 0 0 
SMALL
USER_CHARGES


@<TRIPOS>ATOM
  1 O       -0.2150     0.0030     1.0070 O.2   1 <1>  -0.5700 
  2 C        0.7530    -0.6580     0.7300 C.2   1 <1>   0.5690 
  3 N        1.9640    -0.1340     0.3790 N.am  1 <1>  -0.4940 
  4 C        0.6210    -2.1660     0.7650 C.3   1 <1>  -0.0990 
  5 C        2.3460     1.2060     0.2410 C.2   1 <1>   0.2040 
  6 C       -0.1570    -2.6800    -0.4510 C.3   1 <1>  -0.0170 
  7 O        1.5030     2.1970     0.4110 O.3   1 <1>  -0.0190 
  8 C        3.5440     1.7390    -0.0700 C.2   1 <1>  -0.1810 
  9 C       -0.1870    -4.1990    -0.4530 C.ar  1 <1>  -0.1440 
 10 N        2.0750     3.3600     0.2290 N.2   1 <1>  -0.4100 
 11 C        3.3020     3.1130    -0.0600 C.2   1 <1>   0.1080 
 12 C        4.8680     1.0540    -0.3680 C.3   1 <1>  -0.0590 
 13 C       -1.0890    -4.8770     0.3500 C.ar  1 <1>  -0.1500 
 14 C        0.6880    -4.9220    -1.2500 C.ar  1 <1>  -0.1500 
 15 C        4.3200     4.2040    -0.3450 C.3   1 <1>   0.0210 
 16 C       -1.1250    -6.2620     0.3670 C.ar  1 <1>   0.0820 
 17 C        0.6600    -6.3060    -1.2400 C.ar  1 <1>  -0.1500 
 18 C        5.0980     4.5830     0.9190 C.3   1 <1>  -0.2400 
 19 O       -2.0410    -6.8400     1.1860 O.3   1 <1>  -0.3620 
 20 C       -0.2420    -6.9790    -0.4350 C.ar  1 <1>  -0.1500 
 21 C       -2.1750    -8.2410     1.2610 C.3   1 <1>   0.0400 
 22 H        2.6990    -0.8080     0.1900 H     1 <1>   0.3700 
 23 H        0.1010    -2.4420     1.6640 H     1 <1>   0.0800 
 24 H        1.5930    -2.6220     0.7940 H     1 <1>   0.0800 
 25 H        0.2980    -2.3220    -1.3570 H     1 <1>   0.0800 
 26 H       -1.1640    -2.2990    -0.4220 H     1 <1>   0.0800 
 27 H        4.7710    -0.0130    -0.2920 H     1 <1>   0.0800 
 28 H        5.6160     1.3820     0.3310 H     1 <1>   0.0800 
 29 H        5.1910     1.2990    -1.3640 H     1 <1>   0.0800 
 30 H       -1.7780    -4.3370     0.9740 H     1 <1>   0.1500 
 31 H        1.3940    -4.4140    -1.8820 H     1 <1>   0.1500 
 32 H        3.8030     5.0710    -0.7180 H     1 <1>   0.0800 
 33 H        5.0000     3.8730    -1.1090 H     1 <1>   0.0800 
 34 H        1.3410    -6.8610    -1.8620 H     1 <1>   0.1500 
 35 H        4.4160     4.9290     1.6770 H     1 <1>   0.0800 
 36 H        5.8000     5.3680     0.7020 H     1 <1>   0.0800 
 37 H        5.6330     3.7320     1.3020 H     1 <1>   0.0800 
 38 H       -0.2430    -8.0520    -0.4460 H     1 <1>   0.1500 
 39 H       -2.9610    -8.4640     1.9600 H     1 <1>   0.0800 
 40 H       -1.2480    -8.6630     1.6070 H     1 <1>   0.0800 
 41 H       -2.4330    -8.6200     0.2880 H     1 <1>   0.0800 
@<TRIPOS>BOND
  1   1   2  2   
  2   2   3  am  
  3   2   4  1   
  4   3   5  1   
  5   3  22  1   
  6   4   6  1   
  7   4  23  1   
  8   4  24  1   
  9   5   7  1   
 10   5   8  2   
 11   6   9  1   
 12   6  25  1   
 13   6  26  1   
 14   7  10  1   
 15   8  11  1   
 16   8  12  1   
 17   9  13  ar  
 18   9  14  ar  
 19  10  11  2   
 20  11  15  1   
 21  12  27  1   
 22  12  28  1   
 23  12  29  1   
 24  13  16  ar  
 25  13  30  1   
 26  14  17  ar  
 27  14  31  1   
 28  15  18  1   
 29  15  32  1   
 30  15  33  1   
 31  16  19  1   
 32  16  20  ar  
 33  17  20  ar  
 34  17  34  1   
 35  18  35  1   
 36  18  36  1   
 37  18  37  1   
 38  19  21  1   
 39  20  38  1   
 40  21  39  1   
 41  21  40  1   
 42  21  41  1   
@<TRIPOS>SUBSTRUCTURE
  1 ****   4 GROUP 4 **** **** 0

# MOE 2024.06 (io_trps.svl 2023.06)
