@<TRIPOS>MOLECULE
NONAME
45 46 1 0 0 
SMALL
USER_CHARGES


@<TRIPOS>ATOM
  1 S        1.1710     0.9090     0.4140 S.o2  1 <1>   1.3330 
  2 O        2.0680     1.8130     1.0990 O.2   1 <1>  -0.6500 
  3 O        1.5660     0.3390    -0.8540 O.2   1 <1>  -0.6500 
  4 N        0.7830    -0.3620     1.4690 N.am  1 <1>  -0.8490 
  5 C       -0.3900     1.7610     0.2000 C.3   1 <1>  -0.0550 
  6 C        0.2040    -1.5280     0.7920 C.3   1 <1>   0.1160 
  7 C        1.9290    -0.7780     2.2830 C.3   1 <1>   0.1160 
  8 C       -0.2930     2.9640    -0.7610 C.3   1 <1>  -0.0800 
  9 C       -1.6350     3.6310    -1.0780 C.3   1 <1>   0.2000 
 10 C        0.5940     4.1070    -0.2460 C.3   1 <1>   0.1400 
 11 O       -2.3590     3.7730     0.0960 O.3   1 <1>  -0.6800 
 12 C       -1.2420     5.0230    -1.5690 C.3   1 <1>   0.1400 
 13 N       -0.0090     5.3410    -0.8070 N.am  1 <1>  -0.6600 
 14 C        0.4830     6.6130    -0.6520 C.2   1 <1>   0.5440 
 15 O       -0.1240     7.5410    -1.1490 O.2   1 <1>  -0.5700 
 16 C        1.6950     6.8520     0.0920 C.ar  1 <1>   0.0860 
 17 C        2.9500     6.7780    -0.4970 C.ar  1 <1>   0.1670 
 18 C        1.6780     7.1430     1.4490 C.ar  1 <1>   0.1670 
 19 N        4.0610     6.9410     0.1870 N.ar  1 <1>  -0.6200 
 20 C        3.1300     6.4880    -1.9790 C.3   1 <1>  -0.0970 
 21 N        2.7770     7.3080     2.1500 N.ar  1 <1>  -0.6200 
 22 C        0.3750     7.2760     2.2210 C.3   1 <1>  -0.0970 
 23 C        3.9080     7.1940     1.4750 C.ar  1 <1>   0.4700 
 24 H       -1.1140     1.0730    -0.1870 H     1 <1>   0.0800 
 25 H       -0.7400     2.0920     1.1590 H     1 <1>   0.0800 
 26 H       -0.1020    -2.2620     1.5170 H     1 <1>   0.0800 
 27 H        0.9250    -1.9730     0.1250 H     1 <1>   0.0800 
 28 H       -0.6600    -1.2360     0.2210 H     1 <1>   0.0800 
 29 H        1.6440    -1.5710     2.9530 H     1 <1>   0.0800 
 30 H        2.2810     0.0500     2.8750 H     1 <1>   0.0800 
 31 H        2.7330    -1.1180     1.6510 H     1 <1>   0.0800 
 32 H        0.1290     2.6220    -1.6920 H     1 <1>   0.0800 
 33 H       -2.2320     3.0830    -1.7870 H     1 <1>   0.0800 
 34 H        1.6140     3.9890    -0.5740 H     1 <1>   0.0800 
 35 H        0.5700     4.1570     0.8300 H     1 <1>   0.0800 
 36 H       -1.9660     4.5000     0.6200 H     1 <1>   0.4000 
 37 H       -2.0180     5.7500    -1.3990 H     1 <1>   0.0800 
 38 H       -1.0030     4.9940    -2.6180 H     1 <1>   0.0800 
 39 H        2.2880     6.8290    -2.5540 H     1 <1>   0.0800 
 40 H        3.2560     5.4320    -2.1270 H     1 <1>   0.0800 
 41 H        4.0070     6.9920    -2.3440 H     1 <1>   0.0800 
 42 H       -0.3820     7.7500     1.6230 H     1 <1>   0.0800 
 43 H        0.5270     7.8750     3.1000 H     1 <1>   0.0800 
 44 H        0.0320     6.3040     2.5230 H     1 <1>   0.0800 
 45 H        4.8140     7.3250     2.0430 H     1 <1>   0.1500 
@<TRIPOS>BOND
  1   1   2  2   
  2   1   3  2   
  3   1   4  am  
  4   1   5  1   
  5   4   6  1   
  6   4   7  1   
  7   5   8  1   
  8   5  24  1   
  9   5  25  1   
 10   6  26  1   
 11   6  27  1   
 12   6  28  1   
 13   7  29  1   
 14   7  30  1   
 15   7  31  1   
 16   8   9  1   
 17   8  10  1   
 18   8  32  1   
 19   9  11  1   
 20   9  12  1   
 21   9  33  1   
 22  10  13  1   
 23  10  34  1   
 24  10  35  1   
 25  11  36  1   
 26  12  13  1   
 27  12  37  1   
 28  12  38  1   
 29  13  14  am  
 30  14  15  2   
 31  14  16  1   
 32  16  17  ar  
 33  16  18  ar  
 34  17  19  ar  
 35  17  20  1   
 36  18  21  ar  
 37  18  22  1   
 38  19  23  ar  
 39  20  39  1   
 40  20  40  1   
 41  20  41  1   
 42  21  23  ar  
 43  22  42  1   
 44  22  43  1   
 45  22  44  1   
 46  23  45  1   
@<TRIPOS>SUBSTRUCTURE
  1 ****  10 GROUP 4 **** **** 0

# MOE 2024.06 (io_trps.svl 2023.06)
