@<TRIPOS>MOLECULE
NONAME
50 52 1 0 0 
SMALL
USER_CHARGES


@<TRIPOS>ATOM
  1 O       -3.8330     3.0400     0.2680 O.2   1 <1>  -0.5700 
  2 C       -2.8280     2.3610     0.1700 C.2   1 <1>   0.7160 
  3 N       -2.9280     1.0120    -0.1230 N.am  1 <1>  -0.6600 
  4 C       -1.5490     2.9880     0.3770 C.2   1 <1>  -0.0860 
  5 C       -4.1620     0.3470    -0.6420 C.3   1 <1>   0.2200 
  6 C       -1.8310     0.0550     0.2070 C.3   1 <1>   0.0600 
  7 C       -1.0620     3.6700     1.4330 C.2   1 <1>  -0.0400 
  8 C       -0.4760     3.0470    -0.4980 C.2   1 <1>   0.1080 
  9 C       -4.7180     1.0240    -1.9010 C.3   1 <1>  -0.1600 
 10 C       -5.2740     0.3000     0.4100 C.3   1 <1>  -0.1600 
 11 O        0.1690     4.0760     1.2390 O.3   1 <1>  -0.0190 
 12 C       -1.7300     4.0070     2.7520 C.3   1 <1>  -0.0600 
 13 N        0.5040     3.6740     0.0340 N.2   1 <1>  -0.4100 
 14 C       -0.4340     2.4790    -1.9020 C.3   1 <1>  -0.0590 
 15 C       -6.1880     1.3730    -1.6330 C.3   1 <1>  -0.0800 
 16 C       -6.5300     0.9280    -0.2080 C.3   1 <1>  -0.0800 
 17 C       -6.5000     2.8760    -1.6920 C.3   1 <1>  -0.1600 
 18 C       -7.0270     2.1870     0.5190 C.3   1 <1>  -0.1600 
 19 C       -7.5120     3.1400    -0.5760 C.3   1 <1>   0.4230 
 20 N       -8.8990     2.7790    -1.0180 N.4   1 <1>  -0.9590 
 21 C       -9.3660     3.6050    -2.1780 C.3   1 <1>   0.2630 
 22 C       -9.9040     2.9020     0.0860 C.3   1 <1>   0.2630 
 23 H       -3.9170    -0.6680    -0.9080 H     1 <1>   0.0800 
 24 H       -2.2170    -0.7430     0.8190 H     1 <1>   0.0800 
 25 H       -1.0370     0.5370     0.7520 H     1 <1>   0.0800 
 26 H       -1.4270    -0.3630    -0.6980 H     1 <1>   0.0800 
 27 H       -4.1410     1.8890    -2.1740 H     1 <1>   0.0800 
 28 H       -4.6660     0.3280    -2.7190 H     1 <1>   0.0800 
 29 H       -5.4750    -0.7260     0.6590 H     1 <1>   0.0800 
 30 H       -4.9750     0.8040     1.3130 H     1 <1>   0.0800 
 31 H       -2.7310     3.6160     2.7810 H     1 <1>   0.0800 
 32 H       -1.7720     5.0740     2.8730 H     1 <1>   0.0800 
 33 H       -1.1670     3.5850     3.5640 H     1 <1>   0.0800 
 34 H       -1.4040     2.5400    -2.3600 H     1 <1>   0.0800 
 35 H       -0.1180     1.4540    -1.8720 H     1 <1>   0.0800 
 36 H        0.2640     3.0390    -2.4980 H     1 <1>   0.0800 
 37 H       -6.8170     0.8440    -2.3300 H     1 <1>   0.0800 
 38 H       -7.3180     0.1950    -0.2450 H     1 <1>   0.0800 
 39 H       -6.8060     3.1900    -2.6710 H     1 <1>   0.0800 
 40 H       -5.6160     3.4370    -1.4490 H     1 <1>   0.0800 
 41 H       -6.2000     2.6700     1.0070 H     1 <1>   0.0800 
 42 H       -7.7470     1.9600     1.2810 H     1 <1>   0.0800 
 43 H       -7.4750     4.1670    -0.2470 H     1 <1>   0.0800 
 44 H       -8.8510     1.7940    -1.3120 H     1 <1>   0.4500 
 45 H       -9.3210     4.6530    -1.9320 H     1 <1>   0.0800 
 46 H      -10.3830     3.3520    -2.4290 H     1 <1>   0.0800 
 47 H       -8.7530     3.4270    -3.0460 H     1 <1>   0.0800 
 48 H       -9.8980     3.9020     0.4880 H     1 <1>   0.0800 
 49 H       -9.6870     2.2080     0.8810 H     1 <1>   0.0800 
 50 H      -10.8930     2.6860    -0.2850 H     1 <1>   0.0800 
@<TRIPOS>BOND
  1   1   2  2   
  2   2   3  am  
  3   2   4  1   
  4   3   5  1   
  5   3   6  1   
  6   4   7  2   
  7   4   8  1   
  8   5   9  1   
  9   5  10  1   
 10   5  23  1   
 11   6  24  1   
 12   6  25  1   
 13   6  26  1   
 14   7  11  1   
 15   7  12  1   
 16   8  13  2   
 17   8  14  1   
 18   9  15  1   
 19   9  27  1   
 20   9  28  1   
 21  10  16  1   
 22  10  29  1   
 23  10  30  1   
 24  11  13  1   
 25  12  31  1   
 26  12  32  1   
 27  12  33  1   
 28  14  34  1   
 29  14  35  1   
 30  14  36  1   
 31  15  16  1   
 32  15  17  1   
 33  15  37  1   
 34  16  18  1   
 35  16  38  1   
 36  17  19  1   
 37  17  39  1   
 38  17  40  1   
 39  18  19  1   
 40  18  41  1   
 41  18  42  1   
 42  19  20  1   
 43  19  43  1   
 44  20  21  1   
 45  20  22  1   
 46  20  44  1   
 47  21  45  1   
 48  21  46  1   
 49  21  47  1   
 50  22  48  1   
 51  22  49  1   
 52  22  50  1   
@<TRIPOS>SUBSTRUCTURE
  1 ****   1 GROUP 4 **** **** 0

# MOE 2024.06 (io_trps.svl 2023.06)
