@<TRIPOS>MOLECULE
NONAME
55 58 1 0 0 
SMALL
USER_CHARGES


@<TRIPOS>ATOM
  1 O       -0.9610     1.0290     2.2360 O.2   1 <1>  -0.5700 
  2 C       -1.8710     1.2550     1.4730 C.2   1 <1>   0.5690 
  3 N       -3.0630     0.5790     1.5650 N.am  1 <1>  -0.6600 
  4 C       -1.6630     2.3240     0.4040 C.3   1 <1>  -0.0990 
  5 C       -4.3110     0.8860     0.8160 C.3   1 <1>   0.1400 
  6 C       -3.2160    -0.5960     2.4680 C.3   1 <1>   0.1400 
  7 C       -0.1970     2.5370    -0.0300 C.3   1 <1>  -0.0800 
  8 C       -4.6500    -0.3100    -0.0760 C.3   1 <1>  -0.1600 
  9 C       -3.5560    -1.8260     1.6220 C.3   1 <1>  -0.1600 
 10 C       -0.0980     3.7300    -0.9980 C.3   1 <1>   0.1200 
 11 C        0.3890     1.2750    -0.6890 C.3   1 <1>  -0.1600 
 12 C       -4.8020    -1.6020     0.7490 C.3   1 <1>   0.4240 
 13 O        1.2210     3.9000    -1.4200 O.3   1 <1>  -0.5600 
 14 C        1.7810     1.5810    -1.2540 C.3   1 <1>  -0.1600 
 15 O       -5.8590    -1.4110     1.6600 O.3   1 <1>  -0.5600 
 16 C       -5.0430    -2.8230    -0.1660 C.ar  1 <1>  -0.1440 
 17 C        1.7490     2.8300    -2.1410 C.3   1 <1>   0.1200 
 18 C       -7.1550    -1.6480     1.2060 C.3   1 <1>   0.1200 
 19 C       -6.2280    -3.5490    -0.1010 C.ar  1 <1>  -0.1440 
 20 C       -4.0750    -3.2170    -1.0830 C.ar  1 <1>  -0.1500 
 21 C       -7.3020    -3.1310     0.8830 C.3   1 <1>  -0.0170 
 22 C       -6.4340    -4.6450    -0.9240 C.ar  1 <1>  -0.1500 
 23 C       -4.2800    -4.3080    -1.9080 C.ar  1 <1>  -0.1500 
 24 C       -5.4570    -5.0310    -1.8350 C.ar  1 <1>   0.0820 
 25 O       -5.5790    -6.0880    -2.6760 O.3   1 <1>  -0.3630 
 26 C       -6.7300    -6.9020    -2.6690 C.3   1 <1>   0.0400 
 27 H       -2.0530     3.2460     0.7960 H     1 <1>   0.0800 
 28 H       -2.2250     2.0660    -0.4720 H     1 <1>   0.0800 
 29 H       -4.2140     1.7770     0.2250 H     1 <1>   0.0800 
 30 H       -5.1090     1.0510     1.5210 H     1 <1>   0.0800 
 31 H       -4.0040    -0.4020     3.1750 H     1 <1>   0.0800 
 32 H       -2.3100    -0.7790     3.0210 H     1 <1>   0.0800 
 33 H        0.3860     2.7800     0.8430 H     1 <1>   0.0800 
 34 H       -3.8600    -0.4300    -0.7930 H     1 <1>   0.0800 
 35 H       -5.5500    -0.1180    -0.6270 H     1 <1>   0.0800 
 36 H       -3.7220    -2.6740     2.2600 H     1 <1>   0.0800 
 37 H       -2.7050    -2.0490     1.0070 H     1 <1>   0.0800 
 38 H       -0.3980     4.6380    -0.5050 H     1 <1>   0.0800 
 39 H       -0.7160     3.5820    -1.8670 H     1 <1>   0.0800 
 40 H       -0.2520     0.9500    -1.4900 H     1 <1>   0.0800 
 41 H        0.4620     0.4770     0.0300 H     1 <1>   0.0800 
 42 H        2.1390     0.7420    -1.8230 H     1 <1>   0.0800 
 43 H        2.4720     1.7500    -0.4460 H     1 <1>   0.0800 
 44 H        2.7450     3.1010    -2.4470 H     1 <1>   0.0800 
 45 H        1.1430     2.6730    -3.0170 H     1 <1>   0.0800 
 46 H       -7.3450    -1.0420     0.3380 H     1 <1>   0.0800 
 47 H       -7.8360    -1.3650     1.9900 H     1 <1>   0.0800 
 48 H       -3.1480    -2.6790    -1.1660 H     1 <1>   0.1500 
 49 H       -8.2780    -3.3080     0.4680 H     1 <1>   0.0800 
 50 H       -7.2090    -3.7050     1.7880 H     1 <1>   0.0800 
 51 H       -7.3560    -5.1870    -0.8470 H     1 <1>   0.1500 
 52 H       -3.5270    -4.6090    -2.6130 H     1 <1>   0.1500 
 53 H       -6.5970    -7.6730    -3.4060 H     1 <1>   0.0800 
 54 H       -7.5850    -6.3000    -2.9190 H     1 <1>   0.0800 
 55 H       -6.8380    -7.3430    -1.6940 H     1 <1>   0.0800 
@<TRIPOS>BOND
  1   1   2  2   
  2   2   3  am  
  3   2   4  1   
  4   3   5  1   
  5   3   6  1   
  6   4   7  1   
  7   4  27  1   
  8   4  28  1   
  9   5   8  1   
 10   5  29  1   
 11   5  30  1   
 12   6   9  1   
 13   6  31  1   
 14   6  32  1   
 15   7  10  1   
 16   7  11  1   
 17   7  33  1   
 18   8  12  1   
 19   8  34  1   
 20   8  35  1   
 21   9  12  1   
 22   9  36  1   
 23   9  37  1   
 24  10  13  1   
 25  10  38  1   
 26  10  39  1   
 27  11  14  1   
 28  11  40  1   
 29  11  41  1   
 30  12  15  1   
 31  12  16  1   
 32  13  17  1   
 33  14  17  1   
 34  14  42  1   
 35  14  43  1   
 36  15  18  1   
 37  16  19  ar  
 38  16  20  ar  
 39  17  44  1   
 40  17  45  1   
 41  18  21  1   
 42  18  46  1   
 43  18  47  1   
 44  19  21  1   
 45  19  22  ar  
 46  20  23  ar  
 47  20  48  1   
 48  21  49  1   
 49  21  50  1   
 50  22  24  ar  
 51  22  51  1   
 52  23  24  ar  
 53  23  52  1   
 54  24  25  1   
 55  25  26  1   
 56  26  53  1   
 57  26  54  1   
 58  26  55  1   
@<TRIPOS>SUBSTRUCTURE
  1 ****   8 GROUP 4 **** **** 0

# MOE 2024.06 (io_trps.svl 2023.06)
