@<TRIPOS>MOLECULE
NONAME
53 55 1 0 0 
SMALL
USER_CHARGES


@<TRIPOS>ATOM
  1 F       -1.2150    -0.0600     0.0220 F     1 <1>  -0.1900 
  2 C       -2.3400     0.5510    -0.2580 C.ar  1 <1>   0.1900 
  3 C       -2.3560     1.5130    -1.2590 C.ar  1 <1>   0.0830 
  4 C       -3.4770     0.2140     0.4490 C.ar  1 <1>  -0.1500 
  5 O       -1.2410     1.8290    -1.9450 O.3   1 <1>  -0.5330 
  6 C       -3.5470     2.1540    -1.5510 C.ar  1 <1>  -0.1500 
  7 C       -4.6740     0.8510     0.1450 C.ar  1 <1>  -0.1440 
  8 C       -4.6980     1.8230    -0.8500 C.ar  1 <1>  -0.1500 
  9 C       -5.9520     0.4770     0.8910 C.3   1 <1>   0.0440 
 10 C       -6.1430    -1.0290     1.0180 C.2   1 <1>   0.5690 
 11 O       -6.1110    -1.4940     2.1330 O.2   1 <1>  -0.5700 
 12 N       -6.3310    -1.8160    -0.0880 N.am  1 <1>  -0.6600 
 13 C       -6.3760    -3.3120     0.0530 C.3   1 <1>   0.3640 
 14 C       -6.4730    -1.2770    -1.4800 C.3   1 <1>   0.1400 
 15 C       -4.9870    -3.9460    -0.1380 C.ar  1 <1>  -0.1430 
 16 C       -7.4260    -3.9690    -0.9010 C.3   1 <1>   0.2000 
 17 C       -6.7270    -2.3810    -2.5160 C.3   1 <1>   0.1200 
 18 C       -4.8190    -5.2670     0.2600 C.ar  1 <1>  -0.1500 
 19 C       -3.8900    -3.2740    -0.6720 C.ar  1 <1>  -0.1500 
 20 O       -7.7380    -3.2170    -2.0530 O.3   1 <1>  -0.5600 
 21 C       -8.7520    -4.2270    -0.1770 C.3   1 <1>   0.1200 
 22 C       -3.6050    -5.9160     0.1120 C.ar  1 <1>   0.0830 
 23 C       -2.6660    -3.9060    -0.8050 C.ar  1 <1>  -0.1500 
 24 O       -8.6000    -5.2480     0.7570 O.3   1 <1>  -0.6800 
 25 O       -3.5500    -7.2200     0.4830 O.3   1 <1>  -0.3630 
 26 C       -2.5080    -5.2190    -0.4030 C.ar  1 <1>   0.0830 
 27 C       -3.2360    -8.1550    -0.5260 C.3   1 <1>   0.0400 
 28 O       -1.2750    -5.7680    -0.5200 O.3   1 <1>  -0.3630 
 29 C       -0.6070    -6.0400     0.6920 C.3   1 <1>   0.0400 
 30 H       -3.4210    -0.5380     1.2180 H     1 <1>   0.1500 
 31 H       -0.4680     1.3210    -1.6320 H     1 <1>   0.4500 
 32 H       -3.5660     2.9050    -2.3210 H     1 <1>   0.1500 
 33 H       -5.6150     2.3330    -1.0890 H     1 <1>   0.1500 
 34 H       -6.8140     0.8910     0.4030 H     1 <1>   0.0800 
 35 H       -5.9080     0.9010     1.8780 H     1 <1>   0.0800 
 36 H       -6.6670    -3.5520     1.0620 H     1 <1>   0.0800 
 37 H       -7.2990    -0.5880    -1.5070 H     1 <1>   0.0800 
 38 H       -5.5830    -0.7440    -1.7590 H     1 <1>   0.0800 
 39 H       -7.0470    -4.9120    -1.2520 H     1 <1>   0.0800 
 40 H       -5.8420    -2.9670    -2.6960 H     1 <1>   0.0800 
 41 H       -7.0510    -1.9510    -3.4470 H     1 <1>   0.0800 
 42 H       -5.6380    -5.8140     0.6920 H     1 <1>   0.1500 
 43 H       -3.9640    -2.2500    -0.9840 H     1 <1>   0.1500 
 44 H       -9.5150    -4.5250    -0.8750 H     1 <1>   0.0800 
 45 H       -9.0670    -3.3410     0.3470 H     1 <1>   0.0800 
 46 H       -1.8230    -3.3760    -1.2110 H     1 <1>   0.1500 
 47 H       -8.6070    -6.1240     0.3210 H     1 <1>   0.4000 
 48 H       -3.4080    -9.1410    -0.1340 H     1 <1>   0.0800 
 49 H       -2.2030    -8.0490    -0.8040 H     1 <1>   0.0800 
 50 H       -3.8720    -7.9790    -1.3750 H     1 <1>   0.0800 
 51 H        0.3780    -6.4020     0.4610 H     1 <1>   0.0800 
 52 H       -1.1540    -6.7860     1.2400 H     1 <1>   0.0800 
 53 H       -0.5420    -5.1310     1.2640 H     1 <1>   0.0800 
@<TRIPOS>BOND
  1   1   2  1   
  2   2   3  ar  
  3   2   4  ar  
  4   3   5  1   
  5   3   6  ar  
  6   4   7  ar  
  7   4  30  1   
  8   5  31  1   
  9   6   8  ar  
 10   6  32  1   
 11   7   8  ar  
 12   7   9  1   
 13   8  33  1   
 14   9  10  1   
 15   9  34  1   
 16   9  35  1   
 17  10  11  2   
 18  10  12  am  
 19  12  13  1   
 20  12  14  1   
 21  13  15  1   
 22  13  16  1   
 23  13  36  1   
 24  14  17  1   
 25  14  37  1   
 26  14  38  1   
 27  15  18  ar  
 28  15  19  ar  
 29  16  20  1   
 30  16  21  1   
 31  16  39  1   
 32  17  20  1   
 33  17  40  1   
 34  17  41  1   
 35  18  22  ar  
 36  18  42  1   
 37  19  23  ar  
 38  19  43  1   
 39  21  24  1   
 40  21  44  1   
 41  21  45  1   
 42  22  25  1   
 43  22  26  ar  
 44  23  26  ar  
 45  23  46  1   
 46  24  47  1   
 47  25  27  1   
 48  26  28  1   
 49  27  48  1   
 50  27  49  1   
 51  27  50  1   
 52  28  29  1   
 53  29  51  1   
 54  29  52  1   
 55  29  53  1   
@<TRIPOS>SUBSTRUCTURE
  1 ****  19 GROUP 4 **** **** 0

# MOE 2024.06 (io_trps.svl 2023.06)
