@<TRIPOS>MOLECULE
NONAME
46 48 1 0 0 
SMALL
USER_CHARGES


@<TRIPOS>ATOM
  1 O       -0.8990     0.0950    -3.0180 O.2   1 <1>  -0.5700 
  2 C       -1.1460     0.8900    -2.1390 C.2   1 <1>   0.5690 
  3 N       -1.7520     0.4860    -0.9770 N.am  1 <1>  -0.6600 
  4 C       -0.7980     2.3600    -2.4030 C.3   1 <1>   0.1810 
  5 C       -2.0920     1.3500     0.1820 C.3   1 <1>   0.1400 
  6 C       -2.0570    -0.9340    -0.6830 C.3   1 <1>   0.1400 
  7 O       -0.1660     2.9780    -1.3110 O.3   1 <1>  -0.5600 
  8 C       -2.8590     0.4340     1.1330 C.3   1 <1>   0.2000 
  9 C       -2.3700    -0.9770     0.8140 C.3   1 <1>  -0.0800 
 10 C        0.2390     4.2890    -1.5410 C.3   1 <1>   0.2640 
 11 O       -2.6080     0.7400     2.4600 O.3   1 <1>  -0.6800 
 12 C       -3.3850    -2.0630     1.2010 C.3   1 <1>   0.0200 
 13 C        0.7600     4.8690    -0.2360 C.ar  1 <1>  -0.1440 
 14 C       -2.8940    -3.4400     0.7980 C.2   1 <1>  -0.0400 
 15 C        1.7850     4.2340     0.4490 C.ar  1 <1>  -0.1500 
 16 C        0.2210     6.0380     0.2820 C.ar  1 <1>  -0.1500 
 17 O       -1.8170    -3.9370     1.3450 O.3   1 <1>  -0.0190 
 18 C       -3.3650    -4.3390    -0.0790 C.2   1 <1>  -0.1500 
 19 C        2.2700     4.7610     1.6330 C.ar  1 <1>  -0.1500 
 20 C        0.7040     6.5660     1.4680 C.ar  1 <1>  -0.1500 
 21 N       -1.5400    -5.1200     0.8790 N.2   1 <1>  -0.4100 
 22 C       -2.4560    -5.3890     0.0190 C.2   1 <1>   0.1080 
 23 C        1.7300     5.9280     2.1430 C.ar  1 <1>  -0.1500 
 24 C       -2.5260    -6.6740    -0.7750 C.3   1 <1>  -0.0590 
 25 H       -1.7010     2.8960    -2.6250 H     1 <1>   0.0800 
 26 H       -0.1360     2.4090    -3.2500 H     1 <1>   0.0800 
 27 H       -1.1820     1.7000     0.6400 H     1 <1>   0.0800 
 28 H       -2.6970     2.1840    -0.1280 H     1 <1>   0.0800 
 29 H       -2.9090    -1.2340    -1.2690 H     1 <1>   0.0800 
 30 H       -1.2180    -1.5650    -0.9290 H     1 <1>   0.0800 
 31 H       -3.9170     0.5310     0.9560 H     1 <1>   0.0800 
 32 H       -1.4410    -1.1580     1.3260 H     1 <1>   0.0800 
 33 H        1.0180     4.2850    -2.2840 H     1 <1>   0.0800 
 34 H       -0.6040     4.8560    -1.8990 H     1 <1>   0.0800 
 35 H       -1.6490     0.6950     2.6440 H     1 <1>   0.4000 
 36 H       -4.3280    -1.8710     0.7210 H     1 <1>   0.0800 
 37 H       -3.5430    -2.0450     2.2650 H     1 <1>   0.0800 
 38 H        2.2040     3.3230     0.0570 H     1 <1>   0.1500 
 39 H       -0.5770     6.5440    -0.2310 H     1 <1>   0.1500 
 40 H       -4.2260    -4.2960    -0.7190 H     1 <1>   0.1500 
 41 H        3.0660     4.2610     2.1570 H     1 <1>   0.1500 
 42 H        0.2820     7.4720     1.8650 H     1 <1>   0.1500 
 43 H        2.1050     6.3380     3.0650 H     1 <1>   0.1500 
 44 H       -3.4570    -7.1730    -0.5810 H     1 <1>   0.0800 
 45 H       -1.7170    -7.3240    -0.4930 H     1 <1>   0.0800 
 46 H       -2.4480    -6.4580    -1.8250 H     1 <1>   0.0800 
@<TRIPOS>BOND
  1   1   2  2   
  2   2   3  am  
  3   2   4  1   
  4   3   5  1   
  5   3   6  1   
  6   4   7  1   
  7   4  25  1   
  8   4  26  1   
  9   5   8  1   
 10   5  27  1   
 11   5  28  1   
 12   6   9  1   
 13   6  29  1   
 14   6  30  1   
 15   7  10  1   
 16   8   9  1   
 17   8  11  1   
 18   8  31  1   
 19   9  12  1   
 20   9  32  1   
 21  10  13  1   
 22  10  33  1   
 23  10  34  1   
 24  11  35  1   
 25  12  14  1   
 26  12  36  1   
 27  12  37  1   
 28  13  15  ar  
 29  13  16  ar  
 30  14  17  1   
 31  14  18  2   
 32  15  19  ar  
 33  15  38  1   
 34  16  20  ar  
 35  16  39  1   
 36  17  21  1   
 37  18  22  1   
 38  18  40  1   
 39  19  23  ar  
 40  19  41  1   
 41  20  23  ar  
 42  20  42  1   
 43  21  22  2   
 44  22  24  1   
 45  23  43  1   
 46  24  44  1   
 47  24  45  1   
 48  24  46  1   
@<TRIPOS>SUBSTRUCTURE
  1 ****   3 GROUP 4 **** **** 0

# MOE 2024.06 (io_trps.svl 2023.06)
