@<TRIPOS>MOLECULE
NONAME
52 54 1 0 0 
SMALL
USER_CHARGES


@<TRIPOS>ATOM
  1 S       -0.4750    -0.1940    -1.5620 S.o2  1 <1>   1.3330 
  2 O       -0.4160     0.9040    -2.5010 O.2   1 <1>  -0.6500 
  3 O       -1.0590    -1.4540    -1.9650 O.2   1 <1>  -0.6500 
  4 N       -1.3080     0.3370    -0.1850 N.am  1 <1>  -0.8490 
  5 C        1.1910    -0.4920    -0.9540 C.3   1 <1>  -0.0550 
  6 C       -2.4850     1.1540    -0.5430 C.3   1 <1>   0.1960 
  7 C       -1.7060    -0.7660     0.6970 C.3   1 <1>   0.1960 
  8 C        1.8540     0.7340    -0.3030 C.3   1 <1>  -0.1600 
  9 C       -3.1350     1.7930     0.7010 C.3   1 <1>   0.1440 
 10 C       -2.3000    -0.2180     1.9990 C.3   1 <1>  -0.1600 
 11 C        3.2710     0.4090     0.1830 C.3   1 <1>  -0.1600 
 12 C       -4.3400     2.5990     0.2560 C.ar  1 <1>   0.1670 
 13 C       -3.5040     0.6950     1.7190 C.3   1 <1>  -0.1600 
 14 C       -2.2160     2.8810     1.3220 C.3   1 <1>  -0.1600 
 15 C        3.9200     1.6320     0.8350 C.3   1 <1>  -0.2400 
 16 N       -5.4820     2.0960    -0.1430 N.ar  1 <1>  -0.6200 
 17 C       -4.0940     3.9370     0.3030 C.ar  1 <1>  -0.1440 
 18 C       -2.6950     4.2380     0.7780 C.3   1 <1>  -0.0170 
 19 C       -6.4070     2.9920    -0.4950 C.ar  1 <1>   0.7200 
 20 C       -5.1040     4.7830    -0.0780 C.ar  1 <1>   0.1600 
 21 N       -6.2660     4.3220    -0.4760 N.ar  1 <1>  -0.6200 
 22 N       -7.6240     2.4960    -0.9200 N.pl3 1 <1>  -0.8380 
 23 C       -7.8060     1.0700    -1.3070 C.3   1 <1>   0.1290 
 24 C       -8.8260     3.3640    -1.0550 C.3   1 <1>   0.1290 
 25 H        1.7990    -0.8160    -1.7770 H     1 <1>   0.0800 
 26 H        1.1650    -1.2920    -0.2410 H     1 <1>   0.0800 
 27 H       -3.2100     0.5410    -1.0540 H     1 <1>   0.0800 
 28 H       -2.1950     1.9440    -1.2150 H     1 <1>   0.0800 
 29 H       -0.8490    -1.3740     0.9320 H     1 <1>   0.0800 
 30 H       -2.4320    -1.3900     0.1990 H     1 <1>   0.0800 
 31 H        1.2550     1.0650     0.5290 H     1 <1>   0.0800 
 32 H        1.8940     1.5370    -1.0210 H     1 <1>   0.0800 
 33 H       -1.5380     0.3250     2.5310 H     1 <1>   0.0800 
 34 H       -2.6110    -1.0390     2.6200 H     1 <1>   0.0800 
 35 H        3.8770     0.0890    -0.6480 H     1 <1>   0.0800 
 36 H        3.2360    -0.3950     0.9000 H     1 <1>   0.0800 
 37 H       -4.3010     0.0970     1.3090 H     1 <1>   0.0800 
 38 H       -3.8680     1.1340     2.6310 H     1 <1>   0.0800 
 39 H       -1.1750     2.7130     1.1040 H     1 <1>   0.0800 
 40 H       -2.3380     2.8880     2.3910 H     1 <1>   0.0800 
 41 H        3.9890     2.4420     0.1300 H     1 <1>   0.0800 
 42 H        4.9130     1.3880     1.1710 H     1 <1>   0.0800 
 43 H        3.3440     1.9590     1.6830 H     1 <1>   0.0800 
 44 H       -2.0890     4.5470    -0.0570 H     1 <1>   0.0800 
 45 H       -2.6860     4.9970     1.5410 H     1 <1>   0.0800 
 46 H       -4.9580     5.8490    -0.0580 H     1 <1>   0.1500 
 47 H       -6.8820     0.6590    -1.6780 H     1 <1>   0.0800 
 48 H       -8.5470     0.9870    -2.0820 H     1 <1>   0.0800 
 49 H       -8.1210     0.5030    -0.4490 H     1 <1>   0.0800 
 50 H       -8.7850     4.1760    -0.3500 H     1 <1>   0.0800 
 51 H       -9.7180     2.7940    -0.8620 H     1 <1>   0.0800 
 52 H       -8.8680     3.7680    -2.0510 H     1 <1>   0.0800 
@<TRIPOS>BOND
  1   1   2  2   
  2   1   3  2   
  3   1   4  am  
  4   1   5  1   
  5   4   6  1   
  6   4   7  1   
  7   5   8  1   
  8   5  25  1   
  9   5  26  1   
 10   6   9  1   
 11   6  27  1   
 12   6  28  1   
 13   7  10  1   
 14   7  29  1   
 15   7  30  1   
 16   8  11  1   
 17   8  31  1   
 18   8  32  1   
 19   9  12  1   
 20   9  13  1   
 21   9  14  1   
 22  10  13  1   
 23  10  33  1   
 24  10  34  1   
 25  11  15  1   
 26  11  35  1   
 27  11  36  1   
 28  12  16  ar  
 29  12  17  ar  
 30  13  37  1   
 31  13  38  1   
 32  14  18  1   
 33  14  39  1   
 34  14  40  1   
 35  15  41  1   
 36  15  42  1   
 37  15  43  1   
 38  16  19  ar  
 39  17  18  1   
 40  17  20  ar  
 41  18  44  1   
 42  18  45  1   
 43  19  21  ar  
 44  19  22  1   
 45  20  21  ar  
 46  20  46  1   
 47  22  23  1   
 48  22  24  1   
 49  23  47  1   
 50  23  48  1   
 51  23  49  1   
 52  24  50  1   
 53  24  51  1   
 54  24  52  1   
@<TRIPOS>SUBSTRUCTURE
  1 ****   6 GROUP 4 **** **** 0

# MOE 2024.06 (io_trps.svl 2023.06)
