@<TRIPOS>MOLECULE
NONAME
46 48 1 0 0 
SMALL
USER_CHARGES


@<TRIPOS>ATOM
  1 O       -1.3790    -0.1450     0.5780 O.2   1 <1>  -0.5700 
  2 C       -1.9900     0.7030    -0.0510 C.2   1 <1>   0.6160 
  3 N       -3.2640     0.3840    -0.4710 N.am  1 <1>  -0.6600 
  4 C       -1.4140     2.0090    -0.2780 C.2   1 <1>   0.0140 
  5 C       -3.6290    -1.0370    -0.6640 C.3   1 <1>   0.1400 
  6 C       -4.3960     1.1970     0.0480 C.3   1 <1>   0.1400 
  7 C       -0.4340     2.5180     0.5390 C.2   1 <1>  -0.0410 
  8 C       -1.8360     2.8270    -1.3760 C.2   1 <1>  -0.1500 
  9 C       -4.5490    -1.4000     0.5240 C.3   1 <1>   0.4230 
 10 C       -5.7600     0.4500    -0.0660 C.3   1 <1>  -0.1600 
 11 N        0.0990     3.7640     0.3360 N.am  1 <1>  -0.5390 
 12 C       -1.2970     4.0610    -1.5670 C.2   1 <1>  -0.1360 
 13 N       -4.0780    -2.6690     1.2090 N.4   1 <1>  -0.9590 
 14 C       -6.0860    -1.1320     0.1330 C.3   1 <1>   0.0000 
 15 C       -0.3000     4.5700    -0.6920 C.2   1 <1>   0.6160 
 16 C       -4.1970    -3.8370     0.3130 C.3   1 <1>   0.3430 
 17 C       -2.7060    -2.5400     1.8000 C.3   1 <1>   0.2630 
 18 C       -6.4800    -2.6980     0.2630 C.3   1 <1>  -0.1600 
 19 C       -7.6220    -0.7910    -0.2020 C.3   1 <1>   0.1200 
 20 O        0.2070     5.6710    -0.8090 O.2   1 <1>  -0.5700 
 21 C       -5.5350    -3.7280    -0.4030 C.3   1 <1>  -0.1600 
 22 O       -8.3670    -0.8990     0.9710 O.3   1 <1>  -0.6800 
 23 H       -4.1520    -1.1470    -1.5980 H     1 <1>   0.0800 
 24 H       -2.7460    -1.6490    -0.7060 H     1 <1>   0.0800 
 25 H       -4.2060     1.4350     1.0830 H     1 <1>   0.0800 
 26 H       -4.4480     2.1290    -0.4900 H     1 <1>   0.0800 
 27 H       -0.0560     1.9450     1.3720 H     1 <1>   0.1500 
 28 H       -2.5810     2.4390    -2.0490 H     1 <1>   0.1500 
 29 H       -4.3430    -0.6690     1.2870 H     1 <1>   0.0800 
 30 H       -6.3890     1.0260     0.5990 H     1 <1>   0.0800 
 31 H       -6.0300     0.7110    -1.0800 H     1 <1>   0.0800 
 32 H        0.8300     4.1650     0.9280 H     1 <1>   0.3700 
 33 H       -1.5860     4.7030    -2.3780 H     1 <1>   0.1500 
 34 H       -4.7420    -2.8170     1.9810 H     1 <1>   0.4500 
 35 H       -3.3930    -3.8510    -0.4060 H     1 <1>   0.0800 
 36 H       -4.1580    -4.7460     0.8920 H     1 <1>   0.0800 
 37 H       -1.9650    -2.4350     1.0250 H     1 <1>   0.0800 
 38 H       -2.4660    -3.4100     2.3890 H     1 <1>   0.0800 
 39 H       -2.6510    -1.6690     2.4330 H     1 <1>   0.0800 
 40 H       -6.5790    -2.9260     1.3130 H     1 <1>   0.0800 
 41 H       -7.4360    -3.0250    -0.1150 H     1 <1>   0.0800 
 42 H       -8.0560    -1.4240    -0.9600 H     1 <1>   0.0800 
 43 H       -7.8760     0.1860    -0.5830 H     1 <1>   0.0800 
 44 H       -5.3750    -3.4640    -1.4340 H     1 <1>   0.0800 
 45 H       -5.9950    -4.7020    -0.4000 H     1 <1>   0.0800 
 46 H       -9.3140    -0.7080     0.8090 H     1 <1>   0.4000 
@<TRIPOS>BOND
  1   1   2  2   
  2   2   3  am  
  3   2   4  1   
  4   3   5  1   
  5   3   6  1   
  6   4   7  2   
  7   4   8  1   
  8   5   9  1   
  9   5  23  1   
 10   5  24  1   
 11   6  10  1   
 12   6  25  1   
 13   6  26  1   
 14   7  11  1   
 15   7  27  1   
 16   8  12  2   
 17   8  28  1   
 18   9  13  1   
 19   9  14  1   
 20   9  29  1   
 21  10  14  1   
 22  10  30  1   
 23  10  31  1   
 24  11  15  am  
 25  11  32  1   
 26  12  15  1   
 27  12  33  1   
 28  13  16  1   
 29  13  17  1   
 30  13  34  1   
 31  14  18  1   
 32  14  19  1   
 33  15  20  2   
 34  16  21  1   
 35  16  35  1   
 36  16  36  1   
 37  17  37  1   
 38  17  38  1   
 39  17  39  1   
 40  18  21  1   
 41  18  40  1   
 42  18  41  1   
 43  19  22  1   
 44  19  42  1   
 45  19  43  1   
 46  21  44  1   
 47  21  45  1   
 48  22  46  1   
@<TRIPOS>SUBSTRUCTURE
  1 ****   3 GROUP 4 **** **** 0

# MOE 2024.06 (io_trps.svl 2023.06)
