@<TRIPOS>MOLECULE
NONAME
56 59 1 0 0 
SMALL
USER_CHARGES


@<TRIPOS>ATOM
  1 O       -6.0670    -1.9190    -4.2750 O.2   1 <1>  -0.5200 
  2 N       -6.7210    -2.5800    -3.4480 N.pl3 1 <1>   0.8360 
  3 O       -7.8150    -3.0730    -3.7800 O.2   1 <1>  -0.5200 
  4 C       -6.1510    -2.8970    -2.2100 C.2   1 <1>   0.2190 
  5 C       -6.7440    -2.3050    -1.0610 C.2   1 <1>   0.6160 
  6 C       -5.0740    -3.7300    -2.0790 C.2   1 <1>  -0.1500 
  7 O       -7.6750    -1.5080    -1.1420 O.2   1 <1>  -0.5700 
  8 N       -6.2360    -2.6250     0.1940 N.am  1 <1>  -0.4690 
  9 C       -4.5890    -4.0440    -0.7950 C.2   1 <1>  -0.1500 
 10 C       -5.1750    -3.5170     0.3180 C.2   1 <1>  -0.0290 
 11 C       -6.8450    -1.9380     1.3820 C.3   1 <1>   0.1400 
 12 C       -4.7070    -3.9630     1.7100 C.3   1 <1>   0.0580 
 13 C       -6.4930    -2.5840     2.7330 C.3   1 <1>  -0.0800 
 14 C       -5.4650    -5.2460     2.0990 C.3   1 <1>   0.1400 
 15 C       -4.9880    -2.8830     2.7620 C.3   1 <1>  -0.1600 
 16 C       -7.3230    -3.8600     3.0090 C.3   1 <1>   0.1400 
 17 N       -6.9330    -4.9740     2.0930 N.am  1 <1>  -0.6600 
 18 C       -7.7250    -5.5200     1.1110 C.2   1 <1>   0.5690 
 19 O       -7.3460    -6.4590     0.4490 O.2   1 <1>  -0.5700 
 20 C       -9.0970    -4.9370     0.8010 C.3   1 <1>  -0.0990 
 21 C       -9.6080    -5.2870    -0.6040 C.3   1 <1>  -0.0170 
 22 C      -10.8770    -4.5090    -0.9100 C.ar  1 <1>  -0.1430 
 23 C      -12.1100    -4.9810    -0.4930 C.ar  1 <1>  -0.1500 
 24 C      -10.8140    -3.3140    -1.6050 C.ar  1 <1>  -0.1500 
 25 C      -13.2750    -4.2810    -0.7610 C.ar  1 <1>   0.0830 
 26 C      -11.9650    -2.5950    -1.8730 C.ar  1 <1>  -0.1500 
 27 O      -14.4190    -4.8660    -0.3060 O.3   1 <1>  -0.3630 
 28 C      -13.2100    -3.0590    -1.4510 C.ar  1 <1>   0.0830 
 29 C      -15.6000    -4.8100    -1.0740 C.3   1 <1>   0.0400 
 30 O      -14.3520    -2.3440    -1.6790 O.3   1 <1>  -0.3630 
 31 C      -14.3230    -1.0570    -2.2560 C.3   1 <1>   0.0400 
 32 H       -4.5970    -4.1700    -2.9390 H     1 <1>   0.1500 
 33 H       -3.7660    -4.7340    -0.7200 H     1 <1>   0.1500 
 34 H       -6.4940    -0.9200     1.3830 H     1 <1>   0.0800 
 35 H       -7.9160    -1.9050     1.2740 H     1 <1>   0.0800 
 36 H       -3.6530    -4.1750     1.6900 H     1 <1>   0.0800 
 37 H       -6.7250    -1.8720     3.5050 H     1 <1>   0.0800 
 38 H       -5.1680    -5.5740     3.0790 H     1 <1>   0.0800 
 39 H       -5.2190    -6.0300     1.4030 H     1 <1>   0.0800 
 40 H       -4.6930    -3.2290     3.7370 H     1 <1>   0.0800 
 41 H       -4.4250    -1.9940     2.5340 H     1 <1>   0.0800 
 42 H       -8.3740    -3.6430     2.9340 H     1 <1>   0.0800 
 43 H       -7.1410    -4.1820     4.0200 H     1 <1>   0.0800 
 44 H       -9.7970    -5.2880     1.5350 H     1 <1>   0.0800 
 45 H       -9.0460    -3.8680     0.8630 H     1 <1>   0.0800 
 46 H       -9.7990    -6.3440    -0.6720 H     1 <1>   0.0800 
 47 H       -8.8550    -5.0450    -1.3350 H     1 <1>   0.0800 
 48 H      -12.1800    -5.9080     0.0460 H     1 <1>   0.1500 
 49 H       -9.8660    -2.9310    -1.9430 H     1 <1>   0.1500 
 50 H      -11.8600    -1.6750    -2.4130 H     1 <1>   0.1500 
 51 H      -16.2320    -5.6270    -0.7780 H     1 <1>   0.0800 
 52 H      -15.3480    -4.8960    -2.1170 H     1 <1>   0.0800 
 53 H      -16.0970    -3.8770    -0.8790 H     1 <1>   0.0800 
 54 H      -15.3290    -0.6810    -2.2820 H     1 <1>   0.0800 
 55 H      -13.9340    -1.1310    -3.2560 H     1 <1>   0.0800 
 56 H      -13.7090    -0.4150    -1.6480 H     1 <1>   0.0800 
@<TRIPOS>BOND
  1   1   2  2   
  2   2   3  2   
  3   2   4  1   
  4   4   5  1   
  5   4   6  2   
  6   5   7  2   
  7   5   8  am  
  8   6   9  1   
  9   6  32  1   
 10   8  10  1   
 11   8  11  1   
 12   9  10  2   
 13   9  33  1   
 14  10  12  1   
 15  11  13  1   
 16  11  34  1   
 17  11  35  1   
 18  12  14  1   
 19  12  15  1   
 20  12  36  1   
 21  13  15  1   
 22  13  16  1   
 23  13  37  1   
 24  14  17  1   
 25  14  38  1   
 26  14  39  1   
 27  15  40  1   
 28  15  41  1   
 29  16  17  1   
 30  16  42  1   
 31  16  43  1   
 32  17  18  am  
 33  18  19  2   
 34  18  20  1   
 35  20  21  1   
 36  20  44  1   
 37  20  45  1   
 38  21  22  1   
 39  21  46  1   
 40  21  47  1   
 41  22  23  ar  
 42  22  24  ar  
 43  23  25  ar  
 44  23  48  1   
 45  24  26  ar  
 46  24  49  1   
 47  25  27  1   
 48  25  28  ar  
 49  26  28  ar  
 50  26  50  1   
 51  27  29  1   
 52  28  30  1   
 53  29  51  1   
 54  29  52  1   
 55  29  53  1   
 56  30  31  1   
 57  31  54  1   
 58  31  55  1   
 59  31  56  1   
@<TRIPOS>SUBSTRUCTURE
  1 ****  20 GROUP 4 **** **** 0

# MOE 2024.06 (io_trps.svl 2023.06)
