@<TRIPOS>MOLECULE
NONAME
47 50 1 0 0 
SMALL
USER_CHARGES


@<TRIPOS>ATOM
  1 O       -0.2900     0.3450    -0.2030 O.2   1 <1>  -0.5700 
  2 C       -1.2960     0.9560     0.1070 C.2   1 <1>   0.5440 
  3 N       -2.4560     0.2450     0.3200 N.am  1 <1>  -0.6600 
  4 C       -1.2590     2.4010     0.2190 C.ar  1 <1>   0.0860 
  5 C       -3.8210     0.8200     0.2140 C.3   1 <1>   0.1400 
  6 C       -2.5030    -1.2340     0.1970 C.3   1 <1>   0.1400 
  7 C       -1.8100     3.0730     1.3090 C.ar  1 <1>  -0.1500 
  8 C       -0.6650     3.1830    -0.7690 C.ar  1 <1>  -0.1500 
  9 C       -4.6890    -0.3350    -0.2780 C.3   1 <1>   0.2000 
 10 C       -3.9890    -1.6000     0.2110 C.3   1 <1>  -0.0800 
 11 C       -1.7920     4.4520     1.3930 C.ar  1 <1>  -0.1500 
 12 C       -0.6470     4.5620    -0.6860 C.ar  1 <1>  -0.1500 
 13 O       -5.9740    -0.2660     0.2360 O.3   1 <1>  -0.6800 
 14 C       -4.3240    -2.8370    -0.6340 C.3   1 <1>   0.0200 
 15 C       -1.2150     5.2400     0.3940 C.ar  1 <1>   0.0540 
 16 C       -3.5530    -4.0490    -0.1490 C.2   1 <1>  -0.0400 
 17 C       -1.2020     6.6900     0.4670 C.2   1 <1>   0.4620 
 18 O       -3.7590    -4.5150     1.0540 O.3   1 <1>  -0.0190 
 19 C       -2.6170    -4.8120    -0.7330 C.2   1 <1>  -0.1500 
 20 N       -1.7010     7.3690     1.5090 N.2   1 <1>  -0.2270 
 21 N       -0.7210     7.4700    -0.4480 N.2   1 <1>  -0.7070 
 22 N       -3.0080    -5.5470     1.3080 N.2   1 <1>  -0.4100 
 23 C       -2.3100    -5.7500     0.2490 C.2   1 <1>   0.1080 
 24 N       -1.5360     8.6030     1.2560 N.2   1 <1>  -0.4180 
 25 N       -0.9450     8.6490     0.0790 N.pl3 1 <1>   0.5800 
 26 C       -1.2920    -6.8580     0.1000 C.3   1 <1>  -0.0590 
 27 C       -0.5780     9.9010    -0.5870 C.3   1 <1>   0.0160 
 28 H       -4.1410     1.1490     1.1870 H     1 <1>   0.0800 
 29 H       -3.8420     1.6390    -0.4840 H     1 <1>   0.0800 
 30 H       -2.0430    -1.5230    -0.7330 H     1 <1>   0.0800 
 31 H       -1.9740    -1.7000     1.0110 H     1 <1>   0.0800 
 32 H       -2.2530     2.4980     2.1040 H     1 <1>   0.1500 
 33 H       -0.2120     2.6900    -1.6130 H     1 <1>   0.1500 
 34 H       -4.7510    -0.3080    -1.3530 H     1 <1>   0.0800 
 35 H       -4.2580    -1.7850     1.2370 H     1 <1>   0.0800 
 36 H       -2.2320     4.9290     2.2520 H     1 <1>   0.1500 
 37 H       -0.1810     5.1300    -1.4740 H     1 <1>   0.1500 
 38 H       -5.9670    -0.4160     1.2020 H     1 <1>   0.4000 
 39 H       -4.0810    -2.6540    -1.6660 H     1 <1>   0.0800 
 40 H       -5.3780    -3.0440    -0.5710 H     1 <1>   0.0800 
 41 H       -2.1830    -4.7460    -1.7130 H     1 <1>   0.1500 
 42 H       -1.5640    -7.4960    -0.7200 H     1 <1>   0.0800 
 43 H       -1.2540    -7.4450     1.0000 H     1 <1>   0.0800 
 44 H       -0.3200    -6.4390    -0.0830 H     1 <1>   0.0800 
 45 H        0.3610     9.7670    -1.0900 H     1 <1>   0.0800 
 46 H       -0.4900    10.6800     0.1480 H     1 <1>   0.0800 
 47 H       -1.3410    10.1530    -1.2980 H     1 <1>   0.0800 
@<TRIPOS>BOND
  1   1   2  2   
  2   2   3  am  
  3   2   4  1   
  4   3   5  1   
  5   3   6  1   
  6   4   7  ar  
  7   4   8  ar  
  8   5   9  1   
  9   5  28  1   
 10   5  29  1   
 11   6  10  1   
 12   6  30  1   
 13   6  31  1   
 14   7  11  ar  
 15   7  32  1   
 16   8  12  ar  
 17   8  33  1   
 18   9  10  1   
 19   9  13  1   
 20   9  34  1   
 21  10  14  1   
 22  10  35  1   
 23  11  15  ar  
 24  11  36  1   
 25  12  15  ar  
 26  12  37  1   
 27  13  38  1   
 28  14  16  1   
 29  14  39  1   
 30  14  40  1   
 31  15  17  1   
 32  16  18  1   
 33  16  19  2   
 34  17  20  1   
 35  17  21  2   
 36  18  22  1   
 37  19  23  1   
 38  19  41  1   
 39  20  24  2   
 40  21  25  1   
 41  22  23  2   
 42  23  26  1   
 43  24  25  1   
 44  25  27  1   
 45  26  42  1   
 46  26  43  1   
 47  26  44  1   
 48  27  45  1   
 49  27  46  1   
 50  27  47  1   
@<TRIPOS>SUBSTRUCTURE
  1 ****   2 GROUP 4 **** **** 0

# MOE 2024.06 (io_trps.svl 2023.06)
