@<TRIPOS>MOLECULE
NONAME
53 54 1 0 0 
SMALL
USER_CHARGES


@<TRIPOS>ATOM
  1 S       -0.4110     0.0350    -0.3600 S.o2  1 <1>   1.3330 
  2 O       -1.0340     1.1840    -0.9770 O.2   1 <1>  -0.6500 
  3 O       -0.7360    -0.3020     1.0080 O.2   1 <1>  -0.6500 
  4 N       -0.7390    -1.3280    -1.3180 N.am  1 <1>  -0.8490 
  5 C        1.3640     0.2160    -0.5370 C.3   1 <1>  -0.0550 
  6 C       -0.5400    -2.5980    -0.6120 C.3   1 <1>   0.1160 
  7 C       -2.0830    -1.2870    -1.9030 C.3   1 <1>   0.1160 
  8 C        1.9330     1.4570     0.1800 C.3   1 <1>  -0.0800 
  9 C        3.3880     1.6840    -0.1930 C.3   1 <1>   0.2200 
 10 C        2.0210     1.2570     1.6980 C.3   1 <1>   0.1200 
 11 N        3.7290     3.1060     0.0360 N.am  1 <1>  -0.7300 
 12 C        4.1130     0.8160     0.8280 C.3   1 <1>   0.1200 
 13 O        3.3190     0.8210     1.9770 O.3   1 <1>  -0.5600 
 14 C        4.1900     3.9730    -0.9120 C.2   1 <1>   0.5440 
 15 O        4.3520     3.5560    -2.0430 O.2   1 <1>  -0.5700 
 16 C        4.4950     5.3510    -0.5680 C.ar  1 <1>   0.0860 
 17 C        5.4520     6.0740    -1.2750 C.ar  1 <1>  -0.1500 
 18 C        3.8530     6.0130     0.4780 C.ar  1 <1>  -0.1500 
 19 C        5.7630     7.3800    -0.9450 C.ar  1 <1>  -0.1500 
 20 C        4.1630     7.3200     0.8090 C.ar  1 <1>  -0.1500 
 21 C        5.1290     8.0330     0.1060 C.ar  1 <1>  -0.1440 
 22 C        5.5120     9.4920     0.4390 C.3   1 <1>   0.1430 
 23 C        7.0050     9.5620     0.7940 C.3   1 <1>  -0.2400 
 24 C        5.2350    10.3860    -0.7790 C.3   1 <1>  -0.2400 
 25 C        4.7250    10.0690     1.6280 C.3   1 <1>  -0.2400 
 26 H        1.8530    -0.6670    -0.1730 H     1 <1>   0.0800 
 27 H        1.5800     0.3010    -1.5850 H     1 <1>   0.0800 
 28 H       -0.6700    -3.4230    -1.2920 H     1 <1>   0.0800 
 29 H       -1.2480    -2.6950     0.1950 H     1 <1>   0.0800 
 30 H        0.4550    -2.6470    -0.2060 H     1 <1>   0.0800 
 31 H       -2.2510    -2.1560    -2.5150 H     1 <1>   0.0800 
 32 H       -2.1890    -0.4140    -2.5250 H     1 <1>   0.0800 
 33 H       -2.8280    -1.2500    -1.1250 H     1 <1>   0.0800 
 34 H        1.3300     2.3120    -0.0720 H     1 <1>   0.0800 
 35 H        3.6180     1.3960    -1.2050 H     1 <1>   0.0800 
 36 H        1.3240     0.5320     2.0810 H     1 <1>   0.0800 
 37 H        1.8760     2.1910     2.2130 H     1 <1>   0.0800 
 38 H        3.7340     3.3840     1.0190 H     1 <1>   0.3700 
 39 H        5.0960     1.1870     1.0630 H     1 <1>   0.0800 
 40 H        4.1810    -0.2000     0.4830 H     1 <1>   0.0800 
 41 H        5.9600     5.5990    -2.0960 H     1 <1>   0.1500 
 42 H        3.0920     5.5040     1.0390 H     1 <1>   0.1500 
 43 H        6.5130     7.8870    -1.5250 H     1 <1>   0.1500 
 44 H        3.6280     7.7640     1.6280 H     1 <1>   0.1500 
 45 H        7.2850    10.5640     1.0650 H     1 <1>   0.0800 
 46 H        7.6160     9.2590    -0.0360 H     1 <1>   0.0800 
 47 H        7.2160     8.9110     1.6240 H     1 <1>   0.0800 
 48 H        5.4620    11.4130    -0.5560 H     1 <1>   0.0800 
 49 H        4.1980    10.3180    -1.0560 H     1 <1>   0.0800 
 50 H        5.8290    10.0890    -1.6230 H     1 <1>   0.0800 
 51 H        5.0260    11.0820     1.8240 H     1 <1>   0.0800 
 52 H        4.9050     9.4900     2.5160 H     1 <1>   0.0800 
 53 H        3.6710    10.0710     1.4170 H     1 <1>   0.0800 
@<TRIPOS>BOND
  1   1   2  2   
  2   1   3  2   
  3   1   4  am  
  4   1   5  1   
  5   4   6  1   
  6   4   7  1   
  7   5   8  1   
  8   5  26  1   
  9   5  27  1   
 10   6  28  1   
 11   6  29  1   
 12   6  30  1   
 13   7  31  1   
 14   7  32  1   
 15   7  33  1   
 16   8   9  1   
 17   8  10  1   
 18   8  34  1   
 19   9  11  1   
 20   9  12  1   
 21   9  35  1   
 22  10  13  1   
 23  10  36  1   
 24  10  37  1   
 25  11  14  am  
 26  11  38  1   
 27  12  13  1   
 28  12  39  1   
 29  12  40  1   
 30  14  15  2   
 31  14  16  1   
 32  16  17  ar  
 33  16  18  ar  
 34  17  19  ar  
 35  17  41  1   
 36  18  20  ar  
 37  18  42  1   
 38  19  21  ar  
 39  19  43  1   
 40  20  21  ar  
 41  20  44  1   
 42  21  22  1   
 43  22  23  1   
 44  22  24  1   
 45  22  25  1   
 46  23  45  1   
 47  23  46  1   
 48  23  47  1   
 49  24  48  1   
 50  24  49  1   
 51  24  50  1   
 52  25  51  1   
 53  25  52  1   
 54  25  53  1   
@<TRIPOS>SUBSTRUCTURE
  1 ****  11 GROUP 4 **** **** 0

# MOE 2024.06 (io_trps.svl 2023.06)
