@<TRIPOS>MOLECULE
NONAME
40 42 1 0 0 
SMALL
USER_CHARGES


@<TRIPOS>ATOM
  1 O        1.3520    -0.9620     1.1350 O.3   1 <1>  -0.5600 
  2 C        0.3260    -1.8740     1.4010 C.3   1 <1>   0.1200 
  3 C        1.4090    -0.4750    -0.1630 C.3   1 <1>   0.1200 
  4 C        0.7140    -3.2860     0.9210 C.3   1 <1>   0.1900 
  5 C        1.7950    -1.5770    -1.1640 C.3   1 <1>  -0.0800 
  6 N        0.3570    -3.5830    -0.5120 N.3   1 <1>  -0.8100 
  7 C        2.2190    -3.5440     1.1630 C.3   1 <1>   0.3430 
  8 C        0.5950    -2.4950    -1.4840 C.3   1 <1>   0.1100 
  9 C        3.1220    -2.2720    -0.7840 C.3   1 <1>   0.3430 
 10 C       -1.0210    -4.1290    -0.6460 C.3   1 <1>   0.2530 
 11 N        2.9530    -3.6100    -0.1420 N.4   1 <1>  -0.9590 
 12 C       -1.1690    -5.5050     0.0010 C.ar  1 <1>   0.1670 
 13 C        4.2250    -4.3760    -0.0410 C.3   1 <1>   0.2630 
 14 N       -1.7160    -5.5490     1.2100 N.ar  1 <1>  -0.6200 
 15 C       -0.7350    -6.6260    -0.6930 C.ar  1 <1>  -0.1500 
 16 C       -1.8420    -6.7560     1.7390 C.ar  1 <1>   0.1600 
 17 C       -0.8670    -7.8750    -0.1250 C.ar  1 <1>  -0.1500 
 18 C       -1.4400    -7.9300     1.1270 C.ar  1 <1>  -0.1500 
 19 H        0.2050    -1.8910     2.4700 H     1 <1>   0.0800 
 20 H       -0.5990    -1.5370     0.9660 H     1 <1>   0.0800 
 21 H        0.4590    -0.0290    -0.4080 H     1 <1>   0.0800 
 22 H        2.1530     0.3040    -0.1700 H     1 <1>   0.0800 
 23 H        0.1900    -3.9690     1.5640 H     1 <1>   0.0800 
 24 H        1.9970    -1.0410    -2.0740 H     1 <1>   0.0800 
 25 H        2.3120    -4.4870     1.6740 H     1 <1>   0.0800 
 26 H        2.6350    -2.7800     1.7990 H     1 <1>   0.0800 
 27 H        0.7500    -2.9440    -2.4510 H     1 <1>   0.0800 
 28 H       -0.2900    -1.8840    -1.5610 H     1 <1>   0.0800 
 29 H        3.6860    -1.6250    -0.1320 H     1 <1>   0.0800 
 30 H        3.6950    -2.4030    -1.6870 H     1 <1>   0.0800 
 31 H       -1.7320    -3.4500    -0.2060 H     1 <1>   0.0800 
 32 H       -1.2670    -4.2260    -1.6890 H     1 <1>   0.0800 
 33 H        2.2560    -4.1050    -0.7320 H     1 <1>   0.4500 
 34 H        4.9190    -3.8640     0.6050 H     1 <1>   0.0800 
 35 H        4.6730    -4.4850    -1.0150 H     1 <1>   0.0800 
 36 H        4.0370    -5.3580     0.3610 H     1 <1>   0.0800 
 37 H       -0.2990    -6.5220    -1.6690 H     1 <1>   0.1500 
 38 H       -2.2920    -6.8140     2.7160 H     1 <1>   0.1500 
 39 H       -0.5430    -8.7660    -0.6360 H     1 <1>   0.1500 
 40 H       -1.5770    -8.8730     1.6240 H     1 <1>   0.1500 
@<TRIPOS>BOND
  1   1   2  1   
  2   1   3  1   
  3   2   4  1   
  4   2  19  1   
  5   2  20  1   
  6   3   5  1   
  7   3  21  1   
  8   3  22  1   
  9   4   6  1   
 10   4   7  1   
 11   4  23  1   
 12   5   8  1   
 13   5   9  1   
 14   5  24  1   
 15   6   8  1   
 16   6  10  1   
 17   7  11  1   
 18   7  25  1   
 19   7  26  1   
 20   8  27  1   
 21   8  28  1   
 22   9  11  1   
 23   9  29  1   
 24   9  30  1   
 25  10  12  1   
 26  10  31  1   
 27  10  32  1   
 28  11  13  1   
 29  11  33  1   
 30  12  14  ar  
 31  12  15  ar  
 32  13  34  1   
 33  13  35  1   
 34  13  36  1   
 35  14  16  ar  
 36  15  17  ar  
 37  15  37  1   
 38  16  18  ar  
 39  16  38  1   
 40  17  18  ar  
 41  17  39  1   
 42  18  40  1   
@<TRIPOS>SUBSTRUCTURE
  1 ****   6 GROUP 4 **** **** 0

# MOE 2024.06 (io_trps.svl 2023.06)
