@<TRIPOS>MOLECULE
NONAME
52 55 1 0 0 
SMALL
USER_CHARGES


@<TRIPOS>ATOM
  1 F        0.3850    -0.8650    -1.6070 F     1 <1>  -0.3400 
  2 C        0.6340    -2.0950    -2.0330 C.3   1 <1>   0.7800 
  3 F        0.3280    -2.0680    -3.3220 F     1 <1>  -0.3400 
  4 C       -0.2920    -3.0600    -1.3280 C.2   1 <1>  -0.3320 
  5 N       -1.6230    -2.9010    -1.3530 N.pl3 1 <1>   0.3000 
  6 C       -0.0510    -4.1660    -0.5950 C.2   1 <1>  -0.1500 
  7 N       -2.2540    -3.8630    -0.6650 N.2   1 <1>  -0.7070 
  8 C       -1.3020    -4.6530    -0.1890 C.2   1 <1>   0.2030 
  9 C       -1.4430    -5.8430     0.6530 C.2   1 <1>   0.7160 
 10 O       -0.4610    -6.2440     1.2610 O.2   1 <1>  -0.5700 
 11 N       -2.6220    -6.5600     0.8100 N.am  1 <1>  -0.6600 
 12 C       -3.7700    -6.5050    -0.1370 C.3   1 <1>   0.1400 
 13 C       -2.8560    -7.4340     1.9940 C.3   1 <1>   0.1400 
 14 C       -4.1180    -7.9210    -0.6050 C.3   1 <1>  -0.1600 
 15 C       -3.1870    -8.8540     1.5320 C.3   1 <1>  -0.1600 
 16 C       -4.3840    -8.8760     0.5710 C.3   1 <1>   0.4240 
 17 O       -5.4680    -8.3700     1.3140 O.3   1 <1>  -0.5600 
 18 C       -4.6550   -10.3120     0.0740 C.ar  1 <1>  -0.1430 
 19 C       -6.7520    -8.6700     0.8640 C.3   1 <1>   0.1200 
 20 C       -5.8830   -10.9270     0.2760 C.ar  1 <1>  -0.1430 
 21 C       -3.6680   -11.0230    -0.5980 C.ar  1 <1>  -0.1500 
 22 C       -6.9820   -10.1720     0.9980 C.3   1 <1>  -0.0170 
 23 C       -6.1120   -12.2160    -0.1770 C.ar  1 <1>  -0.1500 
 24 C       -3.8760   -12.3130    -1.0520 C.ar  1 <1>   0.0830 
 25 C       -5.1220   -12.9260    -0.8520 C.ar  1 <1>   0.0830 
 26 O       -2.8060   -12.8790    -1.6800 O.3   1 <1>  -0.3630 
 27 O       -5.3490   -14.1840    -1.3330 O.3   1 <1>  -0.3630 
 28 C       -2.5420   -14.2590    -1.5580 C.3   1 <1>   0.0400 
 29 C       -6.6290   -14.7770    -1.3120 C.3   1 <1>   0.0400 
 30 H        1.6850    -2.2980    -1.9260 H     1 <1>   0.0800 
 31 H       -2.1220    -2.1370    -1.8300 H     1 <1>   0.2700 
 32 H        0.8890    -4.6240    -0.3370 H     1 <1>   0.1500 
 33 H       -3.5320    -5.9150    -1.0020 H     1 <1>   0.0800 
 34 H       -4.6150    -6.0570     0.3580 H     1 <1>   0.0800 
 35 H       -3.6780    -7.0340     2.5650 H     1 <1>   0.0800 
 36 H       -1.9910    -7.4550     2.6350 H     1 <1>   0.0800 
 37 H       -3.2920    -8.2910    -1.1830 H     1 <1>   0.0800 
 38 H       -4.9680    -7.8930    -1.2580 H     1 <1>   0.0800 
 39 H       -3.4080    -9.4720     2.3820 H     1 <1>   0.0800 
 40 H       -2.3150    -9.2590     1.0550 H     1 <1>   0.0800 
 41 H       -6.8550    -8.3500    -0.1580 H     1 <1>   0.0800 
 42 H       -7.4510    -8.1250     1.4750 H     1 <1>   0.0800 
 43 H       -2.7060   -10.5810    -0.7810 H     1 <1>   0.1500 
 44 H       -7.9420   -10.4200     0.5820 H     1 <1>   0.0800 
 45 H       -6.9840   -10.4410     2.0390 H     1 <1>   0.0800 
 46 H       -7.0740   -12.6530     0.0050 H     1 <1>   0.1500 
 47 H       -1.5040   -14.4230    -1.7800 H     1 <1>   0.0800 
 48 H       -3.1530   -14.7920    -2.2650 H     1 <1>   0.0800 
 49 H       -2.7600   -14.5720    -0.5520 H     1 <1>   0.0800 
 50 H       -6.5640   -15.7280    -1.8080 H     1 <1>   0.0800 
 51 H       -7.3180   -14.1380    -1.8370 H     1 <1>   0.0800 
 52 H       -6.9320   -14.9180    -0.2900 H     1 <1>   0.0800 
@<TRIPOS>BOND
  1   1   2  1   
  2   2   3  1   
  3   2   4  1   
  4   2  30  1   
  5   4   5  1   
  6   4   6  2   
  7   5   7  1   
  8   5  31  1   
  9   6   8  1   
 10   6  32  1   
 11   7   8  2   
 12   8   9  1   
 13   9  10  2   
 14   9  11  am  
 15  11  12  1   
 16  11  13  1   
 17  12  14  1   
 18  12  33  1   
 19  12  34  1   
 20  13  15  1   
 21  13  35  1   
 22  13  36  1   
 23  14  16  1   
 24  14  37  1   
 25  14  38  1   
 26  15  16  1   
 27  15  39  1   
 28  15  40  1   
 29  16  17  1   
 30  16  18  1   
 31  17  19  1   
 32  18  20  ar  
 33  18  21  ar  
 34  19  22  1   
 35  19  41  1   
 36  19  42  1   
 37  20  22  1   
 38  20  23  ar  
 39  21  24  ar  
 40  21  43  1   
 41  22  44  1   
 42  22  45  1   
 43  23  25  ar  
 44  23  46  1   
 45  24  25  ar  
 46  24  26  1   
 47  25  27  1   
 48  26  28  1   
 49  27  29  1   
 50  28  47  1   
 51  28  48  1   
 52  28  49  1   
 53  29  50  1   
 54  29  51  1   
 55  29  52  1   
@<TRIPOS>SUBSTRUCTURE
  1 ****  14 GROUP 4 **** **** 0

# MOE 2024.06 (io_trps.svl 2023.06)
