@<TRIPOS>MOLECULE
NONAME
51 52 1 0 0 
SMALL
USER_CHARGES


@<TRIPOS>ATOM
  1 CL      -3.1170    -3.3930    -3.5930 Cl    1 <1>  -0.1770 
  2 C       -2.5360    -3.9250    -2.0380 C.ar  1 <1>   0.1770 
  3 C       -3.2930    -3.6610    -0.9100 C.ar  1 <1>  -0.1500 
  4 C       -1.3390    -4.6140    -1.9620 C.ar  1 <1>  -0.1500 
  5 C       -2.8610    -4.1170     0.3270 C.ar  1 <1>  -0.1440 
  6 C       -0.9020    -5.0690    -0.7300 C.ar  1 <1>  -0.1500 
  7 C       -1.6730    -4.8400     0.4050 C.ar  1 <1>   0.0830 
  8 C       -3.6630    -3.8070     1.5840 C.3   1 <1>  -0.0960 
  9 O       -1.2650    -5.2900     1.6100 O.3   1 <1>  -0.3630 
 10 C       -1.0570    -6.6800     1.8130 C.3   1 <1>   0.1810 
 11 C       -2.3750    -7.4520     1.9530 C.2   1 <1>   0.5690 
 12 O       -2.9930    -7.3160     2.9820 O.2   1 <1>  -0.5700 
 13 N       -2.8570    -8.3020     0.9850 N.am  1 <1>  -0.6600 
 14 C       -3.8380    -9.3550     1.4420 C.3   1 <1>   0.3210 
 15 C       -2.4950    -8.2230    -0.4740 C.3   1 <1>   0.1400 
 16 C       -4.1470   -10.4510     0.4210 C.2   1 <1>   0.0460 
 17 C       -3.3940    -7.2700    -1.2980 C.3   1 <1>   0.3430 
 18 N       -5.0280   -10.2500    -0.5850 N.2   1 <1>  -0.5650 
 19 C       -3.6450   -11.7080     0.3720 C.2   1 <1>  -0.3320 
 20 N       -4.8610    -7.4140    -1.0430 N.4   1 <1>  -0.9590 
 21 C       -5.0540   -11.3850    -1.2070 C.2   1 <1>   0.0360 
 22 N       -4.2330   -12.3140    -0.6760 N.pl3 1 <1>   0.0330 
 23 C       -2.6350   -12.4200     1.2590 C.3   1 <1>  -0.0600 
 24 C       -5.6610    -7.1400    -2.2690 C.3   1 <1>   0.2630 
 25 C       -5.3190    -6.5620     0.0950 C.3   1 <1>   0.2630 
 26 H       -4.2020    -3.0950    -1.0080 H     1 <1>   0.1500 
 27 H       -0.7580    -4.7770    -2.8530 H     1 <1>   0.1500 
 28 H        0.0400    -5.5820    -0.6490 H     1 <1>   0.1500 
 29 H       -4.5930    -3.3220     1.3480 H     1 <1>   0.0800 
 30 H       -3.0920    -3.1540     2.2200 H     1 <1>   0.0800 
 31 H       -3.8710    -4.7090     2.1320 H     1 <1>   0.0800 
 32 H       -0.5190    -6.7760     2.7380 H     1 <1>   0.0800 
 33 H       -0.4370    -7.0700     1.0320 H     1 <1>   0.0800 
 34 H       -4.7610    -8.8810     1.7220 H     1 <1>   0.0800 
 35 H       -3.4480    -9.8180     2.3310 H     1 <1>   0.0800 
 36 H       -2.5200    -9.2010    -0.9190 H     1 <1>   0.0800 
 37 H       -1.4800    -7.8900    -0.5800 H     1 <1>   0.0800 
 38 H       -3.1940    -7.4550    -2.3400 H     1 <1>   0.0800 
 39 H       -3.1060    -6.2570    -1.0950 H     1 <1>   0.0800 
 40 H       -5.0130    -8.4170    -0.7850 H     1 <1>   0.4500 
 41 H       -5.6650   -11.5990    -2.0680 H     1 <1>   0.1500 
 42 H       -4.1000   -13.2780    -0.9970 H     1 <1>   0.2700 
 43 H       -2.2520   -11.7600     2.0150 H     1 <1>   0.0800 
 44 H       -1.8080   -12.7750     0.6700 H     1 <1>   0.0800 
 45 H       -3.0980   -13.2610     1.7460 H     1 <1>   0.0800 
 46 H       -5.5170    -6.1220    -2.5920 H     1 <1>   0.0800 
 47 H       -6.7090    -7.2980    -2.0710 H     1 <1>   0.0800 
 48 H       -5.3610    -7.8040    -3.0640 H     1 <1>   0.0800 
 49 H       -5.1980    -5.5190    -0.1470 H     1 <1>   0.0800 
 50 H       -4.7470    -6.7740     0.9830 H     1 <1>   0.0800 
 51 H       -6.3580    -6.7520     0.3070 H     1 <1>   0.0800 
@<TRIPOS>BOND
  1   1   2  1   
  2   2   3  ar  
  3   2   4  ar  
  4   3   5  ar  
  5   3  26  1   
  6   4   6  ar  
  7   4  27  1   
  8   5   7  ar  
  9   5   8  1   
 10   6   7  ar  
 11   6  28  1   
 12   7   9  1   
 13   8  29  1   
 14   8  30  1   
 15   8  31  1   
 16   9  10  1   
 17  10  11  1   
 18  10  32  1   
 19  10  33  1   
 20  11  12  2   
 21  11  13  am  
 22  13  14  1   
 23  13  15  1   
 24  14  16  1   
 25  14  34  1   
 26  14  35  1   
 27  15  17  1   
 28  15  36  1   
 29  15  37  1   
 30  16  18  1   
 31  16  19  2   
 32  17  20  1   
 33  17  38  1   
 34  17  39  1   
 35  18  21  2   
 36  19  22  1   
 37  19  23  1   
 38  20  24  1   
 39  20  25  1   
 40  20  40  1   
 41  21  22  1   
 42  21  41  1   
 43  22  42  1   
 44  23  43  1   
 45  23  44  1   
 46  23  45  1   
 47  24  46  1   
 48  24  47  1   
 49  24  48  1   
 50  25  49  1   
 51  25  50  1   
 52  25  51  1   
@<TRIPOS>SUBSTRUCTURE
  1 ****  15 GROUP 4 **** **** 0

# MOE 2024.06 (io_trps.svl 2023.06)
