@<TRIPOS>MOLECULE
NONAME
51 54 1 0 0 
SMALL
USER_CHARGES


@<TRIPOS>ATOM
  1 S       -0.2360     1.6840     2.9960 S.3   1 <1>  -0.0800 
  2 C       -0.0600     2.5020     1.4570 C.2   1 <1>  -0.1400 
  3 C        1.3770     2.1950     3.4720 C.2   1 <1>  -0.1100 
  4 C        1.1360     3.0920     1.3380 C.2   1 <1>  -0.1810 
  5 C       -1.1490     2.5240     0.4200 C.3   1 <1>   0.0200 
  6 C        1.9610     2.9210     2.5000 C.2   1 <1>  -0.1500 
  7 C        1.5170     3.8530     0.0660 C.3   1 <1>   0.4610 
  8 C       -0.8280     3.6720    -0.5500 C.3   1 <1>   0.1200 
  9 O        0.5290     3.6540    -0.9310 O.3   1 <1>  -0.5600 
 10 C        1.6520     5.3590     0.3410 C.3   1 <1>  -0.1600 
 11 C        2.8200     3.2960    -0.5200 C.3   1 <1>  -0.1600 
 12 C        2.1120     6.1140    -0.9070 C.3   1 <1>   0.1400 
 13 C        3.2780     4.0890    -1.7460 C.3   1 <1>   0.1400 
 14 N        3.3980     5.5270    -1.3730 N.am  1 <1>  -0.6600 
 15 C        4.6050     6.1800    -1.4280 C.2   1 <1>   0.5690 
 16 O        5.5940     5.6450    -1.8740 O.2   1 <1>  -0.5700 
 17 C        4.7290     7.6120    -0.9320 C.3   1 <1>  -0.0990 
 18 C        6.1830     8.0290    -0.7020 C.3   1 <1>   0.1400 
 19 N        6.2400     9.4480    -0.2690 N.am  1 <1>  -0.7300 
 20 C        6.0050     9.8870     1.0060 C.2   1 <1>   0.5440 
 21 O        5.6380     9.0800     1.8370 O.2   1 <1>  -0.5700 
 22 C        6.1960    11.2830     1.3620 C.ar  1 <1>   0.0860 
 23 C        6.5260    11.6420     2.6740 C.ar  1 <1>  -0.1500 
 24 C        6.0580    12.3130     0.4230 C.ar  1 <1>  -0.1500 
 25 C        6.7240    12.9620     3.0390 C.ar  1 <1>  -0.1500 
 26 C        6.2540    13.6400     0.7700 C.ar  1 <1>  -0.1500 
 27 C        6.5850    13.9410     2.0760 C.ar  1 <1>   0.1900 
 28 F        6.7720    15.1880     2.4090 F     1 <1>  -0.1900 
 29 H        1.7220     1.8930     4.4450 H     1 <1>   0.1500 
 30 H       -2.1060     2.6920     0.8800 H     1 <1>   0.0800 
 31 H       -1.1750     1.5870    -0.1060 H     1 <1>   0.0800 
 32 H        2.9480     3.3480     2.5530 H     1 <1>   0.1500 
 33 H       -1.0410     4.6210    -0.0910 H     1 <1>   0.0800 
 34 H       -1.4210     3.5810    -1.4430 H     1 <1>   0.0800 
 35 H        2.3760     5.5130     1.1190 H     1 <1>   0.0800 
 36 H        0.7200     5.7560     0.6940 H     1 <1>   0.0800 
 37 H        2.6770     2.2650    -0.7830 H     1 <1>   0.0800 
 38 H        3.6000     3.3380     0.2170 H     1 <1>   0.0800 
 39 H        2.2080     7.1610    -0.6880 H     1 <1>   0.0800 
 40 H        1.3770     6.0090    -1.6890 H     1 <1>   0.0800 
 41 H        2.5590     3.9890    -2.5420 H     1 <1>   0.0800 
 42 H        4.2190     3.7020    -2.0970 H     1 <1>   0.0800 
 43 H        4.2100     7.7010     0.0030 H     1 <1>   0.0800 
 44 H        4.2780     8.2610    -1.6570 H     1 <1>   0.0800 
 45 H        6.7530     7.9090    -1.6080 H     1 <1>   0.0800 
 46 H        6.6220     7.4030     0.0580 H     1 <1>   0.0800 
 47 H        6.6600    10.0900    -0.9420 H     1 <1>   0.3700 
 48 H        6.6280    10.8660     3.4150 H     1 <1>   0.1500 
 49 H        5.7870    12.0760    -0.5900 H     1 <1>   0.1500 
 50 H        6.9790    13.2310     4.0490 H     1 <1>   0.1500 
 51 H        6.1490    14.4300     0.0480 H     1 <1>   0.1500 
@<TRIPOS>BOND
  1   1   2  1   
  2   1   3  1   
  3   2   4  2   
  4   2   5  1   
  5   3   6  2   
  6   3  29  1   
  7   4   6  1   
  8   4   7  1   
  9   5   8  1   
 10   5  30  1   
 11   5  31  1   
 12   6  32  1   
 13   7   9  1   
 14   7  10  1   
 15   7  11  1   
 16   8   9  1   
 17   8  33  1   
 18   8  34  1   
 19  10  12  1   
 20  10  35  1   
 21  10  36  1   
 22  11  13  1   
 23  11  37  1   
 24  11  38  1   
 25  12  14  1   
 26  12  39  1   
 27  12  40  1   
 28  13  14  1   
 29  13  41  1   
 30  13  42  1   
 31  14  15  am  
 32  15  16  2   
 33  15  17  1   
 34  17  18  1   
 35  17  43  1   
 36  17  44  1   
 37  18  19  1   
 38  18  45  1   
 39  18  46  1   
 40  19  20  am  
 41  19  47  1   
 42  20  21  2   
 43  20  22  1   
 44  22  23  ar  
 45  22  24  ar  
 46  23  25  ar  
 47  23  48  1   
 48  24  26  ar  
 49  24  49  1   
 50  25  27  ar  
 51  25  50  1   
 52  26  27  ar  
 53  26  51  1   
 54  27  28  1   
@<TRIPOS>SUBSTRUCTURE
  1 ****  17 GROUP 4 **** **** 0

# MOE 2024.06 (io_trps.svl 2023.06)
