@<TRIPOS>MOLECULE
NONAME
52 54 1 0 0 
SMALL
USER_CHARGES


@<TRIPOS>ATOM
  1 O       -0.3850     0.3120     0.2210 O.2   1 <1>  -0.5700 
  2 C       -1.4450     0.9040     0.2940 C.2   1 <1>   0.5440 
  3 N       -2.6070     0.1690     0.3510 N.am  1 <1>  -0.6600 
  4 C       -1.4640     2.3560     0.2960 C.ar  1 <1>   0.0860 
  5 C       -3.9480     0.6870    -0.0220 C.3   1 <1>   0.1400 
  6 C       -2.6020    -1.3160     0.3420 C.3   1 <1>   0.1400 
  7 C       -0.7330     3.0820    -0.6370 C.ar  1 <1>  -0.1500 
  8 C       -2.2090     3.0820     1.2210 C.ar  1 <1>  -0.1500 
  9 C       -4.7000    -0.5320    -0.5500 C.3   1 <1>   0.2000 
 10 C       -4.0630    -1.7280     0.1510 C.3   1 <1>  -0.0800 
 11 C       -0.7590     4.4650    -0.6630 C.ar  1 <1>  -0.1500 
 12 C       -2.2380     4.4640     1.1980 C.ar  1 <1>  -0.1500 
 13 O       -6.0530    -0.4660    -0.2580 O.3   1 <1>  -0.6800 
 14 C       -4.2330    -3.0450    -0.6190 C.3   1 <1>   0.0210 
 15 C       -1.5180     5.1870     0.2530 C.ar  1 <1>  -0.1430 
 16 C       -3.5070    -4.1770     0.0800 C.2   1 <1>   0.1080 
 17 C       -1.5840     6.7310     0.2640 C.3   1 <1>   0.1440 
 18 N       -3.8360    -4.6000     1.2610 N.2   1 <1>  -0.7070 
 19 C       -2.4210    -4.8710    -0.4430 C.2   1 <1>  -0.1500 
 20 C       -1.0620     7.2570     1.6090 C.3   1 <1>  -0.2400 
 21 C       -0.7420     7.3810    -0.8470 C.3   1 <1>  -0.2400 
 22 C       -3.0380     7.1850     0.0680 C.3   1 <1>  -0.2400 
 23 N       -2.9600    -5.5870     1.5250 N.pl3 1 <1>   0.3000 
 24 C       -2.0910    -5.7690     0.5080 C.2   1 <1>  -0.3320 
 25 C       -0.9820    -6.8040     0.5090 C.3   1 <1>  -0.0600 
 26 H       -4.4300     1.0780     0.8560 H     1 <1>   0.0800 
 27 H       -3.8710     1.4480    -0.7790 H     1 <1>   0.0800 
 28 H       -1.9920    -1.6600    -0.4770 H     1 <1>   0.0800 
 29 H       -2.2020    -1.7020     1.2650 H     1 <1>   0.0800 
 30 H       -0.1330     2.5450    -1.3520 H     1 <1>   0.1500 
 31 H       -2.7680     2.5520     1.9720 H     1 <1>   0.1500 
 32 H       -4.5850    -0.5930    -1.6190 H     1 <1>   0.0800 
 33 H       -4.4870    -1.8390     1.1340 H     1 <1>   0.0800 
 34 H       -0.1700     4.9570    -1.4150 H     1 <1>   0.1500 
 35 H       -2.8320     4.9760     1.9330 H     1 <1>   0.1500 
 36 H       -6.1990    -0.6020     0.6980 H     1 <1>   0.4000 
 37 H       -3.8540    -2.9420    -1.6200 H     1 <1>   0.0800 
 38 H       -5.2780    -3.2930    -0.6800 H     1 <1>   0.0800 
 39 H       -1.9610    -4.7040    -1.4010 H     1 <1>   0.1500 
 40 H       -1.0650     8.3320     1.6240 H     1 <1>   0.0800 
 41 H       -0.0550     6.9150     1.7710 H     1 <1>   0.0800 
 42 H       -1.6700     6.9110     2.4240 H     1 <1>   0.0800 
 43 H       -0.8200     8.4520    -0.8040 H     1 <1>   0.0800 
 44 H       -1.0830     7.0610    -1.8160 H     1 <1>   0.0800 
 45 H        0.2960     7.1190    -0.7360 H     1 <1>   0.0800 
 46 H       -3.1000     8.2580     0.0350 H     1 <1>   0.0800 
 47 H       -3.6650     6.8400     0.8690 H     1 <1>   0.0800 
 48 H       -3.4240     6.7920    -0.8560 H     1 <1>   0.0800 
 49 H       -2.9810    -6.1160     2.4050 H     1 <1>   0.2700 
 50 H       -0.4270    -6.7520    -0.4120 H     1 <1>   0.0800 
 51 H       -1.3950    -7.7930     0.6030 H     1 <1>   0.0800 
 52 H       -0.3060    -6.6250     1.3260 H     1 <1>   0.0800 
@<TRIPOS>BOND
  1   1   2  2   
  2   2   3  am  
  3   2   4  1   
  4   3   5  1   
  5   3   6  1   
  6   4   7  ar  
  7   4   8  ar  
  8   5   9  1   
  9   5  26  1   
 10   5  27  1   
 11   6  10  1   
 12   6  28  1   
 13   6  29  1   
 14   7  11  ar  
 15   7  30  1   
 16   8  12  ar  
 17   8  31  1   
 18   9  10  1   
 19   9  13  1   
 20   9  32  1   
 21  10  14  1   
 22  10  33  1   
 23  11  15  ar  
 24  11  34  1   
 25  12  15  ar  
 26  12  35  1   
 27  13  36  1   
 28  14  16  1   
 29  14  37  1   
 30  14  38  1   
 31  15  17  1   
 32  16  18  2   
 33  16  19  1   
 34  17  20  1   
 35  17  21  1   
 36  17  22  1   
 37  18  23  1   
 38  19  24  2   
 39  19  39  1   
 40  20  40  1   
 41  20  41  1   
 42  20  42  1   
 43  21  43  1   
 44  21  44  1   
 45  21  45  1   
 46  22  46  1   
 47  22  47  1   
 48  22  48  1   
 49  23  24  1   
 50  23  49  1   
 51  24  25  1   
 52  25  50  1   
 53  25  51  1   
 54  25  52  1   
@<TRIPOS>SUBSTRUCTURE
  1 ****   3 GROUP 4 **** **** 0

# MOE 2024.06 (io_trps.svl 2023.06)
