@<TRIPOS>MOLECULE
NONAME
46 48 1 0 0 
SMALL
USER_CHARGES


@<TRIPOS>ATOM
  1 S        0.5660     0.4370    -0.2700 S.o2  1 <1>   1.3330 
  2 O        0.3780    -0.5790    -1.2800 O.2   1 <1>  -0.6500 
  3 O        0.5460     0.0660     1.1270 O.2   1 <1>  -0.6500 
  4 N       -0.6010     1.6480    -0.5040 N.am  1 <1>  -0.8490 
  5 C        2.1050     1.2790    -0.6240 C.3   1 <1>  -0.0550 
  6 C       -0.7620     2.5360     0.6520 C.3   1 <1>   0.1160 
  7 C       -1.9000     1.0980    -0.8990 C.3   1 <1>   0.1160 
  8 C        3.3230     0.3340    -0.6360 C.3   1 <1>  -0.0800 
  9 C        4.6470     0.9870    -1.0060 C.3   1 <1>   0.2200 
 10 C        3.6350    -0.3340     0.7120 C.3   1 <1>   0.1200 
 11 N        4.7960     2.2960    -0.3230 N.am  1 <1>  -0.7300 
 12 C        5.6210     0.0040    -0.3740 C.3   1 <1>   0.1200 
 13 O        5.0290    -0.3410     0.8400 O.3   1 <1>  -0.5600 
 14 C        4.5890     3.5180    -0.8950 C.2   1 <1>   0.6160 
 15 O        4.2050     3.5400    -2.0480 O.2   1 <1>  -0.5700 
 16 C        4.7940     4.7380    -0.1380 C.2   1 <1>   0.0910 
 17 O        4.5320     5.8850    -0.7980 O.3   1 <1>  -0.1590 
 18 C        5.2120     4.8130     1.1550 C.2   1 <1>  -0.1360 
 19 C        4.6640     7.1070    -0.2390 C.ar  1 <1>   0.0820 
 20 C        5.3750     6.0460     1.8310 C.2   1 <1>   0.4690 
 21 C        5.0860     7.2410     1.0880 C.ar  1 <1>   0.0860 
 22 C        4.3710     8.2250    -1.0080 C.ar  1 <1>  -0.1500 
 23 O        5.7390     6.0660     2.9920 O.2   1 <1>  -0.5700 
 24 C        5.2020     8.5300     1.6140 C.ar  1 <1>  -0.1500 
 25 C        4.4920     9.4890    -0.4670 C.ar  1 <1>  -0.1500 
 26 C        4.9090     9.6410     0.8480 C.ar  1 <1>  -0.1500 
 27 H        2.0300     1.7470    -1.5870 H     1 <1>   0.0800 
 28 H        2.2520     2.0530     0.1020 H     1 <1>   0.0800 
 29 H       -1.4460     3.3320     0.4130 H     1 <1>   0.0800 
 30 H        0.1840     2.9720     0.9200 H     1 <1>   0.0800 
 31 H       -1.1430     1.9870     1.4980 H     1 <1>   0.0800 
 32 H       -2.6090     1.8910    -1.0580 H     1 <1>   0.0800 
 33 H       -2.2730     0.4340    -0.1360 H     1 <1>   0.0800 
 34 H       -1.8020     0.5460    -1.8190 H     1 <1>   0.0800 
 35 H        3.1310    -0.4510    -1.3480 H     1 <1>   0.0800 
 36 H        4.7870     1.0860    -2.0700 H     1 <1>   0.0800 
 37 H        3.2750    -1.3490     0.7480 H     1 <1>   0.0800 
 38 H        3.2330     0.2210     1.5420 H     1 <1>   0.0800 
 39 H        5.0710     2.2050     0.6570 H     1 <1>   0.3700 
 40 H        6.5940     0.4290    -0.1990 H     1 <1>   0.0800 
 41 H        5.7090    -0.8890    -0.9690 H     1 <1>   0.0800 
 42 H        5.4420     3.9420     1.7380 H     1 <1>   0.1500 
 43 H        4.0490     8.0970    -2.0280 H     1 <1>   0.1500 
 44 H        5.5260     8.6490     2.6350 H     1 <1>   0.1500 
 45 H        4.2650    10.3580    -1.0620 H     1 <1>   0.1500 
 46 H        5.0030    10.6280     1.2680 H     1 <1>   0.1500 
@<TRIPOS>BOND
  1   1   2  2   
  2   1   3  2   
  3   1   4  am  
  4   1   5  1   
  5   4   6  1   
  6   4   7  1   
  7   5   8  1   
  8   5  27  1   
  9   5  28  1   
 10   6  29  1   
 11   6  30  1   
 12   6  31  1   
 13   7  32  1   
 14   7  33  1   
 15   7  34  1   
 16   8   9  1   
 17   8  10  1   
 18   8  35  1   
 19   9  11  1   
 20   9  12  1   
 21   9  36  1   
 22  10  13  1   
 23  10  37  1   
 24  10  38  1   
 25  11  14  am  
 26  11  39  1   
 27  12  13  1   
 28  12  40  1   
 29  12  41  1   
 30  14  15  2   
 31  14  16  1   
 32  16  17  1   
 33  16  18  2   
 34  17  19  1   
 35  18  20  1   
 36  18  42  1   
 37  19  21  ar  
 38  19  22  ar  
 39  20  21  1   
 40  20  23  2   
 41  21  24  ar  
 42  22  25  ar  
 43  22  43  1   
 44  24  26  ar  
 45  24  44  1   
 46  25  26  ar  
 47  25  45  1   
 48  26  46  1   
@<TRIPOS>SUBSTRUCTURE
  1 ****  14 GROUP 4 **** **** 0

# MOE 2024.06 (io_trps.svl 2023.06)
