@<TRIPOS>MOLECULE
NONAME
41 42 1 0 0 
SMALL
USER_CHARGES


@<TRIPOS>ATOM
  1 CL      -0.4030    -1.7560     2.3680 Cl    1 <1>  -0.1770 
  2 C       -1.4780    -1.8510     0.9910 C.ar  1 <1>   0.1770 
  3 C       -2.2590    -2.9750     0.7760 C.ar  1 <1>   0.1900 
  4 C       -1.5360    -0.7810     0.1200 C.ar  1 <1>  -0.1500 
  5 F       -2.1700    -3.9510     1.6430 F     1 <1>  -0.1900 
  6 C       -3.1240    -3.0850    -0.3150 C.ar  1 <1>   0.0860 
  7 C       -2.3870    -0.8520    -0.9700 C.ar  1 <1>  -0.1500 
  8 C       -3.9560    -4.2460    -0.5850 C.2   1 <1>   0.5440 
  9 C       -3.1620    -1.9820    -1.1770 C.ar  1 <1>  -0.1500 
 10 O       -4.9460    -4.1380    -1.2830 O.2   1 <1>  -0.5700 
 11 N       -3.6720    -5.4830    -0.0840 N.am  1 <1>  -0.7300 
 12 C       -4.4770    -6.7010    -0.3340 C.3   1 <1>   0.2200 
 13 C       -5.6560    -6.7370     0.6420 C.3   1 <1>  -0.0800 
 14 C       -3.6850    -7.9550     0.0290 C.3   1 <1>   0.1200 
 15 C       -5.3850    -7.9770     1.5020 C.3   1 <1>   0.1200 
 16 C       -7.0320    -6.6510    -0.0560 C.3   1 <1>  -0.0550 
 17 O       -4.0280    -8.2310     1.3480 O.3   1 <1>  -0.5600 
 18 S       -7.5410    -8.0470    -1.0730 S.o2  1 <1>   1.3330 
 19 O       -8.6740    -7.6540    -1.8790 O.2   1 <1>  -0.6500 
 20 O       -6.3780    -8.6210    -1.7130 O.2   1 <1>  -0.6500 
 21 N       -8.1170    -9.1710     0.0650 N.am  1 <1>  -0.8490 
 22 C       -7.9720   -10.5550    -0.4000 C.3   1 <1>   0.1160 
 23 C       -9.5060    -8.9300     0.4730 C.3   1 <1>   0.1160 
 24 H       -0.9280     0.0890     0.2930 H     1 <1>   0.1500 
 25 H       -2.4470    -0.0250    -1.6590 H     1 <1>   0.1500 
 26 H       -3.8190    -2.0150    -2.0320 H     1 <1>   0.1500 
 27 H       -2.9770    -5.5790     0.6630 H     1 <1>   0.3700 
 28 H       -4.7750    -6.7260    -1.3690 H     1 <1>   0.0800 
 29 H       -5.5910    -5.8870     1.2990 H     1 <1>   0.0800 
 30 H       -2.6210    -7.8200    -0.0510 H     1 <1>   0.0800 
 31 H       -3.9980    -8.7880    -0.5760 H     1 <1>   0.0800 
 32 H       -5.9090    -8.8490     1.1600 H     1 <1>   0.0800 
 33 H       -5.5950    -7.8100     2.5440 H     1 <1>   0.0800 
 34 H       -7.0140    -5.7780    -0.6810 H     1 <1>   0.0800 
 35 H       -7.7820    -6.4780     0.6890 H     1 <1>   0.0800 
 36 H       -8.3390   -11.2400     0.3450 H     1 <1>   0.0800 
 37 H       -6.9330   -10.7780    -0.5770 H     1 <1>   0.0800 
 38 H       -8.5180   -10.7010    -1.3170 H     1 <1>   0.0800 
 39 H       -9.7830    -9.6090     1.2610 H     1 <1>   0.0800 
 40 H      -10.1740    -9.0720    -0.3620 H     1 <1>   0.0800 
 41 H       -9.6190    -7.9230     0.8360 H     1 <1>   0.0800 
@<TRIPOS>BOND
  1   1   2  1   
  2   2   3  ar  
  3   2   4  ar  
  4   3   5  1   
  5   3   6  ar  
  6   4   7  ar  
  7   4  24  1   
  8   6   8  1   
  9   6   9  ar  
 10   7   9  ar  
 11   7  25  1   
 12   8  10  2   
 13   8  11  am  
 14   9  26  1   
 15  11  12  1   
 16  11  27  1   
 17  12  13  1   
 18  12  14  1   
 19  12  28  1   
 20  13  15  1   
 21  13  16  1   
 22  13  29  1   
 23  14  17  1   
 24  14  30  1   
 25  14  31  1   
 26  15  17  1   
 27  15  32  1   
 28  15  33  1   
 29  16  18  1   
 30  16  34  1   
 31  16  35  1   
 32  18  19  2   
 33  18  20  2   
 34  18  21  am  
 35  21  22  1   
 36  21  23  1   
 37  22  36  1   
 38  22  37  1   
 39  22  38  1   
 40  23  39  1   
 41  23  40  1   
 42  23  41  1   
@<TRIPOS>SUBSTRUCTURE
  1 ****  11 GROUP 4 **** **** 0

# MOE 2024.06 (io_trps.svl 2023.06)
