@<TRIPOS>MOLECULE
NONAME
56 60 1 0 0 
SMALL
USER_CHARGES


@<TRIPOS>ATOM
  1 O       -0.7490    -0.0290     2.1500 O.2   1 <1>  -0.5700 
  2 C       -1.6320     0.7720     1.9440 C.2   1 <1>   0.5690 
  3 N       -2.9530     0.4000     1.9610 N.am  1 <1>  -0.6600 
  4 C       -1.2360     2.2220     1.6930 C.3   1 <1>   0.1810 
  5 C       -4.1160     1.2650     1.6520 C.3   1 <1>   0.1400 
  6 C       -3.3880    -1.0060     2.0340 C.3   1 <1>   0.1400 
  7 O       -1.4930     2.5840     0.3440 O.3   1 <1>  -0.3620 
  8 C       -5.1440     0.3370     0.9910 C.3   1 <1>  -0.0800 
  9 C       -4.5620    -1.0960     1.0580 C.3   1 <1>  -0.0800 
 10 C       -1.7040     3.8750     0.0030 C.ar  1 <1>   0.0820 
 11 C       -5.6060     0.8060    -0.4130 C.3   1 <1>   0.4240 
 12 C       -4.1090    -1.6390    -0.3100 C.3   1 <1>  -0.1600 
 13 C       -2.4320     4.1080    -1.1510 C.ar  1 <1>  -0.1500 
 14 C       -1.2370     4.9520     0.7480 C.ar  1 <1>  -0.1500 
 15 O       -4.5030     1.2030    -1.1500 O.3   1 <1>  -0.6800 
 16 C       -6.5900     1.9900    -0.2910 C.ar  1 <1>  -0.1440 
 17 C       -6.2030    -0.3870    -1.1790 C.3   1 <1>  -0.1600 
 18 C       -5.2180    -1.5610    -1.3780 C.3   1 <1>  -0.1600 
 19 C       -2.7120     5.4000    -1.5530 C.ar  1 <1>  -0.1500 
 20 C       -1.5180     6.2460     0.3440 C.ar  1 <1>  -0.1500 
 21 C       -6.2350     3.2890    -0.6490 C.ar  1 <1>  -0.1500 
 22 C       -7.8730     1.7830     0.2080 C.ar  1 <1>  -0.1500 
 23 C       -2.2650     6.4880    -0.8080 C.ar  1 <1>  -0.0230 
 24 C       -7.1290     4.3380    -0.5200 C.ar  1 <1>  -0.1500 
 25 C       -8.7700     2.8300     0.3380 C.ar  1 <1>  -0.1500 
 26 N       -2.5700     7.8200    -1.2180 N.pl3 1 <1>   0.5930 
 27 C       -8.3990     4.1100    -0.0260 C.ar  1 <1>  -0.1500 
 28 N       -2.6330     8.2360    -2.4730 N.2   1 <1>  -0.4180 
 29 C       -2.8540     8.8740    -0.4670 C.2   1 <1>   0.0360 
 30 N       -2.9360     9.4840    -2.4420 N.2   1 <1>   0.0000 
 31 N       -3.0790     9.9020    -1.1900 N.2   1 <1>  -0.3380 
 32 H       -0.1870     2.3550     1.8810 H     1 <1>   0.0800 
 33 H       -1.8090     2.8570     2.3420 H     1 <1>   0.0800 
 34 H       -4.5160     1.6630     2.5680 H     1 <1>   0.0800 
 35 H       -3.8410     2.0860     1.0150 H     1 <1>   0.0800 
 36 H       -2.5900    -1.6810     1.7740 H     1 <1>   0.0800 
 37 H       -3.7160    -1.2160     3.0380 H     1 <1>   0.0800 
 38 H       -6.0110     0.3420     1.6260 H     1 <1>   0.0800 
 39 H       -5.3000    -1.7730     1.4540 H     1 <1>   0.0800 
 40 H       -3.2500    -1.0810    -0.6420 H     1 <1>   0.0800 
 41 H       -3.7890    -2.6620    -0.2070 H     1 <1>   0.0800 
 42 H       -2.7820     3.2680    -1.7280 H     1 <1>   0.1500 
 43 H       -0.6480     4.7950     1.6330 H     1 <1>   0.1500 
 44 H       -3.8560     0.4750    -1.1280 H     1 <1>   0.4000 
 45 H       -7.0460    -0.7580    -0.6270 H     1 <1>   0.0800 
 46 H       -6.5760    -0.0500    -2.1310 H     1 <1>   0.0800 
 47 H       -5.7790    -2.4800    -1.3790 H     1 <1>   0.0800 
 48 H       -4.7530    -1.4750    -2.3460 H     1 <1>   0.0800 
 49 H       -3.2810     5.5600    -2.4550 H     1 <1>   0.1500 
 50 H       -1.1410     7.0660     0.9310 H     1 <1>   0.1500 
 51 H       -5.2550     3.5020    -1.0360 H     1 <1>   0.1500 
 52 H       -8.1940     0.8020     0.5060 H     1 <1>   0.1500 
 53 H       -6.8330     5.3320    -0.8070 H     1 <1>   0.1500 
 54 H       -9.7580     2.6480     0.7230 H     1 <1>   0.1500 
 55 H       -9.0950     4.9240     0.0720 H     1 <1>   0.1500 
 56 H       -2.8880     8.8420     0.6040 H     1 <1>   0.1500 
@<TRIPOS>BOND
  1   1   2  2   
  2   2   3  am  
  3   2   4  1   
  4   3   5  1   
  5   3   6  1   
  6   4   7  1   
  7   4  32  1   
  8   4  33  1   
  9   5   8  1   
 10   5  34  1   
 11   5  35  1   
 12   6   9  1   
 13   6  36  1   
 14   6  37  1   
 15   7  10  1   
 16   8   9  1   
 17   8  11  1   
 18   8  38  1   
 19   9  12  1   
 20   9  39  1   
 21  10  13  ar  
 22  10  14  ar  
 23  11  15  1   
 24  11  16  1   
 25  11  17  1   
 26  12  18  1   
 27  12  40  1   
 28  12  41  1   
 29  13  19  ar  
 30  13  42  1   
 31  14  20  ar  
 32  14  43  1   
 33  15  44  1   
 34  16  21  ar  
 35  16  22  ar  
 36  17  18  1   
 37  17  45  1   
 38  17  46  1   
 39  18  47  1   
 40  18  48  1   
 41  19  23  ar  
 42  19  49  1   
 43  20  23  ar  
 44  20  50  1   
 45  21  24  ar  
 46  21  51  1   
 47  22  25  ar  
 48  22  52  1   
 49  23  26  1   
 50  24  27  ar  
 51  24  53  1   
 52  25  27  ar  
 53  25  54  1   
 54  26  28  1   
 55  26  29  1   
 56  27  55  1   
 57  28  30  2   
 58  29  31  2   
 59  29  56  1   
 60  30  31  1   
@<TRIPOS>SUBSTRUCTURE
  1 ****  13 GROUP 4 **** **** 0

# MOE 2024.06 (io_trps.svl 2023.06)
