@<TRIPOS>MOLECULE
NONAME
62 65 1 0 0 
SMALL
USER_CHARGES


@<TRIPOS>ATOM
  1 O       -3.8490     2.8090     2.2630 O.2   1 <1>  -0.5700 
  2 C       -3.7610     2.4330     1.1150 C.2   1 <1>   0.5690 
  3 N       -4.7170     1.5980     0.5750 N.am  1 <1>  -0.6600 
  4 C       -2.5540     2.9060     0.2880 C.3   1 <1>   0.2370 
  5 C       -5.7460     0.9530     1.4360 C.3   1 <1>   0.1400 
  6 C       -4.7240     1.0620    -0.8160 C.3   1 <1>   0.1400 
  7 N       -1.6640     1.7490     0.0050 N.pl3 1 <1>   0.0480 
  8 C       -1.7540     4.0560     0.9430 C.3   1 <1>  -0.1600 
  9 C       -5.4270    -0.5410     1.5300 C.3   1 <1>  -0.1600 
 10 C       -4.4030    -0.4340    -0.7740 C.3   1 <1>  -0.1600 
 11 C       -1.1810     1.3830    -1.2150 C.2   1 <1>  -0.3020 
 12 C       -1.2180     0.8210     0.8980 C.2   1 <1>  -0.3020 
 13 C       -0.6200     4.5960     0.0550 C.3   1 <1>  -0.1600 
 14 C       -5.3670    -1.2030     0.1420 C.3   1 <1>   0.4240 
 15 C       -0.4490     0.2450    -1.0950 C.2   1 <1>  -0.1500 
 16 C       -0.4740    -0.1150     0.2550 C.2   1 <1>  -0.1500 
 17 C        0.0790     5.7820     0.7230 C.3   1 <1>  -0.2400 
 18 O       -6.6320    -1.0650    -0.4630 O.3   1 <1>  -0.5600 
 19 C       -4.9390    -2.6830     0.2450 C.ar  1 <1>  -0.1430 
 20 C       -7.6080    -2.0040    -0.1320 C.3   1 <1>   0.1200 
 21 C       -5.7950    -3.7100    -0.1310 C.ar  1 <1>  -0.1430 
 22 C       -3.6800    -3.0180     0.7260 C.ar  1 <1>  -0.1500 
 23 C       -7.1760    -3.3710    -0.6550 C.3   1 <1>  -0.0170 
 24 C       -5.3960    -5.0330    -0.0290 C.ar  1 <1>  -0.1500 
 25 C       -3.2630    -4.3340     0.8270 C.ar  1 <1>   0.0820 
 26 C       -4.1360    -5.3680     0.4570 C.ar  1 <1>   0.0820 
 27 O       -1.9960    -4.5030     1.3010 O.3   1 <1>  -0.3630 
 28 O       -3.7470    -6.6710     0.5950 O.3   1 <1>  -0.3620 
 29 C       -1.1710    -5.5280     0.7930 C.3   1 <1>   0.0400 
 30 C       -4.6450    -7.7440     0.4180 C.3   1 <1>   0.0400 
 31 H       -2.9310     3.2680    -0.6480 H     1 <1>   0.0800 
 32 H       -6.7190     1.1000     1.0000 H     1 <1>   0.0800 
 33 H       -5.7520     1.3860     2.4210 H     1 <1>   0.0800 
 34 H       -4.0120     1.5670    -1.4410 H     1 <1>   0.0800 
 35 H       -5.7010     1.2110    -1.2450 H     1 <1>   0.0800 
 36 H       -1.3500     3.7140     1.8810 H     1 <1>   0.0800 
 37 H       -2.4370     4.8580     1.1620 H     1 <1>   0.0800 
 38 H       -6.1520    -1.0360     2.1470 H     1 <1>   0.0800 
 39 H       -4.4760    -0.6470     2.0200 H     1 <1>   0.0800 
 40 H       -3.3930    -0.5520    -0.4310 H     1 <1>   0.0800 
 41 H       -4.4530    -0.8480    -1.7640 H     1 <1>   0.0800 
 42 H       -1.3790     1.9480    -2.1080 H     1 <1>   0.1500 
 43 H       -1.4590     0.8740     1.9470 H     1 <1>   0.1500 
 44 H       -1.0170     4.9080    -0.8960 H     1 <1>   0.0800 
 45 H        0.1070     3.8210    -0.1240 H     1 <1>   0.0800 
 46 H        0.0640    -0.3000    -1.8700 H     1 <1>   0.1500 
 47 H        0.0130    -0.9770     0.6780 H     1 <1>   0.1500 
 48 H       -0.6160     6.5860     0.8920 H     1 <1>   0.0800 
 49 H        0.8720     6.1440     0.0920 H     1 <1>   0.0800 
 50 H        0.5030     5.4860     1.6670 H     1 <1>   0.0800 
 51 H       -8.5300    -1.6980    -0.5940 H     1 <1>   0.0800 
 52 H       -7.7380    -2.0210     0.9360 H     1 <1>   0.0800 
 53 H       -2.9890    -2.2530     1.0320 H     1 <1>   0.1500 
 54 H       -7.1620    -3.3540    -1.7300 H     1 <1>   0.0800 
 55 H       -7.8880    -4.1110    -0.3360 H     1 <1>   0.0800 
 56 H       -6.0880    -5.7930    -0.3360 H     1 <1>   0.1500 
 57 H       -0.1480    -5.2570     0.9770 H     1 <1>   0.0800 
 58 H       -1.3430    -5.6290    -0.2640 H     1 <1>   0.0800 
 59 H       -1.4010    -6.4440     1.3060 H     1 <1>   0.0800 
 60 H       -4.1270    -8.6550     0.6580 H     1 <1>   0.0800 
 61 H       -4.9650    -7.7670    -0.6090 H     1 <1>   0.0800 
 62 H       -5.4810    -7.6130     1.0830 H     1 <1>   0.0800 
@<TRIPOS>BOND
  1   1   2  2   
  2   2   3  am  
  3   2   4  1   
  4   3   5  1   
  5   3   6  1   
  6   4   7  1   
  7   4   8  1   
  8   4  31  1   
  9   5   9  1   
 10   5  32  1   
 11   5  33  1   
 12   6  10  1   
 13   6  34  1   
 14   6  35  1   
 15   7  11  1   
 16   7  12  1   
 17   8  13  1   
 18   8  36  1   
 19   8  37  1   
 20   9  14  1   
 21   9  38  1   
 22   9  39  1   
 23  10  14  1   
 24  10  40  1   
 25  10  41  1   
 26  11  15  2   
 27  11  42  1   
 28  12  16  2   
 29  12  43  1   
 30  13  17  1   
 31  13  44  1   
 32  13  45  1   
 33  14  18  1   
 34  14  19  1   
 35  15  16  1   
 36  15  46  1   
 37  16  47  1   
 38  17  48  1   
 39  17  49  1   
 40  17  50  1   
 41  18  20  1   
 42  19  21  ar  
 43  19  22  ar  
 44  20  23  1   
 45  20  51  1   
 46  20  52  1   
 47  21  23  1   
 48  21  24  ar  
 49  22  25  ar  
 50  22  53  1   
 51  23  54  1   
 52  23  55  1   
 53  24  26  ar  
 54  24  56  1   
 55  25  26  ar  
 56  25  27  1   
 57  26  28  1   
 58  27  29  1   
 59  28  30  1   
 60  29  57  1   
 61  29  58  1   
 62  29  59  1   
 63  30  60  1   
 64  30  61  1   
 65  30  62  1   
@<TRIPOS>SUBSTRUCTURE
  1 ****  10 GROUP 4 **** **** 0

# MOE 2024.06 (io_trps.svl 2023.06)
