@<TRIPOS>MOLECULE
NONAME
42 44 1 0 0 
SMALL
USER_CHARGES


@<TRIPOS>ATOM
  1 F        0.6790     1.0920     0.5210 F     1 <1>  -0.1900 
  2 C        1.8350     1.5890     0.1380 C.ar  1 <1>   0.1900 
  3 C        2.1030     2.9410     0.2170 C.ar  1 <1>   0.3920 
  4 C        2.8050     0.7570    -0.3510 C.ar  1 <1>   0.1600 
  5 O        1.1600     3.7830     0.6980 O.3   1 <1>  -0.3630 
  6 N        3.2660     3.4290    -0.1700 N.ar  1 <1>  -0.6200 
  7 N        3.9720     1.2260    -0.7420 N.ar  1 <1>  -0.6200 
  8 C        1.3960     5.1760     0.7750 C.3   1 <1>   0.0400 
  9 C        4.1470     2.5450    -0.6380 C.ar  1 <1>   0.7200 
 10 N        5.3640     3.0410    -1.0510 N.pl3 1 <1>  -0.8380 
 11 C        5.5880     4.5010    -1.2960 C.3   1 <1>   0.2090 
 12 C        6.6240     2.2750    -0.8510 C.3   1 <1>   0.2090 
 13 C        6.3180     5.1260    -0.0990 C.3   1 <1>   0.2000 
 14 C        7.3840     2.8660     0.3440 C.3   1 <1>  -0.1600 
 15 O        6.6120     6.4550    -0.4090 O.3   1 <1>  -0.5600 
 16 C        7.6300     4.3790     0.1950 C.3   1 <1>  -0.1600 
 17 C        6.7110     7.3100     0.7000 C.3   1 <1>   0.2630 
 18 C        7.0290     8.7500     0.2990 C.ar  1 <1>   0.1670 
 19 N        7.0740     9.6160     1.3050 N.ar  1 <1>  -0.6200 
 20 C        7.2540     9.1040    -1.0260 C.ar  1 <1>  -0.1500 
 21 C        7.3500    10.8690     0.9790 C.ar  1 <1>   0.1600 
 22 C        7.5400    10.4130    -1.3500 C.ar  1 <1>  -0.1500 
 23 C        7.5870    11.3140    -0.3100 C.ar  1 <1>  -0.1500 
 24 H        2.6220    -0.3000    -0.4230 H     1 <1>   0.1500 
 25 H        0.5180     5.6450     1.1780 H     1 <1>   0.0800 
 26 H        1.5960     5.5500    -0.2130 H     1 <1>   0.0800 
 27 H        2.2390     5.3510     1.4210 H     1 <1>   0.0800 
 28 H        4.6550     5.0100    -1.4610 H     1 <1>   0.0800 
 29 H        6.1910     4.6140    -2.1800 H     1 <1>   0.0800 
 30 H        7.2230     2.3470    -1.7420 H     1 <1>   0.0800 
 31 H        6.4240     1.2320    -0.6720 H     1 <1>   0.0800 
 32 H        5.6560     5.0950     0.7510 H     1 <1>   0.0800 
 33 H        8.3250     2.3560     0.4490 H     1 <1>   0.0800 
 34 H        6.8110     2.6790     1.2360 H     1 <1>   0.0800 
 35 H        8.0760     4.7520     1.0980 H     1 <1>   0.0800 
 36 H        8.3140     4.5420    -0.6200 H     1 <1>   0.0800 
 37 H        7.4880     6.9510     1.3490 H     1 <1>   0.0800 
 38 H        5.7730     7.2950     1.2260 H     1 <1>   0.0800 
 39 H        7.2060     8.3630    -1.8030 H     1 <1>   0.1500 
 40 H        7.3900    11.5820     1.7850 H     1 <1>   0.1500 
 41 H        7.7180    10.7140    -2.3680 H     1 <1>   0.1500 
 42 H        7.8050    12.3500    -0.4920 H     1 <1>   0.1500 
@<TRIPOS>BOND
  1   1   2  1   
  2   2   3  ar  
  3   2   4  ar  
  4   3   5  1   
  5   3   6  ar  
  6   4   7  ar  
  7   4  24  1   
  8   5   8  1   
  9   6   9  ar  
 10   7   9  ar  
 11   8  25  1   
 12   8  26  1   
 13   8  27  1   
 14   9  10  1   
 15  10  11  1   
 16  10  12  1   
 17  11  13  1   
 18  11  28  1   
 19  11  29  1   
 20  12  14  1   
 21  12  30  1   
 22  12  31  1   
 23  13  15  1   
 24  13  16  1   
 25  13  32  1   
 26  14  16  1   
 27  14  33  1   
 28  14  34  1   
 29  15  17  1   
 30  16  35  1   
 31  16  36  1   
 32  17  18  1   
 33  17  37  1   
 34  17  38  1   
 35  18  19  ar  
 36  18  20  ar  
 37  19  21  ar  
 38  20  22  ar  
 39  20  39  1   
 40  21  23  ar  
 41  21  40  1   
 42  22  23  ar  
 43  22  41  1   
 44  23  42  1   
@<TRIPOS>SUBSTRUCTURE
  1 ****  13 GROUP 4 **** **** 0

# MOE 2024.06 (io_trps.svl 2023.06)
