@<TRIPOS>MOLECULE
NONAME
51 54 1 0 0 
SMALL
USER_CHARGES


@<TRIPOS>ATOM
  1 O       -0.1390     1.5970    -2.0810 O.2   1 <1>  -0.5700 
  2 C       -0.1560     2.8040    -2.0170 C.2   1 <1>   0.5690 
  3 N       -0.2020     3.4920    -0.8310 N.am  1 <1>  -0.5090 
  4 C       -0.1530     3.5810    -3.3350 C.3   1 <1>   0.1810 
  5 C       -0.3910     4.9770    -0.7940 C.3   1 <1>   0.3640 
  6 C       -0.0850     2.8170     0.4860 C.3   1 <1>   0.0490 
  7 O        0.1700     4.9410    -3.1680 O.3   1 <1>  -0.5600 
  8 C       -1.5420     5.3290     0.1470 C.ar  1 <1>  -0.1440 
  9 C       -0.6270     5.5900    -2.1950 C.3   1 <1>   0.2610 
 10 C        1.0050     3.2470     1.4200 C.3   1 <1>  -0.2000 
 11 C        1.0760     1.9120     0.7510 C.3   1 <1>  -0.2000 
 12 C       -1.3340     6.2060     1.2040 C.ar  1 <1>   0.1600 
 13 C       -2.8030     4.7880    -0.0250 C.ar  1 <1>  -0.1500 
 14 C       -0.3110     7.0850    -2.1420 C.2   1 <1>   0.5690 
 15 N       -2.2610     6.5760     2.0730 N.ar  1 <1>  -0.6200 
 16 C       -3.7780     5.1670     0.8710 C.ar  1 <1>  -0.1500 
 17 O       -1.1480     7.8540    -1.7310 O.2   1 <1>  -0.5700 
 18 N        0.9240     7.5190    -2.5010 N.am  1 <1>  -0.7300 
 19 C       -3.4590     6.0520     1.8850 C.ar  1 <1>   0.1600 
 20 C        1.4190     8.8930    -2.3270 C.3   1 <1>   0.3200 
 21 C        1.7240     9.0900    -0.8610 C.2   1 <1>  -0.3320 
 22 N        0.7570     9.1000     0.0780 N.pl3 1 <1>   0.3000 
 23 C        2.8940     9.2820    -0.2160 C.2   1 <1>  -0.1500 
 24 N        1.2680     9.2730     1.3130 N.2   1 <1>  -0.7070 
 25 C        2.5510     9.3920     1.1290 C.2   1 <1>   0.1080 
 26 C        3.5230     9.6270     2.2790 C.3   1 <1>   0.3010 
 27 O        4.8390     9.7610     1.8140 O.3   1 <1>  -0.5600 
 28 C        5.7700    10.0090     2.8170 C.3   1 <1>   0.0400 
 29 H       -1.1210     3.5120    -3.7970 H     1 <1>   0.0800 
 30 H        0.5770     3.1510    -3.9970 H     1 <1>   0.0800 
 31 H        0.5160     5.4050    -0.4020 H     1 <1>   0.0800 
 32 H       -1.0430     2.5470     0.9000 H     1 <1>   0.1000 
 33 H       -1.6570     5.4780    -2.4810 H     1 <1>   0.0800 
 34 H        1.7180     3.9930     1.1180 H     1 <1>   0.1000 
 35 H        0.7960     3.2760     2.4750 H     1 <1>   0.1000 
 36 H        0.9110     1.0290     1.3430 H     1 <1>   0.1000 
 37 H        1.7910     1.7520    -0.0370 H     1 <1>   0.1000 
 38 H       -0.3540     6.6320     1.3530 H     1 <1>   0.1500 
 39 H       -3.0230     4.0930    -0.8170 H     1 <1>   0.1500 
 40 H       -4.7780     4.7820     0.7880 H     1 <1>   0.1500 
 41 H        1.5960     6.8370    -2.8630 H     1 <1>   0.3700 
 42 H       -4.2300     6.3430     2.5800 H     1 <1>   0.1500 
 43 H        2.3080     9.0360    -2.9180 H     1 <1>   0.0800 
 44 H        0.6700     9.5970    -2.6500 H     1 <1>   0.0800 
 45 H       -0.2510     8.9680    -0.1080 H     1 <1>   0.2700 
 46 H        3.8950     9.3430    -0.6080 H     1 <1>   0.1500 
 47 H        3.4800     8.7940     2.9580 H     1 <1>   0.0800 
 48 H        3.2460    10.5280     2.7960 H     1 <1>   0.0800 
 49 H        6.7400    10.0910     2.3600 H     1 <1>   0.0800 
 50 H        5.7660     9.1910     3.5170 H     1 <1>   0.0800 
 51 H        5.5230    10.9340     3.3110 H     1 <1>   0.0800 
@<TRIPOS>BOND
  1   1   2  2   
  2   2   3  am  
  3   2   4  1   
  4   3   5  1   
  5   3   6  1   
  6   4   7  1   
  7   4  29  1   
  8   4  30  1   
  9   5   8  1   
 10   5   9  1   
 11   5  31  1   
 12   6  10  1   
 13   6  11  1   
 14   6  32  1   
 15   7   9  1   
 16   8  12  ar  
 17   8  13  ar  
 18   9  14  1   
 19   9  33  1   
 20  10  11  1   
 21  10  34  1   
 22  10  35  1   
 23  11  36  1   
 24  11  37  1   
 25  12  15  ar  
 26  12  38  1   
 27  13  16  ar  
 28  13  39  1   
 29  14  17  2   
 30  14  18  am  
 31  15  19  ar  
 32  16  19  ar  
 33  16  40  1   
 34  18  20  1   
 35  18  41  1   
 36  19  42  1   
 37  20  21  1   
 38  20  43  1   
 39  20  44  1   
 40  21  22  1   
 41  21  23  2   
 42  22  24  1   
 43  22  45  1   
 44  23  25  1   
 45  23  46  1   
 46  24  25  2   
 47  25  26  1   
 48  26  27  1   
 49  26  47  1   
 50  26  48  1   
 51  27  28  1   
 52  28  49  1   
 53  28  50  1   
 54  28  51  1   
@<TRIPOS>SUBSTRUCTURE
  1 ****   5 GROUP 4 **** **** 0

# MOE 2024.06 (io_trps.svl 2023.06)
