@<TRIPOS>MOLECULE
NONAME
57 59 1 0 0 
SMALL
USER_CHARGES


@<TRIPOS>ATOM
  1 O        3.7350     3.2080     0.1530 O.co2 1 <1>  -0.9000 
  2 C        3.6150     1.9750     0.1020 C.2   1 <1>   0.9060 
  3 O        4.2920     1.2800     0.8730 O.co2 1 <1>  -0.9000 
  4 C        2.7280     1.2870    -0.9590 C.3   1 <1>  -0.1060 
  5 C        3.5180     0.1800    -1.7210 C.3   1 <1>   0.2000 
  6 C        2.2630     2.3000    -2.0410 C.3   1 <1>  -0.1600 
  7 C        1.5150     0.6290    -0.2490 C.3   1 <1>  -0.0160 
  8 O        4.2000    -0.6290    -0.8300 O.3   1 <1>  -0.6800 
  9 C        4.4920     0.7020    -2.8060 C.3   1 <1>   0.1400 
 10 C        3.4360     2.9810    -2.7740 C.3   1 <1>   0.1400 
 11 C        0.4630     1.6100     0.2630 C.ar  1 <1>  -0.1440 
 12 N        4.7010     2.1770    -2.7050 N.am  1 <1>  -0.6600 
 13 C       -0.7430     1.7570    -0.4080 C.ar  1 <1>  -0.1500 
 14 C        0.6960     2.3610     1.4040 C.ar  1 <1>  -0.1500 
 15 C        5.9160     2.6630    -2.2840 C.2   1 <1>   0.5690 
 16 C       -1.7010     2.6420     0.0560 C.ar  1 <1>  -0.1500 
 17 C       -0.2600     3.2480     1.8690 C.ar  1 <1>  -0.1500 
 18 O        6.9520     2.0730    -2.5070 O.2   1 <1>  -0.5700 
 19 C        6.0370     3.9730    -1.4820 C.3   1 <1>   0.4040 
 20 C       -1.4600     3.3890     1.1950 C.ar  1 <1>  -0.1500 
 21 N        7.0410     3.9310    -0.3480 N.4   1 <1>  -0.9590 
 22 C        6.6580     2.8310     0.5920 C.3   1 <1>   0.3430 
 23 C        7.0940     5.2570     0.3040 C.3   1 <1>   0.3430 
 24 C        7.8870     2.3360     1.3530 C.3   1 <1>  -0.1600 
 25 C        8.2050     5.3540     1.3530 C.3   1 <1>  -0.1600 
 26 C        8.2360     3.1150     2.6320 C.3   1 <1>  -0.1600 
 27 C        7.8640     4.6030     2.6480 C.3   1 <1>  -0.1600 
 28 H        2.8240    -0.4700    -2.2240 H     1 <1>   0.0800 
 29 H        1.6630     3.0730    -1.5910 H     1 <1>   0.0800 
 30 H        1.6420     1.7990    -2.7620 H     1 <1>   0.0800 
 31 H        1.0350    -0.0570    -0.9220 H     1 <1>   0.0800 
 32 H        1.8700     0.0430     0.5830 H     1 <1>   0.0800 
 33 H        4.4050    -0.0620    -0.0230 H     1 <1>   0.4000 
 34 H        4.0730     0.4940    -3.7740 H     1 <1>   0.0800 
 35 H        5.4280     0.1740    -2.7370 H     1 <1>   0.0800 
 36 H        3.5860     3.9520    -2.3390 H     1 <1>   0.0800 
 37 H        3.1710     3.1300    -3.8070 H     1 <1>   0.0800 
 38 H       -0.9400     1.1820    -1.2940 H     1 <1>   0.1500 
 39 H        1.6290     2.2620     1.9350 H     1 <1>   0.1500 
 40 H       -2.6330     2.7490    -0.4700 H     1 <1>   0.1500 
 41 H       -0.0620     3.8270     2.7530 H     1 <1>   0.1500 
 42 H        5.0750     4.2380    -1.0920 H     1 <1>   0.0800 
 43 H        6.3240     4.7420    -2.1760 H     1 <1>   0.0800 
 44 H       -2.2020     4.0780     1.5570 H     1 <1>   0.1500 
 45 H        7.9410     3.6600    -0.7600 H     1 <1>   0.4500 
 46 H        5.8750     3.1430     1.2660 H     1 <1>   0.0800 
 47 H        6.2750     1.9980     0.0270 H     1 <1>   0.0800 
 48 H        7.2670     6.0100    -0.4470 H     1 <1>   0.0800 
 49 H        6.1420     5.4640     0.7690 H     1 <1>   0.0800 
 50 H        7.6900     1.3170     1.6390 H     1 <1>   0.0800 
 51 H        8.7320     2.3090     0.6880 H     1 <1>   0.0800 
 52 H        9.1480     5.0320     0.9480 H     1 <1>   0.0800 
 53 H        8.3060     6.3950     1.6020 H     1 <1>   0.0800 
 54 H        7.7340     2.6460     3.4630 H     1 <1>   0.0800 
 55 H        9.2930     3.0120     2.8120 H     1 <1>   0.0800 
 56 H        8.3920     5.0640     3.4660 H     1 <1>   0.0800 
 57 H        6.8120     4.7070     2.8590 H     1 <1>   0.0800 
@<TRIPOS>BOND
  1   1   2  ar  
  2   2   3  ar  
  3   2   4  1   
  4   4   5  1   
  5   4   6  1   
  6   4   7  1   
  7   5   8  1   
  8   5   9  1   
  9   5  28  1   
 10   6  10  1   
 11   6  29  1   
 12   6  30  1   
 13   7  11  1   
 14   7  31  1   
 15   7  32  1   
 16   8  33  1   
 17   9  12  1   
 18   9  34  1   
 19   9  35  1   
 20  10  12  1   
 21  10  36  1   
 22  10  37  1   
 23  11  13  ar  
 24  11  14  ar  
 25  12  15  am  
 26  13  16  ar  
 27  13  38  1   
 28  14  17  ar  
 29  14  39  1   
 30  15  18  2   
 31  15  19  1   
 32  16  20  ar  
 33  16  40  1   
 34  17  20  ar  
 35  17  41  1   
 36  19  21  1   
 37  19  42  1   
 38  19  43  1   
 39  20  44  1   
 40  21  22  1   
 41  21  23  1   
 42  21  45  1   
 43  22  24  1   
 44  22  46  1   
 45  22  47  1   
 46  23  25  1   
 47  23  48  1   
 48  23  49  1   
 49  24  26  1   
 50  24  50  1   
 51  24  51  1   
 52  25  27  1   
 53  25  52  1   
 54  25  53  1   
 55  26  27  1   
 56  26  54  1   
 57  26  55  1   
 58  27  56  1   
 59  27  57  1   
@<TRIPOS>SUBSTRUCTURE
  1 ****   2 GROUP 4 **** **** 0

# MOE 2024.06 (io_trps.svl 2023.06)
