@<TRIPOS>MOLECULE
NONAME
50 54 1 0 0 
SMALL
USER_CHARGES


@<TRIPOS>ATOM
  1 O        0.2080     0.1410     0.3830 O.2   1 <1>  -0.5700 
  2 C       -0.2920     1.2460     0.2510 C.2   1 <1>   0.7160 
  3 N       -1.6750     1.3300     0.2110 N.am  1 <1>  -0.6600 
  4 C        0.6000     2.3890     0.1250 C.2   1 <1>   0.1410 
  5 C       -2.4360     2.4570    -0.4190 C.3   1 <1>   0.1400 
  6 C       -2.5410     0.1910     0.6320 C.3   1 <1>   0.1400 
  7 N        0.3070     3.6520     0.5080 N.2   1 <1>  -0.2270 
  8 C        1.8660     2.4050    -0.3510 C.2   1 <1>  -0.3020 
  9 C       -3.5140     3.0050     0.5360 C.3   1 <1>   0.1440 
 10 C       -3.6360     0.6880     1.5870 C.3   1 <1>  -0.1600 
 11 N        1.3160     4.4050     0.2710 N.2   1 <1>  -0.4180 
 12 N        2.3050     3.6630    -0.2640 N.pl3 1 <1>   0.5930 
 13 C       -4.2590     4.1160    -0.1810 C.ar  1 <1>   0.1660 
 14 C       -4.4400     1.8540     0.9840 C.3   1 <1>  -0.1600 
 15 C       -2.8970     3.7570     1.7460 C.3   1 <1>  -0.1600 
 16 C        3.5760     4.1770    -0.6530 C.ar  1 <1>  -0.0230 
 17 N       -5.1460     3.9510    -1.1380 N.ar  1 <1>  -0.6200 
 18 C       -3.8820     5.3440     0.2750 C.ar  1 <1>  -0.1440 
 19 C       -2.8390     5.2440     1.3590 C.3   1 <1>  -0.0170 
 20 C        4.1440     5.2540     0.0250 C.ar  1 <1>  -0.1500 
 21 C        4.2820     3.6180    -1.7170 C.ar  1 <1>  -0.1500 
 22 C       -5.6520     5.0790    -1.6150 C.ar  1 <1>   0.4770 
 23 C       -4.4700     6.4470    -0.2930 C.ar  1 <1>   0.1600 
 24 C        5.3800     5.7530    -0.3460 C.ar  1 <1>  -0.1500 
 25 C        5.5180     4.1160    -2.0870 C.ar  1 <1>  -0.1500 
 26 N       -5.3690     6.3230    -1.2480 N.ar  1 <1>  -0.6200 
 27 C       -6.6830     4.9320    -2.7080 C.3   1 <1>  -0.0970 
 28 C        6.0690     5.1840    -1.4020 C.ar  1 <1>  -0.1500 
 29 H       -2.9230     2.0840    -1.3040 H     1 <1>   0.0800 
 30 H       -1.7860     3.2510    -0.7330 H     1 <1>   0.0800 
 31 H       -1.9590    -0.5690     1.1260 H     1 <1>   0.0800 
 32 H       -2.9890    -0.2480    -0.2420 H     1 <1>   0.0800 
 33 H        2.4560     1.5920    -0.7260 H     1 <1>   0.1500 
 34 H       -3.1780     0.9940     2.5110 H     1 <1>   0.0800 
 35 H       -4.3010    -0.1270     1.8110 H     1 <1>   0.0800 
 36 H       -4.9830     1.4930     0.1270 H     1 <1>   0.0800 
 37 H       -5.1640     2.2140     1.6930 H     1 <1>   0.0800 
 38 H       -1.9320     3.3750     2.0280 H     1 <1>   0.0800 
 39 H       -3.5520     3.6630     2.5940 H     1 <1>   0.0800 
 40 H       -1.8710     5.4960     0.9580 H     1 <1>   0.0800 
 41 H       -3.0650     5.8810     2.1970 H     1 <1>   0.0800 
 42 H        3.6180     5.7070     0.8480 H     1 <1>   0.1500 
 43 H        3.8690     2.7900    -2.2670 H     1 <1>   0.1500 
 44 H       -4.2040     7.4370     0.0340 H     1 <1>   0.1500 
 45 H        5.8060     6.5860     0.1880 H     1 <1>   0.1500 
 46 H        6.0530     3.6750    -2.9110 H     1 <1>   0.1500 
 47 H       -6.5130     4.0260    -3.2580 H     1 <1>   0.0800 
 48 H       -6.6250     5.7660    -3.3830 H     1 <1>   0.0800 
 49 H       -7.6620     4.9010    -2.2680 H     1 <1>   0.0800 
 50 H        7.0310     5.5730    -1.6900 H     1 <1>   0.1500 
@<TRIPOS>BOND
  1   1   2  2   
  2   2   3  am  
  3   2   4  1   
  4   3   5  1   
  5   3   6  1   
  6   4   7  1   
  7   4   8  2   
  8   5   9  1   
  9   5  29  1   
 10   5  30  1   
 11   6  10  1   
 12   6  31  1   
 13   6  32  1   
 14   7  11  2   
 15   8  12  1   
 16   8  33  1   
 17   9  13  1   
 18   9  14  1   
 19   9  15  1   
 20  10  14  1   
 21  10  34  1   
 22  10  35  1   
 23  11  12  1   
 24  12  16  1   
 25  13  17  ar  
 26  13  18  ar  
 27  14  36  1   
 28  14  37  1   
 29  15  19  1   
 30  15  38  1   
 31  15  39  1   
 32  16  20  ar  
 33  16  21  ar  
 34  17  22  ar  
 35  18  19  1   
 36  18  23  ar  
 37  19  40  1   
 38  19  41  1   
 39  20  24  ar  
 40  20  42  1   
 41  21  25  ar  
 42  21  43  1   
 43  22  26  ar  
 44  22  27  1   
 45  23  26  ar  
 46  23  44  1   
 47  24  28  ar  
 48  24  45  1   
 49  25  28  ar  
 50  25  46  1   
 51  27  47  1   
 52  27  48  1   
 53  27  49  1   
 54  28  50  1   
@<TRIPOS>SUBSTRUCTURE
  1 ****   7 GROUP 4 **** **** 0

# MOE 2024.06 (io_trps.svl 2023.06)
