@<TRIPOS>MOLECULE
NONAME
48 50 1 0 0 
SMALL
USER_CHARGES


@<TRIPOS>ATOM
  1 O        0.6170     0.0990     0.1580 O.2   1 <1>  -0.5700 
  2 C        1.6610    -0.5280     0.2420 C.2   1 <1>   0.7160 
  3 N        2.8000     0.1740     0.6230 N.am  1 <1>  -0.6600 
  4 C        1.6280    -1.9580    -0.0570 C.2   1 <1>   0.2030 
  5 C        4.0340    -0.4990     1.1410 C.3   1 <1>   0.1400 
  6 C        2.7750     1.6670     0.7020 C.3   1 <1>   0.1400 
  7 N        2.6220    -2.7680    -0.2890 N.2   1 <1>  -0.4100 
  8 C        0.4550    -2.6930    -0.1620 C.2   1 <1>  -0.1500 
  9 C        5.0880    -0.6770     0.0380 C.3   1 <1>   0.1400 
 10 C        4.0730     2.3500     0.2440 C.3   1 <1>  -0.1600 
 11 O        2.1850    -3.9800    -0.5300 O.3   1 <1>  -0.0190 
 12 C        0.8750    -3.9260    -0.4530 C.2   1 <1>  -0.0400 
 13 N        5.7300     0.6220    -0.3350 N.am  1 <1>  -0.6600 
 14 C        4.8000     1.6370    -0.9020 C.3   1 <1>   0.1400 
 15 C        0.0800    -5.1920    -0.6940 C.3   1 <1>  -0.0600 
 16 C        7.0670     0.8360    -0.0970 C.2   1 <1>   0.5690 
 17 O        7.7600    -0.0100     0.4200 O.2   1 <1>  -0.5700 
 18 C        7.7120     2.1670    -0.4760 C.3   1 <1>  -0.0990 
 19 C        9.1730     2.3220    -0.0090 C.3   1 <1>  -0.1600 
 20 C        9.7640     3.6820    -0.4040 C.3   1 <1>   0.0210 
 21 C       11.2010     3.8420     0.0630 C.2   1 <1>  -0.1810 
 22 C       11.9920     4.9710    -0.1330 C.2   1 <1>   0.1390 
 23 C       12.0000     2.9840     0.7340 C.2   1 <1>  -0.3020 
 24 N       13.1820     4.8370     0.3700 N.2   1 <1>  -0.7070 
 25 N       13.1840     3.6030     0.9070 N.pl3 1 <1>   0.3000 
 26 H        3.7800    -1.4620     1.5440 H     1 <1>   0.0800 
 27 H        4.4570     0.0730     1.9490 H     1 <1>   0.0800 
 28 H        2.5510     1.9600     1.7140 H     1 <1>   0.0800 
 29 H        1.9770     2.0370     0.0800 H     1 <1>   0.0800 
 30 H       -0.5400    -2.3070    -0.0310 H     1 <1>   0.1500 
 31 H        4.6380    -1.1180    -0.8340 H     1 <1>   0.0800 
 32 H        5.8320    -1.3690     0.3930 H     1 <1>   0.0800 
 33 H        4.7370     2.4660     1.0810 H     1 <1>   0.0800 
 34 H        3.8120     3.3400    -0.0820 H     1 <1>   0.0800 
 35 H        5.3460     2.3550    -1.4860 H     1 <1>   0.0800 
 36 H        4.0930     1.1610    -1.5620 H     1 <1>   0.0800 
 37 H       -0.9720    -4.9960    -0.6000 H     1 <1>   0.0800 
 38 H        0.3620    -5.9410     0.0240 H     1 <1>   0.0800 
 39 H        0.2790    -5.5640    -1.6830 H     1 <1>   0.0800 
 40 H        7.1290     2.9590    -0.0440 H     1 <1>   0.0800 
 41 H        7.6770     2.2590    -1.5450 H     1 <1>   0.0800 
 42 H        9.7680     1.5370    -0.4430 H     1 <1>   0.0800 
 43 H        9.2140     2.2150     1.0620 H     1 <1>   0.0800 
 44 H        9.1730     4.4710     0.0270 H     1 <1>   0.0800 
 45 H        9.7370     3.7880    -1.4750 H     1 <1>   0.0800 
 46 H       11.6660     5.8620    -0.6420 H     1 <1>   0.1500 
 47 H       11.8010     1.9900     1.0920 H     1 <1>   0.1500 
 48 H       14.0070     3.2150     1.3830 H     1 <1>   0.2700 
@<TRIPOS>BOND
  1   1   2  2   
  2   2   3  am  
  3   2   4  1   
  4   3   5  1   
  5   3   6  1   
  6   4   7  2   
  7   4   8  1   
  8   5   9  1   
  9   5  26  1   
 10   5  27  1   
 11   6  10  1   
 12   6  28  1   
 13   6  29  1   
 14   7  11  1   
 15   8  12  2   
 16   8  30  1   
 17   9  13  1   
 18   9  31  1   
 19   9  32  1   
 20  10  14  1   
 21  10  33  1   
 22  10  34  1   
 23  11  12  1   
 24  12  15  1   
 25  13  14  1   
 26  13  16  am  
 27  14  35  1   
 28  14  36  1   
 29  15  37  1   
 30  15  38  1   
 31  15  39  1   
 32  16  17  2   
 33  16  18  1   
 34  18  19  1   
 35  18  40  1   
 36  18  41  1   
 37  19  20  1   
 38  19  42  1   
 39  19  43  1   
 40  20  21  1   
 41  20  44  1   
 42  20  45  1   
 43  21  22  1   
 44  21  23  2   
 45  22  24  2   
 46  22  46  1   
 47  23  25  1   
 48  23  47  1   
 49  24  25  1   
 50  25  48  1   
@<TRIPOS>SUBSTRUCTURE
  1 ****  13 GROUP 4 **** **** 0

# MOE 2024.06 (io_trps.svl 2023.06)
