@<TRIPOS>MOLECULE
NONAME
56 58 1 0 0 
SMALL
USER_CHARGES


@<TRIPOS>ATOM
  1 S       -0.1060     0.0460     1.8600 S.o2  1 <1>   1.4470 
  2 O       -0.2800     1.0370     2.9000 O.2   1 <1>  -0.6500 
  3 O        0.4090    -1.2530     2.2460 O.2   1 <1>  -0.6500 
  4 N       -1.6120    -0.2280     1.1300 N.am  1 <1>  -0.8490 
  5 C        0.8780     0.7000     0.4860 C.ar  1 <1>  -0.0090 
  6 C       -1.6060    -1.3090     0.1150 C.3   1 <1>   0.1960 
  7 C       -2.7270    -0.3160     2.0740 C.3   1 <1>   0.1960 
  8 C        0.6260     1.9560    -0.0570 C.ar  1 <1>   0.0820 
  9 C        1.8860    -0.0630    -0.0950 C.ar  1 <1>  -0.1500 
 10 C       -2.9230    -2.1010     0.0430 C.3   1 <1>   0.2000 
 11 C       -4.0260    -0.1720     1.2770 C.3   1 <1>  -0.1600 
 12 O       -0.3280     2.7470     0.4710 O.3   1 <1>  -0.3630 
 13 C        1.3600     2.4340    -1.1320 C.ar  1 <1>  -0.1500 
 14 C        2.6230     0.4000    -1.1730 C.ar  1 <1>  -0.1440 
 15 O       -2.9430    -2.8610    -1.1170 O.3   1 <1>  -0.6800 
 16 C       -4.2030    -1.2360     0.1380 C.3   1 <1>  -0.1060 
 17 C       -1.5490     2.8380    -0.2230 C.3   1 <1>   0.1200 
 18 C        2.3540     1.6550    -1.6910 C.ar  1 <1>  -0.1500 
 19 C        3.7140    -0.4620    -1.7810 C.3   1 <1>  -0.0970 
 20 C       -5.2990    -2.2720     0.4270 C.2   1 <1>   0.9060 
 21 C       -4.4940    -0.5130    -1.2150 C.3   1 <1>  -0.0160 
 22 C       -2.5520     3.5320     0.6930 C.3   1 <1>  -0.2400 
 23 O       -5.8710    -2.3080     1.5210 O.co2 1 <1>  -0.9000 
 24 O       -5.5330    -3.1240    -0.4460 O.co2 1 <1>  -0.9000 
 25 C       -5.5760     0.5670    -1.1740 C.ar  1 <1>  -0.1440 
 26 C       -6.8850     0.2550    -0.8380 C.ar  1 <1>  -0.1500 
 27 C       -5.2570     1.8820    -1.4840 C.ar  1 <1>  -0.1500 
 28 C       -7.8550     1.2420    -0.8000 C.ar  1 <1>  -0.1500 
 29 C       -6.2250     2.8700    -1.4480 C.ar  1 <1>  -0.1500 
 30 C       -7.5260     2.5510    -1.1040 C.ar  1 <1>  -0.1500 
 31 H       -1.4110    -0.8650    -0.8450 H     1 <1>   0.0800 
 32 H       -0.8230    -2.0170     0.3190 H     1 <1>   0.0800 
 33 H       -2.7010    -1.2500     2.6110 H     1 <1>   0.0800 
 34 H       -2.6730     0.4880     2.7890 H     1 <1>   0.0800 
 35 H        2.0940    -1.0420     0.3050 H     1 <1>   0.1500 
 36 H       -2.9240    -2.8030     0.8610 H     1 <1>   0.0800 
 37 H       -4.8540    -0.1960     1.9610 H     1 <1>   0.0800 
 38 H       -4.0190     0.8200     0.8690 H     1 <1>   0.0800 
 39 H        1.1540     3.4150    -1.5210 H     1 <1>   0.1500 
 40 H       -3.8670    -3.2450    -1.1620 H     1 <1>   0.4000 
 41 H       -1.3890     3.4030    -1.1240 H     1 <1>   0.0800 
 42 H       -1.8840     1.8450    -0.4680 H     1 <1>   0.0800 
 43 H        2.9190     2.0310    -2.5270 H     1 <1>   0.1500 
 44 H        4.4900     0.1520    -2.2010 H     1 <1>   0.0800 
 45 H        3.3010    -1.0790    -2.5590 H     1 <1>   0.0800 
 46 H        4.1540    -1.0960    -1.0320 H     1 <1>   0.0800 
 47 H       -3.5810    -0.0670    -1.5630 H     1 <1>   0.0800 
 48 H       -4.7830    -1.2330    -1.9610 H     1 <1>   0.0800 
 49 H       -2.2080     4.5200     0.9380 H     1 <1>   0.0800 
 50 H       -2.6730     2.9610     1.5970 H     1 <1>   0.0800 
 51 H       -3.5060     3.6070     0.2070 H     1 <1>   0.0800 
 52 H       -7.1580    -0.7600    -0.6020 H     1 <1>   0.1500 
 53 H       -4.2500     2.1390    -1.7560 H     1 <1>   0.1500 
 54 H       -8.8630     0.9820    -0.5310 H     1 <1>   0.1500 
 55 H       -5.9670     3.8860    -1.6880 H     1 <1>   0.1500 
 56 H       -8.2810     3.3160    -1.0720 H     1 <1>   0.1500 
@<TRIPOS>BOND
  1   1   2  2   
  2   1   3  2   
  3   1   4  am  
  4   1   5  1   
  5   4   6  1   
  6   4   7  1   
  7   5   8  ar  
  8   5   9  ar  
  9   6  10  1   
 10   6  31  1   
 11   6  32  1   
 12   7  11  1   
 13   7  33  1   
 14   7  34  1   
 15   8  12  1   
 16   8  13  ar  
 17   9  14  ar  
 18   9  35  1   
 19  10  15  1   
 20  10  16  1   
 21  10  36  1   
 22  11  16  1   
 23  11  37  1   
 24  11  38  1   
 25  12  17  1   
 26  13  18  ar  
 27  13  39  1   
 28  14  18  ar  
 29  14  19  1   
 30  15  40  1   
 31  16  20  1   
 32  16  21  1   
 33  17  22  1   
 34  17  41  1   
 35  17  42  1   
 36  18  43  1   
 37  19  44  1   
 38  19  45  1   
 39  19  46  1   
 40  20  23  ar  
 41  20  24  ar  
 42  21  25  1   
 43  21  47  1   
 44  21  48  1   
 45  22  49  1   
 46  22  50  1   
 47  22  51  1   
 48  25  26  ar  
 49  25  27  ar  
 50  26  28  ar  
 51  26  52  1   
 52  27  29  ar  
 53  27  53  1   
 54  28  30  ar  
 55  28  54  1   
 56  29  30  ar  
 57  29  55  1   
 58  30  56  1   
@<TRIPOS>SUBSTRUCTURE
  1 ****   4 GROUP 4 **** **** 0

# MOE 2024.06 (io_trps.svl 2023.06)
