@<TRIPOS>MOLECULE
NONAME
54 57 1 0 0 
SMALL
USER_CHARGES


@<TRIPOS>ATOM
  1 O        3.6020    -2.1530    -2.1880 O.2   1 <1>  -0.5700 
  2 C        3.2580    -1.8080    -1.0730 C.2   1 <1>   0.5440 
  3 N        3.5060    -0.5080    -0.6770 N.am  1 <1>  -0.6600 
  4 C        2.6210    -2.7750    -0.1980 C.ar  1 <1>   0.0860 
  5 C        3.6260    -0.0940     0.7560 C.3   1 <1>   0.1400 
  6 C        3.9310     0.5340    -1.6490 C.3   1 <1>   0.1400 
  7 C        1.4330    -2.4840     0.4750 C.ar  1 <1>  -0.1500 
  8 C        3.1770    -4.0390    -0.0050 C.ar  1 <1>  -0.1500 
  9 C        5.0670     0.3280     1.0710 C.3   1 <1>   0.2000 
 10 C        5.3980     0.8850    -1.3940 C.3   1 <1>  -0.1600 
 11 C        0.8370    -3.4070     1.3160 C.ar  1 <1>  -0.1500 
 12 C        2.5860    -4.9670     0.8340 C.ar  1 <1>  -0.1500 
 13 O        5.0800     0.8770     2.3470 O.3   1 <1>  -0.6800 
 14 C        5.6120     1.3520     0.0490 C.3   1 <1>   0.2200 
 15 C        1.4150    -4.6500     1.4980 C.ar  1 <1>  -0.1500 
 16 N        7.0640     1.5850     0.2360 N.am  1 <1>  -0.7300 
 17 C        7.6490     2.3200     1.2140 C.2   1 <1>   0.6300 
 18 O        6.9820     2.8240     2.0880 O.2   1 <1>  -0.5700 
 19 C        9.1780     2.4820     1.2060 C.3   1 <1>   0.0320 
 20 C        9.8560     1.6670     0.1100 C.ar  1 <1>  -0.0320 
 21 C        9.9170     2.6480     2.5060 C.3   1 <1>  -0.2000 
 22 C        9.7820     3.8090     1.5740 C.3   1 <1>  -0.2000 
 23 C       10.0760     2.2210    -1.1410 C.ar  1 <1>  -0.1500 
 24 C       10.2290     0.3540     0.3450 C.ar  1 <1>  -0.1500 
 25 C       10.6610     1.4690    -2.1450 C.ar  1 <1>  -0.1500 
 26 C       10.8140    -0.3980    -0.6590 C.ar  1 <1>  -0.1500 
 27 C       11.0300     0.1550    -1.9100 C.ar  1 <1>  -0.1430 
 28 C       11.6740    -0.6690    -3.0110 C.3   1 <1>  -0.0970 
 29 H        2.9620     0.7330     0.9340 H     1 <1>   0.0800 
 30 H        3.3570    -0.9000     1.4140 H     1 <1>   0.0800 
 31 H        3.8090     0.1830    -2.6600 H     1 <1>   0.0800 
 32 H        3.3120     1.4060    -1.5250 H     1 <1>   0.0800 
 33 H        0.9750    -1.5220     0.3300 H     1 <1>   0.1500 
 34 H        4.0840    -4.2900    -0.5280 H     1 <1>   0.1500 
 35 H        5.6960    -0.5450     1.0810 H     1 <1>   0.0800 
 36 H        5.6910     1.6650    -2.0740 H     1 <1>   0.0800 
 37 H        5.9930     0.0120    -1.5980 H     1 <1>   0.0800 
 38 H       -0.0770    -3.1590     1.8280 H     1 <1>   0.1500 
 39 H        3.0360    -5.9360     0.9680 H     1 <1>   0.1500 
 40 H        5.7980     1.5620     2.4020 H     1 <1>   0.4000 
 41 H        5.0850     2.2820     0.1890 H     1 <1>   0.0800 
 42 H        0.9530    -5.3710     2.1520 H     1 <1>   0.1500 
 43 H        7.6800     1.1280    -0.4430 H     1 <1>   0.3700 
 44 H        9.3560     2.6590     3.4240 H     1 <1>   0.1000 
 45 H       10.8850     2.1910     2.6180 H     1 <1>   0.1000 
 46 H       10.6580     4.1500     1.0510 H     1 <1>   0.1000 
 47 H        9.1260     4.6160     1.8530 H     1 <1>   0.1000 
 48 H        9.7910     3.2400    -1.3360 H     1 <1>   0.1500 
 49 H       10.0630    -0.0870     1.3130 H     1 <1>   0.1500 
 50 H       10.8290     1.9120    -3.1110 H     1 <1>   0.1500 
 51 H       11.1010    -1.4160    -0.4610 H     1 <1>   0.1500 
 52 H       11.3190    -0.3520    -3.9750 H     1 <1>   0.0800 
 53 H       11.4370    -1.7110    -2.8890 H     1 <1>   0.0800 
 54 H       12.7420    -0.5490    -2.9770 H     1 <1>   0.0800 
@<TRIPOS>BOND
  1   1   2  2   
  2   2   3  am  
  3   2   4  1   
  4   3   5  1   
  5   3   6  1   
  6   4   7  ar  
  7   4   8  ar  
  8   5   9  1   
  9   5  29  1   
 10   5  30  1   
 11   6  10  1   
 12   6  31  1   
 13   6  32  1   
 14   7  11  ar  
 15   7  33  1   
 16   8  12  ar  
 17   8  34  1   
 18   9  13  1   
 19   9  14  1   
 20   9  35  1   
 21  10  14  1   
 22  10  36  1   
 23  10  37  1   
 24  11  15  ar  
 25  11  38  1   
 26  12  15  ar  
 27  12  39  1   
 28  13  40  1   
 29  14  16  1   
 30  14  41  1   
 31  15  42  1   
 32  16  17  am  
 33  16  43  1   
 34  17  18  2   
 35  17  19  1   
 36  19  20  1   
 37  19  21  1   
 38  19  22  1   
 39  20  23  ar  
 40  20  24  ar  
 41  21  22  1   
 42  21  44  1   
 43  21  45  1   
 44  22  46  1   
 45  22  47  1   
 46  23  25  ar  
 47  23  48  1   
 48  24  26  ar  
 49  24  49  1   
 50  25  27  ar  
 51  25  50  1   
 52  26  27  ar  
 53  26  51  1   
 54  27  28  1   
 55  28  52  1   
 56  28  53  1   
 57  28  54  1   
@<TRIPOS>SUBSTRUCTURE
  1 ****  14 GROUP 4 **** **** 0

# MOE 2024.06 (io_trps.svl 2023.06)
