@<TRIPOS>MOLECULE
NONAME
51 53 1 0 0 
SMALL
USER_CHARGES


@<TRIPOS>ATOM
  1 O       -0.4200     0.2650    -2.4310 O.2   1 <1>  -0.5700 
  2 C       -1.1550     1.0210    -1.8380 C.2   1 <1>   0.5690 
  3 N       -2.1820     0.5470    -1.0630 N.am  1 <1>  -0.6600 
  4 C       -0.9300     2.5200    -2.0230 C.3   1 <1>   0.1810 
  5 C       -3.1390     1.3660    -0.2750 C.3   1 <1>   0.1400 
  6 C       -2.4020    -0.8980    -0.8200 C.3   1 <1>   0.1400 
  7 O       -0.7780     3.1900    -0.7790 O.3   1 <1>  -0.3620 
  8 C       -4.1250     0.3550     0.3080 C.3   1 <1>   0.2000 
  9 C       -3.3560    -0.9620     0.3740 C.3   1 <1>  -0.0800 
 10 C       -0.6530     4.5410    -0.7230 C.ar  1 <1>   0.0820 
 11 O       -4.5510     0.7270     1.5730 O.3   1 <1>  -0.6800 
 12 C       -4.2660    -2.1990     0.3710 C.3   1 <1>   0.0210 
 13 C       -0.6160     5.1090     0.5400 C.ar  1 <1>  -0.1500 
 14 C       -0.5650     5.3590    -1.8460 C.ar  1 <1>  -0.1500 
 15 C       -3.4490    -3.4750     0.3200 C.2   1 <1>   0.1080 
 16 C       -0.4990     6.4800     0.6940 C.ar  1 <1>  -0.1500 
 17 C       -0.4480     6.7300    -1.6910 C.ar  1 <1>  -0.1500 
 18 N       -2.5860    -3.7930     1.2340 N.2   1 <1>  -0.7070 
 19 C       -3.5140    -4.4240    -0.6940 C.2   1 <1>  -0.1500 
 20 C       -0.4150     7.2990    -0.4280 C.ar  1 <1>   0.0820 
 21 N       -2.0720    -4.9670     0.8230 N.pl3 1 <1>   0.3000 
 22 C       -2.6180    -5.3690    -0.3440 C.2   1 <1>  -0.3320 
 23 O       -0.2990     8.6520    -0.3730 O.3   1 <1>  -0.3620 
 24 C       -2.2420    -6.6520    -1.0640 C.3   1 <1>  -0.0600 
 25 C       -0.2400     9.3290     0.8600 C.3   1 <1>   0.1200 
 26 C       -0.1060    10.8210     0.5730 C.3   1 <1>  -0.2400 
 27 H       -1.7720     2.9430    -2.5370 H     1 <1>   0.0800 
 28 H       -0.0340     2.6760    -2.5970 H     1 <1>   0.0800 
 29 H       -2.6070     1.8730     0.5100 H     1 <1>   0.0800 
 30 H       -3.6430     2.0760    -0.9060 H     1 <1>   0.0800 
 31 H       -2.8480    -1.3360    -1.6970 H     1 <1>   0.0800 
 32 H       -1.4730    -1.4010    -0.6060 H     1 <1>   0.0800 
 33 H       -4.9870     0.2780    -0.3320 H     1 <1>   0.0800 
 34 H       -2.7450    -0.9790     1.2600 H     1 <1>   0.0800 
 35 H       -3.8110     0.6670     2.2080 H     1 <1>   0.4000 
 36 H       -4.9310    -2.1680    -0.4730 H     1 <1>   0.0800 
 37 H       -4.8620    -2.2070     1.2660 H     1 <1>   0.0800 
 38 H       -0.6800     4.4700     1.4020 H     1 <1>   0.1500 
 39 H       -0.5820     4.9580    -2.8410 H     1 <1>   0.1500 
 40 H       -0.4740     6.8860     1.6870 H     1 <1>   0.1500 
 41 H       -0.3800     7.3710    -2.5510 H     1 <1>   0.1500 
 42 H       -4.1500    -4.3860    -1.5610 H     1 <1>   0.1500 
 43 H       -1.3520    -5.4650     1.3590 H     1 <1>   0.2700 
 44 H       -2.8140    -6.7480    -1.9690 H     1 <1>   0.0800 
 45 H       -2.4450    -7.5030    -0.4380 H     1 <1>   0.0800 
 46 H       -1.1970    -6.6430    -1.3180 H     1 <1>   0.0800 
 47 H       -1.1460     9.1260     1.4050 H     1 <1>   0.0800 
 48 H        0.6150     8.9680     1.4070 H     1 <1>   0.0800 
 49 H       -0.9560    11.1670     0.0130 H     1 <1>   0.0800 
 50 H        0.7940    11.0100     0.0150 H     1 <1>   0.0800 
 51 H       -0.0580    11.3670     1.4980 H     1 <1>   0.0800 
@<TRIPOS>BOND
  1   1   2  2   
  2   2   3  am  
  3   2   4  1   
  4   3   5  1   
  5   3   6  1   
  6   4   7  1   
  7   4  27  1   
  8   4  28  1   
  9   5   8  1   
 10   5  29  1   
 11   5  30  1   
 12   6   9  1   
 13   6  31  1   
 14   6  32  1   
 15   7  10  1   
 16   8   9  1   
 17   8  11  1   
 18   8  33  1   
 19   9  12  1   
 20   9  34  1   
 21  10  13  ar  
 22  10  14  ar  
 23  11  35  1   
 24  12  15  1   
 25  12  36  1   
 26  12  37  1   
 27  13  16  ar  
 28  13  38  1   
 29  14  17  ar  
 30  14  39  1   
 31  15  18  2   
 32  15  19  1   
 33  16  20  ar  
 34  16  40  1   
 35  17  20  ar  
 36  17  41  1   
 37  18  21  1   
 38  19  22  2   
 39  19  42  1   
 40  20  23  1   
 41  21  22  1   
 42  21  43  1   
 43  22  24  1   
 44  23  25  1   
 45  24  44  1   
 46  24  45  1   
 47  24  46  1   
 48  25  26  1   
 49  25  47  1   
 50  25  48  1   
 51  26  49  1   
 52  26  50  1   
 53  26  51  1   
@<TRIPOS>SUBSTRUCTURE
  1 ****   3 GROUP 4 **** **** 0

# MOE 2024.06 (io_trps.svl 2023.06)
