@<TRIPOS>MOLECULE
NONAME
46 48 1 0 0 
SMALL
USER_CHARGES


@<TRIPOS>ATOM
  1 S        0.7980    -0.8080    -2.5190 S.3   1 <1>  -0.0800 
  2 C        0.5970    -2.5040    -2.1150 C.2   1 <1>  -0.1100 
  3 C        0.0230    -0.3190    -1.0230 C.2   1 <1>  -0.1100 
  4 C       -0.0210    -2.6450    -0.9270 C.2   1 <1>  -0.1810 
  5 C       -0.3450    -1.3950    -0.3040 C.2   1 <1>  -0.1500 
  6 C       -0.3650    -3.9680    -0.2650 C.3   1 <1>   0.0210 
  7 C       -1.8780    -4.2240    -0.3280 C.3   1 <1>  -0.0990 
  8 C       -2.3110    -5.5290     0.3280 C.2   1 <1>   0.5690 
  9 O       -1.4460    -6.2880     0.7020 O.2   1 <1>  -0.5700 
 10 N       -3.6440    -5.8260     0.4900 N.am  1 <1>  -0.6600 
 11 C       -4.7480    -4.9700    -0.0480 C.3   1 <1>   0.2200 
 12 C       -4.0280    -7.0660     1.2370 C.3   1 <1>   0.0600 
 13 C       -5.8770    -5.7380    -0.7320 C.3   1 <1>  -0.1600 
 14 C       -5.4450    -4.1680     1.0460 C.3   1 <1>  -0.1600 
 15 C       -7.0530    -4.7520    -0.7410 C.3   1 <1>  -0.0800 
 16 C       -6.7990    -3.7800     0.4360 C.3   1 <1>  -0.0800 
 17 C       -8.4240    -5.4550    -0.7270 C.3   1 <1>   0.1400 
 18 C       -7.9400    -3.7520     1.4680 C.3   1 <1>  -0.0990 
 19 N       -9.4840    -4.5080    -0.3010 N.am  1 <1>  -0.6600 
 20 C       -9.2820    -3.6790     0.7690 C.2   1 <1>   0.5690 
 21 C      -10.7700    -4.5550    -1.0470 C.3   1 <1>   0.0600 
 22 O      -10.1130    -2.9040     1.1760 O.2   1 <1>  -0.5700 
 23 H        0.9680    -3.2250    -2.8210 H     1 <1>   0.1500 
 24 H       -0.0740     0.7360    -0.8390 H     1 <1>   0.1500 
 25 H       -0.8340    -1.3620     0.6530 H     1 <1>   0.1500 
 26 H        0.1530    -4.7660    -0.7690 H     1 <1>   0.0800 
 27 H       -0.0330    -3.9560     0.7590 H     1 <1>   0.0800 
 28 H       -2.1750    -4.2460    -1.3600 H     1 <1>   0.0800 
 29 H       -2.3840    -3.4130     0.1590 H     1 <1>   0.0800 
 30 H       -4.3630    -4.2740    -0.7720 H     1 <1>   0.0800 
 31 H       -4.9060    -6.8970     1.8330 H     1 <1>   0.0800 
 32 H       -3.2340    -7.3730     1.8960 H     1 <1>   0.0800 
 33 H       -4.2180    -7.8620     0.5400 H     1 <1>   0.0800 
 34 H       -5.6010    -6.0360    -1.7280 H     1 <1>   0.0800 
 35 H       -6.1530    -6.6050    -0.1620 H     1 <1>   0.0800 
 36 H       -5.5930    -4.7820     1.9150 H     1 <1>   0.0800 
 37 H       -4.8740    -3.2990     1.3190 H     1 <1>   0.0800 
 38 H       -6.9950    -4.1770    -1.6510 H     1 <1>   0.0800 
 39 H       -6.7140    -2.7900     0.0190 H     1 <1>   0.0800 
 40 H       -8.4150    -6.2790    -0.0340 H     1 <1>   0.0800 
 41 H       -8.6430    -5.8420    -1.7080 H     1 <1>   0.0800 
 42 H       -7.8290    -2.9050     2.1210 H     1 <1>   0.0800 
 43 H       -7.9330    -4.6440     2.0670 H     1 <1>   0.0800 
 44 H      -10.6010    -4.3080    -2.0800 H     1 <1>   0.0800 
 45 H      -11.4720    -3.8500    -0.6350 H     1 <1>   0.0800 
 46 H      -11.1940    -5.5410    -0.9800 H     1 <1>   0.0800 
@<TRIPOS>BOND
  1   1   2  1   
  2   1   3  1   
  3   2   4  2   
  4   2  23  1   
  5   3   5  2   
  6   3  24  1   
  7   4   5  1   
  8   4   6  1   
  9   5  25  1   
 10   6   7  1   
 11   6  26  1   
 12   6  27  1   
 13   7   8  1   
 14   7  28  1   
 15   7  29  1   
 16   8   9  2   
 17   8  10  am  
 18  10  11  1   
 19  10  12  1   
 20  11  13  1   
 21  11  14  1   
 22  11  30  1   
 23  12  31  1   
 24  12  32  1   
 25  12  33  1   
 26  13  15  1   
 27  13  34  1   
 28  13  35  1   
 29  14  16  1   
 30  14  36  1   
 31  14  37  1   
 32  15  16  1   
 33  15  17  1   
 34  15  38  1   
 35  16  18  1   
 36  16  39  1   
 37  17  19  1   
 38  17  40  1   
 39  17  41  1   
 40  18  20  1   
 41  18  42  1   
 42  18  43  1   
 43  19  20  am  
 44  19  21  1   
 45  20  22  2   
 46  21  44  1   
 47  21  45  1   
 48  21  46  1   
@<TRIPOS>SUBSTRUCTURE
  1 ****  11 GROUP 4 **** **** 0

# MOE 2024.06 (io_trps.svl 2023.06)
