@<TRIPOS>MOLECULE
NONAME
54 56 1 0 0 
SMALL
USER_CHARGES


@<TRIPOS>ATOM
  1 O        0.2160     2.6470    -2.1660 O.2   1 <1>  -0.5700 
  2 C       -0.2410     3.6020    -1.5810 C.2   1 <1>   0.5690 
  3 N       -1.1620     3.4940    -0.5720 N.am  1 <1>  -0.5090 
  4 C        0.2660     4.9850    -1.9990 C.3   1 <1>   0.1810 
  5 C       -1.8440     4.7000    -0.0210 C.3   1 <1>   0.3640 
  6 C       -1.6800     2.1960    -0.0850 C.3   1 <1>   0.0490 
  7 O       -0.5820     6.0550    -1.6300 O.3   1 <1>  -0.5600 
  8 C       -3.2700     4.7820    -0.5730 C.ar  1 <1>  -0.1440 
  9 C       -1.0610     6.0080    -0.2910 C.3   1 <1>   0.2610 
 10 C       -1.5220     1.8720     1.3690 C.3   1 <1>  -0.2000 
 11 C       -0.7240     1.1300     0.3460 C.3   1 <1>  -0.2000 
 12 C       -3.5210     4.8350    -1.9380 C.ar  1 <1>  -0.1500 
 13 C       -4.3450     4.8060     0.3070 C.ar  1 <1>  -0.1500 
 14 C        0.0620     6.2430     0.7300 C.2   1 <1>   0.5690 
 15 C       -4.8180     4.9120    -2.4110 C.ar  1 <1>  -0.1500 
 16 C       -5.6440     4.8830    -0.1640 C.ar  1 <1>  -0.1500 
 17 O       -0.0270     5.7640     1.8360 O.2   1 <1>  -0.5700 
 18 N        1.1200     7.0130     0.3470 N.am  1 <1>  -0.7300 
 19 C       -5.8880     4.9370    -1.5330 C.ar  1 <1>   0.0830 
 20 C        2.3660     7.3250     1.0560 C.3   1 <1>   0.3000 
 21 O       -7.1270     5.0140    -2.0790 O.3   1 <1>  -0.3620 
 22 C        3.2270     8.1990     0.1200 C.3   1 <1>  -0.1600 
 23 C        2.0360     8.1210     2.3210 C.3   1 <1>  -0.2400 
 24 C        3.0860     6.0220     1.4160 C.3   1 <1>  -0.2400 
 25 C       -8.2840     5.0270    -1.2730 C.3   1 <1>   0.0400 
 26 C        3.5750     7.5840    -1.2500 C.3   1 <1>  -0.2400 
 27 H        0.3670     5.0100    -3.0690 H     1 <1>   0.0800 
 28 H        1.2350     5.1450    -1.5640 H     1 <1>   0.0800 
 29 H       -1.9270     4.5740     1.0430 H     1 <1>   0.0800 
 30 H       -2.5850     1.8970    -0.5890 H     1 <1>   0.1000 
 31 H       -1.7460     6.8280    -0.1820 H     1 <1>   0.0800 
 32 H       -0.9960     2.5550     2.0140 H     1 <1>   0.1000 
 33 H       -2.3110     1.3450     1.8740 H     1 <1>   0.1000 
 34 H       -0.9750     0.1050     0.1370 H     1 <1>   0.1000 
 35 H        0.3310     1.3230     0.2570 H     1 <1>   0.1000 
 36 H       -2.7090     4.8140    -2.6440 H     1 <1>   0.1500 
 37 H       -4.1780     4.7610     1.3700 H     1 <1>   0.1500 
 38 H       -5.0090     4.9520    -3.4680 H     1 <1>   0.1500 
 39 H       -6.4490     4.8990     0.5450 H     1 <1>   0.1500 
 40 H        1.0970     7.3870    -0.6030 H     1 <1>   0.3700 
 41 H        2.7210     9.1340    -0.0430 H     1 <1>   0.0800 
 42 H        4.1480     8.4320     0.6250 H     1 <1>   0.0800 
 43 H        2.9410     8.4130     2.8210 H     1 <1>   0.0800 
 44 H        1.4580     7.5270     3.0050 H     1 <1>   0.0800 
 45 H        1.4800     9.0080     2.0750 H     1 <1>   0.0800 
 46 H        4.0570     6.2370     1.8250 H     1 <1>   0.0800 
 47 H        3.2090     5.3970     0.5510 H     1 <1>   0.0800 
 48 H        2.5320     5.4750     2.1570 H     1 <1>   0.0800 
 49 H       -9.1400     5.0840    -1.9210 H     1 <1>   0.0800 
 50 H       -8.2540     5.8890    -0.6310 H     1 <1>   0.0800 
 51 H       -8.3200     4.1180    -0.7000 H     1 <1>   0.0800 
 52 H        2.6890     7.3620    -1.8170 H     1 <1>   0.0800 
 53 H        4.1490     6.6830    -1.1330 H     1 <1>   0.0800 
 54 H        4.1660     8.2810    -1.8170 H     1 <1>   0.0800 
@<TRIPOS>BOND
  1   1   2  2   
  2   2   3  am  
  3   2   4  1   
  4   3   5  1   
  5   3   6  1   
  6   4   7  1   
  7   4  27  1   
  8   4  28  1   
  9   5   8  1   
 10   5   9  1   
 11   5  29  1   
 12   6  10  1   
 13   6  11  1   
 14   6  30  1   
 15   7   9  1   
 16   8  12  ar  
 17   8  13  ar  
 18   9  14  1   
 19   9  31  1   
 20  10  11  1   
 21  10  32  1   
 22  10  33  1   
 23  11  34  1   
 24  11  35  1   
 25  12  15  ar  
 26  12  36  1   
 27  13  16  ar  
 28  13  37  1   
 29  14  17  2   
 30  14  18  am  
 31  15  19  ar  
 32  15  38  1   
 33  16  19  ar  
 34  16  39  1   
 35  18  20  1   
 36  18  40  1   
 37  19  21  1   
 38  20  22  1   
 39  20  23  1   
 40  20  24  1   
 41  21  25  1   
 42  22  26  1   
 43  22  41  1   
 44  22  42  1   
 45  23  43  1   
 46  23  44  1   
 47  23  45  1   
 48  24  46  1   
 49  24  47  1   
 50  24  48  1   
 51  25  49  1   
 52  25  50  1   
 53  25  51  1   
 54  26  52  1   
 55  26  53  1   
 56  26  54  1   
@<TRIPOS>SUBSTRUCTURE
  1 ****   5 GROUP 4 **** **** 0

# MOE 2024.06 (io_trps.svl 2023.06)
