@<TRIPOS>MOLECULE
NONAME
47 48 1 0 0 
SMALL
USER_CHARGES


@<TRIPOS>ATOM
  1 S        0.8240    -0.1370     0.7340 S.o2  1 <1>   1.3330 
  2 O        0.9230     0.1990     2.1360 O.2   1 <1>  -0.6500 
  3 O        1.0280    -1.5050     0.3120 O.2   1 <1>  -0.6500 
  4 N       -0.7070     0.3460     0.1810 N.am  1 <1>  -0.8490 
  5 C        1.9450     0.9280    -0.1720 C.3   1 <1>  -0.0550 
  6 C       -1.7600     0.0700     1.1620 C.3   1 <1>   0.1160 
  7 C       -1.0700    -0.2340    -1.1160 C.3   1 <1>   0.1160 
  8 C        3.4170     0.7630     0.2440 C.3   1 <1>  -0.0800 
  9 C        4.3480     1.6310    -0.5750 C.3   1 <1>   0.2200 
 10 C        3.9950    -0.6290     0.0030 C.3   1 <1>   0.1200 
 11 N        4.4270     2.9990    -0.0240 N.am  1 <1>  -0.7300 
 12 C        5.6730     0.8810    -0.5000 C.3   1 <1>   0.1200 
 13 O        5.3620    -0.4530    -0.2190 O.3   1 <1>  -0.5600 
 14 C        3.7290     4.0690    -0.4810 C.2   1 <1>   0.5690 
 15 O        2.8820     3.9550    -1.3350 O.2   1 <1>  -0.5700 
 16 C        4.0060     5.4360     0.1000 C.3   1 <1>   0.1570 
 17 N        5.4600     5.6470     0.1600 N.pl3 1 <1>   0.3140 
 18 N        6.1890     5.1610     1.1860 N.2   1 <1>  -0.7070 
 19 C        6.2480     6.2590    -0.7530 C.2   1 <1>  -0.3320 
 20 C        7.4110     5.4900     0.9120 C.2   1 <1>   0.1080 
 21 C        7.5130     6.1780    -0.2900 C.2   1 <1>  -0.1500 
 22 C        5.7590     6.8950    -2.0440 C.3   1 <1>  -0.0600 
 23 C        8.5680     5.1450     1.8210 C.3   1 <1>  -0.0590 
 24 H        1.8490     0.7340    -1.2220 H     1 <1>   0.0800 
 25 H        1.6560     1.9480    -0.0040 H     1 <1>   0.0800 
 26 H       -2.7140     0.4040     0.7910 H     1 <1>   0.0800 
 27 H       -1.5560     0.5960     2.0800 H     1 <1>   0.0800 
 28 H       -1.8100    -0.9850     1.3720 H     1 <1>   0.0800 
 29 H       -2.0100     0.1720    -1.4520 H     1 <1>   0.0800 
 30 H       -1.1590    -1.3060    -1.0390 H     1 <1>   0.0800 
 31 H       -0.3200    -0.0010    -1.8510 H     1 <1>   0.0800 
 32 H        3.5290     0.9910     1.2910 H     1 <1>   0.0800 
 33 H        4.0270     1.6660    -1.6030 H     1 <1>   0.0800 
 34 H        3.5780    -1.0830    -0.8800 H     1 <1>   0.0800 
 35 H        3.8560    -1.2830     0.8480 H     1 <1>   0.0800 
 36 H        5.1810     3.1830     0.6560 H     1 <1>   0.3700 
 37 H        6.2870     1.2460     0.3040 H     1 <1>   0.0800 
 38 H        6.2090     0.9230    -1.4310 H     1 <1>   0.0800 
 39 H        3.6060     5.4930     1.0930 H     1 <1>   0.0800 
 40 H        3.5570     6.1940    -0.5090 H     1 <1>   0.0800 
 41 H        8.4190     6.5500    -0.7330 H     1 <1>   0.1500 
 42 H        6.5930     7.2770    -2.6060 H     1 <1>   0.0800 
 43 H        5.0910     7.7100    -1.8300 H     1 <1>   0.0800 
 44 H        5.2460     6.1670    -2.6480 H     1 <1>   0.0800 
 45 H        9.4850     5.5450     1.4300 H     1 <1>   0.0800 
 46 H        8.6540     4.0770     1.9030 H     1 <1>   0.0800 
 47 H        8.3910     5.5570     2.7970 H     1 <1>   0.0800 
@<TRIPOS>BOND
  1   1   2  2   
  2   1   3  2   
  3   1   4  am  
  4   1   5  1   
  5   4   6  1   
  6   4   7  1   
  7   5   8  1   
  8   5  24  1   
  9   5  25  1   
 10   6  26  1   
 11   6  27  1   
 12   6  28  1   
 13   7  29  1   
 14   7  30  1   
 15   7  31  1   
 16   8   9  1   
 17   8  10  1   
 18   8  32  1   
 19   9  11  1   
 20   9  12  1   
 21   9  33  1   
 22  10  13  1   
 23  10  34  1   
 24  10  35  1   
 25  11  14  am  
 26  11  36  1   
 27  12  13  1   
 28  12  37  1   
 29  12  38  1   
 30  14  15  2   
 31  14  16  1   
 32  16  17  1   
 33  16  39  1   
 34  16  40  1   
 35  17  18  1   
 36  17  19  1   
 37  18  20  2   
 38  19  21  2   
 39  19  22  1   
 40  20  21  1   
 41  20  23  1   
 42  21  41  1   
 43  22  42  1   
 44  22  43  1   
 45  22  44  1   
 46  23  45  1   
 47  23  46  1   
 48  23  47  1   
@<TRIPOS>SUBSTRUCTURE
  1 ****  11 GROUP 4 **** **** 0

# MOE 2024.06 (io_trps.svl 2023.06)
