@<TRIPOS>MOLECULE
NONAME
45 46 1 0 0 
SMALL
USER_CHARGES


@<TRIPOS>ATOM
  1 S        0.8570     0.2260    -1.7000 S.o2  1 <1>   1.3330 
  2 O        1.2630    -1.0710    -2.1930 O.2   1 <1>  -0.6500 
  3 O        0.1000     1.1130    -2.5530 O.2   1 <1>  -0.6500 
  4 N       -0.0590    -0.0160    -0.2890 N.am  1 <1>  -0.8490 
  5 C        2.3230     1.0750    -1.1120 C.3   1 <1>  -0.0550 
  6 C       -0.8620     1.1520     0.0900 C.3   1 <1>   0.1160 
  7 C       -0.9220    -1.1980    -0.3870 C.3   1 <1>   0.1160 
  8 C        3.2400     0.2150    -0.2150 C.3   1 <1>  -0.0800 
  9 C        4.5820     0.8490     0.1210 C.3   1 <1>   0.2200 
 10 C        2.6730    -0.1280     1.1680 C.3   1 <1>   0.1200 
 11 N        4.4220     2.2820     0.4700 N.am  1 <1>  -0.7300 
 12 C        4.9430     0.0760     1.3810 C.3   1 <1>   0.1200 
 13 O        3.7400    -0.0600     2.0710 O.3   1 <1>  -0.5600 
 14 C        4.6360     3.3290    -0.3760 C.2   1 <1>   0.5440 
 15 O        4.8570     3.0840    -1.5460 O.2   1 <1>  -0.5700 
 16 C        4.5520     4.6920     0.1030 C.ar  1 <1>   0.0860 
 17 C        5.5250     5.6570    -0.1930 C.ar  1 <1>   0.0820 
 18 C        3.4720     5.0890     0.8950 C.ar  1 <1>  -0.1500 
 19 O        6.6190     5.3570    -0.9220 O.3   1 <1>  -0.3630 
 20 C        5.4180     6.9500     0.2950 C.ar  1 <1>  -0.1500 
 21 C        3.3630     6.3810     1.3750 C.ar  1 <1>  -0.1500 
 22 C        6.4950     5.3970    -2.3280 C.3   1 <1>   0.8800 
 23 C        4.3390     7.3150     1.0760 C.ar  1 <1>  -0.1500 
 24 F        7.6390     4.9730    -2.8470 F     1 <1>  -0.3400 
 25 F        6.3800     6.6660    -2.7020 F     1 <1>  -0.3400 
 26 H        2.8920     1.3810    -1.9690 H     1 <1>   0.0800 
 27 H        2.0320     1.9640    -0.5900 H     1 <1>   0.0800 
 28 H       -1.3460     0.9770     1.0360 H     1 <1>   0.0800 
 29 H       -1.6140     1.3510    -0.6570 H     1 <1>   0.0800 
 30 H       -0.2330     2.0200     0.1850 H     1 <1>   0.0800 
 31 H       -1.4820    -1.3290     0.5230 H     1 <1>   0.0800 
 32 H       -0.3250    -2.0800    -0.5440 H     1 <1>   0.0800 
 33 H       -1.6070    -1.0930    -1.2130 H     1 <1>   0.0800 
 34 H        3.4360    -0.7130    -0.7240 H     1 <1>   0.0800 
 35 H        5.3120     0.7250    -0.6620 H     1 <1>   0.0800 
 36 H        2.2520    -1.1190     1.1940 H     1 <1>   0.0800 
 37 H        1.9340     0.5870     1.4870 H     1 <1>   0.0800 
 38 H        4.2270     2.4450     1.4610 H     1 <1>   0.3700 
 39 H        5.6630     0.5870     1.9960 H     1 <1>   0.0800 
 40 H        5.3000    -0.9090     1.1370 H     1 <1>   0.0800 
 41 H        2.7030     4.3760     1.1330 H     1 <1>   0.1500 
 42 H        6.1850     7.6690     0.0620 H     1 <1>   0.1500 
 43 H        2.5200     6.6650     1.9830 H     1 <1>   0.1500 
 44 H        5.6740     4.8220    -2.7160 H     1 <1>   0.0800 
 45 H        4.2580     8.3220     1.4510 H     1 <1>   0.1500 
@<TRIPOS>BOND
  1   1   2  2   
  2   1   3  2   
  3   1   4  am  
  4   1   5  1   
  5   4   6  1   
  6   4   7  1   
  7   5   8  1   
  8   5  26  1   
  9   5  27  1   
 10   6  28  1   
 11   6  29  1   
 12   6  30  1   
 13   7  31  1   
 14   7  32  1   
 15   7  33  1   
 16   8   9  1   
 17   8  10  1   
 18   8  34  1   
 19   9  11  1   
 20   9  12  1   
 21   9  35  1   
 22  10  13  1   
 23  10  36  1   
 24  10  37  1   
 25  11  14  am  
 26  11  38  1   
 27  12  13  1   
 28  12  39  1   
 29  12  40  1   
 30  14  15  2   
 31  14  16  1   
 32  16  17  ar  
 33  16  18  ar  
 34  17  19  1   
 35  17  20  ar  
 36  18  21  ar  
 37  18  41  1   
 38  19  22  1   
 39  20  23  ar  
 40  20  42  1   
 41  21  23  ar  
 42  21  43  1   
 43  22  24  1   
 44  22  25  1   
 45  22  44  1   
 46  23  45  1   
@<TRIPOS>SUBSTRUCTURE
  1 ****  14 GROUP 4 **** **** 0

# MOE 2024.06 (io_trps.svl 2023.06)
