@<TRIPOS>MOLECULE
NONAME
49 51 1 0 0 
SMALL
USER_CHARGES


@<TRIPOS>ATOM
  1 N        0.2630     0.2030    -0.7580 N.ar  1 <1>  -0.6200 
  2 C        1.4080    -0.3440    -0.3900 C.ar  1 <1>   0.4100 
  3 C        0.2950     1.5080    -0.9410 C.ar  1 <1>   0.4700 
  4 N        1.4340    -1.7050    -0.1650 N.pl3 1 <1>  -0.8380 
  5 C        2.5370     0.4200    -0.2290 C.ar  1 <1>  -0.1500 
  6 N        1.3130     2.3350    -0.8120 N.ar  1 <1>  -0.6200 
  7 C        1.7320    -2.1860     1.2070 C.3   1 <1>   0.2090 
  8 C        0.5090    -2.5860    -0.9270 C.3   1 <1>   0.2090 
  9 C        2.4510     1.7710    -0.4520 C.ar  1 <1>   0.4100 
 10 C        2.3480    -3.5870     1.1340 C.3   1 <1>  -0.1600 
 11 C        1.1040    -3.9950    -1.0200 C.3   1 <1>  -0.1600 
 12 N        3.5560     2.5750    -0.3120 N.pl3 1 <1>  -0.8690 
 13 C        1.4450    -4.5630     0.3660 C.3   1 <1>  -0.1600 
 14 C        3.5730     3.9780    -0.7660 C.3   1 <1>   0.2090 
 15 C        4.8620     4.6320    -0.2840 C.3   1 <1>  -0.1600 
 16 C        4.8970     6.1130    -0.6800 C.3   1 <1>   0.0960 
 17 N        6.1700     6.7280    -0.2610 N.pl3 1 <1>   0.3140 
 18 N        7.2460     6.6960    -1.0670 N.2   1 <1>  -0.7070 
 19 C        6.4460     7.3570     0.9050 C.2   1 <1>  -0.3320 
 20 C        8.1780     7.3020    -0.4040 C.2   1 <1>   0.1080 
 21 C        7.7390     7.7400     0.8390 C.2   1 <1>  -0.1500 
 22 C        5.4630     7.5670     2.0440 C.3   1 <1>  -0.0600 
 23 C        9.5700     7.4910    -0.9560 C.3   1 <1>  -0.0590 
 24 H       -0.6380     1.9580    -1.2360 H     1 <1>   0.1500 
 25 H        3.4600    -0.0360     0.0590 H     1 <1>   0.1500 
 26 H        0.8160    -2.2170     1.7730 H     1 <1>   0.0800 
 27 H        2.4100    -1.5120     1.7000 H     1 <1>   0.0800 
 28 H        0.3600    -2.1880    -1.9170 H     1 <1>   0.0800 
 29 H       -0.4440    -2.6150    -0.4260 H     1 <1>   0.0800 
 30 H        2.5140    -3.9540     2.1310 H     1 <1>   0.0800 
 31 H        3.3040    -3.5160     0.6450 H     1 <1>   0.0800 
 32 H        1.9940    -3.9480    -1.6220 H     1 <1>   0.0800 
 33 H        0.4040    -4.6420    -1.5170 H     1 <1>   0.0800 
 34 H        4.4630     2.1070    -0.3490 H     1 <1>   0.4000 
 35 H        0.5360    -4.7190     0.9200 H     1 <1>   0.0800 
 36 H        1.9400    -5.5130     0.2590 H     1 <1>   0.0800 
 37 H        2.7200     4.4950    -0.3590 H     1 <1>   0.0800 
 38 H        3.5130     4.0050    -1.8420 H     1 <1>   0.0800 
 39 H        5.7040     4.1320    -0.7290 H     1 <1>   0.0800 
 40 H        4.9230     4.5490     0.7870 H     1 <1>   0.0800 
 41 H        4.0850     6.6480    -0.2240 H     1 <1>   0.0800 
 42 H        4.8190     6.2120    -1.7470 H     1 <1>   0.0800 
 43 H        8.3260     8.2660     1.5690 H     1 <1>   0.1500 
 44 H        5.0950     6.6210     2.3990 H     1 <1>   0.0800 
 45 H        4.6340     8.1670     1.7140 H     1 <1>   0.0800 
 46 H        5.9460     8.0740     2.8600 H     1 <1>   0.0800 
 47 H        9.5180     8.0430    -1.8760 H     1 <1>   0.0800 
 48 H       10.0110     6.5300    -1.1500 H     1 <1>   0.0800 
 49 H       10.1830     8.0260    -0.2550 H     1 <1>   0.0800 
@<TRIPOS>BOND
  1   1   2  ar  
  2   1   3  ar  
  3   2   4  1   
  4   2   5  ar  
  5   3   6  ar  
  6   3  24  1   
  7   4   7  1   
  8   4   8  1   
  9   5   9  ar  
 10   5  25  1   
 11   6   9  ar  
 12   7  10  1   
 13   7  26  1   
 14   7  27  1   
 15   8  11  1   
 16   8  28  1   
 17   8  29  1   
 18   9  12  1   
 19  10  13  1   
 20  10  30  1   
 21  10  31  1   
 22  11  13  1   
 23  11  32  1   
 24  11  33  1   
 25  12  14  1   
 26  12  34  1   
 27  13  35  1   
 28  13  36  1   
 29  14  15  1   
 30  14  37  1   
 31  14  38  1   
 32  15  16  1   
 33  15  39  1   
 34  15  40  1   
 35  16  17  1   
 36  16  41  1   
 37  16  42  1   
 38  17  18  1   
 39  17  19  1   
 40  18  20  2   
 41  19  21  2   
 42  19  22  1   
 43  20  21  1   
 44  20  23  1   
 45  21  43  1   
 46  22  44  1   
 47  22  45  1   
 48  22  46  1   
 49  23  47  1   
 50  23  48  1   
 51  23  49  1   
@<TRIPOS>SUBSTRUCTURE
  1 ****  12 GROUP 4 **** **** 0

# MOE 2024.06 (io_trps.svl 2023.06)
