@<TRIPOS>MOLECULE
NONAME
50 51 1 0 0 
SMALL
USER_CHARGES


@<TRIPOS>ATOM
  1 S        1.5310    -0.1710     0.2400 S.3   1 <1>  -0.4600 
  2 C        0.9520    -1.7230     0.9880 C.3   1 <1>   0.2140 
  3 C        0.1240     0.9810     0.5050 C.3   1 <1>   0.1310 
  4 C       -0.4770    -1.9780     0.5400 C.ar  1 <1>  -0.1440 
  5 C        0.4790     2.4100     0.1140 C.2   1 <1>   0.5690 
  6 C       -1.5200    -1.9150     1.4520 C.ar  1 <1>  -0.1500 
  7 C       -0.7500    -2.2630    -0.7880 C.ar  1 <1>  -0.1500 
  8 O       -0.2270     3.3120     0.4970 O.2   1 <1>  -0.5700 
  9 N        1.5830     2.6360    -0.6450 N.am  1 <1>  -0.7300 
 10 C       -2.8250    -2.1290     1.0430 C.ar  1 <1>  -0.1430 
 11 C       -2.0510    -2.4800    -1.2080 C.ar  1 <1>  -0.1430 
 12 C        2.0780     3.9640    -1.0840 C.3   1 <1>   0.1400 
 13 C       -3.0840    -2.4080    -0.2890 C.ar  1 <1>  -0.1500 
 14 C       -3.9650    -2.0530     2.0420 C.3   1 <1>  -0.0970 
 15 C       -2.3450    -2.7860    -2.6660 C.3   1 <1>  -0.0970 
 16 C        3.3540     4.4100    -0.3220 C.3   1 <1>   0.0000 
 17 C        3.7690     5.8110    -0.8360 C.3   1 <1>  -0.1600 
 18 C        3.0810     4.5300     1.1980 C.3   1 <1>  -0.1600 
 19 C        4.4690     3.3720    -0.6050 C.3   1 <1>   0.1200 
 20 C        2.7930     6.9080    -0.3840 C.3   1 <1>   0.1200 
 21 C        2.1360     5.6940     1.5200 C.3   1 <1>   0.1200 
 22 O        5.6580     3.7020     0.0290 O.3   1 <1>  -0.6800 
 23 O        2.6730     6.8740     1.0020 O.3   1 <1>  -0.5600 
 24 H        1.0240    -1.6100     2.0550 H     1 <1>   0.0800 
 25 H        1.6120    -2.5050     0.6570 H     1 <1>   0.0800 
 26 H       -0.1360     0.9380     1.5450 H     1 <1>   0.0800 
 27 H       -0.6990     0.6330    -0.0920 H     1 <1>   0.0800 
 28 H       -1.3180    -1.6960     2.4860 H     1 <1>   0.1500 
 29 H        0.0560    -2.3090    -1.4990 H     1 <1>   0.1500 
 30 H        2.1590     1.8190    -0.8750 H     1 <1>   0.3700 
 31 H        1.2900     4.6840    -0.9470 H     1 <1>   0.0800 
 32 H        2.2840     3.9180    -2.1390 H     1 <1>   0.0800 
 33 H       -4.0970    -2.5710    -0.6120 H     1 <1>   0.1500 
 34 H       -3.6220    -2.3110     3.0270 H     1 <1>   0.0800 
 35 H       -4.7490    -2.7350     1.7670 H     1 <1>   0.0800 
 36 H       -4.3640    -1.0550     2.0620 H     1 <1>   0.0800 
 37 H       -1.5080    -3.2850    -3.1210 H     1 <1>   0.0800 
 38 H       -2.5360    -1.8710    -3.1970 H     1 <1>   0.0800 
 39 H       -3.2060    -3.4240    -2.7490 H     1 <1>   0.0800 
 40 H        3.8350     5.8120    -1.9090 H     1 <1>   0.0800 
 41 H        4.7370     6.0810    -0.4540 H     1 <1>   0.0800 
 42 H        3.9990     4.7040     1.7300 H     1 <1>   0.0800 
 43 H        2.6650     3.6170     1.5840 H     1 <1>   0.0800 
 44 H        4.6670     3.3110    -1.6610 H     1 <1>   0.0800 
 45 H        4.1830     2.3970    -0.2500 H     1 <1>   0.0800 
 46 H        1.8150     6.7890    -0.8170 H     1 <1>   0.0800 
 47 H        3.1720     7.8790    -0.6530 H     1 <1>   0.0800 
 48 H        2.0450     5.8170     2.5850 H     1 <1>   0.0800 
 49 H        1.1540     5.5430     1.1060 H     1 <1>   0.0800 
 50 H        5.8520     4.6520    -0.0800 H     1 <1>   0.4000 
@<TRIPOS>BOND
  1   1   2  1   
  2   1   3  1   
  3   2   4  1   
  4   2  24  1   
  5   2  25  1   
  6   3   5  1   
  7   3  26  1   
  8   3  27  1   
  9   4   6  ar  
 10   4   7  ar  
 11   5   8  2   
 12   5   9  am  
 13   6  10  ar  
 14   6  28  1   
 15   7  11  ar  
 16   7  29  1   
 17   9  12  1   
 18   9  30  1   
 19  10  13  ar  
 20  10  14  1   
 21  11  13  ar  
 22  11  15  1   
 23  12  16  1   
 24  12  31  1   
 25  12  32  1   
 26  13  33  1   
 27  14  34  1   
 28  14  35  1   
 29  14  36  1   
 30  15  37  1   
 31  15  38  1   
 32  15  39  1   
 33  16  17  1   
 34  16  18  1   
 35  16  19  1   
 36  17  20  1   
 37  17  40  1   
 38  17  41  1   
 39  18  21  1   
 40  18  42  1   
 41  18  43  1   
 42  19  22  1   
 43  19  44  1   
 44  19  45  1   
 45  20  23  1   
 46  20  46  1   
 47  20  47  1   
 48  21  23  1   
 49  21  48  1   
 50  21  49  1   
 51  22  50  1   
@<TRIPOS>SUBSTRUCTURE
  1 ****   3 GROUP 4 **** **** 0

# MOE 2024.06 (io_trps.svl 2023.06)
