@<TRIPOS>MOLECULE
NONAME
52 55 1 0 0 
SMALL
USER_CHARGES


@<TRIPOS>ATOM
  1 O       -4.1080    -0.4690    -2.3670 O.2   1 <1>  -0.5700 
  2 C       -3.8870    -0.6420    -1.1840 C.2   1 <1>   0.5440 
  3 N       -3.9800    -1.9370    -0.7530 N.am  1 <1>  -0.7300 
  4 C       -3.6320     0.4800    -0.2880 C.ar  1 <1>   0.3960 
  5 C       -3.4720    -2.5160     0.5040 C.3   1 <1>   0.2200 
  6 N       -2.3700     0.6130     0.1690 N.ar  1 <1>  -0.6200 
  7 C       -4.6570     1.3850     0.0880 C.ar  1 <1>   0.0830 
  8 C       -2.9160    -3.9080     0.2050 C.3   1 <1>  -0.1600 
  9 C       -4.5980    -2.6000     1.5480 C.3   1 <1>  -0.1600 
 10 C       -2.1040     1.6490     0.9360 C.ar  1 <1>   0.1600 
 11 O       -5.9830     1.3300    -0.2280 O.3   1 <1>  -0.3630 
 12 C       -4.3340     2.4630     0.8910 C.ar  1 <1>  -0.1500 
 13 C       -3.9980    -4.8670    -0.3280 C.3   1 <1>   0.2200 
 14 C       -5.2760    -3.9780     1.6450 C.3   1 <1>   0.1400 
 15 C       -3.0350     2.5960     1.3180 C.ar  1 <1>  -0.1500 
 16 C       -6.6360     0.2180    -0.8060 C.3   1 <1>   0.1200 
 17 N       -5.3350    -4.6370     0.3090 N.am  1 <1>  -0.6600 
 18 C       -3.5810    -6.3220    -0.1040 C.3   1 <1>  -0.2400 
 19 C       -8.1210     0.2530    -0.4570 C.3   1 <1>   0.0960 
 20 C       -6.4670    -5.0660    -0.3530 C.2   1 <1>   0.5690 
 21 N       -8.6950    -1.0870    -0.6770 N.pl3 1 <1>   0.3140 
 22 O       -6.4050    -5.4410    -1.5000 O.2   1 <1>  -0.5700 
 23 C       -7.8350    -5.1910     0.3160 C.3   1 <1>  -0.0990 
 24 N       -9.7410    -1.3190    -1.4730 N.2   1 <1>  -0.4180 
 25 C       -8.2490    -2.2440    -0.1850 C.2   1 <1>  -0.3020 
 26 C       -9.0020    -4.6900    -0.5590 C.3   1 <1>   0.0210 
 27 N       -9.9540    -2.5900    -1.5030 N.2   1 <1>  -0.2270 
 28 C       -9.0390    -3.1810    -0.7260 C.2   1 <1>   0.0460 
 29 H       -4.2980    -2.6150    -1.4500 H     1 <1>   0.3700 
 30 H       -2.6790    -1.8920     0.8820 H     1 <1>   0.0800 
 31 H       -2.4920    -4.3060     1.1090 H     1 <1>   0.0800 
 32 H       -2.1150    -3.8340    -0.5090 H     1 <1>   0.0800 
 33 H       -4.1760    -2.3860     2.5130 H     1 <1>   0.0800 
 34 H       -5.3310    -1.8380     1.3620 H     1 <1>   0.0800 
 35 H       -1.0880     1.7570     1.2810 H     1 <1>   0.1500 
 36 H       -5.0890     3.1760     1.1740 H     1 <1>   0.1500 
 37 H       -4.0930    -4.7010    -1.3890 H     1 <1>   0.0800 
 38 H       -6.2450    -3.8580     2.0870 H     1 <1>   0.0800 
 39 H       -4.7020    -4.6110     2.3010 H     1 <1>   0.0800 
 40 H       -2.7420     3.4210     1.9430 H     1 <1>   0.1500 
 41 H       -6.4890     0.2450    -1.8730 H     1 <1>   0.0800 
 42 H       -6.2080    -0.6680    -0.3860 H     1 <1>   0.0800 
 43 H       -3.5100    -6.5410     0.9450 H     1 <1>   0.0800 
 44 H       -2.6250    -6.5030    -0.5620 H     1 <1>   0.0800 
 45 H       -4.2970    -6.9830    -0.5570 H     1 <1>   0.0800 
 46 H       -8.6360     0.9620    -1.0770 H     1 <1>   0.0800 
 47 H       -8.2560     0.5070     0.5770 H     1 <1>   0.0800 
 48 H       -7.9880    -6.2370     0.5030 H     1 <1>   0.0800 
 49 H       -7.8830    -4.6940     1.2600 H     1 <1>   0.0800 
 50 H       -7.4200    -2.3340     0.4840 H     1 <1>   0.1500 
 51 H       -9.9300    -4.9950    -0.1110 H     1 <1>   0.0800 
 52 H       -8.9510    -5.1440    -1.5330 H     1 <1>   0.0800 
@<TRIPOS>BOND
  1   1   2  2   
  2   2   3  am  
  3   2   4  1   
  4   3   5  1   
  5   3  29  1   
  6   4   6  ar  
  7   4   7  ar  
  8   5   8  1   
  9   5   9  1   
 10   5  30  1   
 11   6  10  ar  
 12   7  11  1   
 13   7  12  ar  
 14   8  13  1   
 15   8  31  1   
 16   8  32  1   
 17   9  14  1   
 18   9  33  1   
 19   9  34  1   
 20  10  15  ar  
 21  10  35  1   
 22  11  16  1   
 23  12  15  ar  
 24  12  36  1   
 25  13  17  1   
 26  13  18  1   
 27  13  37  1   
 28  14  17  1   
 29  14  38  1   
 30  14  39  1   
 31  15  40  1   
 32  16  19  1   
 33  16  41  1   
 34  16  42  1   
 35  17  20  am  
 36  18  43  1   
 37  18  44  1   
 38  18  45  1   
 39  19  21  1   
 40  19  46  1   
 41  19  47  1   
 42  20  22  2   
 43  20  23  1   
 44  21  24  1   
 45  21  25  1   
 46  23  26  1   
 47  23  48  1   
 48  23  49  1   
 49  24  27  2   
 50  25  28  2   
 51  25  50  1   
 52  26  28  1   
 53  26  51  1   
 54  26  52  1   
 55  27  28  1   
@<TRIPOS>SUBSTRUCTURE
  1 ****   3 GROUP 4 **** **** 0

# MOE 2024.06 (io_trps.svl 2023.06)
