@<TRIPOS>MOLECULE
NONAME
49 51 1 0 0 
SMALL
USER_CHARGES


@<TRIPOS>ATOM
  1 CL       2.9030    -2.0970    -2.1390 Cl    1 <1>  -0.1770 
  2 C        2.4570    -2.6750    -0.5490 C.ar  1 <1>   0.1770 
  3 C        3.4030    -2.7730     0.4640 C.ar  1 <1>   0.0830 
  4 C        1.1450    -3.0530    -0.3490 C.ar  1 <1>  -0.1500 
  5 O        4.6800    -2.4000     0.1860 O.3   1 <1>  -0.3630 
  6 C        2.9960    -3.2570     1.7060 C.ar  1 <1>  -0.1500 
  7 C        0.7520    -3.5610     0.8800 C.ar  1 <1>  -0.1430 
  8 C        5.6920    -2.4180     1.1650 C.3   1 <1>   0.1200 
  9 C        1.6820    -3.6490     1.9080 C.ar  1 <1>  -0.1500 
 10 C       -0.6720    -4.0450     1.0530 C.3   1 <1>   0.4870 
 11 C        6.9820    -1.9300     0.5150 C.3   1 <1>  -0.2400 
 12 N       -0.7220    -5.3880     0.4400 N.4   1 <1>  -0.9590 
 13 C       -1.9890    -5.7880    -0.2220 C.3   1 <1>   0.3430 
 14 C       -0.2900    -6.5180     1.2900 C.3   1 <1>   0.3430 
 15 C       -1.9600    -7.3220    -0.2660 C.3   1 <1>   0.2000 
 16 C       -0.7060    -7.7620     0.5050 C.3   1 <1>  -0.0800 
 17 O       -3.0890    -7.8220     0.3710 O.3   1 <1>  -0.6800 
 18 C        0.4140    -8.2750    -0.4310 C.3   1 <1>   0.0210 
 19 C        1.2650    -7.2030    -1.1010 C.2   1 <1>   0.1080 
 20 N        0.7980    -6.2220    -1.8170 N.2   1 <1>  -0.7070 
 21 C        2.6530    -7.1740    -1.0180 C.2   1 <1>  -0.1500 
 22 N        1.9020    -5.5640    -2.2520 N.pl3 1 <1>   0.3000 
 23 C        3.0290    -6.1130    -1.7590 C.2   1 <1>  -0.3320 
 24 C        4.4250    -5.5870    -2.0440 C.3   1 <1>  -0.0600 
 25 H        0.4490    -2.9560    -1.1640 H     1 <1>   0.1500 
 26 H        3.6900    -3.3390     2.5220 H     1 <1>   0.1500 
 27 H        5.4010    -1.7650     1.9700 H     1 <1>   0.0800 
 28 H        5.8070    -3.4270     1.5230 H     1 <1>   0.0800 
 29 H        1.3970    -4.0260     2.8760 H     1 <1>   0.1500 
 30 H       -1.3400    -3.3740     0.5380 H     1 <1>   0.0800 
 31 H       -0.9460    -4.0850     2.0940 H     1 <1>   0.0800 
 32 H        6.8520    -0.9280     0.1450 H     1 <1>   0.0800 
 33 H        7.2560    -2.5790    -0.2980 H     1 <1>   0.0800 
 34 H        7.7780    -1.9280     1.2370 H     1 <1>   0.0800 
 35 H       -0.0220    -5.3880    -0.3370 H     1 <1>   0.4500 
 36 H       -2.8430    -5.4560     0.3450 H     1 <1>   0.0800 
 37 H       -2.0320    -5.3860    -1.2210 H     1 <1>   0.0800 
 38 H        0.7740    -6.4940     1.4650 H     1 <1>   0.0800 
 39 H       -0.8130    -6.4880     2.2320 H     1 <1>   0.0800 
 40 H       -1.9740    -7.6770    -1.2830 H     1 <1>   0.0800 
 41 H       -0.9430    -8.5630     1.1840 H     1 <1>   0.0800 
 42 H       -3.0550    -7.7370     1.3440 H     1 <1>   0.4000 
 43 H       -0.0070    -8.9050    -1.1950 H     1 <1>   0.0800 
 44 H        1.0740    -8.8970     0.1470 H     1 <1>   0.0800 
 45 H        3.2800    -7.8660    -0.4830 H     1 <1>   0.1500 
 46 H        1.8700    -4.7510    -2.8820 H     1 <1>   0.2700 
 47 H        5.1610    -6.2070    -1.5640 H     1 <1>   0.0800 
 48 H        4.5350    -4.5830    -1.6750 H     1 <1>   0.0800 
 49 H        4.6160    -5.5900    -3.1030 H     1 <1>   0.0800 
@<TRIPOS>BOND
  1   1   2  1   
  2   2   3  ar  
  3   2   4  ar  
  4   3   5  1   
  5   3   6  ar  
  6   4   7  ar  
  7   4  25  1   
  8   5   8  1   
  9   6   9  ar  
 10   6  26  1   
 11   7   9  ar  
 12   7  10  1   
 13   8  11  1   
 14   8  27  1   
 15   8  28  1   
 16   9  29  1   
 17  10  12  1   
 18  10  30  1   
 19  10  31  1   
 20  11  32  1   
 21  11  33  1   
 22  11  34  1   
 23  12  13  1   
 24  12  14  1   
 25  12  35  1   
 26  13  15  1   
 27  13  36  1   
 28  13  37  1   
 29  14  16  1   
 30  14  38  1   
 31  14  39  1   
 32  15  16  1   
 33  15  17  1   
 34  15  40  1   
 35  16  18  1   
 36  16  41  1   
 37  17  42  1   
 38  18  19  1   
 39  18  43  1   
 40  18  44  1   
 41  19  20  2   
 42  19  21  1   
 43  20  22  1   
 44  21  23  2   
 45  21  45  1   
 46  22  23  1   
 47  22  46  1   
 48  23  24  1   
 49  24  47  1   
 50  24  48  1   
 51  24  49  1   
@<TRIPOS>SUBSTRUCTURE
  1 ****   7 GROUP 4 **** **** 0

# MOE 2024.06 (io_trps.svl 2023.06)
