@<TRIPOS>MOLECULE
NONAME
52 54 1 0 0 
SMALL
USER_CHARGES


@<TRIPOS>ATOM
  1 O        0.2770     0.3340     0.8070 O.2   1 <1>  -0.5700 
  2 C        1.0060    -0.4460     0.2460 C.2   1 <1>   0.5690 
  3 N        1.9900    -0.0470    -0.5990 N.am  1 <1>  -0.7300 
  4 C        0.8090    -1.9230     0.4830 C.3   1 <1>  -0.0990 
  5 C        2.3020     1.3580    -0.9270 C.3   1 <1>   0.1400 
  6 C       -0.3160    -2.4650    -0.4020 C.3   1 <1>   0.0200 
  7 C        3.6400     1.7310    -0.2920 C.3   1 <1>  -0.1600 
  8 C       -0.4830    -3.9540    -0.1820 C.2   1 <1>   0.0060 
  9 C        3.9740     3.2080    -0.5240 C.3   1 <1>   0.0210 
 10 N        0.1590    -4.8480    -0.8470 N.2   1 <1>  -0.5650 
 11 N       -1.3250    -4.4640     0.7500 N.pl3 1 <1>   0.0330 
 12 C        5.3020     3.5600     0.1250 C.2   1 <1>  -0.1810 
 13 C       -0.2760    -6.0390    -0.3340 C.ar  1 <1>   0.2270 
 14 C       -1.2030    -5.8110     0.6650 C.ar  1 <1>  -0.1520 
 15 C        6.5210     3.6840    -0.4260 C.2   1 <1>  -0.0400 
 16 C        5.5340     3.8380     1.4740 C.2   1 <1>   0.1080 
 17 C        0.0840    -7.3500    -0.6780 C.ar  1 <1>  -0.1430 
 18 C       -1.8040    -6.8640     1.3520 C.ar  1 <1>  -0.1500 
 19 O        7.3620     3.9990     0.5220 O.3   1 <1>  -0.0190 
 20 C        7.0350     3.5260    -1.8410 C.3   1 <1>  -0.0600 
 21 N        6.7750     4.0960     1.6790 N.2   1 <1>  -0.4100 
 22 C        4.4930     3.8460     2.5730 C.3   1 <1>  -0.0590 
 23 C       -0.5170    -8.4030    -0.0060 C.ar  1 <1>  -0.1430 
 24 C        1.1170    -7.5470    -1.7830 C.3   1 <1>  -0.0970 
 25 C       -1.4540    -8.1480     1.0080 C.ar  1 <1>  -0.1500 
 26 C       -0.1980    -9.8550    -0.3320 C.3   1 <1>  -0.0970 
 27 H        2.5860    -0.7510    -1.0390 H     1 <1>   0.3700 
 28 H        0.5650    -2.0770     1.5180 H     1 <1>   0.0800 
 29 H        1.7210    -2.4520     0.2730 H     1 <1>   0.0800 
 30 H        1.5230     2.0010    -0.5470 H     1 <1>   0.0800 
 31 H        2.3450     1.4750    -1.9970 H     1 <1>   0.0800 
 32 H       -0.0730    -2.2940    -1.4370 H     1 <1>   0.0800 
 33 H       -1.2370    -1.9530    -0.1890 H     1 <1>   0.0800 
 34 H        4.4220     1.1220    -0.7100 H     1 <1>   0.0800 
 35 H        3.5890     1.5430     0.7660 H     1 <1>   0.0800 
 36 H        3.2000     3.8330    -0.1130 H     1 <1>   0.0800 
 37 H        4.0280     3.4060    -1.5790 H     1 <1>   0.0800 
 38 H       -1.9310    -3.9470     1.3900 H     1 <1>   0.2700 
 39 H       -2.5220    -6.6700     2.1290 H     1 <1>   0.1500 
 40 H        6.2390     3.2500    -2.5070 H     1 <1>   0.0800 
 41 H        7.7910     2.7620    -1.8670 H     1 <1>   0.0800 
 42 H        7.4660     4.4530    -2.1750 H     1 <1>   0.0800 
 43 H        3.6580     4.4580     2.2870 H     1 <1>   0.0800 
 44 H        4.9190     4.2440     3.4760 H     1 <1>   0.0800 
 45 H        4.1540     2.8460     2.7640 H     1 <1>   0.0800 
 46 H        1.8210    -6.7350    -1.7810 H     1 <1>   0.0800 
 47 H        0.6230    -7.5670    -2.7370 H     1 <1>   0.0800 
 48 H        1.6690    -8.4580    -1.6500 H     1 <1>   0.0800 
 49 H       -1.9080    -8.9740     1.5250 H     1 <1>   0.1500 
 50 H       -0.2190   -10.0100    -1.3960 H     1 <1>   0.0800 
 51 H       -0.9160   -10.5180     0.1140 H     1 <1>   0.0800 
 52 H        0.7780   -10.1050     0.0410 H     1 <1>   0.0800 
@<TRIPOS>BOND
  1   1   2  2   
  2   2   3  am  
  3   2   4  1   
  4   3   5  1   
  5   3  27  1   
  6   4   6  1   
  7   4  28  1   
  8   4  29  1   
  9   5   7  1   
 10   5  30  1   
 11   5  31  1   
 12   6   8  1   
 13   6  32  1   
 14   6  33  1   
 15   7   9  1   
 16   7  34  1   
 17   7  35  1   
 18   8  10  2   
 19   8  11  1   
 20   9  12  1   
 21   9  36  1   
 22   9  37  1   
 23  10  13  1   
 24  11  14  1   
 25  11  38  1   
 26  12  15  2   
 27  12  16  1   
 28  13  14  ar  
 29  13  17  ar  
 30  14  18  ar  
 31  15  19  1   
 32  15  20  1   
 33  16  21  2   
 34  16  22  1   
 35  17  23  ar  
 36  17  24  1   
 37  18  25  ar  
 38  18  39  1   
 39  19  21  1   
 40  20  40  1   
 41  20  41  1   
 42  20  42  1   
 43  22  43  1   
 44  22  44  1   
 45  22  45  1   
 46  23  25  ar  
 47  23  26  1   
 48  24  46  1   
 49  24  47  1   
 50  24  48  1   
 51  25  49  1   
 52  26  50  1   
 53  26  51  1   
 54  26  52  1   
@<TRIPOS>SUBSTRUCTURE
  1 ****   4 GROUP 4 **** **** 0

# MOE 2024.06 (io_trps.svl 2023.06)
