@<TRIPOS>MOLECULE
NONAME
46 49 1 0 0 
SMALL
USER_CHARGES


@<TRIPOS>ATOM
  1 O        1.1330    -0.5010    -0.8290 O.3   1 <1>  -0.5600 
  2 C        2.0290    -1.1860     0.0150 C.3   1 <1>   0.4240 
  3 C       -0.2300    -0.6440    -0.5750 C.3   1 <1>   0.1200 
  4 C        1.5090    -2.5970     0.3710 C.ar  1 <1>  -0.1440 
  5 C        3.3370    -1.2820    -0.7830 C.3   1 <1>  -0.1600 
  6 C        2.2470    -0.3380     1.2790 C.3   1 <1>  -0.1600 
  7 C       -0.6290    -2.0910    -0.8450 C.3   1 <1>  -0.0160 
  8 C        0.2500    -3.0260    -0.0400 C.ar  1 <1>  -0.1440 
  9 C        2.2920    -3.4680     1.1220 C.ar  1 <1>  -0.1500 
 10 C        3.9150     0.1010    -1.0820 C.3   1 <1>   0.2090 
 11 C        2.8470     1.0260     0.9450 C.3   1 <1>   0.2090 
 12 C       -0.2060    -4.2960     0.2810 C.ar  1 <1>  -0.1500 
 13 C        1.8370    -4.7330     1.4450 C.ar  1 <1>  -0.1500 
 14 N        4.1180     0.8260     0.1980 N.pl3 1 <1>  -0.8380 
 15 C        0.5890    -5.1590     1.0270 C.ar  1 <1>   0.0820 
 16 C        5.0620     1.8320     0.2100 C.ar  1 <1>   0.4100 
 17 O        0.2190    -6.4140     1.3830 O.3   1 <1>  -0.3630 
 18 N        4.6240     3.0780     0.3210 N.ar  1 <1>  -0.6200 
 19 C        6.4100     1.5050     0.0990 C.ar  1 <1>  -0.1500 
 20 C       -1.0240    -6.9520     0.9900 C.3   1 <1>   0.0400 
 21 C        5.5420     4.0430     0.3170 C.ar  1 <1>   0.3830 
 22 C        7.3630     2.4930     0.0940 C.ar  1 <1>  -0.1500 
 23 C        5.1020     5.4100     0.4340 C.1   1 <1>   0.4840 
 24 C        6.9050     3.7890     0.2050 C.ar  1 <1>  -0.1500 
 25 N        4.8040     6.5090     0.5250 N.1   1 <1>  -0.5570 
 26 H       -0.7590     0.0230    -1.2320 H     1 <1>   0.0800 
 27 H       -0.4320    -0.3690     0.4450 H     1 <1>   0.0800 
 28 H        3.1510    -1.8070    -1.7010 H     1 <1>   0.0800 
 29 H        4.0710    -1.8370    -0.2320 H     1 <1>   0.0800 
 30 H        2.9250    -0.8440     1.9400 H     1 <1>   0.0800 
 31 H        1.3220    -0.2140     1.8090 H     1 <1>   0.0800 
 32 H       -0.5180    -2.3020    -1.8940 H     1 <1>   0.0800 
 33 H       -1.6620    -2.2270    -0.5790 H     1 <1>   0.0800 
 34 H        3.2660    -3.1690     1.4650 H     1 <1>   0.1500 
 35 H        3.2370     0.6620    -1.7050 H     1 <1>   0.0800 
 36 H        4.8490     0.0010    -1.6060 H     1 <1>   0.0800 
 37 H        3.0420     1.5710     1.8540 H     1 <1>   0.0800 
 38 H        2.1640     1.6020     0.3440 H     1 <1>   0.0800 
 39 H       -1.1780    -4.5980    -0.0560 H     1 <1>   0.1500 
 40 H        2.4480    -5.4000     2.0250 H     1 <1>   0.1500 
 41 H        6.6850     0.4700     0.0250 H     1 <1>   0.1500 
 42 H       -1.0920    -7.9530     1.3760 H     1 <1>   0.0800 
 43 H       -1.0710    -6.9700    -0.0850 H     1 <1>   0.0800 
 44 H       -1.8120    -6.3470     1.4010 H     1 <1>   0.0800 
 45 H        8.4130     2.2670     0.0090 H     1 <1>   0.1500 
 46 H        7.6050     4.6050     0.2060 H     1 <1>   0.1500 
@<TRIPOS>BOND
  1   1   2  1   
  2   1   3  1   
  3   2   4  1   
  4   2   5  1   
  5   2   6  1   
  6   3   7  1   
  7   3  26  1   
  8   3  27  1   
  9   4   8  ar  
 10   4   9  ar  
 11   5  10  1   
 12   5  28  1   
 13   5  29  1   
 14   6  11  1   
 15   6  30  1   
 16   6  31  1   
 17   7   8  1   
 18   7  32  1   
 19   7  33  1   
 20   8  12  ar  
 21   9  13  ar  
 22   9  34  1   
 23  10  14  1   
 24  10  35  1   
 25  10  36  1   
 26  11  14  1   
 27  11  37  1   
 28  11  38  1   
 29  12  15  ar  
 30  12  39  1   
 31  13  15  ar  
 32  13  40  1   
 33  14  16  1   
 34  15  17  1   
 35  16  18  ar  
 36  16  19  ar  
 37  17  20  1   
 38  18  21  ar  
 39  19  22  ar  
 40  19  41  1   
 41  20  42  1   
 42  20  43  1   
 43  20  44  1   
 44  21  23  1   
 45  21  24  ar  
 46  22  24  ar  
 47  22  45  1   
 48  23  25  3   
 49  24  46  1   
@<TRIPOS>SUBSTRUCTURE
  1 ****   2 GROUP 4 **** **** 0

# MOE 2024.06 (io_trps.svl 2023.06)
