@<TRIPOS>MOLECULE
NONAME
55 57 1 0 0 
SMALL
USER_CHARGES


@<TRIPOS>ATOM
  1 O        1.0780    -0.3470     1.3580 O.3   1 <1>  -0.6800 
  2 C        1.5110     0.4450     0.3120 C.3   1 <1>   0.2000 
  3 C        2.8370    -0.1210    -0.2580 C.3   1 <1>   0.0000 
  4 C        1.5890     1.9040     0.7900 C.3   1 <1>  -0.1600 
  5 C        3.3070     0.8800    -1.3370 C.3   1 <1>   0.3430 
  6 C        2.4900    -1.4440    -0.9800 C.3   1 <1>   0.1200 
  7 C        3.9100    -0.4170     0.8560 C.3   1 <1>  -0.0170 
  8 C        2.9350     2.5650     0.5000 C.3   1 <1>   0.3430 
  9 N        3.3650     2.3310    -0.9150 N.4   1 <1>  -0.9590 
 10 O        3.5240    -1.8050    -1.8310 O.3   1 <1>  -0.6800 
 11 C        5.3040     0.1890     0.6780 C.ar  1 <1>  -0.1440 
 12 C        4.7520     2.8220    -1.1780 C.3   1 <1>   0.3430 
 13 C        5.7840     1.1190     1.5920 C.ar  1 <1>  -0.1500 
 14 C        6.1240    -0.1990    -0.3730 C.ar  1 <1>  -0.1500 
 15 C        4.9030     4.3160    -0.9010 C.3   1 <1>  -0.1600 
 16 C        7.0360     1.6870     1.4310 C.ar  1 <1>  -0.1500 
 17 C        7.3760     0.3690    -0.5370 C.ar  1 <1>  -0.1500 
 18 C        6.3230     4.7770    -1.2530 C.3   1 <1>   0.0960 
 19 C        7.8300     1.3180     0.3600 C.ar  1 <1>  -0.1500 
 20 N        6.5070     6.1750    -0.8240 N.pl3 1 <1>   0.0480 
 21 C        7.0390     6.6490     0.3300 C.2   1 <1>   0.0060 
 22 C        6.1150     7.2710    -1.4970 C.2   1 <1>  -0.3020 
 23 N        7.0040     7.9360     0.4250 N.2   1 <1>  -0.5650 
 24 C        7.6240     5.7710     1.4190 C.3   1 <1>  -0.0600 
 25 C        6.4260     8.3320    -0.7220 C.2   1 <1>   0.0770 
 26 H        0.1730    -0.1060     1.6450 H     1 <1>   0.4000 
 27 H        0.7520     0.3870    -0.4520 H     1 <1>   0.0800 
 28 H        0.8170     2.4750     0.3050 H     1 <1>   0.0800 
 29 H        1.4140     1.9650     1.8500 H     1 <1>   0.0800 
 30 H        2.6300     0.7990    -2.1710 H     1 <1>   0.0800 
 31 H        4.2690     0.5610    -1.7010 H     1 <1>   0.0800 
 32 H        1.6020    -1.3420    -1.5810 H     1 <1>   0.0800 
 33 H        2.3300    -2.2410    -0.2710 H     1 <1>   0.0800 
 34 H        3.5350    -0.0980     1.8120 H     1 <1>   0.0800 
 35 H        4.0420    -1.4800     0.9570 H     1 <1>   0.0800 
 36 H        3.6690     2.1570     1.1690 H     1 <1>   0.0800 
 37 H        2.8620     3.6220     0.6970 H     1 <1>   0.0800 
 38 H        2.7270     2.8570    -1.5260 H     1 <1>   0.4500 
 39 H        3.3920    -2.7160    -2.1710 H     1 <1>   0.4000 
 40 H        5.4530     2.2810    -0.5660 H     1 <1>   0.0800 
 41 H        5.0070     2.6300    -2.2080 H     1 <1>   0.0800 
 42 H        5.1940     1.4000     2.4470 H     1 <1>   0.1500 
 43 H        5.8000    -0.9560    -1.0670 H     1 <1>   0.1500 
 44 H        4.7390     4.5150     0.1430 H     1 <1>   0.0800 
 45 H        4.1960     4.8740    -1.4910 H     1 <1>   0.0800 
 46 H        7.4010     2.4010     2.1490 H     1 <1>   0.1500 
 47 H        8.0030     0.0590    -1.3570 H     1 <1>   0.1500 
 48 H        6.4920     4.7190    -2.3140 H     1 <1>   0.0800 
 49 H        7.0560     4.1650    -0.7570 H     1 <1>   0.0800 
 50 H        8.8100     1.7500     0.2380 H     1 <1>   0.1500 
 51 H        5.6490     7.2500    -2.4640 H     1 <1>   0.1500 
 52 H        7.9670     6.3870     2.2320 H     1 <1>   0.0800 
 53 H        8.4610     5.2170     1.0370 H     1 <1>   0.0800 
 54 H        6.8790     5.0940     1.7930 H     1 <1>   0.0800 
 55 H        6.2640     9.3770    -0.9320 H     1 <1>   0.1500 
@<TRIPOS>BOND
  1   1   2  1   
  2   1  26  1   
  3   2   3  1   
  4   2   4  1   
  5   2  27  1   
  6   3   5  1   
  7   3   6  1   
  8   3   7  1   
  9   4   8  1   
 10   4  28  1   
 11   4  29  1   
 12   5   9  1   
 13   5  30  1   
 14   5  31  1   
 15   6  10  1   
 16   6  32  1   
 17   6  33  1   
 18   7  11  1   
 19   7  34  1   
 20   7  35  1   
 21   8   9  1   
 22   8  36  1   
 23   8  37  1   
 24   9  12  1   
 25   9  38  1   
 26  10  39  1   
 27  11  13  ar  
 28  11  14  ar  
 29  12  15  1   
 30  12  40  1   
 31  12  41  1   
 32  13  16  ar  
 33  13  42  1   
 34  14  17  ar  
 35  14  43  1   
 36  15  18  1   
 37  15  44  1   
 38  15  45  1   
 39  16  19  ar  
 40  16  46  1   
 41  17  19  ar  
 42  17  47  1   
 43  18  20  1   
 44  18  48  1   
 45  18  49  1   
 46  19  50  1   
 47  20  21  1   
 48  20  22  1   
 49  21  23  2   
 50  21  24  1   
 51  22  25  2   
 52  22  51  1   
 53  23  25  1   
 54  24  52  1   
 55  24  53  1   
 56  24  54  1   
 57  25  55  1   
@<TRIPOS>SUBSTRUCTURE
  1 ****  12 GROUP 4 **** **** 0

# MOE 2024.06 (io_trps.svl 2023.06)
