@<TRIPOS>MOLECULE
NONAME
59 62 1 0 0 
SMALL
USER_CHARGES


@<TRIPOS>ATOM
  1 O       -1.8270    -0.5540     0.6180 O.3   1 <1>  -0.3630 
  2 C       -2.3290     0.6280     0.1640 C.ar  1 <1>   0.0830 
  3 C       -0.7140    -0.5670     1.4940 C.3   1 <1>   0.0400 
  4 C       -3.2020     0.5870    -0.9250 C.ar  1 <1>  -0.1440 
  5 C       -2.0140     1.8530     0.7510 C.ar  1 <1>  -0.1500 
  6 C       -3.7510     1.7590    -1.4280 C.ar  1 <1>  -0.1500 
  7 C       -3.5610    -0.7380    -1.5590 C.3   1 <1>   0.4870 
  8 C       -2.5720     3.0070     0.2400 C.ar  1 <1>  -0.1440 
  9 C       -3.4260     2.9620    -0.8320 C.ar  1 <1>  -0.1440 
 10 N       -4.1950    -1.5800    -0.5060 N.4   1 <1>  -0.9590 
 11 C       -2.3660     4.4240     0.7180 C.3   1 <1>  -0.0170 
 12 C       -3.9020     4.3430    -1.2120 C.3   1 <1>  -0.0170 
 13 C       -4.2410    -3.0390    -0.8650 C.3   1 <1>   0.3430 
 14 C       -5.5070    -1.0010    -0.0850 C.3   1 <1>   0.3430 
 15 C       -3.4600     5.2130    -0.0230 C.3   1 <1>  -0.1600 
 16 C       -4.9500    -3.9310     0.2090 C.3   1 <1>   0.4230 
 17 C       -6.0740    -1.8520     1.0490 C.3   1 <1>  -0.1600 
 18 N       -5.0220    -5.4240    -0.1290 N.4   1 <1>  -0.9590 
 19 C       -6.3220    -3.3260     0.6210 C.3   1 <1>   0.0000 
 20 C       -6.0700    -6.1820     0.6420 C.3   1 <1>   0.3430 
 21 C       -5.1490    -5.7810    -1.5850 C.3   1 <1>   0.2630 
 22 C       -6.8930    -4.0930     1.8450 C.3   1 <1>  -0.1600 
 23 C       -7.3160    -3.4100    -0.5770 C.3   1 <1>   0.1200 
 24 C       -6.3410    -5.5240     1.9920 C.3   1 <1>  -0.1600 
 25 O       -8.3020    -2.4470    -0.4840 O.3   1 <1>  -0.6800 
 26 H       -0.3910    -1.5850     1.6230 H     1 <1>   0.0800 
 27 H       -1.0070    -0.1560     2.4450 H     1 <1>   0.0800 
 28 H        0.0820     0.0130     1.0600 H     1 <1>   0.0800 
 29 H       -1.3520     1.9320     1.5930 H     1 <1>   0.1500 
 30 H       -4.4210     1.7570    -2.2710 H     1 <1>   0.1500 
 31 H       -2.6580    -1.2030    -1.9190 H     1 <1>   0.0800 
 32 H       -4.2340    -0.5890    -2.3880 H     1 <1>   0.0800 
 33 H       -3.5400    -1.4260     0.2860 H     1 <1>   0.4500 
 34 H       -2.4750     4.5050     1.7850 H     1 <1>   0.0800 
 35 H       -1.3890     4.7640     0.4230 H     1 <1>   0.0800 
 36 H       -3.4070     4.6580    -2.1150 H     1 <1>   0.0800 
 37 H       -4.9680     4.3770    -1.3490 H     1 <1>   0.0800 
 38 H       -4.7680    -3.1400    -1.7980 H     1 <1>   0.0800 
 39 H       -3.2340    -3.3950    -1.0050 H     1 <1>   0.0800 
 40 H       -5.3730     0.0140     0.2590 H     1 <1>   0.0800 
 41 H       -6.2000    -0.9870    -0.9120 H     1 <1>   0.0800 
 42 H       -4.2980     5.3460     0.6390 H     1 <1>   0.0800 
 43 H       -3.1090     6.1780    -0.3420 H     1 <1>   0.0800 
 44 H       -4.3360    -3.8570     1.0920 H     1 <1>   0.0800 
 45 H       -5.3960    -1.8060     1.8850 H     1 <1>   0.0800 
 46 H       -6.9920    -1.4000     1.3830 H     1 <1>   0.0800 
 47 H       -4.1280    -5.8310     0.1920 H     1 <1>   0.4500 
 48 H       -6.9920    -6.2060     0.0830 H     1 <1>   0.0800 
 49 H       -5.7510    -7.2020     0.7910 H     1 <1>   0.0800 
 50 H       -6.0700    -5.3960    -1.9920 H     1 <1>   0.0800 
 51 H       -5.1510    -6.8530    -1.7050 H     1 <1>   0.0800 
 52 H       -4.3230    -5.3850    -2.1520 H     1 <1>   0.0800 
 53 H       -6.6750    -3.5710     2.7630 H     1 <1>   0.0800 
 54 H       -7.9680    -4.1330     1.7780 H     1 <1>   0.0800 
 55 H       -7.7990    -4.3710    -0.6370 H     1 <1>   0.0800 
 56 H       -6.8200    -3.2280    -1.5130 H     1 <1>   0.0800 
 57 H       -7.0540    -6.1200     2.5380 H     1 <1>   0.0800 
 58 H       -5.4340    -5.5180     2.5720 H     1 <1>   0.0800 
 59 H       -9.0230    -2.7070     0.1290 H     1 <1>   0.4000 
@<TRIPOS>BOND
  1   1   2  1   
  2   1   3  1   
  3   2   4  ar  
  4   2   5  ar  
  5   3  26  1   
  6   3  27  1   
  7   3  28  1   
  8   4   6  ar  
  9   4   7  1   
 10   5   8  ar  
 11   5  29  1   
 12   6   9  ar  
 13   6  30  1   
 14   7  10  1   
 15   7  31  1   
 16   7  32  1   
 17   8   9  ar  
 18   8  11  1   
 19   9  12  1   
 20  10  13  1   
 21  10  14  1   
 22  10  33  1   
 23  11  15  1   
 24  11  34  1   
 25  11  35  1   
 26  12  15  1   
 27  12  36  1   
 28  12  37  1   
 29  13  16  1   
 30  13  38  1   
 31  13  39  1   
 32  14  17  1   
 33  14  40  1   
 34  14  41  1   
 35  15  42  1   
 36  15  43  1   
 37  16  18  1   
 38  16  19  1   
 39  16  44  1   
 40  17  19  1   
 41  17  45  1   
 42  17  46  1   
 43  18  20  1   
 44  18  21  1   
 45  18  47  1   
 46  19  22  1   
 47  19  23  1   
 48  20  24  1   
 49  20  48  1   
 50  20  49  1   
 51  21  50  1   
 52  21  51  1   
 53  21  52  1   
 54  22  24  1   
 55  22  53  1   
 56  22  54  1   
 57  23  25  1   
 58  23  55  1   
 59  23  56  1   
 60  24  57  1   
 61  24  58  1   
 62  25  59  1   
@<TRIPOS>SUBSTRUCTURE
  1 ****  10 GROUP 4 **** **** 0

# MOE 2024.06 (io_trps.svl 2023.06)
