@<TRIPOS>MOLECULE
NONAME
52 55 1 0 0 
SMALL
USER_CHARGES


@<TRIPOS>ATOM
  1 O       -1.6620    -1.9930    -1.0190 O.co2 1 <1>  -0.9000 
  2 C       -0.7370    -2.3520    -0.2710 C.2   1 <1>   1.0330 
  3 O       -1.0120    -2.4620     0.9370 O.co2 1 <1>  -0.9000 
  4 C        0.5240    -2.7830    -0.7730 C.2   1 <1>  -0.2330 
  5 C        0.8150    -4.0100    -1.3830 C.2   1 <1>   0.3720 
  6 C        1.7300    -2.1650    -0.6990 C.2   1 <1>   0.0870 
  7 N        2.0750    -4.1210    -1.6110 N.2   1 <1>  -0.4100 
  8 N       -0.0750    -5.0410    -1.7310 N.pl3 1 <1>  -0.8210 
  9 O        2.6100    -3.0000    -1.2010 O.3   1 <1>  -0.0190 
 10 C        2.1490    -0.8770    -0.2000 C.ar  1 <1>   0.0530 
 11 C       -1.2740    -4.6840    -2.5390 C.3   1 <1>   0.2090 
 12 C       -0.1150    -6.2460    -0.8500 C.3   1 <1>   0.2090 
 13 C        1.2560     0.1860    -0.0480 C.ar  1 <1>  -0.1500 
 14 C        3.4810    -0.6390     0.1470 C.ar  1 <1>  -0.1500 
 15 C       -2.5720    -4.8630    -1.7430 C.3   1 <1>  -0.1600 
 16 C       -1.4660    -6.3960    -0.1240 C.3   1 <1>  -0.1600 
 17 C        1.6630     1.4170     0.4300 C.ar  1 <1>  -0.1500 
 18 C        3.8980     0.5890     0.6230 C.ar  1 <1>  -0.1500 
 19 C       -2.2470    -5.0990    -0.2650 C.3   1 <1>   0.4230 
 20 C        2.9950     1.6290     0.7710 C.ar  1 <1>   0.0830 
 21 N       -3.4160    -5.0040     0.6400 N.4   1 <1>  -0.9590 
 22 O        3.4780     2.8030     1.2460 O.3   1 <1>  -0.3630 
 23 C       -4.6650    -5.6790     0.2410 C.3   1 <1>   0.3430 
 24 C       -3.7370    -3.5600     0.8470 C.3   1 <1>   0.3430 
 25 C        2.6270     3.9030     1.4780 C.3   1 <1>   0.0400 
 26 C       -5.7280    -4.9660     1.0610 C.3   1 <1>  -0.1600 
 27 C       -5.2160    -3.5310     1.2160 C.3   1 <1>  -0.1600 
 28 H       -1.2950    -5.2990    -3.4230 H     1 <1>   0.0800 
 29 H       -1.1900    -3.6590    -2.8640 H     1 <1>   0.0800 
 30 H        0.6750    -6.1620    -0.1200 H     1 <1>   0.0800 
 31 H        0.0880    -7.1200    -1.4450 H     1 <1>   0.0800 
 32 H        0.2210     0.0520    -0.3100 H     1 <1>   0.1500 
 33 H        4.1990    -1.4330     0.0440 H     1 <1>   0.1500 
 34 H       -3.1140    -5.6940    -2.1520 H     1 <1>   0.0800 
 35 H       -3.1610    -3.9740    -1.8710 H     1 <1>   0.0800 
 36 H       -1.2740    -6.6070     0.9110 H     1 <1>   0.0800 
 37 H       -2.0120    -7.2160    -0.5520 H     1 <1>   0.0800 
 38 H        0.9300     2.1940     0.5290 H     1 <1>   0.1500 
 39 H        4.9270     0.7510     0.8860 H     1 <1>   0.1500 
 40 H       -1.5650    -4.3430     0.0500 H     1 <1>   0.0800 
 41 H       -3.1140    -5.3370     1.5590 H     1 <1>   0.4500 
 42 H       -4.6330    -6.7370     0.4450 H     1 <1>   0.0800 
 43 H       -4.8530    -5.5140    -0.8070 H     1 <1>   0.0800 
 44 H       -3.5700    -2.9980    -0.0600 H     1 <1>   0.0800 
 45 H       -3.1170    -3.1320     1.6200 H     1 <1>   0.0800 
 46 H        3.2210     4.7080     1.8700 H     1 <1>   0.0800 
 47 H        1.8770     3.6180     2.1960 H     1 <1>   0.0800 
 48 H        2.1770     4.1980     0.5470 H     1 <1>   0.0800 
 49 H       -5.8070    -5.4370     2.0250 H     1 <1>   0.0800 
 50 H       -6.6880    -5.0040     0.5760 H     1 <1>   0.0800 
 51 H       -5.7270    -2.8610     0.5460 H     1 <1>   0.0800 
 52 H       -5.3460    -3.1710     2.2220 H     1 <1>   0.0800 
@<TRIPOS>BOND
  1   1   2  ar  
  2   2   3  ar  
  3   2   4  1   
  4   4   5  1   
  5   4   6  2   
  6   5   7  2   
  7   5   8  1   
  8   6   9  1   
  9   6  10  1   
 10   7   9  1   
 11   8  11  1   
 12   8  12  1   
 13  10  13  ar  
 14  10  14  ar  
 15  11  15  1   
 16  11  28  1   
 17  11  29  1   
 18  12  16  1   
 19  12  30  1   
 20  12  31  1   
 21  13  17  ar  
 22  13  32  1   
 23  14  18  ar  
 24  14  33  1   
 25  15  19  1   
 26  15  34  1   
 27  15  35  1   
 28  16  19  1   
 29  16  36  1   
 30  16  37  1   
 31  17  20  ar  
 32  17  38  1   
 33  18  20  ar  
 34  18  39  1   
 35  19  21  1   
 36  19  40  1   
 37  20  22  1   
 38  21  23  1   
 39  21  24  1   
 40  21  41  1   
 41  22  25  1   
 42  23  26  1   
 43  23  42  1   
 44  23  43  1   
 45  24  27  1   
 46  24  44  1   
 47  24  45  1   
 48  25  46  1   
 49  25  47  1   
 50  25  48  1   
 51  26  27  1   
 52  26  49  1   
 53  26  50  1   
 54  27  51  1   
 55  27  52  1   
@<TRIPOS>SUBSTRUCTURE
  1 ****   2 GROUP 4 **** **** 0

# MOE 2024.06 (io_trps.svl 2023.06)
