@<TRIPOS>MOLECULE
NONAME
43 45 1 0 0 
SMALL
USER_CHARGES


@<TRIPOS>ATOM
  1 O       -0.5990    -0.1380     0.4480 O.2   1 <1>  -0.5700 
  2 C       -1.6300     0.5060     0.5080 C.2   1 <1>   0.5440 
  3 N       -1.5760     1.8640     0.2660 N.am  1 <1>  -0.6600 
  4 C       -2.8660    -0.1730     0.8170 C.ar  1 <1>   0.0860 
  5 C       -0.2820     2.6120     0.2520 C.3   1 <1>   0.1400 
  6 C       -2.7120     2.6520    -0.3030 C.3   1 <1>   0.1400 
  7 C       -3.1420    -1.4200     0.2620 C.ar  1 <1>   0.1600 
  8 C       -3.8290     0.3560     1.6720 C.ar  1 <1>  -0.1500 
  9 C       -0.0290     3.2340    -1.1300 C.3   1 <1>   0.1200 
 10 C       -2.3150     3.2850    -1.6480 C.3   1 <1>   0.1200 
 11 N       -4.2400    -2.1320     0.4520 N.ar  1 <1>  -0.6200 
 12 C       -4.9740    -0.3730     1.8870 C.ar  1 <1>  -0.1500 
 13 O       -1.1250     4.0110    -1.5260 O.3   1 <1>  -0.5600 
 14 C       -5.1480    -1.6050     1.2630 C.ar  1 <1>   0.4100 
 15 N       -6.2990    -2.3180     1.4810 N.pl3 1 <1>  -0.8690 
 16 C       -6.4800    -3.7360     1.0780 C.3   1 <1>   0.2090 
 17 C       -7.0630    -3.8040    -0.3330 C.3   1 <1>  -0.0170 
 18 C       -7.2300    -5.2500    -0.7700 C.ar  1 <1>  -0.1430 
 19 C       -6.1640    -5.9820    -1.2530 C.ar  1 <1>  -0.1500 
 20 C       -8.4420    -5.9060    -0.7060 C.ar  1 <1>  -0.1500 
 21 C       -6.3560    -7.2990    -1.6360 C.ar  1 <1>   0.1600 
 22 C       -8.5270    -7.2260    -1.1150 C.ar  1 <1>   0.1600 
 23 N       -7.5130    -7.9400    -1.5780 N.ar  1 <1>  -0.6200 
 24 H        0.5390     1.9640     0.5070 H     1 <1>   0.0800 
 25 H       -0.3200     3.3950     0.9890 H     1 <1>   0.0800 
 26 H       -2.9820     3.4320     0.3880 H     1 <1>   0.0800 
 27 H       -3.5720     2.0250    -0.4570 H     1 <1>   0.0800 
 28 H       -2.3940    -1.8490    -0.3840 H     1 <1>   0.1500 
 29 H       -3.6690     1.3050     2.1520 H     1 <1>   0.1500 
 30 H        0.1360     2.4640    -1.8640 H     1 <1>   0.0800 
 31 H        0.8340     3.8730    -1.0980 H     1 <1>   0.0800 
 32 H       -3.0800     3.9640    -1.9800 H     1 <1>   0.0800 
 33 H       -2.1790     2.5250    -2.3990 H     1 <1>   0.0800 
 34 H       -5.7440    -0.0030     2.5360 H     1 <1>   0.1500 
 35 H       -6.9350    -1.9880     2.2080 H     1 <1>   0.4000 
 36 H       -7.1420    -4.2250     1.7710 H     1 <1>   0.0800 
 37 H       -5.5330    -4.2480     1.1050 H     1 <1>   0.0800 
 38 H       -6.4000    -3.3010    -1.0140 H     1 <1>   0.0800 
 39 H       -8.0130    -3.3010    -0.3540 H     1 <1>   0.0800 
 40 H       -5.1880    -5.5370    -1.3330 H     1 <1>   0.1500 
 41 H       -9.3210    -5.4040    -0.3440 H     1 <1>   0.1500 
 42 H       -5.5130    -7.8530    -2.0100 H     1 <1>   0.1500 
 43 H       -9.4810    -7.7230    -1.0590 H     1 <1>   0.1500 
@<TRIPOS>BOND
  1   1   2  2   
  2   2   3  am  
  3   2   4  1   
  4   3   5  1   
  5   3   6  1   
  6   4   7  ar  
  7   4   8  ar  
  8   5   9  1   
  9   5  24  1   
 10   5  25  1   
 11   6  10  1   
 12   6  26  1   
 13   6  27  1   
 14   7  11  ar  
 15   7  28  1   
 16   8  12  ar  
 17   8  29  1   
 18   9  13  1   
 19   9  30  1   
 20   9  31  1   
 21  10  13  1   
 22  10  32  1   
 23  10  33  1   
 24  11  14  ar  
 25  12  14  ar  
 26  12  34  1   
 27  14  15  1   
 28  15  16  1   
 29  15  35  1   
 30  16  17  1   
 31  16  36  1   
 32  16  37  1   
 33  17  18  1   
 34  17  38  1   
 35  17  39  1   
 36  18  19  ar  
 37  18  20  ar  
 38  19  21  ar  
 39  19  40  1   
 40  20  22  ar  
 41  20  41  1   
 42  21  23  ar  
 43  21  42  1   
 44  22  23  ar  
 45  22  43  1   
@<TRIPOS>SUBSTRUCTURE
  1 ****  11 GROUP 4 **** **** 0

# MOE 2024.06 (io_trps.svl 2023.06)
