@<TRIPOS>MOLECULE
NONAME
57 61 1 0 0 
SMALL
USER_CHARGES


@<TRIPOS>ATOM
  1 O       -1.7890    -0.3230    -0.8580 O.3   1 <1>  -0.3630 
  2 C       -2.2630    -1.1930     0.0600 C.ar  1 <1>   0.0830 
  3 C       -1.7070     1.0590    -0.5880 C.3   1 <1>   0.0400 
  4 C       -2.2780    -2.5320    -0.2620 C.ar  1 <1>  -0.1500 
  5 C       -2.7410    -0.8440     1.3110 C.ar  1 <1>  -0.1500 
  6 C       -2.7640    -3.4550     0.6490 C.ar  1 <1>   0.1670 
  7 C       -3.2020    -1.8400     2.1500 C.ar  1 <1>   0.1600 
  8 N       -3.2290    -3.1290     1.8500 N.ar  1 <1>  -0.6200 
  9 C       -2.7790    -4.9370     0.2690 C.3   1 <1>   0.2540 
 10 N       -4.1520    -5.4660     0.0690 N.3   1 <1>  -0.8100 
 11 C       -4.9280    -4.7220    -0.9510 C.3   1 <1>   0.1100 
 12 C       -4.1800    -6.9170    -0.1970 C.3   1 <1>   0.1100 
 13 C       -6.3610    -5.2840    -1.1100 C.3   1 <1>   0.3430 
 14 C       -5.6310    -7.4580    -0.2350 C.3   1 <1>   0.3430 
 15 N       -6.6400    -6.3490    -0.0840 N.4   1 <1>  -0.9590 
 16 C       -8.0650    -6.7680     0.0640 C.3   1 <1>   0.5030 
 17 C       -8.9410    -5.5340     0.3850 C.3   1 <1>  -0.1600 
 18 C       -8.5870    -7.4320    -1.2280 C.3   1 <1>  -0.1600 
 19 C       -8.1980    -7.7700     1.2340 C.3   1 <1>  -0.1600 
 20 C      -10.4140    -5.9470     0.5670 C.3   1 <1>  -0.0800 
 21 C      -10.0600    -7.8550    -1.0510 C.3   1 <1>  -0.0800 
 22 C       -9.6660    -8.1950     1.4210 C.3   1 <1>  -0.0800 
 23 C      -10.9120    -6.6120    -0.7300 C.3   1 <1>  -0.1600 
 24 C      -10.5190    -6.9520     1.7260 C.3   1 <1>  -0.1600 
 25 C      -10.1680    -8.8500     0.1200 C.3   1 <1>  -0.1600 
 26 H       -1.2920     1.5440    -1.4530 H     1 <1>   0.0800 
 27 H       -1.0640     1.2120     0.2600 H     1 <1>   0.0800 
 28 H       -2.6950     1.4370    -0.3960 H     1 <1>   0.0800 
 29 H       -1.9080    -2.8380    -1.2220 H     1 <1>   0.1500 
 30 H       -2.7610     0.1750     1.6450 H     1 <1>   0.1500 
 31 H       -3.5710    -1.5640     3.1240 H     1 <1>   0.1500 
 32 H       -2.3040    -5.4830     1.0650 H     1 <1>   0.0800 
 33 H       -2.1990    -5.0870    -0.6260 H     1 <1>   0.0800 
 34 H       -4.4220    -4.7520    -1.9010 H     1 <1>   0.0800 
 35 H       -5.0060    -3.6880    -0.6560 H     1 <1>   0.0800 
 36 H       -3.6390    -7.4350     0.5770 H     1 <1>   0.0800 
 37 H       -3.6920    -7.1300    -1.1340 H     1 <1>   0.0800 
 38 H       -6.4780    -5.6890    -2.1010 H     1 <1>   0.0800 
 39 H       -7.0520    -4.4660    -1.0060 H     1 <1>   0.0800 
 40 H       -5.7410    -8.1670     0.5660 H     1 <1>   0.0800 
 41 H       -5.7920    -7.9820    -1.1620 H     1 <1>   0.0800 
 42 H       -6.3540    -5.8940     0.7970 H     1 <1>   0.4500 
 43 H       -8.9080    -4.8160    -0.4120 H     1 <1>   0.0800 
 44 H       -8.5940    -5.0600     1.2860 H     1 <1>   0.0800 
 45 H       -8.0070    -8.3050    -1.4640 H     1 <1>   0.0800 
 46 H       -8.5250    -6.7490    -2.0560 H     1 <1>   0.0800 
 47 H       -7.8420    -7.3230     2.1450 H     1 <1>   0.0800 
 48 H       -7.6300    -8.6620     1.0470 H     1 <1>   0.0800 
 49 H      -11.0150    -5.0790     0.7840 H     1 <1>   0.0800 
 50 H      -10.4220    -8.3180    -1.9540 H     1 <1>   0.0800 
 51 H       -9.7460    -8.8970     2.2350 H     1 <1>   0.0800 
 52 H      -10.8660    -5.9120    -1.5460 H     1 <1>   0.0800 
 53 H      -11.9430    -6.9010    -0.6150 H     1 <1>   0.0800 
 54 H      -11.5480    -7.2420     1.8620 H     1 <1>   0.0800 
 55 H      -10.1910    -6.4940     2.6430 H     1 <1>   0.0800 
 56 H       -9.5950    -9.7360    -0.0940 H     1 <1>   0.0800 
 57 H      -11.1940    -9.1550     0.2420 H     1 <1>   0.0800 
@<TRIPOS>BOND
  1   1   2  1   
  2   1   3  1   
  3   2   4  ar  
  4   2   5  ar  
  5   3  26  1   
  6   3  27  1   
  7   3  28  1   
  8   4   6  ar  
  9   4  29  1   
 10   5   7  ar  
 11   5  30  1   
 12   6   8  ar  
 13   6   9  1   
 14   7   8  ar  
 15   7  31  1   
 16   9  10  1   
 17   9  32  1   
 18   9  33  1   
 19  10  11  1   
 20  10  12  1   
 21  11  13  1   
 22  11  34  1   
 23  11  35  1   
 24  12  14  1   
 25  12  36  1   
 26  12  37  1   
 27  13  15  1   
 28  13  38  1   
 29  13  39  1   
 30  14  15  1   
 31  14  40  1   
 32  14  41  1   
 33  15  16  1   
 34  15  42  1   
 35  16  17  1   
 36  16  18  1   
 37  16  19  1   
 38  17  20  1   
 39  17  43  1   
 40  17  44  1   
 41  18  21  1   
 42  18  45  1   
 43  18  46  1   
 44  19  22  1   
 45  19  47  1   
 46  19  48  1   
 47  20  23  1   
 48  20  24  1   
 49  20  49  1   
 50  21  23  1   
 51  21  25  1   
 52  21  50  1   
 53  22  24  1   
 54  22  25  1   
 55  22  51  1   
 56  23  52  1   
 57  23  53  1   
 58  24  54  1   
 59  24  55  1   
 60  25  56  1   
 61  25  57  1   
@<TRIPOS>SUBSTRUCTURE
  1 ****  13 GROUP 4 **** **** 0

# MOE 2024.06 (io_trps.svl 2023.06)
