@<TRIPOS>MOLECULE
NONAME
54 56 1 0 0 
SMALL
USER_CHARGES


@<TRIPOS>ATOM
  1 O        0.9320     0.7310     1.9450 O.2   1 <1>  -0.5700 
  2 C        0.9580    -0.0480     1.0230 C.2   1 <1>   0.5690 
  3 N        1.2260     0.3300    -0.2610 N.am  1 <1>  -0.7300 
  4 C        0.7460    -1.5410     1.3160 C.3   1 <1>   0.1710 
  5 C        1.5600     1.6620    -0.8100 C.3   1 <1>   0.3640 
  6 N       -0.6050    -2.0950     1.0150 N.3   1 <1>  -0.8100 
  7 C        3.0660     1.8730    -0.7440 C.ar  1 <1>  -0.1430 
  8 C        0.7770     2.8000    -0.1550 C.3   1 <1>  -0.2400 
  9 C       -0.6900    -3.5080     1.4560 C.3   1 <1>   0.1100 
 10 C       -0.9820    -1.9860    -0.4150 C.3   1 <1>   0.1100 
 11 C        3.7980     2.0060    -1.9150 C.ar  1 <1>   0.1600 
 12 C        3.7410     1.9350     0.4600 C.ar  1 <1>  -0.1500 
 13 C       -2.0710    -4.1320     1.1820 C.3   1 <1>   0.2090 
 14 C       -2.3660    -2.5940    -0.7070 C.3   1 <1>   0.2090 
 15 N        5.1070     2.1870    -1.9800 N.ar  1 <1>  -0.6200 
 16 C        5.1040     2.1250     0.4100 C.ar  1 <1>  -0.1500 
 17 N       -2.4280    -4.0130    -0.2600 N.pl3 1 <1>  -0.8380 
 18 C        5.7340     2.2440    -0.8190 C.ar  1 <1>   0.1670 
 19 C       -3.5440    -4.7320    -0.6710 C.ar  1 <1>   0.1000 
 20 C        7.2320     2.4540    -0.8890 C.3   1 <1>  -0.0970 
 21 C       -4.8240    -4.4130    -0.2300 C.ar  1 <1>  -0.1500 
 22 C       -3.3860    -5.7990    -1.5440 C.ar  1 <1>  -0.1500 
 23 C       -5.9260    -5.1390    -0.6490 C.ar  1 <1>  -0.1430 
 24 C       -4.4790    -6.5300    -1.9690 C.ar  1 <1>  -0.1500 
 25 C       -5.7480    -6.2010    -1.5230 C.ar  1 <1>  -0.1500 
 26 C       -7.3210    -4.7870    -0.1670 C.3   1 <1>  -0.0970 
 27 H        1.3380    -0.4160    -0.9450 H     1 <1>   0.3700 
 28 H        0.9420    -1.6810     2.3650 H     1 <1>   0.0800 
 29 H        1.4880    -2.1000     0.7750 H     1 <1>   0.0800 
 30 H        1.2670     1.6500    -1.8460 H     1 <1>   0.0800 
 31 H        1.1030     2.9690     0.8540 H     1 <1>   0.0800 
 32 H       -0.2740     2.5770    -0.1560 H     1 <1>   0.0800 
 33 H        0.9370     3.7080    -0.7070 H     1 <1>   0.0800 
 34 H       -0.4940    -3.5630     2.5130 H     1 <1>   0.0800 
 35 H        0.0550    -4.0950     0.9460 H     1 <1>   0.0800 
 36 H       -0.2520    -2.4880    -1.0260 H     1 <1>   0.0800 
 37 H       -1.0140    -0.9490    -0.6980 H     1 <1>   0.0800 
 38 H        3.2830     1.9620    -2.8590 H     1 <1>   0.1500 
 39 H        3.2260     1.8380     1.4010 H     1 <1>   0.1500 
 40 H       -2.8110    -3.6330     1.7820 H     1 <1>   0.0800 
 41 H       -2.0580    -5.1720     1.4580 H     1 <1>   0.0800 
 42 H       -2.5660    -2.5470    -1.7630 H     1 <1>   0.0800 
 43 H       -3.1190    -2.0190    -0.1960 H     1 <1>   0.0800 
 44 H        5.6690     2.1800     1.3220 H     1 <1>   0.1500 
 45 H        7.6810     1.6490    -1.4420 H     1 <1>   0.0800 
 46 H        7.6670     2.4880     0.0920 H     1 <1>   0.0800 
 47 H        7.4400     3.3780    -1.3950 H     1 <1>   0.0800 
 48 H       -4.9450    -3.5880     0.4460 H     1 <1>   0.1500 
 49 H       -2.3970    -6.0440    -1.8820 H     1 <1>   0.1500 
 50 H       -4.3440    -7.3550    -2.6460 H     1 <1>   0.1500 
 51 H       -6.5950    -6.7730    -1.8570 H     1 <1>   0.1500 
 52 H       -7.2890    -3.9910     0.5550 H     1 <1>   0.0800 
 53 H       -7.7770    -5.6460     0.2920 H     1 <1>   0.0800 
 54 H       -7.9260    -4.4730    -0.9980 H     1 <1>   0.0800 
@<TRIPOS>BOND
  1   1   2  2   
  2   2   3  am  
  3   2   4  1   
  4   3   5  1   
  5   3  27  1   
  6   4   6  1   
  7   4  28  1   
  8   4  29  1   
  9   5   7  1   
 10   5   8  1   
 11   5  30  1   
 12   6   9  1   
 13   6  10  1   
 14   7  11  ar  
 15   7  12  ar  
 16   8  31  1   
 17   8  32  1   
 18   8  33  1   
 19   9  13  1   
 20   9  34  1   
 21   9  35  1   
 22  10  14  1   
 23  10  36  1   
 24  10  37  1   
 25  11  15  ar  
 26  11  38  1   
 27  12  16  ar  
 28  12  39  1   
 29  13  17  1   
 30  13  40  1   
 31  13  41  1   
 32  14  17  1   
 33  14  42  1   
 34  14  43  1   
 35  15  18  ar  
 36  16  18  ar  
 37  16  44  1   
 38  17  19  1   
 39  18  20  1   
 40  19  21  ar  
 41  19  22  ar  
 42  20  45  1   
 43  20  46  1   
 44  20  47  1   
 45  21  23  ar  
 46  21  48  1   
 47  22  24  ar  
 48  22  49  1   
 49  23  25  ar  
 50  23  26  1   
 51  24  25  ar  
 52  24  50  1   
 53  25  51  1   
 54  26  52  1   
 55  26  53  1   
 56  26  54  1   
@<TRIPOS>SUBSTRUCTURE
  1 ****  10 GROUP 4 **** **** 0

# MOE 2024.06 (io_trps.svl 2023.06)
