@<TRIPOS>MOLECULE
NONAME
47 49 1 0 0 
SMALL
USER_CHARGES


@<TRIPOS>ATOM
  1 CL       1.9710     0.2360    -1.7670 Cl    1 <1>  -0.1770 
  2 C        0.7370     1.3130    -1.1510 C.ar  1 <1>   0.1770 
  3 C        0.9650     2.1310    -0.0470 C.ar  1 <1>  -0.1440 
  4 C       -0.4760     1.3150    -1.8160 C.ar  1 <1>  -0.1500 
  5 C       -0.0680     2.9640     0.3670 C.ar  1 <1>  -0.1500 
  6 C        2.2840     2.1570     0.7250 C.3   1 <1>   0.3640 
  7 C       -1.4920     2.1480    -1.3860 C.ar  1 <1>  -0.1500 
  8 C       -1.2840     2.9730    -0.2940 C.ar  1 <1>  -0.1500 
  9 N        2.5180     0.8100     1.3000 N.am  1 <1>  -0.7300 
 10 C        3.4800     2.6800    -0.1230 C.3   1 <1>   0.2610 
 11 C        3.6720     0.1240     1.1590 C.2   1 <1>   0.5690 
 12 O        4.7290     2.1700     0.3380 O.3   1 <1>  -0.5600 
 13 C        3.5070     4.2140    -0.1030 C.2   1 <1>   0.5690 
 14 O        3.8030    -0.9710     1.6420 O.2   1 <1>  -0.5700 
 15 C        4.8110     0.7590     0.3590 C.3   1 <1>   0.1810 
 16 O        2.5050     4.8440    -0.3450 O.2   1 <1>  -0.5700 
 17 N        4.6740     4.8520     0.1850 N.am  1 <1>  -0.7300 
 18 C        4.8470     6.3070     0.2320 C.3   1 <1>   0.2200 
 19 C        5.3330     6.7950    -1.1300 C.3   1 <1>  -0.1600 
 20 C        5.8440     6.6700     1.3300 C.3   1 <1>  -0.1600 
 21 C        5.5970     8.2960    -1.0940 C.3   1 <1>   0.3430 
 22 C        6.1060     8.1750     1.3320 C.3   1 <1>   0.3430 
 23 N        6.5830     8.6120    -0.0160 N.4   1 <1>  -0.9590 
 24 C        6.9120    10.0700    -0.0130 C.3   1 <1>   0.2630 
 25 H       -0.6200     0.6700    -2.6630 H     1 <1>   0.1500 
 26 H        0.0660     3.6230     1.2090 H     1 <1>   0.1500 
 27 H        2.1710     2.8310     1.5570 H     1 <1>   0.0800 
 28 H       -2.4390     2.1580    -1.8980 H     1 <1>   0.1500 
 29 H       -2.0720     3.6270     0.0400 H     1 <1>   0.1500 
 30 H        1.7400     0.3580     1.7830 H     1 <1>   0.3700 
 31 H        3.3680     2.3760    -1.1460 H     1 <1>   0.0800 
 32 H        4.7860     0.3970    -0.6530 H     1 <1>   0.0800 
 33 H        5.7510     0.4890     0.8040 H     1 <1>   0.0800 
 34 H        5.4830     4.2520     0.3820 H     1 <1>   0.3700 
 35 H        3.8950     6.7660     0.4520 H     1 <1>   0.0800 
 36 H        6.2300     6.2760    -1.4210 H     1 <1>   0.0800 
 37 H        4.5740     6.5940    -1.8660 H     1 <1>   0.0800 
 38 H        5.4380     6.3860     2.2850 H     1 <1>   0.0800 
 39 H        6.7720     6.1450     1.1880 H     1 <1>   0.0800 
 40 H        4.6710     8.8180    -0.9070 H     1 <1>   0.0800 
 41 H        5.9780     8.6170    -2.0510 H     1 <1>   0.0800 
 42 H        6.8470     8.4090     2.0800 H     1 <1>   0.0800 
 43 H        5.1960     8.6970     1.5820 H     1 <1>   0.0800 
 44 H        7.4460     8.0880    -0.2250 H     1 <1>   0.4500 
 45 H        6.0310    10.6530     0.2010 H     1 <1>   0.0800 
 46 H        7.2970    10.3690    -0.9750 H     1 <1>   0.0800 
 47 H        7.6570    10.2840     0.7360 H     1 <1>   0.0800 
@<TRIPOS>BOND
  1   1   2  1   
  2   2   3  ar  
  3   2   4  ar  
  4   3   5  ar  
  5   3   6  1   
  6   4   7  ar  
  7   4  25  1   
  8   5   8  ar  
  9   5  26  1   
 10   6   9  1   
 11   6  10  1   
 12   6  27  1   
 13   7   8  ar  
 14   7  28  1   
 15   8  29  1   
 16   9  11  am  
 17   9  30  1   
 18  10  12  1   
 19  10  13  1   
 20  10  31  1   
 21  11  14  2   
 22  11  15  1   
 23  12  15  1   
 24  13  16  2   
 25  13  17  am  
 26  15  32  1   
 27  15  33  1   
 28  17  18  1   
 29  17  34  1   
 30  18  19  1   
 31  18  20  1   
 32  18  35  1   
 33  19  21  1   
 34  19  36  1   
 35  19  37  1   
 36  20  22  1   
 37  20  38  1   
 38  20  39  1   
 39  21  23  1   
 40  21  40  1   
 41  21  41  1   
 42  22  23  1   
 43  22  42  1   
 44  22  43  1   
 45  23  24  1   
 46  23  44  1   
 47  24  45  1   
 48  24  46  1   
 49  24  47  1   
@<TRIPOS>SUBSTRUCTURE
  1 ****  13 GROUP 4 **** **** 0

# MOE 2024.06 (io_trps.svl 2023.06)
