@<TRIPOS>MOLECULE
NONAME
49 52 1 0 0 
SMALL
USER_CHARGES


@<TRIPOS>ATOM
  1 F       -2.1870    -0.0820     2.0210 F     1 <1>  -0.3400 
  2 C       -1.6580     0.1580     0.8270 C.3   1 <1>   0.8800 
  3 F       -1.6470     1.4760     0.6930 F     1 <1>  -0.3400 
  4 O       -2.5160    -0.3720    -0.1590 O.3   1 <1>  -0.3620 
  5 C       -2.5780    -1.7030    -0.4060 C.ar  1 <1>   0.0830 
  6 C       -1.9940    -2.6790     0.3980 C.ar  1 <1>  -0.1500 
  7 C       -3.2730    -2.0880    -1.5400 C.ar  1 <1>  -0.1500 
  8 C       -2.1100    -4.0170     0.0600 C.ar  1 <1>  -0.1500 
  9 C       -3.3880    -3.4240    -1.8780 C.ar  1 <1>  -0.1500 
 10 C       -2.8100    -4.3990    -1.0770 C.ar  1 <1>  -0.1440 
 11 C       -2.9460    -5.8660    -1.4440 C.3   1 <1>   0.4870 
 12 N       -3.9590    -6.4960    -0.5560 N.4   1 <1>  -0.9590 
 13 C       -5.3280    -5.8900    -0.7490 C.3   1 <1>   0.3430 
 14 C       -4.0030    -7.9870    -0.7420 C.3   1 <1>   0.3430 
 15 C       -6.4030    -6.5840     0.1150 C.3   1 <1>   0.1900 
 16 C       -5.0990    -8.6480     0.1180 C.3   1 <1>   0.1100 
 17 N       -6.4240    -8.0480    -0.1450 N.3   1 <1>  -0.8100 
 18 C       -7.7850    -5.9630    -0.1620 C.3   1 <1>   0.1200 
 19 C       -7.5210    -8.6880     0.6300 C.3   1 <1>   0.2850 
 20 O       -8.7460    -6.5840     0.6310 O.3   1 <1>  -0.5600 
 21 C       -7.6730   -10.1620     0.2260 C.3   1 <1>  -0.1950 
 22 C       -8.8630    -7.9600     0.3880 C.3   1 <1>   0.1200 
 23 C       -8.4520   -11.1080     1.0880 C.3   1 <1>  -0.2000 
 24 C       -6.9670   -11.2720     0.9480 C.3   1 <1>  -0.2000 
 25 H       -0.6560    -0.2270     0.7720 H     1 <1>   0.0800 
 26 H       -1.4530    -2.4230     1.2910 H     1 <1>   0.1500 
 27 H       -3.7200    -1.3290    -2.1590 H     1 <1>   0.1500 
 28 H       -1.6430    -4.7510     0.6940 H     1 <1>   0.1500 
 29 H       -3.9270    -3.6860    -2.7730 H     1 <1>   0.1500 
 30 H       -1.9910    -6.3510    -1.3200 H     1 <1>   0.0800 
 31 H       -3.2430    -5.9610    -2.4750 H     1 <1>   0.0800 
 32 H       -3.6810    -6.2970     0.4120 H     1 <1>   0.4500 
 33 H       -5.3010    -4.8420    -0.4990 H     1 <1>   0.0800 
 34 H       -5.6200    -5.9770    -1.7820 H     1 <1>   0.0800 
 35 H       -4.2080    -8.2180    -1.7750 H     1 <1>   0.0800 
 36 H       -3.0490    -8.4200    -0.4890 H     1 <1>   0.0800 
 37 H       -6.1730    -6.4060     1.1520 H     1 <1>   0.0800 
 38 H       -4.8520    -8.5620     1.1620 H     1 <1>   0.0800 
 39 H       -5.1200    -9.6940    -0.1320 H     1 <1>   0.0800 
 40 H       -8.0650    -6.0770    -1.1960 H     1 <1>   0.0800 
 41 H       -7.7890    -4.9160     0.0880 H     1 <1>   0.0800 
 42 H       -7.3010    -8.6330     1.6840 H     1 <1>   0.0800 
 43 H       -7.8180   -10.2700    -0.8360 H     1 <1>   0.1000 
 44 H       -9.6170    -8.3460     1.0500 H     1 <1>   0.0800 
 45 H       -9.1920    -8.1030    -0.6260 H     1 <1>   0.0800 
 46 H       -8.8390   -10.7740     2.0360 H     1 <1>   0.1000 
 47 H       -9.0960   -11.8300     0.6140 H     1 <1>   0.1000 
 48 H       -6.5990   -12.1110     0.3810 H     1 <1>   0.1000 
 49 H       -6.3560   -11.0540     1.8060 H     1 <1>   0.1000 
@<TRIPOS>BOND
  1   1   2  1   
  2   2   3  1   
  3   2   4  1   
  4   2  25  1   
  5   4   5  1   
  6   5   6  ar  
  7   5   7  ar  
  8   6   8  ar  
  9   6  26  1   
 10   7   9  ar  
 11   7  27  1   
 12   8  10  ar  
 13   8  28  1   
 14   9  10  ar  
 15   9  29  1   
 16  10  11  1   
 17  11  12  1   
 18  11  30  1   
 19  11  31  1   
 20  12  13  1   
 21  12  14  1   
 22  12  32  1   
 23  13  15  1   
 24  13  33  1   
 25  13  34  1   
 26  14  16  1   
 27  14  35  1   
 28  14  36  1   
 29  15  17  1   
 30  15  18  1   
 31  15  37  1   
 32  16  17  1   
 33  16  38  1   
 34  16  39  1   
 35  17  19  1   
 36  18  20  1   
 37  18  40  1   
 38  18  41  1   
 39  19  21  1   
 40  19  22  1   
 41  19  42  1   
 42  20  22  1   
 43  21  23  1   
 44  21  24  1   
 45  21  43  1   
 46  22  44  1   
 47  22  45  1   
 48  23  24  1   
 49  23  46  1   
 50  23  47  1   
 51  24  48  1   
 52  24  49  1   
@<TRIPOS>SUBSTRUCTURE
  1 ****  13 GROUP 4 **** **** 0

# MOE 2024.06 (io_trps.svl 2023.06)
