@<TRIPOS>MOLECULE
NONAME
35 36 1 0 0 
SMALL
USER_CHARGES


@<TRIPOS>ATOM
  1 F       -1.0050    -0.2430     1.7210 F     1 <1>  -0.1900 
  2 C       -2.0030    -0.8440     1.1120 C.ar  1 <1>   0.1900 
  3 C       -2.7000    -0.2850     0.0450 C.ar  1 <1>   0.3920 
  4 C       -2.3730    -2.0870     1.5520 C.ar  1 <1>   0.1600 
  5 O       -2.4630     0.9270    -0.5080 O.3   1 <1>  -0.3630 
  6 N       -3.6900    -0.9420    -0.5220 N.ar  1 <1>  -0.6200 
  7 N       -3.3600    -2.7520     0.9910 N.ar  1 <1>  -0.6200 
  8 C       -1.4900     1.8420    -0.0540 C.3   1 <1>   0.0400 
  9 C       -3.9650    -2.1350    -0.0210 C.ar  1 <1>   0.7200 
 10 N       -4.9970    -2.7510    -0.6400 N.pl3 1 <1>  -0.8690 
 11 C       -5.1650    -4.2050    -0.8790 C.3   1 <1>   0.2890 
 12 C       -5.5890    -4.9360     0.4020 C.3   1 <1>   0.0210 
 13 C       -3.8960    -4.7750    -1.5200 C.3   1 <1>  -0.2400 
 14 C       -5.9350    -6.3840     0.1170 C.2   1 <1>   0.1080 
 15 N       -6.8960    -6.7400    -0.6790 N.2   1 <1>  -0.7070 
 16 C       -5.2740    -7.4790     0.6630 C.2   1 <1>  -0.1500 
 17 N       -6.8740    -8.0860    -0.6590 N.pl3 1 <1>   0.3000 
 18 C       -5.8980    -8.5580     0.1460 C.2   1 <1>  -0.3320 
 19 C       -5.6200   -10.0320     0.3770 C.3   1 <1>  -0.0600 
 20 H       -1.8510    -2.5420     2.3760 H     1 <1>   0.1500 
 21 H       -1.5490     2.7220    -0.6680 H     1 <1>   0.0800 
 22 H       -0.5160     1.3960    -0.1510 H     1 <1>   0.0800 
 23 H       -1.6990     2.0980     0.9700 H     1 <1>   0.0800 
 24 H       -5.3310    -2.1750    -1.4110 H     1 <1>   0.4000 
 25 H       -5.9680    -4.3210    -1.5890 H     1 <1>   0.0800 
 26 H       -6.4570    -4.4540     0.8100 H     1 <1>   0.0800 
 27 H       -4.8030    -4.9030     1.1310 H     1 <1>   0.0800 
 28 H       -3.0800    -4.7730    -0.8210 H     1 <1>   0.0800 
 29 H       -3.6280    -4.1980    -2.3860 H     1 <1>   0.0800 
 30 H       -4.0700    -5.7890    -1.8310 H     1 <1>   0.0800 
 31 H       -4.4460    -7.4400     1.3480 H     1 <1>   0.1500 
 32 H       -7.5360    -8.6510    -1.2030 H     1 <1>   0.2700 
 33 H       -4.7950   -10.1500     1.0560 H     1 <1>   0.0800 
 34 H       -5.3710   -10.5140    -0.5520 H     1 <1>   0.0800 
 35 H       -6.4840   -10.5120     0.8010 H     1 <1>   0.0800 
@<TRIPOS>BOND
  1   1   2  1   
  2   2   3  ar  
  3   2   4  ar  
  4   3   5  1   
  5   3   6  ar  
  6   4   7  ar  
  7   4  20  1   
  8   5   8  1   
  9   6   9  ar  
 10   7   9  ar  
 11   8  21  1   
 12   8  22  1   
 13   8  23  1   
 14   9  10  1   
 15  10  11  1   
 16  10  24  1   
 17  11  12  1   
 18  11  13  1   
 19  11  25  1   
 20  12  14  1   
 21  12  26  1   
 22  12  27  1   
 23  13  28  1   
 24  13  29  1   
 25  13  30  1   
 26  14  15  2   
 27  14  16  1   
 28  15  17  1   
 29  16  18  2   
 30  16  31  1   
 31  17  18  1   
 32  17  32  1   
 33  18  19  1   
 34  19  33  1   
 35  19  34  1   
 36  19  35  1   
@<TRIPOS>SUBSTRUCTURE
  1 ****  10 GROUP 4 **** **** 0

# MOE 2024.06 (io_trps.svl 2023.06)
