@<TRIPOS>MOLECULE
NONAME
48 51 1 0 0 
SMALL
USER_CHARGES


@<TRIPOS>ATOM
  1 O       -2.4690    -0.8000     2.5070 O.co2 1 <1>  -0.9000 
  2 C       -3.1430    -0.6830     1.4800 C.2   1 <1>   0.9060 
  3 O       -2.8460     0.0730     0.5490 O.co2 1 <1>  -0.9000 
  4 C       -4.2760    -1.6850     1.2590 C.3   1 <1>   0.2370 
  5 N       -3.8830    -2.9260     0.4710 N.4   1 <1>  -0.9590 
  6 C       -2.7910    -3.6970     1.1730 C.3   1 <1>   0.4230 
  7 C       -3.6140    -2.5700    -0.9570 C.3   1 <1>   0.3430 
  8 C       -1.3350    -3.2600     0.8580 C.3   1 <1>   0.1200 
  9 C       -2.9960    -5.2050     0.8720 C.3   1 <1>   0.1400 
 10 C       -2.7400    -3.5640    -1.7540 C.3   1 <1>  -0.0800 
 11 O       -0.8390    -3.8660    -0.3040 O.3   1 <1>  -0.5600 
 12 N       -3.7830    -5.4550    -0.3960 N.am  1 <1>  -0.6600 
 13 C       -1.2520    -3.2870    -1.4940 C.3   1 <1>   0.1200 
 14 C       -3.0890    -5.0740    -1.6640 C.3   1 <1>   0.1400 
 15 C       -5.1420    -5.6180    -0.3270 C.2   1 <1>   0.5690 
 16 O       -5.7350    -5.1460     0.6160 O.2   1 <1>  -0.5700 
 17 C       -5.8970    -6.3120    -1.4510 C.3   1 <1>   0.0820 
 18 C       -7.3180    -6.6950    -1.0900 C.2   1 <1>   0.1080 
 19 N       -8.3400    -6.2700    -1.7560 N.2   1 <1>  -0.7070 
 20 C       -7.6710    -7.5550    -0.0320 C.ar  1 <1>   0.0000 
 21 N       -9.4090    -6.8350    -1.1470 N.pl3 1 <1>   0.3000 
 22 C       -9.0450    -7.6250    -0.0980 C.ar  1 <1>  -0.1520 
 23 C       -6.9890    -8.2710     0.9630 C.ar  1 <1>  -0.1500 
 24 C       -9.7800    -8.3990     0.8070 C.ar  1 <1>  -0.1500 
 25 C       -7.7050    -9.0350     1.8540 C.ar  1 <1>  -0.1500 
 26 C       -9.1030    -9.1000     1.7760 C.ar  1 <1>  -0.1500 
 27 H       -5.0680    -1.1660     0.7520 H     1 <1>   0.0800 
 28 H       -4.6320    -1.9730     2.2320 H     1 <1>   0.0800 
 29 H       -4.6860    -3.5860     0.4820 H     1 <1>   0.4500 
 30 H       -2.9200    -3.5550     2.2330 H     1 <1>   0.0800 
 31 H       -4.5600    -2.4620    -1.4590 H     1 <1>   0.0800 
 32 H       -3.1290    -1.6060    -0.9900 H     1 <1>   0.0800 
 33 H       -0.7040    -3.5900     1.6630 H     1 <1>   0.0800 
 34 H       -1.2230    -2.1930     0.7840 H     1 <1>   0.0800 
 35 H       -3.5260    -5.6370     1.7020 H     1 <1>   0.0800 
 36 H       -2.0490    -5.7140     0.8190 H     1 <1>   0.0800 
 37 H       -2.8770    -3.2890    -2.7840 H     1 <1>   0.0800 
 38 H       -1.0380    -2.2300    -1.4630 H     1 <1>   0.0800 
 39 H       -0.6560    -3.7270    -2.2750 H     1 <1>   0.0800 
 40 H       -2.1910    -5.6620    -1.7570 H     1 <1>   0.0800 
 41 H       -3.7100    -5.3280    -2.5050 H     1 <1>   0.0800 
 42 H       -5.9350    -5.6570    -2.2990 H     1 <1>   0.0800 
 43 H       -5.3670    -7.2010    -1.7320 H     1 <1>   0.0800 
 44 H      -10.3730    -6.6730    -1.4570 H     1 <1>   0.2700 
 45 H       -5.9190    -8.2090     1.0180 H     1 <1>   0.1500 
 46 H      -10.8530    -8.4390     0.7380 H     1 <1>   0.1500 
 47 H       -7.2000    -9.5910     2.6250 H     1 <1>   0.1500 
 48 H       -9.6380    -9.7040     2.4870 H     1 <1>   0.1500 
@<TRIPOS>BOND
  1   1   2  ar  
  2   2   3  ar  
  3   2   4  1   
  4   4   5  1   
  5   4  27  1   
  6   4  28  1   
  7   5   6  1   
  8   5   7  1   
  9   5  29  1   
 10   6   8  1   
 11   6   9  1   
 12   6  30  1   
 13   7  10  1   
 14   7  31  1   
 15   7  32  1   
 16   8  11  1   
 17   8  33  1   
 18   8  34  1   
 19   9  12  1   
 20   9  35  1   
 21   9  36  1   
 22  10  13  1   
 23  10  14  1   
 24  10  37  1   
 25  11  13  1   
 26  12  14  1   
 27  12  15  am  
 28  13  38  1   
 29  13  39  1   
 30  14  40  1   
 31  14  41  1   
 32  15  16  2   
 33  15  17  1   
 34  17  18  1   
 35  17  42  1   
 36  17  43  1   
 37  18  19  2   
 38  18  20  1   
 39  19  21  1   
 40  20  22  ar  
 41  20  23  ar  
 42  21  22  1   
 43  21  44  1   
 44  22  24  ar  
 45  23  25  ar  
 46  23  45  1   
 47  24  26  ar  
 48  24  46  1   
 49  25  26  ar  
 50  25  47  1   
 51  26  48  1   
@<TRIPOS>SUBSTRUCTURE
  1 ****  15 GROUP 4 **** **** 0

# MOE 2024.06 (io_trps.svl 2023.06)
