@<TRIPOS>MOLECULE
NONAME
46 49 1 0 0 
SMALL
USER_CHARGES


@<TRIPOS>ATOM
  1 O        0.0860     1.4660     2.0570 O.2   1 <1>  -0.5700 
  2 C       -0.3500     2.0980     1.1130 C.2   1 <1>   0.5440 
  3 N       -1.6720     1.9300     0.7590 N.am  1 <1>  -0.6600 
  4 C        0.5240     3.0170     0.4170 C.ar  1 <1>   0.0860 
  5 C       -2.4290     2.9420    -0.0540 C.3   1 <1>   0.1400 
  6 C       -2.4720     0.8280     1.3750 C.3   1 <1>   0.1400 
  7 C        1.3500     3.8750     1.1390 C.ar  1 <1>   0.1600 
  8 C        0.5890     3.0960    -0.9680 C.ar  1 <1>  -0.1500 
  9 C       -3.8660     3.1410     0.4620 C.3   1 <1>   0.1440 
 10 C       -3.7480     0.5560     0.5720 C.3   1 <1>  -0.1600 
 11 N        2.1690     4.7790     0.6240 N.ar  1 <1>  -0.6200 
 12 C        1.4350     4.0260    -1.5340 C.ar  1 <1>  -0.1430 
 13 C       -4.5190     4.2300    -0.3750 C.ar  1 <1>   0.1670 
 14 C       -4.6460     1.8000     0.4080 C.3   1 <1>  -0.1600 
 15 C       -3.8680     3.7750     1.8850 C.3   1 <1>  -0.1600 
 16 C        2.1920     4.8340    -0.6980 C.ar  1 <1>   0.1600 
 17 C        1.5320     4.1530    -3.0450 C.3   1 <1>  -0.0970 
 18 N       -4.9080     4.1010    -1.6260 N.ar  1 <1>  -0.6200 
 19 C       -4.6390     5.3980     0.3160 C.ar  1 <1>  -0.1430 
 20 C       -4.0860     5.2880     1.7130 C.3   1 <1>  -0.0170 
 21 C       -5.4450     5.1940    -2.1500 C.ar  1 <1>   0.4770 
 22 C       -5.2070     6.4700    -0.3260 C.ar  1 <1>   0.1600 
 23 N       -5.6210     6.3750    -1.5730 N.ar  1 <1>  -0.6200 
 24 C       -5.9190     5.0760    -3.5780 C.3   1 <1>  -0.0970 
 25 H       -2.4720     2.6060    -1.0760 H     1 <1>   0.0800 
 26 H       -1.9190     3.8890    -0.0370 H     1 <1>   0.0800 
 27 H       -2.7240     1.1000     2.3860 H     1 <1>   0.0800 
 28 H       -1.8720    -0.0670     1.4140 H     1 <1>   0.0800 
 29 H        1.3230     3.8020     2.2130 H     1 <1>   0.1500 
 30 H       -0.0080     2.4390    -1.5760 H     1 <1>   0.1500 
 31 H       -4.3080    -0.2320     1.0440 H     1 <1>   0.0800 
 32 H       -3.4550     0.1990    -0.4000 H     1 <1>   0.0800 
 33 H       -5.1420     1.7120    -0.5430 H     1 <1>   0.0800 
 34 H       -5.4210     1.7910     1.1530 H     1 <1>   0.0800 
 35 H       -2.9620     3.5760     2.4300 H     1 <1>   0.0800 
 36 H       -4.6900     3.3890     2.4610 H     1 <1>   0.0800 
 37 H        2.8540     5.5610    -1.1370 H     1 <1>   0.1500 
 38 H        0.5680     3.9970    -3.4970 H     1 <1>   0.0800 
 39 H        2.2170     3.4190    -3.4290 H     1 <1>   0.0800 
 40 H        1.8810     5.1320    -3.3230 H     1 <1>   0.0800 
 41 H       -3.1500     5.8170     1.7750 H     1 <1>   0.0800 
 42 H       -4.7740     5.6750     2.4450 H     1 <1>   0.0800 
 43 H       -5.3240     7.4120     0.1800 H     1 <1>   0.1500 
 44 H       -5.2630     4.4290    -4.1300 H     1 <1>   0.0800 
 45 H       -5.9310     6.0420    -4.0470 H     1 <1>   0.0800 
 46 H       -6.9110     4.6660    -3.5890 H     1 <1>   0.0800 
@<TRIPOS>BOND
  1   1   2  2   
  2   2   3  am  
  3   2   4  1   
  4   3   5  1   
  5   3   6  1   
  6   4   7  ar  
  7   4   8  ar  
  8   5   9  1   
  9   5  25  1   
 10   5  26  1   
 11   6  10  1   
 12   6  27  1   
 13   6  28  1   
 14   7  11  ar  
 15   7  29  1   
 16   8  12  ar  
 17   8  30  1   
 18   9  13  1   
 19   9  14  1   
 20   9  15  1   
 21  10  14  1   
 22  10  31  1   
 23  10  32  1   
 24  11  16  ar  
 25  12  16  ar  
 26  12  17  1   
 27  13  18  ar  
 28  13  19  ar  
 29  14  33  1   
 30  14  34  1   
 31  15  20  1   
 32  15  35  1   
 33  15  36  1   
 34  16  37  1   
 35  17  38  1   
 36  17  39  1   
 37  17  40  1   
 38  18  21  ar  
 39  19  20  1   
 40  19  22  ar  
 41  20  41  1   
 42  20  42  1   
 43  21  23  ar  
 44  21  24  1   
 45  22  23  ar  
 46  22  43  1   
 47  24  44  1   
 48  24  45  1   
 49  24  46  1   
@<TRIPOS>SUBSTRUCTURE
  1 ****   5 GROUP 4 **** **** 0

# MOE 2024.06 (io_trps.svl 2023.06)
