@<TRIPOS>MOLECULE
NONAME
57 60 1 0 0 
SMALL
USER_CHARGES


@<TRIPOS>ATOM
  1 O        0.0930    -0.2620    -1.0860 O.2   1 <1>  -0.5700 
  2 C       -0.8760     0.4570    -1.1190 C.2   1 <1>   0.5690 
  3 N       -2.1420    -0.0530    -1.2150 N.am  1 <1>  -0.6600 
  4 C       -0.6520     1.9520    -1.0320 C.3   1 <1>  -0.0990 
  5 C       -3.4110     0.7140    -1.2820 C.3   1 <1>   0.1400 
  6 C       -2.4040    -1.5090    -1.2440 C.3   1 <1>   0.1400 
  7 C       -0.6870     2.4210     0.4240 C.3   1 <1>   0.0210 
  8 C       -4.5100    -0.3430    -1.4110 C.3   1 <1>   0.2000 
  9 C       -3.8920    -1.6520    -0.9240 C.3   1 <1>  -0.0800 
 10 C       -0.5510     3.9320     0.4850 C.2   1 <1>  -0.1810 
 11 O       -5.6110    -0.0220    -0.6320 O.3   1 <1>  -0.6800 
 12 C       -4.5400    -2.8930    -1.5600 C.3   1 <1>  -0.0170 
 13 C       -1.5870     4.8630     0.4840 C.2   1 <1>   0.1080 
 14 C        0.5760     4.6740     0.5440 C.2   1 <1>  -0.3320 
 15 C       -3.9200    -4.1760    -1.0150 C.ar  1 <1>  -0.1440 
 16 N       -1.1510     6.0800     0.5380 N.2   1 <1>  -0.7070 
 17 C       -3.0650     4.5480     0.4270 C.3   1 <1>  -0.0590 
 18 N        0.1850     5.9670     0.5780 N.pl3 1 <1>   0.3140 
 19 C        2.0300     4.2240     0.5650 C.3   1 <1>  -0.0600 
 20 C       -4.2590    -4.7000     0.2550 C.ar  1 <1>   0.0000 
 21 C       -2.9960    -4.8580    -1.7520 C.ar  1 <1>  -0.1500 
 22 C        1.0420     7.1560     0.6440 C.3   1 <1>   0.0160 
 23 C       -3.6030    -5.8830     0.6740 C.ar  1 <1>   0.3100 
 24 C       -5.2100    -4.1250     1.1310 C.ar  1 <1>  -0.1500 
 25 C       -2.4120    -6.0250    -1.2460 C.ar  1 <1>   0.1600 
 26 N       -2.6860    -6.5320    -0.0860 N.ar  1 <1>  -0.6200 
 27 C       -3.9080    -6.4190     1.9360 C.ar  1 <1>  -0.1500 
 28 C       -5.4860    -4.6740     2.3530 C.ar  1 <1>  -0.1500 
 29 C       -4.8270    -5.8350     2.7640 C.ar  1 <1>  -0.1500 
 30 H        0.3110     2.1810    -1.4510 H     1 <1>   0.0800 
 31 H       -1.3860     2.4770    -1.6110 H     1 <1>   0.0800 
 32 H       -3.5320     1.2870    -0.3800 H     1 <1>   0.0800 
 33 H       -3.4120     1.3620    -2.1410 H     1 <1>   0.0800 
 34 H       -2.1810    -1.8820    -2.2290 H     1 <1>   0.0800 
 35 H       -1.7930    -2.0270    -0.5220 H     1 <1>   0.0800 
 36 H        0.1170     1.9610     0.9690 H     1 <1>   0.0800 
 37 H       -1.6070     2.1220     0.8920 H     1 <1>   0.0800 
 38 H       -4.8280    -0.4140    -2.4370 H     1 <1>   0.0800 
 39 H       -3.9750    -1.7080     0.1470 H     1 <1>   0.0800 
 40 H       -5.3650    -0.0020     0.3130 H     1 <1>   0.4000 
 41 H       -4.4100    -2.8550    -2.6280 H     1 <1>   0.0800 
 42 H       -5.6000    -2.8930    -1.3780 H     1 <1>   0.0800 
 43 H       -3.2850     3.9930    -0.4640 H     1 <1>   0.0800 
 44 H       -3.6290     5.4630     0.4150 H     1 <1>   0.0800 
 45 H       -3.3480     3.9780     1.2910 H     1 <1>   0.0800 
 46 H        2.0990     3.1540     0.4900 H     1 <1>   0.0800 
 47 H        2.4980     4.5320     1.4820 H     1 <1>   0.0800 
 48 H        2.5620     4.6550    -0.2640 H     1 <1>   0.0800 
 49 H       -2.6910    -4.5240    -2.7270 H     1 <1>   0.1500 
 50 H        1.6460     7.1050     1.5300 H     1 <1>   0.0800 
 51 H        0.4230     8.0330     0.6800 H     1 <1>   0.0800 
 52 H        1.6650     7.1890    -0.2280 H     1 <1>   0.0800 
 53 H       -5.7330    -3.2360     0.8330 H     1 <1>   0.1500 
 54 H       -1.6860    -6.5310    -1.8600 H     1 <1>   0.1500 
 55 H       -3.3900    -7.3130     2.2300 H     1 <1>   0.1500 
 56 H       -6.2110    -4.2250     3.0100 H     1 <1>   0.1500 
 57 H       -5.0510    -6.2570     3.7290 H     1 <1>   0.1500 
@<TRIPOS>BOND
  1   1   2  2   
  2   2   3  am  
  3   2   4  1   
  4   3   5  1   
  5   3   6  1   
  6   4   7  1   
  7   4  30  1   
  8   4  31  1   
  9   5   8  1   
 10   5  32  1   
 11   5  33  1   
 12   6   9  1   
 13   6  34  1   
 14   6  35  1   
 15   7  10  1   
 16   7  36  1   
 17   7  37  1   
 18   8   9  1   
 19   8  11  1   
 20   8  38  1   
 21   9  12  1   
 22   9  39  1   
 23  10  13  1   
 24  10  14  2   
 25  11  40  1   
 26  12  15  1   
 27  12  41  1   
 28  12  42  1   
 29  13  16  2   
 30  13  17  1   
 31  14  18  1   
 32  14  19  1   
 33  15  20  ar  
 34  15  21  ar  
 35  16  18  1   
 36  17  43  1   
 37  17  44  1   
 38  17  45  1   
 39  18  22  1   
 40  19  46  1   
 41  19  47  1   
 42  19  48  1   
 43  20  23  ar  
 44  20  24  ar  
 45  21  25  ar  
 46  21  49  1   
 47  22  50  1   
 48  22  51  1   
 49  22  52  1   
 50  23  26  ar  
 51  23  27  ar  
 52  24  28  ar  
 53  24  53  1   
 54  25  26  ar  
 55  25  54  1   
 56  27  29  ar  
 57  27  55  1   
 58  28  29  ar  
 59  28  56  1   
 60  29  57  1   
@<TRIPOS>SUBSTRUCTURE
  1 ****   3 GROUP 4 **** **** 0

# MOE 2024.06 (io_trps.svl 2023.06)
