@<TRIPOS>MOLECULE
NONAME
38 39 1 0 0 
SMALL
USER_CHARGES


@<TRIPOS>ATOM
  1 CL       0.9620    -2.2560     3.3890 Cl    1 <1>  -0.1770 
  2 C        1.3390    -2.0590     1.6860 C.ar  1 <1>   0.1770 
  3 C        1.4040    -3.1560     0.8360 C.ar  1 <1>   0.4100 
  4 C        1.5690    -0.8170     1.1620 C.ar  1 <1>   0.1600 
  5 N        1.6840    -2.9930    -0.4440 N.ar  1 <1>  -0.6200 
  6 N        1.1800    -4.4380     1.2810 N.pl3 1 <1>  -0.8690 
  7 N        1.8470    -0.6440    -0.1190 N.ar  1 <1>  -0.6200 
  8 C        1.8850    -1.7500    -0.8460 C.ar  1 <1>   0.4770 
  9 C        0.7420    -5.5290     0.3770 C.3   1 <1>   0.4690 
 10 C        2.1920    -1.5790    -2.3130 C.3   1 <1>  -0.0960 
 11 C       -0.7690    -5.4590     0.1190 C.2   1 <1>   0.2980 
 12 C        1.1730    -6.8430     1.0280 C.3   1 <1>  -0.2400 
 13 O       -1.1940    -4.6050    -0.7800 O.3   1 <1>  -0.0190 
 14 N       -1.6840    -6.1440     0.6900 N.2   1 <1>  -0.5650 
 15 N       -2.4820    -4.7610    -0.7840 N.2   1 <1>  -0.4100 
 16 C       -2.7530    -5.6600     0.0750 C.2   1 <1>   0.3350 
 17 C       -4.1500    -6.1590     0.4000 C.3   1 <1>   0.0210 
 18 C       -4.3820    -7.6200    -0.0360 C.3   1 <1>  -0.0800 
 19 C       -4.2470    -7.7860    -1.5570 C.3   1 <1>  -0.2400 
 20 C       -5.7670    -8.1000     0.4150 C.3   1 <1>  -0.2400 
 21 H        1.5250     0.0500     1.7970 H     1 <1>   0.1500 
 22 H        0.7790    -4.5230     2.2180 H     1 <1>   0.4000 
 23 H        1.2480    -5.4450    -0.5700 H     1 <1>   0.0800 
 24 H        3.0730    -2.1400    -2.5620 H     1 <1>   0.0800 
 25 H        2.3580    -0.5440    -2.5480 H     1 <1>   0.0800 
 26 H        1.3660    -1.9420    -2.8960 H     1 <1>   0.0800 
 27 H        0.6940    -6.9670     1.9820 H     1 <1>   0.0800 
 28 H        2.2400    -6.8570     1.1560 H     1 <1>   0.0800 
 29 H        0.8920    -7.6670     0.3960 H     1 <1>   0.0800 
 30 H       -4.8680    -5.5190    -0.0800 H     1 <1>   0.0800 
 31 H       -4.2910    -6.0740     1.4620 H     1 <1>   0.0800 
 32 H       -3.6390    -8.2380     0.4410 H     1 <1>   0.0800 
 33 H       -4.9580    -7.1660    -2.0730 H     1 <1>   0.0800 
 34 H       -4.4180    -8.8110    -1.8370 H     1 <1>   0.0800 
 35 H       -3.2580    -7.5150    -1.8820 H     1 <1>   0.0800 
 36 H       -6.5420    -7.5100    -0.0430 H     1 <1>   0.0800 
 37 H       -5.8620    -8.0230     1.4840 H     1 <1>   0.0800 
 38 H       -5.9130    -9.1290     0.1380 H     1 <1>   0.0800 
@<TRIPOS>BOND
  1   1   2  1   
  2   2   3  ar  
  3   2   4  ar  
  4   3   5  ar  
  5   3   6  1   
  6   4   7  ar  
  7   4  21  1   
  8   5   8  ar  
  9   6   9  1   
 10   6  22  1   
 11   7   8  ar  
 12   8  10  1   
 13   9  11  1   
 14   9  12  1   
 15   9  23  1   
 16  10  24  1   
 17  10  25  1   
 18  10  26  1   
 19  11  13  1   
 20  11  14  2   
 21  12  27  1   
 22  12  28  1   
 23  12  29  1   
 24  13  15  1   
 25  14  16  1   
 26  15  16  2   
 27  16  17  1   
 28  17  18  1   
 29  17  30  1   
 30  17  31  1   
 31  18  19  1   
 32  18  20  1   
 33  18  32  1   
 34  19  33  1   
 35  19  34  1   
 36  19  35  1   
 37  20  36  1   
 38  20  37  1   
 39  20  38  1   
@<TRIPOS>SUBSTRUCTURE
  1 ****  11 GROUP 4 **** **** 0

# MOE 2024.06 (io_trps.svl 2023.06)
