@<TRIPOS>MOLECULE
NONAME
33 33 1 0 0 
SMALL
USER_CHARGES


@<TRIPOS>ATOM
  1 O        0.3460     0.2780     0.9660 O.2   1 <1>  -0.5700 
  2 C        0.8270     0.5620    -0.1100 C.2   1 <1>   0.7800 
  3 O        0.6600     1.7660    -0.6560 O.3   1 <1>  -0.4300 
  4 N        1.5780    -0.2880    -0.8630 N.am  1 <1>  -0.5470 
  5 C       -0.0610     2.8550    -0.1180 C.3   1 <1>   0.2800 
  6 C        1.9880    -1.6150    -0.6810 C.ar  1 <1>   0.1170 
  7 C        0.0730     3.9730    -1.1520 C.3   1 <1>  -0.2400 
  8 C       -1.5410     2.4860     0.0390 C.3   1 <1>  -0.2400 
  9 C        0.5720     3.3100     1.2030 C.3   1 <1>  -0.2400 
 10 C        1.4980    -2.4450     0.3220 C.ar  1 <1>  -0.1500 
 11 C        2.9330    -2.1430    -1.5520 C.ar  1 <1>  -0.1500 
 12 C        1.9400    -3.7480     0.4460 C.ar  1 <1>  -0.1500 
 13 C        3.3730    -3.4470    -1.4260 C.ar  1 <1>  -0.1500 
 14 C        2.8880    -4.2830    -0.4220 C.ar  1 <1>   0.0280 
 15 C        3.3290    -5.6510    -0.2640 C.2   1 <1>  -0.1780 
 16 C        4.2190    -6.3360    -1.0020 C.2   1 <1>  -0.3000 
 17 H        1.9110     0.1640    -1.7090 H     1 <1>   0.3700 
 18 H       -0.3440     3.6630    -2.0930 H     1 <1>   0.0800 
 19 H        1.1070     4.2290    -1.2930 H     1 <1>   0.0800 
 20 H       -0.4510     4.8520    -0.8230 H     1 <1>   0.0800 
 21 H       -1.9330     2.1060    -0.8870 H     1 <1>   0.0800 
 22 H       -2.1080     3.3560     0.3160 H     1 <1>   0.0800 
 23 H       -1.6800     1.7520     0.8100 H     1 <1>   0.0800 
 24 H        1.6230     3.4920     1.0720 H     1 <1>   0.0800 
 25 H        0.4330     2.5750     1.9740 H     1 <1>   0.0800 
 26 H        0.1070     4.2200     1.5370 H     1 <1>   0.0800 
 27 H        0.7630    -2.0810     1.0150 H     1 <1>   0.1500 
 28 H        3.3320    -1.5290    -2.3380 H     1 <1>   0.1500 
 29 H        1.5400    -4.3610     1.2340 H     1 <1>   0.1500 
 30 H        4.1050    -3.8190    -2.1180 H     1 <1>   0.1500 
 31 H        2.8620    -6.1560     0.5640 H     1 <1>   0.1500 
 32 H        4.4870    -7.3590    -0.8080 H     1 <1>   0.1500 
 33 H        4.7490    -5.9400    -1.8500 H     1 <1>   0.1500 
@<TRIPOS>BOND
  1   1   2  2   
  2   2   3  1   
  3   2   4  am  
  4   3   5  1   
  5   4   6  1   
  6   4  17  1   
  7   5   7  1   
  8   5   8  1   
  9   5   9  1   
 10   6  10  ar  
 11   6  11  ar  
 12   7  18  1   
 13   7  19  1   
 14   7  20  1   
 15   8  21  1   
 16   8  22  1   
 17   8  23  1   
 18   9  24  1   
 19   9  25  1   
 20   9  26  1   
 21  10  12  ar  
 22  10  27  1   
 23  11  13  ar  
 24  11  28  1   
 25  12  14  ar  
 26  12  29  1   
 27  13  14  ar  
 28  13  30  1   
 29  14  15  1   
 30  15  16  2   
 31  15  31  1   
 32  16  32  1   
 33  16  33  1   
@<TRIPOS>SUBSTRUCTURE
  1 ****   4 GROUP 4 **** **** 0

# MOE 2024.06 (io_trps.svl 2023.06)
