@<TRIPOS>MOLECULE
NONAME
43 44 1 0 0 
SMALL
USER_CHARGES


@<TRIPOS>ATOM
  1 S        0.8140     0.7310    -0.1760 S.3   1 <1>  -0.3320 
  2 C        0.3000    -0.9940    -0.2610 C.ar  1 <1>   0.1020 
  3 C        0.1170     1.5700    -1.6890 C.3   1 <1>   0.1310 
  4 C        0.6990    -1.8180     0.7740 C.ar  1 <1>  -0.1500 
  5 C       -0.4610    -1.4880    -1.3100 C.ar  1 <1>  -0.1500 
  6 C        0.4700     3.0490    -1.7270 C.2   1 <1>   0.5690 
  7 C        0.3390    -3.1550     0.7720 C.ar  1 <1>   0.0830 
  8 C       -0.8220    -2.8250    -1.3130 C.ar  1 <1>  -0.1500 
  9 O        0.0860     3.6910    -2.6760 O.2   1 <1>  -0.5700 
 10 N        1.1960     3.5790    -0.6960 N.am  1 <1>  -0.4940 
 11 O        0.7660    -3.9030     1.8200 O.3   1 <1>  -0.3630 
 12 C       -0.4260    -3.6580    -0.2790 C.ar  1 <1>  -0.1500 
 13 C        1.6610     4.9020    -0.4950 C.2   1 <1>  -0.0880 
 14 C        0.4540    -5.2750     1.9190 C.3   1 <1>   0.0400 
 15 N        2.3590     5.3240     0.5940 N.pl3 1 <1>   0.3140 
 16 C        1.5280     5.9850    -1.2950 C.2   1 <1>  -0.1500 
 17 N        2.6710     6.6360     0.5080 N.2   1 <1>  -0.7070 
 18 C        2.7490     4.5230     1.7720 C.3   1 <1>   0.0960 
 19 C        2.1700     7.0180    -0.6240 C.2   1 <1>   0.1080 
 20 C        3.9820     3.6590     1.4690 C.3   1 <1>  -0.1600 
 21 C        2.2900     8.4380    -1.1240 C.3   1 <1>  -0.0590 
 22 C        4.3640     2.7940     2.6750 C.3   1 <1>  -0.2400 
 23 H       -0.9500     1.4500    -1.6610 H     1 <1>   0.0800 
 24 H        0.5260     1.0740    -2.5490 H     1 <1>   0.0800 
 25 H        1.2890    -1.4290     1.5820 H     1 <1>   0.1500 
 26 H       -0.7780    -0.8630    -2.1210 H     1 <1>   0.1500 
 27 H       -1.4130    -3.2200    -2.1220 H     1 <1>   0.1500 
 28 H        1.4450     2.8940     0.0220 H     1 <1>   0.3700 
 29 H       -0.7210    -4.6890    -0.3080 H     1 <1>   0.1500 
 30 H        0.8950    -5.6530     2.8240 H     1 <1>   0.0800 
 31 H        0.8680    -5.7890     1.0700 H     1 <1>   0.0800 
 32 H       -0.6150    -5.3890     1.9580 H     1 <1>   0.0800 
 33 H        1.0350     6.0490    -2.2480 H     1 <1>   0.1500 
 34 H        1.9150     3.9090     2.0570 H     1 <1>   0.0800 
 35 H        2.9650     5.2000     2.5780 H     1 <1>   0.0800 
 36 H        4.8080     4.3030     1.2180 H     1 <1>   0.0800 
 37 H        3.7830     3.0190     0.6270 H     1 <1>   0.0800 
 38 H        1.8070     8.5420    -2.0780 H     1 <1>   0.0800 
 39 H        3.3290     8.6950    -1.2230 H     1 <1>   0.0800 
 40 H        1.8300     9.1050    -0.4190 H     1 <1>   0.0800 
 41 H        4.5930     3.4120     3.5260 H     1 <1>   0.0800 
 42 H        5.2330     2.2030     2.4410 H     1 <1>   0.0800 
 43 H        3.5610     2.1270     2.9350 H     1 <1>   0.0800 
@<TRIPOS>BOND
  1   1   2  1   
  2   1   3  1   
  3   2   4  ar  
  4   2   5  ar  
  5   3   6  1   
  6   3  23  1   
  7   3  24  1   
  8   4   7  ar  
  9   4  25  1   
 10   5   8  ar  
 11   5  26  1   
 12   6   9  2   
 13   6  10  am  
 14   7  11  1   
 15   7  12  ar  
 16   8  12  ar  
 17   8  27  1   
 18  10  13  1   
 19  10  28  1   
 20  11  14  1   
 21  12  29  1   
 22  13  15  1   
 23  13  16  2   
 24  14  30  1   
 25  14  31  1   
 26  14  32  1   
 27  15  17  1   
 28  15  18  1   
 29  16  19  1   
 30  16  33  1   
 31  17  19  2   
 32  18  20  1   
 33  18  34  1   
 34  18  35  1   
 35  19  21  1   
 36  20  22  1   
 37  20  36  1   
 38  20  37  1   
 39  21  38  1   
 40  21  39  1   
 41  21  40  1   
 42  22  41  1   
 43  22  42  1   
 44  22  43  1   
@<TRIPOS>SUBSTRUCTURE
  1 ****   1 GROUP 4 **** **** 0

# MOE 2024.06 (io_trps.svl 2023.06)
