@<TRIPOS>MOLECULE
NONAME
40 41 1 0 0 
SMALL
USER_CHARGES


@<TRIPOS>ATOM
  1 CL      -1.4530    -0.9680    -1.4030 Cl    1 <1>  -0.1770 
  2 C       -2.2510     0.3430    -0.5650 C.ar  1 <1>   0.1770 
  3 C       -3.0430     0.1010     0.5470 C.ar  1 <1>   0.0860 
  4 C       -2.0670     1.6310    -1.0330 C.ar  1 <1>   0.1600 
  5 C       -3.2940    -1.2130     1.0890 C.2   1 <1>   0.5440 
  6 C       -3.5860     1.2390     1.1290 C.ar  1 <1>  -0.1500 
  7 N       -2.6030     2.7120    -0.4850 N.ar  1 <1>  -0.6200 
  8 O       -2.9920    -1.4460     2.2420 O.2   1 <1>  -0.5700 
  9 N       -3.9160    -2.1970     0.3580 N.am  1 <1>  -0.6600 
 10 C       -3.3450     2.4890     0.5890 C.ar  1 <1>   0.1600 
 11 C       -4.6780    -1.9950    -0.8990 C.3   1 <1>   0.1400 
 12 C       -4.1320    -3.5740     0.8740 C.3   1 <1>   0.1400 
 13 C       -5.7650    -3.0650    -0.8430 C.3   1 <1>   0.2000 
 14 C       -5.0820    -4.2370    -0.1340 C.3   1 <1>  -0.0800 
 15 O       -6.7960    -2.5900    -0.0470 O.3   1 <1>  -0.6800 
 16 C       -6.0620    -5.2560     0.4900 C.3   1 <1>  -0.0550 
 17 S       -5.2800    -6.7500     1.1010 S.o2  1 <1>   1.3330 
 18 O       -4.2640    -6.3690     2.0550 O.2   1 <1>  -0.6500 
 19 O       -6.3020    -7.6970     1.4840 O.2   1 <1>  -0.6500 
 20 N       -4.4990    -7.3670    -0.2770 N.am  1 <1>  -0.8490 
 21 C       -3.3120    -8.1560     0.0670 C.3   1 <1>   0.1160 
 22 C       -5.3840    -8.1540    -1.1420 C.3   1 <1>   0.1160 
 23 H       -1.4460     1.7760    -1.9000 H     1 <1>   0.1500 
 24 H       -4.1950     1.1410     2.0100 H     1 <1>   0.1500 
 25 H       -3.7830     3.3530     1.0630 H     1 <1>   0.1500 
 26 H       -5.0950    -1.0060    -0.9730 H     1 <1>   0.0800 
 27 H       -4.0280    -2.1810    -1.7370 H     1 <1>   0.0800 
 28 H       -3.1960    -4.1030     0.9430 H     1 <1>   0.0800 
 29 H       -4.5760    -3.5210     1.8550 H     1 <1>   0.0800 
 30 H       -6.1640    -3.3170    -1.8110 H     1 <1>   0.0800 
 31 H       -4.4740    -4.7440    -0.8630 H     1 <1>   0.0800 
 32 H       -6.4120    -2.2370     0.7820 H     1 <1>   0.4000 
 33 H       -6.7880    -5.5270    -0.2510 H     1 <1>   0.0800 
 34 H       -6.5940    -4.7900     1.2970 H     1 <1>   0.0800 
 35 H       -2.8350    -8.5240    -0.8250 H     1 <1>   0.0800 
 36 H       -3.5850    -8.9890     0.6940 H     1 <1>   0.0800 
 37 H       -2.6020    -7.5430     0.5970 H     1 <1>   0.0800 
 38 H       -4.8640    -8.4410    -2.0400 H     1 <1>   0.0800 
 39 H       -6.2460    -7.5720    -1.4210 H     1 <1>   0.0800 
 40 H       -5.7190    -9.0420    -0.6310 H     1 <1>   0.0800 
@<TRIPOS>BOND
  1   1   2  1   
  2   2   3  ar  
  3   2   4  ar  
  4   3   5  1   
  5   3   6  ar  
  6   4   7  ar  
  7   4  23  1   
  8   5   8  2   
  9   5   9  am  
 10   6  10  ar  
 11   6  24  1   
 12   7  10  ar  
 13   9  11  1   
 14   9  12  1   
 15  10  25  1   
 16  11  13  1   
 17  11  26  1   
 18  11  27  1   
 19  12  14  1   
 20  12  28  1   
 21  12  29  1   
 22  13  14  1   
 23  13  15  1   
 24  13  30  1   
 25  14  16  1   
 26  14  31  1   
 27  15  32  1   
 28  16  17  1   
 29  16  33  1   
 30  16  34  1   
 31  17  18  2   
 32  17  19  2   
 33  17  20  am  
 34  20  21  1   
 35  20  22  1   
 36  21  35  1   
 37  21  36  1   
 38  21  37  1   
 39  22  38  1   
 40  22  39  1   
 41  22  40  1   
@<TRIPOS>SUBSTRUCTURE
  1 ****   9 GROUP 4 **** **** 0

# MOE 2024.06 (io_trps.svl 2023.06)
