@<TRIPOS>MOLECULE
NONAME
52 56 1 0 0 
SMALL
USER_CHARGES


@<TRIPOS>ATOM
  1 O       -0.2140    -1.0880    -1.4920 O.2   1 <1>  -0.5700 
  2 C        0.6350    -1.6440    -0.8440 C.2   1 <1>   0.5690 
  3 N        0.3840    -2.1160     0.3940 N.am  1 <1>  -0.7300 
  4 C        2.0340    -1.8310    -1.3910 C.3   1 <1>  -0.0990 
  5 C        1.3960    -2.8190     1.2080 C.3   1 <1>   0.1400 
  6 C        2.5530    -3.2540    -1.0940 C.3   1 <1>  -0.0800 
  7 C        2.1820    -3.7950     0.3100 C.3   1 <1>  -0.0800 
  8 C        4.0770    -3.3760    -1.2060 C.3   1 <1>  -0.1600 
  9 C        3.5000    -4.2600     0.9460 C.3   1 <1>  -0.1600 
 10 C        4.4340    -4.5000    -0.2340 C.3   1 <1>   0.2200 
 11 N        5.8600    -4.5770     0.1970 N.am  1 <1>  -0.6600 
 12 C        6.8520    -3.7860    -0.3400 C.2   1 <1>   0.5440 
 13 C        6.2460    -5.9180     0.7170 C.3   1 <1>   0.0600 
 14 O        7.6800    -4.3170    -1.0580 O.2   1 <1>  -0.5700 
 15 C        6.9430    -2.3660    -0.0510 C.ar  1 <1>   0.0860 
 16 C        6.4790    -1.8250     1.1490 C.ar  1 <1>  -0.1500 
 17 C        7.5010    -1.4750    -0.9660 C.ar  1 <1>  -0.1500 
 18 C        6.5580    -0.4710     1.4110 C.ar  1 <1>  -0.1500 
 19 C        7.5810    -0.1210    -0.7040 C.ar  1 <1>  -0.1500 
 20 C        7.1110     0.4230     0.4930 C.ar  1 <1>   0.0540 
 21 C        7.1940     1.8460     0.7760 C.2   1 <1>   0.4620 
 22 N        6.7530     2.4250     1.8370 N.2   1 <1>  -0.4100 
 23 N        7.7570     2.7170    -0.0650 N.2   1 <1>  -0.5650 
 24 O        7.0110     3.6900     1.7350 O.3   1 <1>  -0.0190 
 25 C        7.6120     3.8010     0.5790 C.2   1 <1>   0.3930 
 26 C        8.0630     5.1820     0.1290 C.3   1 <1>  -0.0150 
 27 C        9.2360     5.3680    -0.7860 C.3   1 <1>  -0.2000 
 28 C        9.3360     5.7720     0.6550 C.3   1 <1>  -0.2000 
 29 H       -0.5500    -1.9630     0.7810 H     1 <1>   0.3700 
 30 H        2.0350    -1.6500    -2.4500 H     1 <1>   0.0800 
 31 H        2.6610    -1.0950    -0.9240 H     1 <1>   0.0800 
 32 H        2.0590    -2.0850     1.6350 H     1 <1>   0.0800 
 33 H        0.9160    -3.3570     2.0080 H     1 <1>   0.0800 
 34 H        2.1080    -3.9190    -1.8160 H     1 <1>   0.0800 
 35 H        1.5620    -4.6640     0.1650 H     1 <1>   0.0800 
 36 H        4.5170    -2.4500    -0.8910 H     1 <1>   0.0800 
 37 H        4.3880    -3.6050    -2.2100 H     1 <1>   0.0800 
 38 H        3.3620    -5.1520     1.5310 H     1 <1>   0.0800 
 39 H        3.9080    -3.4810     1.5640 H     1 <1>   0.0800 
 40 H        4.1650    -5.4330    -0.7020 H     1 <1>   0.0800 
 41 H        5.6590    -6.1630     1.5840 H     1 <1>   0.0800 
 42 H        7.2870    -5.9200     0.9920 H     1 <1>   0.0800 
 43 H        6.0930    -6.6630    -0.0450 H     1 <1>   0.0800 
 44 H        6.0570    -2.4840     1.8860 H     1 <1>   0.1500 
 45 H        7.8800    -1.8610    -1.8970 H     1 <1>   0.1500 
 46 H        6.1880    -0.0960     2.3510 H     1 <1>   0.1500 
 47 H        8.0200     0.5290    -1.4410 H     1 <1>   0.1500 
 48 H        7.2280     5.8470    -0.0040 H     1 <1>   0.1000 
 49 H        9.7730     4.4960    -1.1190 H     1 <1>   0.1000 
 50 H        9.1820     6.1320    -1.5410 H     1 <1>   0.1000 
 51 H        9.3570     6.8190     0.9010 H     1 <1>   0.1000 
 52 H        9.9500     5.1800     1.3120 H     1 <1>   0.1000 
@<TRIPOS>BOND
  1   1   2  2   
  2   2   3  am  
  3   2   4  1   
  4   3   5  1   
  5   3  29  1   
  6   4   6  1   
  7   4  30  1   
  8   4  31  1   
  9   5   7  1   
 10   5  32  1   
 11   5  33  1   
 12   6   7  1   
 13   6   8  1   
 14   6  34  1   
 15   7   9  1   
 16   7  35  1   
 17   8  10  1   
 18   8  36  1   
 19   8  37  1   
 20   9  10  1   
 21   9  38  1   
 22   9  39  1   
 23  10  11  1   
 24  10  40  1   
 25  11  12  am  
 26  11  13  1   
 27  12  14  2   
 28  12  15  1   
 29  13  41  1   
 30  13  42  1   
 31  13  43  1   
 32  15  16  ar  
 33  15  17  ar  
 34  16  18  ar  
 35  16  44  1   
 36  17  19  ar  
 37  17  45  1   
 38  18  20  ar  
 39  18  46  1   
 40  19  20  ar  
 41  19  47  1   
 42  20  21  1   
 43  21  22  2   
 44  21  23  1   
 45  22  24  1   
 46  23  25  2   
 47  24  25  1   
 48  25  26  1   
 49  26  27  1   
 50  26  28  1   
 51  26  48  1   
 52  27  28  1   
 53  27  49  1   
 54  27  50  1   
 55  28  51  1   
 56  28  52  1   
@<TRIPOS>SUBSTRUCTURE
  1 ****  18 GROUP 4 **** **** 0

# MOE 2024.06 (io_trps.svl 2023.06)
