@<TRIPOS>MOLECULE
NONAME
46 48 1 0 0 
SMALL
USER_CHARGES


@<TRIPOS>ATOM
  1 O        1.8620    -0.7620    -2.6900 O.2   1 <1>  -0.5700 
  2 C        2.2410    -1.0130    -1.5640 C.2   1 <1>   0.5440 
  3 N        3.0220    -0.0760    -0.9130 N.am  1 <1>  -0.6600 
  4 C        1.8670    -2.2750    -0.9600 C.ar  1 <1>   0.0860 
  5 C        3.4750    -0.2490     0.5230 C.3   1 <1>   0.2200 
  6 C        3.3720     1.1940    -1.6360 C.3   1 <1>   0.1400 
  7 C        2.8150    -3.2590    -0.6750 C.ar  1 <1>  -0.1500 
  8 C        0.5370    -2.5460    -0.6410 C.ar  1 <1>  -0.1500 
  9 C        3.0590     0.9360     1.4100 C.3   1 <1>   0.1200 
 10 C        4.9970    -0.5160     0.6090 C.3   1 <1>   0.3430 
 11 C        4.4760     2.0560    -0.9940 C.3   1 <1>  -0.0800 
 12 C        2.4510    -4.4490    -0.0730 C.ar  1 <1>  -0.1500 
 13 C        0.1660    -3.7350    -0.0410 C.ar  1 <1>  -0.1500 
 14 O        4.0040     1.9600     1.3760 O.3   1 <1>  -0.5600 
 15 N        5.7130    -0.1370    -0.6580 N.4   1 <1>  -0.9590 
 16 C        3.9820     2.7870     0.2630 C.3   1 <1>   0.1200 
 17 C        5.8290     1.3490    -0.7680 C.3   1 <1>   0.3430 
 18 C        1.1280    -4.6970     0.2520 C.ar  1 <1>   0.0830 
 19 C        7.1100    -0.7420    -0.6370 C.3   1 <1>   0.2370 
 20 O        0.8530    -5.8830     0.8390 O.3   1 <1>  -0.3620 
 21 C        7.9650    -0.3080     0.5560 C.2   1 <1>   0.9060 
 22 C       -0.4670    -6.2750     1.1440 C.3   1 <1>   0.0400 
 23 O        7.8460    -0.9450     1.6070 O.co2 1 <1>  -0.9000 
 24 O        8.6220     0.7300     0.4460 O.co2 1 <1>  -0.9000 
 25 H        2.9800    -1.1020     0.9480 H     1 <1>   0.0800 
 26 H        3.6830     0.9390    -2.6360 H     1 <1>   0.0800 
 27 H        2.4750     1.7820    -1.7330 H     1 <1>   0.0800 
 28 H        3.8450    -3.0920    -0.9340 H     1 <1>   0.1500 
 29 H       -0.2120    -1.8080    -0.8740 H     1 <1>   0.1500 
 30 H        3.0140     0.6050     2.4330 H     1 <1>   0.0800 
 31 H        2.0900     1.3180     1.1370 H     1 <1>   0.0800 
 32 H        5.1490    -1.5650     0.7990 H     1 <1>   0.0800 
 33 H        5.4210     0.0160     1.4470 H     1 <1>   0.0800 
 34 H        4.6750     2.8420    -1.6990 H     1 <1>   0.0800 
 35 H        3.1880    -5.2020     0.1470 H     1 <1>   0.1500 
 36 H       -0.8710    -3.8990     0.1880 H     1 <1>   0.1500 
 37 H        5.1500    -0.4830    -1.4440 H     1 <1>   0.4500 
 38 H        2.9870     3.1790     0.1340 H     1 <1>   0.0800 
 39 H        4.6410     3.6110     0.4820 H     1 <1>   0.0800 
 40 H        6.3010     1.7430     0.1210 H     1 <1>   0.0800 
 41 H        6.4780     1.5800    -1.5970 H     1 <1>   0.0800 
 42 H        7.0430    -1.8130    -0.6020 H     1 <1>   0.0800 
 43 H        7.6430    -0.4630    -1.5270 H     1 <1>   0.0800 
 44 H       -0.4320    -7.2590     1.5780 H     1 <1>   0.0800 
 45 H       -1.0440    -6.2970     0.2370 H     1 <1>   0.0800 
 46 H       -0.8840    -5.5800     1.8510 H     1 <1>   0.0800 
@<TRIPOS>BOND
  1   1   2  2   
  2   2   3  am  
  3   2   4  1   
  4   3   5  1   
  5   3   6  1   
  6   4   7  ar  
  7   4   8  ar  
  8   5   9  1   
  9   5  10  1   
 10   5  25  1   
 11   6  11  1   
 12   6  26  1   
 13   6  27  1   
 14   7  12  ar  
 15   7  28  1   
 16   8  13  ar  
 17   8  29  1   
 18   9  14  1   
 19   9  30  1   
 20   9  31  1   
 21  10  15  1   
 22  10  32  1   
 23  10  33  1   
 24  11  16  1   
 25  11  17  1   
 26  11  34  1   
 27  12  18  ar  
 28  12  35  1   
 29  13  18  ar  
 30  13  36  1   
 31  14  16  1   
 32  15  17  1   
 33  15  19  1   
 34  15  37  1   
 35  16  38  1   
 36  16  39  1   
 37  17  40  1   
 38  17  41  1   
 39  18  20  1   
 40  19  21  1   
 41  19  42  1   
 42  19  43  1   
 43  20  22  1   
 44  21  23  ar  
 45  21  24  ar  
 46  22  44  1   
 47  22  45  1   
 48  22  46  1   
@<TRIPOS>SUBSTRUCTURE
  1 ****   5 GROUP 4 **** **** 0

# MOE 2024.06 (io_trps.svl 2023.06)
