@<TRIPOS>MOLECULE
NONAME
53 55 1 0 0 
SMALL
USER_CHARGES


@<TRIPOS>ATOM
  1 CL      -0.0200     1.1810     0.7240 Cl    1 <1>  -0.1770 
  2 C       -1.7460     1.3210     0.5250 C.ar  1 <1>   0.1770 
  3 C       -2.5880     0.5950     1.3460 C.ar  1 <1>  -0.1500 
  4 C       -2.2530     2.1570    -0.4510 C.ar  1 <1>  -0.1500 
  5 C       -3.9570     0.7100     1.1840 C.ar  1 <1>  -0.1500 
  6 C       -3.6240     2.2620    -0.6050 C.ar  1 <1>  -0.1500 
  7 C       -4.5060     1.5380     0.2020 C.ar  1 <1>   0.0530 
  8 C       -5.9280     1.6650     0.0120 C.2   1 <1>   0.0870 
  9 O       -6.4520     2.8450    -0.2050 O.3   1 <1>  -0.0190 
 10 C       -6.9510     0.7700    -0.0220 C.2   1 <1>  -0.0860 
 11 N       -7.7480     2.8070    -0.3760 N.2   1 <1>  -0.4100 
 12 C       -8.0700     1.5680    -0.2690 C.2   1 <1>   0.3720 
 13 C       -6.9980    -0.6490     0.1460 C.2   1 <1>   0.7160 
 14 N       -9.3740     1.0940    -0.3920 N.pl3 1 <1>  -0.8520 
 15 O       -6.5500    -1.1570     1.1570 O.2   1 <1>  -0.5700 
 16 N       -7.6010    -1.4580    -0.7930 N.am  1 <1>  -0.6600 
 17 C      -10.4210     1.8700     0.3240 C.3   1 <1>   0.2090 
 18 C       -8.2010    -2.7580    -0.4020 C.3   1 <1>   0.2350 
 19 C       -7.7920    -1.0540    -2.2160 C.3   1 <1>   0.0600 
 20 C      -11.7580     1.1320     0.2540 C.3   1 <1>   0.1200 
 21 C       -9.6620    -2.5200     0.0000 C.3   1 <1>  -0.1950 
 22 O      -12.7020     1.8350     1.0000 O.3   1 <1>  -0.5600 
 23 C      -10.7210    -3.5720    -0.0540 C.3   1 <1>  -0.1900 
 24 C      -10.7580    -2.4410    -1.0330 C.3   1 <1>  -0.2000 
 25 C      -13.9700     1.2650     0.9840 C.3   1 <1>   0.0400 
 26 C      -10.4190    -4.9810    -0.5800 C.3   1 <1>  -0.1450 
 27 C      -11.7650    -3.5970     1.0670 C.3   1 <1>  -0.1450 
 28 H       -2.1740    -0.0470     2.1020 H     1 <1>   0.1500 
 29 H       -1.5810     2.7160    -1.0760 H     1 <1>   0.1500 
 30 H       -4.6070     0.1550     1.8360 H     1 <1>   0.1500 
 31 H       -4.0230     2.9140    -1.3630 H     1 <1>   0.1500 
 32 H       -9.4300     0.0910    -0.1770 H     1 <1>   0.4000 
 33 H      -10.5200     2.8390    -0.1340 H     1 <1>   0.0800 
 34 H      -10.1320     1.9960     1.3540 H     1 <1>   0.0800 
 35 H       -7.6650    -3.1870     0.4280 H     1 <1>   0.0800 
 36 H       -8.1340    -3.4440    -1.2280 H     1 <1>   0.0800 
 37 H       -7.1770    -0.2040    -2.4580 H     1 <1>   0.0800 
 38 H       -8.8220    -0.7950    -2.3900 H     1 <1>   0.0800 
 39 H       -7.5190    -1.8660    -2.8670 H     1 <1>   0.0800 
 40 H      -11.6610     0.1470     0.6750 H     1 <1>   0.0800 
 41 H      -12.0940     1.0770    -0.7670 H     1 <1>   0.0800 
 42 H       -9.7170    -1.8640     0.8510 H     1 <1>   0.1000 
 43 H      -10.5250    -2.6450    -2.0640 H     1 <1>   0.1000 
 44 H      -11.5200    -1.6890    -0.9330 H     1 <1>   0.1000 
 45 H      -14.6190     1.8760     1.5860 H     1 <1>   0.0800 
 46 H      -13.9210     0.2720     1.3980 H     1 <1>   0.0800 
 47 H      -14.3350     1.2370    -0.0290 H     1 <1>   0.0800 
 48 H       -9.7660    -4.9540    -1.4320 H     1 <1>   0.0800 
 49 H      -11.3310    -5.4660    -0.8800 H     1 <1>   0.0800 
 50 H       -9.9550    -5.5710     0.1910 H     1 <1>   0.0800 
 51 H      -11.9880    -2.6020     1.4080 H     1 <1>   0.0800 
 52 H      -11.3970    -4.1670     1.9010 H     1 <1>   0.0800 
 53 H      -12.6770    -4.0470     0.7160 H     1 <1>   0.0800 
@<TRIPOS>BOND
  1   1   2  1   
  2   2   3  ar  
  3   2   4  ar  
  4   3   5  ar  
  5   3  28  1   
  6   4   6  ar  
  7   4  29  1   
  8   5   7  ar  
  9   5  30  1   
 10   6   7  ar  
 11   6  31  1   
 12   7   8  1   
 13   8   9  1   
 14   8  10  2   
 15   9  11  1   
 16  10  12  1   
 17  10  13  1   
 18  11  12  2   
 19  12  14  1   
 20  13  15  2   
 21  13  16  am  
 22  14  17  1   
 23  14  32  1   
 24  16  18  1   
 25  16  19  1   
 26  17  20  1   
 27  17  33  1   
 28  17  34  1   
 29  18  21  1   
 30  18  35  1   
 31  18  36  1   
 32  19  37  1   
 33  19  38  1   
 34  19  39  1   
 35  20  22  1   
 36  20  40  1   
 37  20  41  1   
 38  21  23  1   
 39  21  24  1   
 40  21  42  1   
 41  22  25  1   
 42  23  24  1   
 43  23  26  1   
 44  23  27  1   
 45  24  43  1   
 46  24  44  1   
 47  25  45  1   
 48  25  46  1   
 49  25  47  1   
 50  26  48  1   
 51  26  49  1   
 52  26  50  1   
 53  27  51  1   
 54  27  52  1   
 55  27  53  1   
@<TRIPOS>SUBSTRUCTURE
  1 ****  10 GROUP 4 **** **** 0

# MOE 2024.06 (io_trps.svl 2023.06)
