@<TRIPOS>MOLECULE
NONAME
35 37 1 0 0 
SMALL
USER_CHARGES


@<TRIPOS>ATOM
  1 F        0.8080     0.1520    -2.4010 F     1 <1>  -0.1900 
  2 C        1.5900     0.6630    -1.4900 C.ar  1 <1>   0.1900 
  3 C        2.2190    -0.1830    -0.5810 C.ar  1 <1>   0.0860 
  4 C        1.7470     2.0360    -1.4840 C.ar  1 <1>  -0.1500 
  5 C        3.0310     0.4560     0.3520 C.ar  1 <1>   0.1900 
  6 C        2.0500    -1.6100    -0.6080 C.2   1 <1>   0.5440 
  7 C        2.5660     2.6300    -0.5350 C.ar  1 <1>   0.0830 
  8 F        3.6650    -0.2610     1.2400 F     1 <1>  -0.1900 
  9 C        3.2160     1.8250     0.3970 C.ar  1 <1>  -0.1500 
 10 O        2.7340    -2.2760    -1.3650 O.2   1 <1>  -0.5700 
 11 N        1.1420    -2.2260     0.2110 N.am  1 <1>  -0.6600 
 12 O        2.6830     3.9750    -0.5790 O.3   1 <1>  -0.3630 
 13 C        0.1750    -1.5310     1.1060 C.3   1 <1>   0.2350 
 14 C        0.8590    -3.6890     0.1970 C.3   1 <1>   0.2350 
 15 C        3.4920     4.6810     0.3360 C.3   1 <1>   0.0400 
 16 C       -1.0000    -2.4810     1.2480 C.3   1 <1>  -0.2420 
 17 C       -0.5700    -3.8220     0.6980 C.3   1 <1>  -0.2420 
 18 C       -1.8690    -2.0840     2.4470 C.2   1 <1>   0.9470 
 19 C       -1.6780    -3.0520     0.0270 C.3   1 <1>  -0.2000 
 20 C       -0.8430    -5.2440     1.1960 C.2   1 <1>   0.9470 
 21 O       -3.0900    -1.9310     2.3010 O.co2 1 <1>  -0.9000 
 22 O       -1.3100    -1.7470     3.5010 O.co2 1 <1>  -0.9000 
 23 O       -1.6940    -5.9380     0.6210 O.co2 1 <1>  -0.9000 
 24 O       -0.1030    -5.7290     2.0620 O.co2 1 <1>  -0.9000 
 25 H        1.2380     2.6450    -2.2090 H     1 <1>   0.1500 
 26 H        3.8590     2.2350     1.1530 H     1 <1>   0.1500 
 27 H        0.6390    -1.3680     2.0640 H     1 <1>   0.0800 
 28 H       -0.1520    -0.5950     0.6920 H     1 <1>   0.0800 
 29 H        0.9600    -4.0980    -0.7920 H     1 <1>   0.0800 
 30 H        1.5380    -4.1880     0.8690 H     1 <1>   0.0800 
 31 H        3.4260     5.7280     0.1000 H     1 <1>   0.0800 
 32 H        4.5100     4.3480     0.2350 H     1 <1>   0.0800 
 33 H        3.1260     4.5080     1.3330 H     1 <1>   0.0800 
 34 H       -1.5050    -2.6080    -0.9350 H     1 <1>   0.1000 
 35 H       -2.6810    -3.4300     0.1340 H     1 <1>   0.1000 
@<TRIPOS>BOND
  1   1   2  1   
  2   2   3  ar  
  3   2   4  ar  
  4   3   5  ar  
  5   3   6  1   
  6   4   7  ar  
  7   4  25  1   
  8   5   8  1   
  9   5   9  ar  
 10   6  10  2   
 11   6  11  am  
 12   7   9  ar  
 13   7  12  1   
 14   9  26  1   
 15  11  13  1   
 16  11  14  1   
 17  12  15  1   
 18  13  16  1   
 19  13  27  1   
 20  13  28  1   
 21  14  17  1   
 22  14  29  1   
 23  14  30  1   
 24  15  31  1   
 25  15  32  1   
 26  15  33  1   
 27  16  17  1   
 28  16  18  1   
 29  16  19  1   
 30  17  19  1   
 31  17  20  1   
 32  18  21  ar  
 33  18  22  ar  
 34  19  34  1   
 35  19  35  1   
 36  20  23  ar  
 37  20  24  ar  
@<TRIPOS>SUBSTRUCTURE
  1 ****  13 GROUP 4 **** **** 0

# MOE 2024.06 (io_trps.svl 2023.06)
