@<TRIPOS>MOLECULE
NONAME
46 48 1 0 0 
SMALL
USER_CHARGES


@<TRIPOS>ATOM
  1 F       -0.4680     0.2140     0.5480 F     1 <1>  -0.1900 
  2 C       -1.7300     0.5450     0.4510 C.ar  1 <1>   0.1900 
  3 C       -2.1800     1.4870    -0.4810 C.ar  1 <1>   0.0830 
  4 C       -2.5990    -0.0830     1.3220 C.ar  1 <1>  -0.1500 
  5 O       -1.4250     2.1730    -1.3880 O.3   1 <1>  -0.3630 
  6 C       -3.5360     1.7710    -0.5040 C.ar  1 <1>  -0.1500 
  7 C       -3.9470     0.2240     1.2720 C.ar  1 <1>  -0.1500 
  8 C       -0.0350     1.9830    -1.5300 C.3   1 <1>   0.0400 
  9 C       -4.4450     1.1530     0.3570 C.ar  1 <1>   0.0530 
 10 C       -5.8450     1.4890     0.3010 C.2   1 <1>   0.0870 
 11 O       -6.1920     2.7470     0.2020 O.3   1 <1>  -0.0190 
 12 C       -6.9960     0.7600     0.3290 C.2   1 <1>  -0.0860 
 13 N       -7.4840     2.9220     0.1740 N.2   1 <1>  -0.4100 
 14 C       -7.9930     1.7440     0.2520 C.2   1 <1>   0.3720 
 15 C       -7.2120    -0.6560     0.3910 C.2   1 <1>   0.7160 
 16 N       -9.3790     1.5190     0.2570 N.pl3 1 <1>  -0.8210 
 17 O       -6.2900    -1.4490     0.4060 O.2   1 <1>  -0.5700 
 18 N       -8.4750    -1.1600     0.4230 N.am  1 <1>  -0.7300 
 19 C      -10.0480     2.1030     1.4530 C.3   1 <1>   0.1290 
 20 C      -10.0380     1.9780    -0.9980 C.3   1 <1>   0.1290 
 21 C       -8.8570    -2.5820     0.5870 C.3   1 <1>   0.1400 
 22 C       -8.6140    -3.3450    -0.7150 C.3   1 <1>   0.0960 
 23 N       -8.9930    -4.7540    -0.5360 N.pl3 1 <1>   0.3140 
 24 N      -10.2660    -5.1550    -0.4670 N.2   1 <1>  -0.4180 
 25 C       -8.1870    -5.8060    -0.3930 C.2   1 <1>  -0.3020 
 26 N      -10.2820    -6.4310    -0.2870 N.2   1 <1>  -0.2270 
 27 C       -9.0140    -6.8500    -0.2390 C.2   1 <1>   0.0770 
 28 H       -2.2240    -0.8030     2.0270 H     1 <1>   0.1500 
 29 H       -3.8950     2.4950    -1.2130 H     1 <1>   0.1500 
 30 H       -4.6230    -0.2630     1.9520 H     1 <1>   0.1500 
 31 H        0.3110     2.6240    -2.3210 H     1 <1>   0.0800 
 32 H        0.1550     0.9560    -1.7860 H     1 <1>   0.0800 
 33 H        0.4520     2.2480    -0.6080 H     1 <1>   0.0800 
 34 H       -9.2260    -0.4500     0.3980 H     1 <1>   0.3700 
 35 H       -9.5360     1.7920     2.3480 H     1 <1>   0.0800 
 36 H      -11.0700     1.7680     1.5050 H     1 <1>   0.0800 
 37 H      -10.0300     3.1790     1.4020 H     1 <1>   0.0800 
 38 H       -9.5180     1.5780    -1.8520 H     1 <1>   0.0800 
 39 H      -10.0200     3.0540    -1.0570 H     1 <1>   0.0800 
 40 H      -11.0590     1.6390    -1.0240 H     1 <1>   0.0800 
 41 H       -9.8980    -2.6400     0.8600 H     1 <1>   0.0800 
 42 H       -8.2640    -3.0150     1.3750 H     1 <1>   0.0800 
 43 H       -7.5760    -3.2980    -0.9880 H     1 <1>   0.0800 
 44 H       -9.2130    -2.9310    -1.5050 H     1 <1>   0.0800 
 45 H       -7.1140    -5.7510    -0.4070 H     1 <1>   0.1500 
 46 H       -8.7690    -7.8880    -0.0940 H     1 <1>   0.1500 
@<TRIPOS>BOND
  1   1   2  1   
  2   2   3  ar  
  3   2   4  ar  
  4   3   5  1   
  5   3   6  ar  
  6   4   7  ar  
  7   4  28  1   
  8   5   8  1   
  9   6   9  ar  
 10   6  29  1   
 11   7   9  ar  
 12   7  30  1   
 13   8  31  1   
 14   8  32  1   
 15   8  33  1   
 16   9  10  1   
 17  10  11  1   
 18  10  12  2   
 19  11  13  1   
 20  12  14  1   
 21  12  15  1   
 22  13  14  2   
 23  14  16  1   
 24  15  17  2   
 25  15  18  am  
 26  16  19  1   
 27  16  20  1   
 28  18  21  1   
 29  18  34  1   
 30  19  35  1   
 31  19  36  1   
 32  19  37  1   
 33  20  38  1   
 34  20  39  1   
 35  20  40  1   
 36  21  22  1   
 37  21  41  1   
 38  21  42  1   
 39  22  23  1   
 40  22  43  1   
 41  22  44  1   
 42  23  24  1   
 43  23  25  1   
 44  24  26  2   
 45  25  27  2   
 46  25  45  1   
 47  26  27  1   
 48  27  46  1   
@<TRIPOS>SUBSTRUCTURE
  1 ****  15 GROUP 4 **** **** 0

# MOE 2024.06 (io_trps.svl 2023.06)
