@<TRIPOS>MOLECULE
NONAME
55 58 1 0 0 
SMALL
USER_CHARGES


@<TRIPOS>ATOM
  1 S       -1.7980    -3.1490    -2.6210 S.3   1 <1>  -0.0800 
  2 C       -2.7340    -4.5630    -2.1540 C.2   1 <1>  -0.1400 
  3 C       -3.2520    -2.2760    -3.0670 C.2   1 <1>  -0.1100 
  4 C       -4.0480    -4.3410    -2.3540 C.2   1 <1>  -0.1500 
  5 C       -1.9520    -5.7600    -1.6470 C.3   1 <1>   0.5230 
  6 C       -4.3410    -3.0380    -2.8680 C.2   1 <1>  -0.1500 
  7 N       -1.9170    -5.8130    -0.1550 N.4   1 <1>  -0.9590 
  8 C       -1.7180    -4.4980     0.5310 C.3   1 <1>   0.3430 
  9 C       -0.9600    -6.8290     0.3440 C.3   1 <1>   0.3430 
 10 C       -2.6790    -4.3510     1.7250 C.3   1 <1>   0.1100 
 11 C       -1.4180    -7.4420     1.6700 C.3   1 <1>  -0.1600 
 12 N       -2.8770    -5.5940     2.5010 N.3   1 <1>  -0.8100 
 13 C       -1.7290    -6.4570     2.8060 C.3   1 <1>   0.1100 
 14 C       -4.2520    -6.1160     2.6670 C.3   1 <1>   0.2900 
 15 C       -4.6690    -6.9300     1.4570 C.2   1 <1>  -0.0400 
 16 O       -4.7180    -6.3670     0.2820 O.3   1 <1>  -0.0190 
 17 C       -5.0010    -8.2220     1.3070 C.2   1 <1>  -0.1500 
 18 N       -5.0000    -7.2200    -0.6540 N.2   1 <1>  -0.4100 
 19 C       -5.2030    -8.3480    -0.0660 C.2   1 <1>   0.1080 
 20 C       -5.5880    -9.6480    -0.7650 C.3   1 <1>   0.1010 
 21 C       -4.3970   -10.2050    -1.5630 C.3   1 <1>  -0.1600 
 22 C       -6.8110    -9.4510    -1.6780 C.3   1 <1>  -0.1600 
 23 C       -4.7660   -11.5030    -2.2950 C.3   1 <1>  -0.1600 
 24 C       -7.1830   -10.7490    -2.4090 C.3   1 <1>  -0.1600 
 25 C       -5.9890   -11.3010    -3.1990 C.3   1 <1>  -0.1600 
 26 H       -3.1370    -1.2720    -3.4390 H     1 <1>   0.1500 
 27 H       -4.8480    -5.0380    -2.1670 H     1 <1>   0.1500 
 28 H       -0.9510    -5.7110    -2.0400 H     1 <1>   0.0800 
 29 H       -2.4170    -6.6590    -2.0190 H     1 <1>   0.0800 
 30 H       -5.3570    -2.7400    -3.0650 H     1 <1>   0.1500 
 31 H       -2.8570    -6.1220     0.1480 H     1 <1>   0.4500 
 32 H       -1.8970    -3.6750    -0.1370 H     1 <1>   0.0800 
 33 H       -0.7030    -4.4160     0.8800 H     1 <1>   0.0800 
 34 H        0.0120    -6.3790     0.4680 H     1 <1>   0.0800 
 35 H       -0.8680    -7.6240    -0.3780 H     1 <1>   0.0800 
 36 H       -3.6290    -4.0040     1.3550 H     1 <1>   0.0800 
 37 H       -2.3000    -3.5870     2.3820 H     1 <1>   0.0800 
 38 H       -0.6250    -8.0830     2.0110 H     1 <1>   0.0800 
 39 H       -2.2590    -8.0850     1.4980 H     1 <1>   0.0800 
 40 H       -0.8660    -5.8450     3.0090 H     1 <1>   0.0800 
 41 H       -1.9430    -7.0120     3.7050 H     1 <1>   0.0800 
 42 H       -4.9370    -5.2970     2.8030 H     1 <1>   0.0800 
 43 H       -4.2970    -6.7320     3.5490 H     1 <1>   0.0800 
 44 H       -5.0850    -9.0030     2.0410 H     1 <1>   0.1500 
 45 H       -5.8520   -10.3680    -0.0100 H     1 <1>   0.0800 
 46 H       -3.5730   -10.3920    -0.8970 H     1 <1>   0.0800 
 47 H       -4.0820    -9.4720    -2.2850 H     1 <1>   0.0800 
 48 H       -6.5950    -8.6880    -2.4060 H     1 <1>   0.0800 
 49 H       -7.6480    -9.1160    -1.0910 H     1 <1>   0.0800 
 50 H       -4.9810   -12.2740    -1.5750 H     1 <1>   0.0800 
 51 H       -3.9310   -11.8340    -2.8900 H     1 <1>   0.0800 
 52 H       -8.0030   -10.5610    -3.0820 H     1 <1>   0.0800 
 53 H       -7.5080   -11.4850    -1.6930 H     1 <1>   0.0800 
 54 H       -6.2600   -12.2380    -3.6540 H     1 <1>   0.0800 
 55 H       -5.7380   -10.6140    -3.9900 H     1 <1>   0.0800 
@<TRIPOS>BOND
  1   1   2  1   
  2   1   3  1   
  3   2   4  2   
  4   2   5  1   
  5   3   6  2   
  6   3  26  1   
  7   4   6  1   
  8   4  27  1   
  9   5   7  1   
 10   5  28  1   
 11   5  29  1   
 12   6  30  1   
 13   7   8  1   
 14   7   9  1   
 15   7  31  1   
 16   8  10  1   
 17   8  32  1   
 18   8  33  1   
 19   9  11  1   
 20   9  34  1   
 21   9  35  1   
 22  10  12  1   
 23  10  36  1   
 24  10  37  1   
 25  11  13  1   
 26  11  38  1   
 27  11  39  1   
 28  12  13  1   
 29  12  14  1   
 30  13  40  1   
 31  13  41  1   
 32  14  15  1   
 33  14  42  1   
 34  14  43  1   
 35  15  16  1   
 36  15  17  2   
 37  16  18  1   
 38  17  19  1   
 39  17  44  1   
 40  18  19  2   
 41  19  20  1   
 42  20  21  1   
 43  20  22  1   
 44  20  45  1   
 45  21  23  1   
 46  21  46  1   
 47  21  47  1   
 48  22  24  1   
 49  22  48  1   
 50  22  49  1   
 51  23  25  1   
 52  23  50  1   
 53  23  51  1   
 54  24  25  1   
 55  24  52  1   
 56  24  53  1   
 57  25  54  1   
 58  25  55  1   
@<TRIPOS>SUBSTRUCTURE
  1 ****  16 GROUP 4 **** **** 0

# MOE 2024.06 (io_trps.svl 2023.06)
