@<TRIPOS>MOLECULE
NONAME
47 49 1 0 0 
SMALL
USER_CHARGES


@<TRIPOS>ATOM
  1 O        0.0240     0.2000    -0.2170 O.3   1 <1>  -0.5600 
  2 C        0.3740     1.2120    -1.0980 C.3   1 <1>   0.1200 
  3 C       -1.3700     0.1030    -0.1860 C.3   1 <1>   0.1200 
  4 C       -0.6020     2.3200    -0.7130 C.3   1 <1>   0.4230 
  5 C       -1.8830     1.4840    -0.6310 C.3   1 <1>  -0.0800 
  6 N       -0.2280     2.8110     0.6510 N.4   1 <1>  -0.9060 
  7 C       -3.0420     2.0310     0.2270 C.3   1 <1>  -0.0170 
  8 C        0.6270     4.0210     0.8110 C.3   1 <1>   0.4230 
  9 C       -4.2650     1.1420     0.0870 C.ar  1 <1>  -0.1440 
 10 C       -0.0880     5.2690     0.2890 C.3   1 <1>  -0.1600 
 11 C        1.9940     3.8720     0.1380 C.3   1 <1>  -0.1600 
 12 C       -5.1110     1.2380    -1.0010 C.ar  1 <1>  -0.1500 
 13 C       -4.5970     0.1920     1.0330 C.ar  1 <1>  -0.1500 
 14 C        0.7730     6.5150     0.5160 C.3   1 <1>   0.3430 
 15 C        2.8450     5.1210     0.3770 C.3   1 <1>   0.3430 
 16 C       -6.2100     0.4000    -1.0910 C.ar  1 <1>   0.1600 
 17 C       -5.7200    -0.5980     0.8470 C.ar  1 <1>   0.1600 
 18 N        2.1180     6.3340    -0.1070 N.4   1 <1>  -0.9590 
 19 N       -6.5300    -0.5170    -0.1950 N.ar  1 <1>  -0.6200 
 20 C        2.9580     7.5570     0.1240 C.3   1 <1>   0.2630 
 21 H        1.4110     1.4570    -0.9700 H     1 <1>   0.0800 
 22 H        0.2060     0.8620    -2.1040 H     1 <1>   0.0800 
 23 H       -1.6810    -0.6750    -0.8650 H     1 <1>   0.0800 
 24 H       -1.6680    -0.1560     0.8160 H     1 <1>   0.0800 
 25 H       -0.6660     3.1130    -1.4390 H     1 <1>   0.0800 
 26 H       -2.2550     1.3670    -1.6350 H     1 <1>   0.0800 
 27 H       -1.0900     2.9340     1.1900 H     1 <1>   0.4500 
 28 H        0.2280     1.9860     1.0820 H     1 <1>   0.4500 
 29 H       -3.3040     3.0240    -0.0970 H     1 <1>   0.0800 
 30 H       -2.7740     2.0780     1.2670 H     1 <1>   0.0800 
 31 H        0.8010     4.1620     1.8680 H     1 <1>   0.0800 
 32 H       -0.3040     5.1850    -0.7610 H     1 <1>   0.0800 
 33 H       -1.0170     5.4030     0.8150 H     1 <1>   0.0800 
 34 H        2.5150     3.0260     0.5530 H     1 <1>   0.0800 
 35 H        1.8940     3.7290    -0.9230 H     1 <1>   0.0800 
 36 H       -4.9370     1.9540    -1.7830 H     1 <1>   0.1500 
 37 H       -4.0040     0.0490     1.9180 H     1 <1>   0.1500 
 38 H        0.8850     6.6910     1.5750 H     1 <1>   0.0800 
 39 H        0.2830     7.3770     0.0880 H     1 <1>   0.0800 
 40 H        3.7850     5.0240    -0.1440 H     1 <1>   0.0800 
 41 H        3.0580     5.2210     1.4300 H     1 <1>   0.0800 
 42 H       -6.8600     0.4870    -1.9450 H     1 <1>   0.1500 
 43 H       -5.9660    -1.3340     1.5930 H     1 <1>   0.1500 
 44 H        1.9990     6.2580    -1.1300 H     1 <1>   0.4500 
 45 H        3.1290     7.7070     1.1780 H     1 <1>   0.0800 
 46 H        2.4650     8.4320    -0.2700 H     1 <1>   0.0800 
 47 H        3.9130     7.4570    -0.3670 H     1 <1>   0.0800 
@<TRIPOS>BOND
  1   1   2  1   
  2   1   3  1   
  3   2   4  1   
  4   2  21  1   
  5   2  22  1   
  6   3   5  1   
  7   3  23  1   
  8   3  24  1   
  9   4   5  1   
 10   4   6  1   
 11   4  25  1   
 12   5   7  1   
 13   5  26  1   
 14   6   8  1   
 15   6  27  1   
 16   6  28  1   
 17   7   9  1   
 18   7  29  1   
 19   7  30  1   
 20   8  10  1   
 21   8  11  1   
 22   8  31  1   
 23   9  12  ar  
 24   9  13  ar  
 25  10  14  1   
 26  10  32  1   
 27  10  33  1   
 28  11  15  1   
 29  11  34  1   
 30  11  35  1   
 31  12  16  ar  
 32  12  36  1   
 33  13  17  ar  
 34  13  37  1   
 35  14  18  1   
 36  14  38  1   
 37  14  39  1   
 38  15  18  1   
 39  15  40  1   
 40  15  41  1   
 41  16  19  ar  
 42  16  42  1   
 43  17  19  ar  
 44  17  43  1   
 45  18  20  1   
 46  18  44  1   
 47  20  45  1   
 48  20  46  1   
 49  20  47  1   
@<TRIPOS>SUBSTRUCTURE
  1 ****   4 GROUP 4 **** **** 0

# MOE 2024.06 (io_trps.svl 2023.06)
