@<TRIPOS>MOLECULE
NONAME
51 52 1 0 0 
SMALL
USER_CHARGES


@<TRIPOS>ATOM
  1 S        0.9130     0.2400    -1.2710 S.o2  1 <1>   1.3330 
  2 O        0.6880    -0.2900    -2.5930 O.2   1 <1>  -0.6500 
  3 O        2.2540     0.5030    -0.7990 O.2   1 <1>  -0.6500 
  4 N        0.1400    -0.7590    -0.1390 N.am  1 <1>  -0.8490 
  5 C        0.0120     1.7870    -1.1130 C.3   1 <1>  -0.0550 
  6 C        1.0370    -1.8020     0.3770 C.3   1 <1>   0.1160 
  7 C       -1.0740    -1.3970    -0.6680 C.3   1 <1>   0.1160 
  8 C        0.0490     2.3970     0.3100 C.3   1 <1>  -0.0800 
  9 C       -0.8420     3.6320     0.4050 C.3   1 <1>   0.2000 
 10 C        1.4430     2.9290     0.6920 C.3   1 <1>   0.3430 
 11 O       -1.1460     3.8420     1.7460 O.3   1 <1>  -0.6800 
 12 C        0.0780     4.7610    -0.0650 C.3   1 <1>   0.3430 
 13 N        1.4410     4.4050     0.4440 N.4   1 <1>  -0.9590 
 14 C        1.7420     5.1410     1.7050 C.3   1 <1>   0.4860 
 15 C        1.7970     6.6280     1.4100 C.ar  1 <1>  -0.1440 
 16 C        2.8660     7.1710     0.7140 C.ar  1 <1>  -0.1500 
 17 C        0.7720     7.4600     1.8390 C.ar  1 <1>  -0.1500 
 18 C        2.9140     8.5270     0.4350 C.ar  1 <1>   0.0820 
 19 C        0.8140     8.8150     1.5640 C.ar  1 <1>  -0.1500 
 20 O        3.9960     8.9670    -0.2520 O.3   1 <1>  -0.3630 
 21 C        1.8780     9.3520     0.8630 C.ar  1 <1>  -0.1500 
 22 C        4.2010    10.3460    -0.4880 C.3   1 <1>   0.1200 
 23 C        5.5470    10.5250    -1.1900 C.3   1 <1>   0.1200 
 24 O        5.7350    11.8680    -1.4870 O.3   1 <1>  -0.6800 
 25 H        0.4110     2.4880    -1.8210 H     1 <1>   0.0800 
 26 H       -1.0100     1.6050    -1.3850 H     1 <1>   0.0800 
 27 H        0.5240    -2.4140     1.0990 H     1 <1>   0.0800 
 28 H        1.8890    -1.3550     0.8620 H     1 <1>   0.0800 
 29 H        1.3890    -2.4270    -0.4280 H     1 <1>   0.0800 
 30 H       -1.5660    -1.9580     0.1090 H     1 <1>   0.0800 
 31 H       -0.8290    -2.0650    -1.4780 H     1 <1>   0.0800 
 32 H       -1.7610    -0.6530    -1.0340 H     1 <1>   0.0800 
 33 H       -0.2670     1.6440     1.0110 H     1 <1>   0.0800 
 34 H       -1.7590     3.5740    -0.1570 H     1 <1>   0.0800 
 35 H        2.2280     2.4540     0.1300 H     1 <1>   0.0800 
 36 H        1.6130     2.7340     1.7390 H     1 <1>   0.0800 
 37 H       -1.8610     3.2410     2.0490 H     1 <1>   0.4000 
 38 H       -0.2640     5.7180     0.2950 H     1 <1>   0.0800 
 39 H        0.0920     4.7800    -1.1420 H     1 <1>   0.0800 
 40 H        2.1540     4.6740    -0.2460 H     1 <1>   0.4500 
 41 H        0.9780     4.9430     2.4400 H     1 <1>   0.0800 
 42 H        2.6910     4.8230     2.1040 H     1 <1>   0.0800 
 43 H        3.6860     6.5600     0.3790 H     1 <1>   0.1500 
 44 H       -0.0650     7.0640     2.3920 H     1 <1>   0.1500 
 45 H        0.0160     9.4580     1.9000 H     1 <1>   0.1500 
 46 H        1.8830    10.4080     0.6640 H     1 <1>   0.1500 
 47 H        3.3990    10.7020    -1.1090 H     1 <1>   0.0800 
 48 H        4.2090    10.8550     0.4600 H     1 <1>   0.0800 
 49 H        5.5840     9.9660    -2.1090 H     1 <1>   0.0800 
 50 H        6.3490    10.2160    -0.5410 H     1 <1>   0.0800 
 51 H        5.1540    12.1510    -2.2190 H     1 <1>   0.4000 
@<TRIPOS>BOND
  1   1   2  2   
  2   1   3  2   
  3   1   4  am  
  4   1   5  1   
  5   4   6  1   
  6   4   7  1   
  7   5   8  1   
  8   5  25  1   
  9   5  26  1   
 10   6  27  1   
 11   6  28  1   
 12   6  29  1   
 13   7  30  1   
 14   7  31  1   
 15   7  32  1   
 16   8   9  1   
 17   8  10  1   
 18   8  33  1   
 19   9  11  1   
 20   9  12  1   
 21   9  34  1   
 22  10  13  1   
 23  10  35  1   
 24  10  36  1   
 25  11  37  1   
 26  12  13  1   
 27  12  38  1   
 28  12  39  1   
 29  13  14  1   
 30  13  40  1   
 31  14  15  1   
 32  14  41  1   
 33  14  42  1   
 34  15  16  ar  
 35  15  17  ar  
 36  16  18  ar  
 37  16  43  1   
 38  17  19  ar  
 39  17  44  1   
 40  18  20  1   
 41  18  21  ar  
 42  19  21  ar  
 43  19  45  1   
 44  20  22  1   
 45  21  46  1   
 46  22  23  1   
 47  22  47  1   
 48  22  48  1   
 49  23  24  1   
 50  23  49  1   
 51  23  50  1   
 52  24  51  1   
@<TRIPOS>SUBSTRUCTURE
  1 ****  13 GROUP 4 **** **** 0

# MOE 2024.06 (io_trps.svl 2023.06)
