@<TRIPOS>MOLECULE
NONAME
48 51 1 0 0 
SMALL
USER_CHARGES


@<TRIPOS>ATOM
  1 CL       1.0040     1.3100    -1.0420 Cl    1 <1>  -0.1770 
  2 C        2.2980     0.1750    -0.7660 C.ar  1 <1>   0.1770 
  3 C        3.4300     0.5730    -0.1100 C.ar  1 <1>  -0.1500 
  4 C        2.1480    -1.1320    -1.2300 C.ar  1 <1>  -0.1500 
  5 C        4.4880    -0.3360     0.1110 C.ar  1 <1>   0.0000 
  6 C        3.1600    -2.0310    -1.0170 C.ar  1 <1>  -0.1500 
  7 C        4.3420    -1.6660    -0.3470 C.ar  1 <1>   0.3100 
  8 C        5.6930     0.0090     0.7670 C.ar  1 <1>   0.0860 
  9 N        5.2920    -2.6130    -0.1710 N.ar  1 <1>  -0.6200 
 10 C        5.9640     1.3540     1.2150 C.2   1 <1>   0.5440 
 11 C        6.6140    -0.9900     0.9420 C.ar  1 <1>  -0.1500 
 12 C        6.3730    -2.2780     0.4600 C.ar  1 <1>   0.1660 
 13 O        5.9040     1.6040     2.4040 O.2   1 <1>  -0.5700 
 14 N        6.3320     2.3660     0.3410 N.am  1 <1>  -0.6600 
 15 C        7.4120    -3.3600     0.6660 C.3   1 <1>  -0.0970 
 16 C        6.7150     3.7030     0.9020 C.3   1 <1>   0.1400 
 17 C        6.6990     2.0820    -1.0840 C.3   1 <1>   0.1400 
 18 C        8.2480     3.8960     1.0660 C.3   1 <1>   0.4230 
 19 C        8.1580     2.4350    -1.4520 C.3   1 <1>  -0.0800 
 20 N        8.9100     4.4800    -0.1590 N.4   1 <1>  -0.9590 
 21 C        9.0190     2.6290     1.5300 C.3   1 <1>   0.1200 
 22 C        9.2510     1.6470    -0.6950 C.3   1 <1>   0.1200 
 23 C        8.3890     3.9490    -1.4530 C.3   1 <1>   0.3430 
 24 C        8.8660     5.9760    -0.1480 C.3   1 <1>   0.2630 
 25 O        8.9800     1.5180     0.6650 O.3   1 <1>  -0.5600 
 26 H        3.5060     1.5850     0.2430 H     1 <1>   0.1500 
 27 H        1.2430    -1.4070    -1.7410 H     1 <1>   0.1500 
 28 H        3.0770    -3.0480    -1.3560 H     1 <1>   0.1500 
 29 H        7.5370    -0.7780     1.4510 H     1 <1>   0.1500 
 30 H        8.2670    -2.9860     1.1970 H     1 <1>   0.0800 
 31 H        7.7320    -3.7370    -0.2890 H     1 <1>   0.0800 
 32 H        6.9800    -4.1680     1.2280 H     1 <1>   0.0800 
 33 H        6.3000     4.4820     0.2900 H     1 <1>   0.0800 
 34 H        6.2680     3.8230     1.8730 H     1 <1>   0.0800 
 35 H        6.5490     1.0400    -1.3050 H     1 <1>   0.0800 
 36 H        6.0250     2.6300    -1.7200 H     1 <1>   0.0800 
 37 H        8.3690     4.6140     1.8590 H     1 <1>   0.0800 
 38 H        8.2580     2.1470    -2.4840 H     1 <1>   0.0800 
 39 H        9.8960     4.1890    -0.0960 H     1 <1>   0.4500 
 40 H        8.5970     2.2960     2.4640 H     1 <1>   0.0800 
 41 H       10.0510     2.8680     1.7110 H     1 <1>   0.0800 
 42 H       10.2280     2.0810    -0.8180 H     1 <1>   0.0800 
 43 H        9.2870     0.6430    -1.0850 H     1 <1>   0.0800 
 44 H        7.4600     4.4370    -1.7010 H     1 <1>   0.0800 
 45 H        9.0960     4.1880    -2.2320 H     1 <1>   0.0800 
 46 H        7.8460     6.3230    -0.2040 H     1 <1>   0.0800 
 47 H        9.4110     6.3740    -0.9890 H     1 <1>   0.0800 
 48 H        9.3100     6.3580     0.7580 H     1 <1>   0.0800 
@<TRIPOS>BOND
  1   1   2  1   
  2   2   3  ar  
  3   2   4  ar  
  4   3   5  ar  
  5   3  26  1   
  6   4   6  ar  
  7   4  27  1   
  8   5   7  ar  
  9   5   8  ar  
 10   6   7  ar  
 11   6  28  1   
 12   7   9  ar  
 13   8  10  1   
 14   8  11  ar  
 15   9  12  ar  
 16  10  13  2   
 17  10  14  am  
 18  11  12  ar  
 19  11  29  1   
 20  12  15  1   
 21  14  16  1   
 22  14  17  1   
 23  15  30  1   
 24  15  31  1   
 25  15  32  1   
 26  16  18  1   
 27  16  33  1   
 28  16  34  1   
 29  17  19  1   
 30  17  35  1   
 31  17  36  1   
 32  18  20  1   
 33  18  21  1   
 34  18  37  1   
 35  19  22  1   
 36  19  23  1   
 37  19  38  1   
 38  20  23  1   
 39  20  24  1   
 40  20  39  1   
 41  21  25  1   
 42  21  40  1   
 43  21  41  1   
 44  22  25  1   
 45  22  42  1   
 46  22  43  1   
 47  23  44  1   
 48  23  45  1   
 49  24  46  1   
 50  24  47  1   
 51  24  48  1   
@<TRIPOS>SUBSTRUCTURE
  1 ****  10 GROUP 4 **** **** 0

# MOE 2024.06 (io_trps.svl 2023.06)
