@<TRIPOS>MOLECULE
NONAME
38 40 1 0 0 
SMALL
USER_CHARGES


@<TRIPOS>ATOM
  1 O        0.6700     3.2570     1.2470 O.co2 1 <1>  -0.9000 
  2 C        1.8940     3.1430     1.3980 C.2   1 <1>   0.9470 
  3 O        2.5140     3.9450     2.1150 O.co2 1 <1>  -0.9000 
  4 C        2.6940     2.1570     0.5310 C.3   1 <1>  -0.2420 
  5 C        2.9260     0.6640     0.5690 C.3   1 <1>  -0.2420 
  6 C        3.9940     2.7930     0.0770 C.3   1 <1>   0.2350 
  7 C        1.9200     1.2420    -0.3890 C.3   1 <1>  -0.2000 
  8 C        2.4850    -0.3810     1.5930 C.2   1 <1>   0.9470 
  9 C        4.3470     0.3890     0.0990 C.3   1 <1>   0.2350 
 10 N        4.8320     1.6850    -0.4470 N.am  1 <1>  -0.6600 
 11 O        1.6150    -1.2050     1.2780 O.co2 1 <1>  -0.9000 
 12 O        3.1130    -0.4850     2.6550 O.co2 1 <1>  -0.9000 
 13 C        5.9550     1.8300    -1.2060 C.2   1 <1>   0.5690 
 14 O        6.6080     0.8780    -1.5740 O.2   1 <1>  -0.5700 
 15 C        6.4250     3.2150    -1.6400 C.3   1 <1>   0.0440 
 16 C        7.1810     3.9540    -0.5340 C.ar  1 <1>  -0.1430 
 17 C        6.6630     5.0820     0.1030 C.ar  1 <1>   0.0830 
 18 C        8.4230     3.4720    -0.1490 C.ar  1 <1>  -0.1500 
 19 O        5.4450     5.5510    -0.2660 O.3   1 <1>  -0.3620 
 20 C        7.3960     5.7100     1.1040 C.ar  1 <1>  -0.1500 
 21 C        9.1480     4.0990     0.8480 C.ar  1 <1>  -0.1500 
 22 C        4.5530     6.0130     0.7340 C.3   1 <1>   0.0400 
 23 C        8.6350     5.2200     1.4750 C.ar  1 <1>  -0.1500 
 24 H        4.5010     3.2330     0.9170 H     1 <1>   0.0800 
 25 H        3.7970     3.5360    -0.6730 H     1 <1>   0.0800 
 26 H        2.1300     1.2500    -1.4410 H     1 <1>   0.1000 
 27 H        0.8790     1.0640    -0.1760 H     1 <1>   0.1000 
 28 H        4.3640    -0.3800    -0.6530 H     1 <1>   0.0800 
 29 H        4.9650     0.0990     0.9320 H     1 <1>   0.0800 
 30 H        7.0840     3.0950    -2.4790 H     1 <1>   0.0800 
 31 H        5.5860     3.7820    -1.9910 H     1 <1>   0.0800 
 32 H        8.8250     2.5930    -0.6250 H     1 <1>   0.1500 
 33 H        7.0070     6.5830     1.5930 H     1 <1>   0.1500 
 34 H       10.1100     3.7120     1.1370 H     1 <1>   0.1500 
 35 H        3.5500     5.9660     0.3460 H     1 <1>   0.0800 
 36 H        4.8020     7.0260     0.9890 H     1 <1>   0.0800 
 37 H        4.6210     5.3770     1.6000 H     1 <1>   0.0800 
 38 H        9.1960     5.7080     2.2520 H     1 <1>   0.1500 
@<TRIPOS>BOND
  1   1   2  ar  
  2   2   3  ar  
  3   2   4  1   
  4   4   5  1   
  5   4   6  1   
  6   4   7  1   
  7   5   7  1   
  8   5   8  1   
  9   5   9  1   
 10   6  10  1   
 11   6  24  1   
 12   6  25  1   
 13   7  26  1   
 14   7  27  1   
 15   8  11  ar  
 16   8  12  ar  
 17   9  10  1   
 18   9  28  1   
 19   9  29  1   
 20  10  13  am  
 21  13  14  2   
 22  13  15  1   
 23  15  16  1   
 24  15  30  1   
 25  15  31  1   
 26  16  17  ar  
 27  16  18  ar  
 28  17  19  1   
 29  17  20  ar  
 30  18  21  ar  
 31  18  32  1   
 32  19  22  1   
 33  20  23  ar  
 34  20  33  1   
 35  21  23  ar  
 36  21  34  1   
 37  22  35  1   
 38  22  36  1   
 39  22  37  1   
 40  23  38  1   
@<TRIPOS>SUBSTRUCTURE
  1 ****   6 GROUP 4 **** **** 0

# MOE 2024.06 (io_trps.svl 2023.06)
