@<TRIPOS>MOLECULE
NONAME
48 50 1 0 0 
SMALL
USER_CHARGES


@<TRIPOS>ATOM
  1 S        0.4020    -0.5540    -0.0770 S.3   1 <1>  -0.2860 
  2 C       -0.4830     1.0090    -0.0520 C.2   1 <1>   0.2420 
  3 C       -0.1600    -1.4360     1.4630 C.3   1 <1>   0.1310 
  4 N       -0.3590     1.8870    -1.0430 N.pl3 1 <1>   0.0330 
  5 N       -1.2900     1.3930     0.8690 N.2   1 <1>  -0.3380 
  6 C       -0.8080    -2.7670     1.1000 C.2   1 <1>   0.5690 
  7 C       -1.1850     2.8640    -0.6580 C.2   1 <1>   0.2700 
  8 N       -1.7510     2.5930     0.4750 N.2   1 <1>  -0.3380 
  9 O       -0.2420    -3.7740     1.4570 O.2   1 <1>  -0.5700 
 10 N       -1.9960    -2.8470     0.4080 N.am  1 <1>  -0.6600 
 11 N       -1.4180     4.0150    -1.3760 N.pl3 1 <1>  -0.8840 
 12 C       -2.4810    -4.1540    -0.1180 C.3   1 <1>   0.1400 
 13 C       -2.9170    -1.7010     0.1560 C.3   1 <1>   0.1400 
 14 C       -3.8660    -4.4880     0.4780 C.3   1 <1>   0.4230 
 15 C       -4.2890    -2.0250     0.7570 C.3   1 <1>  -0.1600 
 16 N       -4.3710    -5.8790     0.1150 N.4   1 <1>  -0.9590 
 17 C       -4.9050    -3.3530     0.2300 C.3   1 <1>   0.0000 
 18 C       -5.8450    -6.0690     0.3140 C.3   1 <1>   0.3430 
 19 C       -3.9740    -6.3770    -1.2440 C.3   1 <1>   0.2630 
 20 C       -6.2010    -3.6550     1.0380 C.3   1 <1>  -0.1600 
 21 C       -5.2260    -3.2390    -1.2880 C.3   1 <1>   0.1200 
 22 C       -6.3740    -5.1410     1.4060 C.3   1 <1>  -0.1600 
 23 O       -5.9650    -2.1040    -1.5730 O.3   1 <1>  -0.6800 
 24 H        0.7190    -1.6030     2.0580 H     1 <1>   0.0800 
 25 H       -0.8390    -0.8080     2.0040 H     1 <1>   0.0800 
 26 H        0.1850     1.8140    -1.8990 H     1 <1>   0.2700 
 27 H       -2.1760     4.5570    -0.9470 H     1 <1>   0.4000 
 28 H       -0.6000     4.6200    -1.4780 H     1 <1>   0.4000 
 29 H       -2.5230    -4.0870    -1.1890 H     1 <1>   0.0800 
 30 H       -1.7900    -4.9370     0.1390 H     1 <1>   0.0800 
 31 H       -2.5510    -0.8020     0.6130 H     1 <1>   0.0800 
 32 H       -2.9960    -1.5220    -0.9030 H     1 <1>   0.0800 
 33 H       -3.7110    -4.4950     1.5450 H     1 <1>   0.0800 
 34 H       -4.1660    -2.0750     1.8260 H     1 <1>   0.0800 
 35 H       -4.9500    -1.1970     0.5660 H     1 <1>   0.0800 
 36 H       -3.9130    -6.5010     0.7980 H     1 <1>   0.4500 
 37 H       -6.3690    -5.8490    -0.6020 H     1 <1>   0.0800 
 38 H       -6.0510    -7.0950     0.5750 H     1 <1>   0.0800 
 39 H       -4.3840    -5.7430    -2.0140 H     1 <1>   0.0800 
 40 H       -4.3400    -7.3800    -1.3960 H     1 <1>   0.0800 
 41 H       -2.9010    -6.3930    -1.3440 H     1 <1>   0.0800 
 42 H       -6.2150    -3.0940     1.9590 H     1 <1>   0.0800 
 43 H       -7.0650    -3.3310     0.4840 H     1 <1>   0.0800 
 44 H       -5.7900    -4.0850    -1.6360 H     1 <1>   0.0800 
 45 H       -4.3280    -3.1660    -1.8760 H     1 <1>   0.0800 
 46 H       -7.4190    -5.3440     1.5690 H     1 <1>   0.0800 
 47 H       -5.8650    -5.3570     2.3300 H     1 <1>   0.0800 
 48 H       -6.8180    -2.0840    -1.0970 H     1 <1>   0.4000 
@<TRIPOS>BOND
  1   1   2  1   
  2   1   3  1   
  3   2   4  1   
  4   2   5  2   
  5   3   6  1   
  6   3  24  1   
  7   3  25  1   
  8   4   7  1   
  9   4  26  1   
 10   5   8  1   
 11   6   9  2   
 12   6  10  am  
 13   7   8  2   
 14   7  11  1   
 15  10  12  1   
 16  10  13  1   
 17  11  27  1   
 18  11  28  1   
 19  12  14  1   
 20  12  29  1   
 21  12  30  1   
 22  13  15  1   
 23  13  31  1   
 24  13  32  1   
 25  14  16  1   
 26  14  17  1   
 27  14  33  1   
 28  15  17  1   
 29  15  34  1   
 30  15  35  1   
 31  16  18  1   
 32  16  19  1   
 33  16  36  1   
 34  17  20  1   
 35  17  21  1   
 36  18  22  1   
 37  18  37  1   
 38  18  38  1   
 39  19  39  1   
 40  19  40  1   
 41  19  41  1   
 42  20  22  1   
 43  20  42  1   
 44  20  43  1   
 45  21  23  1   
 46  21  44  1   
 47  21  45  1   
 48  22  46  1   
 49  22  47  1   
 50  23  48  1   
@<TRIPOS>SUBSTRUCTURE
  1 ****  13 GROUP 4 **** **** 0

# MOE 2024.06 (io_trps.svl 2023.06)
