@<TRIPOS>MOLECULE
NONAME
36 37 1 0 0 
SMALL
USER_CHARGES


@<TRIPOS>ATOM
  1 S       -0.2360     0.2410    -0.9360 S.3   1 <1>  -0.0800 
  2 C        0.7470     1.6870    -1.0830 C.2   1 <1>  -0.1100 
  3 C       -1.5520     1.1600    -0.2290 C.2   1 <1>  -0.1100 
  4 C        0.0900     2.7650    -0.6150 C.2   1 <1>  -0.1810 
  5 C       -1.2250     2.4620    -0.1300 C.2   1 <1>  -0.1500 
  6 C        0.6380     4.1840    -0.5800 C.3   1 <1>   0.0210 
  7 C        0.9270     4.6500     0.8570 C.3   1 <1>   0.2890 
  8 N        1.1680     6.1070     0.9260 N.pl3 1 <1>  -0.8690 
  9 C        2.0980     3.9130     1.5070 C.3   1 <1>  -0.2400 
 10 C        2.0970     6.8750     0.3260 C.ar  1 <1>   0.7200 
 11 N        2.0760     8.1430     0.7080 N.ar  1 <1>  -0.6200 
 12 N        2.9210     6.3380    -0.5630 N.ar  1 <1>  -0.6200 
 13 C        2.9620     8.9410     0.1680 C.ar  1 <1>   0.1660 
 14 C        3.8050     7.1510    -1.0830 C.ar  1 <1>   0.1600 
 15 C        3.9160     8.4900    -0.7440 C.ar  1 <1>   0.0860 
 16 C        2.8510    10.3970     0.5900 C.3   1 <1>  -0.0970 
 17 C        4.9650     9.2710    -1.3390 C.2   1 <1>   0.4230 
 18 O        5.2560     9.1780    -2.5020 O.2   1 <1>  -0.5700 
 19 C        5.8120    10.2080    -0.5000 C.3   1 <1>  -0.1790 
 20 H        1.7280     1.5750    -1.5090 H     1 <1>   0.1500 
 21 H       -2.4430     0.6210     0.0390 H     1 <1>   0.1500 
 22 H       -1.8640     3.2320     0.2650 H     1 <1>   0.1500 
 23 H       -0.0800     4.8450    -1.0310 H     1 <1>   0.0800 
 24 H        1.5400     4.2220    -1.1630 H     1 <1>   0.0800 
 25 H        0.0470     4.4470     1.4450 H     1 <1>   0.0800 
 26 H        0.6290     6.6090     1.6280 H     1 <1>   0.4000 
 27 H        2.9960     4.0460     0.9310 H     1 <1>   0.0800 
 28 H        1.8850     2.8610     1.5620 H     1 <1>   0.0800 
 29 H        2.2580     4.2800     2.5040 H     1 <1>   0.0800 
 30 H        4.4880     6.7480    -1.8120 H     1 <1>   0.1500 
 31 H        1.8430    10.6130     0.8990 H     1 <1>   0.0800 
 32 H        3.0900    11.0550    -0.2250 H     1 <1>   0.0800 
 33 H        3.5050    10.5920     1.4190 H     1 <1>   0.0800 
 34 H        5.7450     9.9580     0.5420 H     1 <1>   0.0800 
 35 H        5.4950    11.2230    -0.6530 H     1 <1>   0.0800 
 36 H        6.8400    10.1240    -0.8050 H     1 <1>   0.0800 
@<TRIPOS>BOND
  1   1   2  1   
  2   1   3  1   
  3   2   4  2   
  4   2  20  1   
  5   3   5  2   
  6   3  21  1   
  7   4   5  1   
  8   4   6  1   
  9   5  22  1   
 10   6   7  1   
 11   6  23  1   
 12   6  24  1   
 13   7   8  1   
 14   7   9  1   
 15   7  25  1   
 16   8  10  1   
 17   8  26  1   
 18   9  27  1   
 19   9  28  1   
 20   9  29  1   
 21  10  11  ar  
 22  10  12  ar  
 23  11  13  ar  
 24  12  14  ar  
 25  13  15  ar  
 26  13  16  1   
 27  14  15  ar  
 28  14  30  1   
 29  15  17  1   
 30  16  31  1   
 31  16  32  1   
 32  16  33  1   
 33  17  18  2   
 34  17  19  1   
 35  19  34  1   
 36  19  35  1   
 37  19  36  1   
@<TRIPOS>SUBSTRUCTURE
  1 ****  12 GROUP 4 **** **** 0

# MOE 2024.06 (io_trps.svl 2023.06)
