@<TRIPOS>MOLECULE
NONAME
56 59 1 0 0 
SMALL
USER_CHARGES


@<TRIPOS>ATOM
  1 O        0.4200     0.3980    -1.1500 O.3   1 <1>  -0.2800 
  2 C        1.5980     0.9170    -1.0280 C.2   1 <1>   0.5620 
  3 C       -0.3390     1.2010    -0.4610 C.2   1 <1>   0.2980 
  4 N        1.5920     1.9860    -0.3110 N.2   1 <1>  -0.3380 
  5 N        2.6730     0.3180    -1.6400 N.pl3 1 <1>  -0.8530 
  6 N        0.3220     2.1650     0.0570 N.2   1 <1>  -0.3380 
  7 C       -1.8260     0.8960    -0.3680 C.3   1 <1>   0.1630 
  8 C        3.9270     1.0730    -1.8360 C.3   1 <1>   0.2090 
  9 C       -2.6280     1.9510     0.3880 C.ar  1 <1>  -0.1430 
 10 C        4.7710     1.0050    -0.5520 C.3   1 <1>  -0.0800 
 11 C       -3.5330     2.7800    -0.2460 C.ar  1 <1>  -0.1500 
 12 C       -2.4950     2.1290     1.7510 C.ar  1 <1>  -0.1500 
 13 C        5.8370     2.1140    -0.5540 C.3   1 <1>   0.3430 
 14 C        5.3910    -0.3870    -0.3300 C.3   1 <1>  -0.1600 
 15 C       -4.2450     3.7110     0.4930 C.ar  1 <1>   0.1600 
 16 C       -3.2550     3.0910     2.3960 C.ar  1 <1>   0.1600 
 17 N        7.0450     1.7660     0.2730 N.4   1 <1>  -0.9590 
 18 C        6.1780    -0.4280     0.9940 C.3   1 <1>  -0.1600 
 19 N       -4.1320     3.8820     1.8000 N.ar  1 <1>  -0.6200 
 20 C        6.6790     0.9450     1.4620 C.3   1 <1>   0.3430 
 21 C        7.8150     2.9790     0.6930 C.3   1 <1>   0.3430 
 22 C        8.4490     3.7030    -0.4960 C.3   1 <1>  -0.0170 
 23 C        9.2690     4.8630     0.0320 C.ar  1 <1>  -0.1430 
 24 C        8.6770     6.1000     0.2410 C.ar  1 <1>  -0.1500 
 25 C       10.6150     4.6940     0.3210 C.ar  1 <1>  -0.1500 
 26 C        9.4220     7.1540     0.7400 C.ar  1 <1>  -0.1500 
 27 C       11.3590     5.7490     0.8200 C.ar  1 <1>  -0.1500 
 28 C       10.7630     6.9790     1.0300 C.ar  1 <1>  -0.1500 
 29 H        2.4230    -0.3530    -2.3720 H     1 <1>   0.4000 
 30 H       -1.9470    -0.0520     0.1240 H     1 <1>   0.0800 
 31 H       -2.2120     0.7950    -1.3650 H     1 <1>   0.0800 
 32 H        3.6800     2.0970    -2.0650 H     1 <1>   0.0800 
 33 H        4.4710     0.6620    -2.6700 H     1 <1>   0.0800 
 34 H        4.1160     1.2160     0.2760 H     1 <1>   0.0800 
 35 H       -3.6950     2.7170    -1.3060 H     1 <1>   0.1500 
 36 H       -1.8030     1.5330     2.3180 H     1 <1>   0.1500 
 37 H        5.3830     3.0180    -0.1800 H     1 <1>   0.0800 
 38 H        6.1520     2.3010    -1.5680 H     1 <1>   0.0800 
 39 H        6.0500    -0.6200    -1.1500 H     1 <1>   0.0800 
 40 H        4.6200    -1.1410    -0.3110 H     1 <1>   0.0800 
 41 H       -4.9460     4.3480    -0.0180 H     1 <1>   0.1500 
 42 H       -3.1330     3.2150     3.4580 H     1 <1>   0.1500 
 43 H        7.6570     1.1700    -0.3000 H     1 <1>   0.4500 
 44 H        7.0100    -1.1030     0.8960 H     1 <1>   0.0800 
 45 H        5.5460    -0.8260     1.7690 H     1 <1>   0.0800 
 46 H        5.8980     1.4440     2.0140 H     1 <1>   0.0800 
 47 H        7.5280     0.8160     2.1160 H     1 <1>   0.0800 
 48 H        8.6030     2.6890     1.3700 H     1 <1>   0.0800 
 49 H        7.1670     3.6610     1.2200 H     1 <1>   0.0800 
 50 H        7.6960     4.0830    -1.1620 H     1 <1>   0.0800 
 51 H        9.0890     3.0330    -1.0420 H     1 <1>   0.0800 
 52 H        7.6370     6.2610     0.0180 H     1 <1>   0.1500 
 53 H       11.1020     3.7480     0.1610 H     1 <1>   0.1500 
 54 H        8.9620     8.1140     0.9010 H     1 <1>   0.1500 
 55 H       12.4040     5.6160     1.0420 H     1 <1>   0.1500 
 56 H       11.3430     7.8000     1.4170 H     1 <1>   0.1500 
@<TRIPOS>BOND
  1   1   2  1   
  2   1   3  1   
  3   2   4  2   
  4   2   5  1   
  5   3   6  2   
  6   3   7  1   
  7   4   6  1   
  8   5   8  1   
  9   5  29  1   
 10   7   9  1   
 11   7  30  1   
 12   7  31  1   
 13   8  10  1   
 14   8  32  1   
 15   8  33  1   
 16   9  11  ar  
 17   9  12  ar  
 18  10  13  1   
 19  10  14  1   
 20  10  34  1   
 21  11  15  ar  
 22  11  35  1   
 23  12  16  ar  
 24  12  36  1   
 25  13  17  1   
 26  13  37  1   
 27  13  38  1   
 28  14  18  1   
 29  14  39  1   
 30  14  40  1   
 31  15  19  ar  
 32  15  41  1   
 33  16  19  ar  
 34  16  42  1   
 35  17  20  1   
 36  17  21  1   
 37  17  43  1   
 38  18  20  1   
 39  18  44  1   
 40  18  45  1   
 41  20  46  1   
 42  20  47  1   
 43  21  22  1   
 44  21  48  1   
 45  21  49  1   
 46  22  23  1   
 47  22  50  1   
 48  22  51  1   
 49  23  24  ar  
 50  23  25  ar  
 51  24  26  ar  
 52  24  52  1   
 53  25  27  ar  
 54  25  53  1   
 55  26  28  ar  
 56  26  54  1   
 57  27  28  ar  
 58  27  55  1   
 59  28  56  1   
@<TRIPOS>SUBSTRUCTURE
  1 ****  10 GROUP 4 **** **** 0

# MOE 2024.06 (io_trps.svl 2023.06)
