@<TRIPOS>MOLECULE
NONAME
49 51 1 0 0 
SMALL
USER_CHARGES


@<TRIPOS>ATOM
  1 CL       0.2120     1.0160     2.1890 Cl    1 <1>  -0.1770 
  2 C       -1.2580     1.5350     1.4110 C.ar  1 <1>   0.1770 
  3 C       -1.3130     2.7630     0.8140 C.ar  1 <1>  -0.1500 
  4 C       -2.3560     0.6820     1.4180 C.ar  1 <1>  -0.1500 
  5 C       -2.4820     3.2030     0.1610 C.ar  1 <1>   0.0000 
  6 C       -3.5350     1.0860     0.8360 C.ar  1 <1>  -0.1440 
  7 C       -3.6160     2.3590     0.2300 C.ar  1 <1>   0.3610 
  8 C       -2.5800     4.4660    -0.5130 C.ar  1 <1>   0.1000 
  9 C       -4.7290     0.1330     0.8740 C.3   1 <1>  -0.0960 
 10 N       -4.8120     2.8210    -0.2720 N.ar  1 <1>  -0.1790 
 11 N       -1.5020     5.2500    -0.7870 N.pl3 1 <1>  -0.8380 
 12 C       -3.8490     4.8610    -0.9430 C.ar  1 <1>  -0.1500 
 13 C       -4.9390     4.0410    -0.8230 C.ar  1 <1>   0.2110 
 14 C       -1.5400     6.7460    -0.6580 C.3   1 <1>   0.2090 
 15 C       -0.2800     4.6660    -1.4410 C.3   1 <1>   0.2090 
 16 C       -0.3970     7.2520     0.2460 C.3   1 <1>   0.3430 
 17 C       -0.1170     5.2040    -2.8610 C.3   1 <1>  -0.2400 
 18 N       -0.4460     8.7300     0.5200 N.4   1 <1>  -0.9590 
 19 C       -0.2040     9.5630    -0.7160 C.3   1 <1>   0.3430 
 20 C        0.5600     9.0920     1.5840 C.3   1 <1>   0.3430 
 21 C       -0.1060    11.0640    -0.3810 C.3   1 <1>   0.1200 
 22 C        0.6230    10.6140     1.8150 C.3   1 <1>   0.1200 
 23 O        0.8600    11.2750     0.6070 O.3   1 <1>  -0.5600 
 24 H       -0.4460     3.3940     0.8580 H     1 <1>   0.1500 
 25 H       -2.2480    -0.2790     1.8930 H     1 <1>   0.1500 
 26 H       -4.4550    -0.8000     1.3370 H     1 <1>   0.0800 
 27 H       -5.0730    -0.0910    -0.1210 H     1 <1>   0.0800 
 28 H       -5.5360     0.5530     1.4500 H     1 <1>   0.0800 
 29 H       -5.6180     2.1970    -0.1930 H     1 <1>   0.4570 
 30 H       -3.9700     5.8170    -1.4200 H     1 <1>   0.1500 
 31 H       -5.9090     4.3540    -1.1790 H     1 <1>   0.1500 
 32 H       -2.4740     7.0360    -0.2100 H     1 <1>   0.0800 
 33 H       -1.4780     7.1920    -1.6340 H     1 <1>   0.0800 
 34 H       -0.3800     3.5960    -1.5100 H     1 <1>   0.0800 
 35 H        0.6000     4.8750    -0.8570 H     1 <1>   0.0800 
 36 H        0.5440     7.0060    -0.2150 H     1 <1>   0.0800 
 37 H       -0.4600     6.7180     1.1800 H     1 <1>   0.0800 
 38 H       -1.0250     5.0630    -3.4190 H     1 <1>   0.0800 
 39 H        0.6670     4.6590    -3.3570 H     1 <1>   0.0800 
 40 H        0.1570     6.2420    -2.8630 H     1 <1>   0.0800 
 41 H       -1.3720     8.9780     0.8940 H     1 <1>   0.4500 
 42 H       -0.9990     9.4140    -1.4280 H     1 <1>   0.0800 
 43 H        0.7200     9.2640    -1.1830 H     1 <1>   0.0800 
 44 H        1.5410     8.7580     1.2880 H     1 <1>   0.0800 
 45 H        0.3110     8.6030     2.5110 H     1 <1>   0.0800 
 46 H       -1.0490    11.4530    -0.0350 H     1 <1>   0.0800 
 47 H        0.1930    11.6200    -1.2530 H     1 <1>   0.0800 
 48 H        1.4330    10.8550     2.4820 H     1 <1>   0.0800 
 49 H       -0.2930    10.9860     2.2420 H     1 <1>   0.0800 
@<TRIPOS>BOND
  1   1   2  1   
  2   2   3  ar  
  3   2   4  ar  
  4   3   5  ar  
  5   3  24  1   
  6   4   6  ar  
  7   4  25  1   
  8   5   7  ar  
  9   5   8  ar  
 10   6   7  ar  
 11   6   9  1   
 12   7  10  ar  
 13   8  11  1   
 14   8  12  ar  
 15   9  26  1   
 16   9  27  1   
 17   9  28  1   
 18  10  13  ar  
 19  10  29  1   
 20  11  14  1   
 21  11  15  1   
 22  12  13  ar  
 23  12  30  1   
 24  13  31  1   
 25  14  16  1   
 26  14  32  1   
 27  14  33  1   
 28  15  17  1   
 29  15  34  1   
 30  15  35  1   
 31  16  18  1   
 32  16  36  1   
 33  16  37  1   
 34  17  38  1   
 35  17  39  1   
 36  17  40  1   
 37  18  19  1   
 38  18  20  1   
 39  18  41  1   
 40  19  21  1   
 41  19  42  1   
 42  19  43  1   
 43  20  22  1   
 44  20  44  1   
 45  20  45  1   
 46  21  23  1   
 47  21  46  1   
 48  21  47  1   
 49  22  23  1   
 50  22  48  1   
 51  22  49  1   
@<TRIPOS>SUBSTRUCTURE
  1 ****  11 GROUP 4 **** **** 0

# MOE 2024.06 (io_trps.svl 2023.06)
