@<TRIPOS>MOLECULE
NONAME
51 54 1 0 0 
SMALL
USER_CHARGES


@<TRIPOS>ATOM
  1 O        0.8710    -0.6350    -1.4480 O.3   1 <1>  -0.5600 
  2 C        1.9140    -1.1170    -0.6300 C.3   1 <1>   0.4240 
  3 C       -0.4370    -0.9180    -1.0580 C.3   1 <1>   0.1200 
  4 C        1.6080    -2.5360    -0.1000 C.ar  1 <1>  -0.1440 
  5 C        2.1160    -0.1240     0.5280 C.3   1 <1>  -0.1600 
  6 C        3.1570    -1.1380    -1.5300 C.3   1 <1>  -0.1600 
  7 C       -0.6640    -2.4230    -1.1580 C.3   1 <1>  -0.0160 
  8 C        0.3910    -3.1550    -0.3510 C.ar  1 <1>  -0.1440 
  9 C        2.5530    -3.2250     0.6500 C.ar  1 <1>  -0.1500 
 10 C        2.5060     1.2650     0.0260 C.3   1 <1>   0.2090 
 11 C        3.5330     0.2640    -2.0070 C.3   1 <1>   0.2090 
 12 C        0.1320    -4.4290     0.1310 C.ar  1 <1>  -0.1500 
 13 C        2.3150    -4.5000     1.1330 C.ar  1 <1>   0.0830 
 14 N        3.7220     1.1400    -0.8200 N.pl3 1 <1>  -0.8380 
 15 C        1.0800    -5.1170     0.8840 C.ar  1 <1>   0.0830 
 16 O        3.3430    -5.0510     1.8380 O.3   1 <1>  -0.3630 
 17 C        4.9310     1.7200    -0.4920 C.ar  1 <1>   0.7200 
 18 O        0.8240    -6.3580     1.3930 O.3   1 <1>  -0.3630 
 19 C        3.6250    -6.4290     1.7400 C.3   1 <1>   0.0400 
 20 N        4.9060     2.7300     0.3770 N.ar  1 <1>  -0.6200 
 21 N        6.0220     1.2180    -1.0700 N.ar  1 <1>  -0.6200 
 22 C       -0.4560    -6.9480     1.3240 C.3   1 <1>   0.0400 
 23 C        6.0560     3.2740     0.6840 C.ar  1 <1>   0.1670 
 24 C        7.1600     1.7780    -0.7450 C.ar  1 <1>   0.1600 
 25 C        7.2340     2.8250     0.1390 C.ar  1 <1>  -0.1500 
 26 C        6.0300     4.4230     1.6680 C.3   1 <1>  -0.0970 
 27 H       -1.0990    -0.3920    -1.7230 H     1 <1>   0.0800 
 28 H       -0.5930    -0.5660    -0.0540 H     1 <1>   0.0800 
 29 H        2.9050    -0.4750     1.1670 H     1 <1>   0.0800 
 30 H        1.2280    -0.0640     1.1280 H     1 <1>   0.0800 
 31 H        2.9730    -1.7750    -2.3740 H     1 <1>   0.0800 
 32 H        3.9980    -1.5390    -0.9970 H     1 <1>   0.0800 
 33 H       -0.6060    -2.7250    -2.1880 H     1 <1>   0.0800 
 34 H       -1.6460    -2.6560    -0.7890 H     1 <1>   0.0800 
 35 H        3.5040    -2.7770     0.8720 H     1 <1>   0.1500 
 36 H        2.6760     1.9130     0.8690 H     1 <1>   0.0800 
 37 H        1.7090     1.6870    -0.5620 H     1 <1>   0.0800 
 38 H        2.7450     0.6680    -2.6190 H     1 <1>   0.0800 
 39 H        4.4230     0.2180    -2.6110 H     1 <1>   0.0800 
 40 H       -0.8190    -4.8700    -0.0910 H     1 <1>   0.1500 
 41 H        4.6510    -6.5820     2.0210 H     1 <1>   0.0800 
 42 H        3.4670    -6.7500     0.7250 H     1 <1>   0.0800 
 43 H        2.9800    -6.9630     2.4140 H     1 <1>   0.0800 
 44 H       -0.4210    -7.8820     1.8550 H     1 <1>   0.0800 
 45 H       -0.7050    -7.1240     0.2920 H     1 <1>   0.0800 
 46 H       -1.1690    -6.2900     1.7890 H     1 <1>   0.0800 
 47 H        8.0580     1.3920    -1.1970 H     1 <1>   0.1500 
 48 H        8.1780     3.2690     0.3900 H     1 <1>   0.1500 
 49 H        5.4190     5.2160     1.2770 H     1 <1>   0.0800 
 50 H        7.0190     4.8010     1.8490 H     1 <1>   0.0800 
 51 H        5.6080     4.0890     2.5990 H     1 <1>   0.0800 
@<TRIPOS>BOND
  1   1   2  1   
  2   1   3  1   
  3   2   4  1   
  4   2   5  1   
  5   2   6  1   
  6   3   7  1   
  7   3  27  1   
  8   3  28  1   
  9   4   8  ar  
 10   4   9  ar  
 11   5  10  1   
 12   5  29  1   
 13   5  30  1   
 14   6  11  1   
 15   6  31  1   
 16   6  32  1   
 17   7   8  1   
 18   7  33  1   
 19   7  34  1   
 20   8  12  ar  
 21   9  13  ar  
 22   9  35  1   
 23  10  14  1   
 24  10  36  1   
 25  10  37  1   
 26  11  14  1   
 27  11  38  1   
 28  11  39  1   
 29  12  15  ar  
 30  12  40  1   
 31  13  15  ar  
 32  13  16  1   
 33  14  17  1   
 34  15  18  1   
 35  16  19  1   
 36  17  20  ar  
 37  17  21  ar  
 38  18  22  1   
 39  19  41  1   
 40  19  42  1   
 41  19  43  1   
 42  20  23  ar  
 43  21  24  ar  
 44  22  44  1   
 45  22  45  1   
 46  22  46  1   
 47  23  25  ar  
 48  23  26  1   
 49  24  25  ar  
 50  24  47  1   
 51  25  48  1   
 52  26  49  1   
 53  26  50  1   
 54  26  51  1   
@<TRIPOS>SUBSTRUCTURE
  1 ****   2 GROUP 4 **** **** 0

# MOE 2024.06 (io_trps.svl 2023.06)
