@<TRIPOS>MOLECULE
NONAME
50 53 1 0 0 
SMALL
USER_CHARGES


@<TRIPOS>ATOM
  1 O        0.3910    -0.3280    -1.2320 O.2   1 <1>  -0.5700 
  2 C        1.2700    -1.0890    -0.9220 C.2   1 <1>   0.4230 
  3 C        1.0200    -2.3850    -0.3240 C.ar  1 <1>   0.0860 
  4 C        2.6910    -0.6320    -1.1860 C.3   1 <1>  -0.1790 
  5 C       -0.2590    -2.7870     0.0170 C.ar  1 <1>  -0.1500 
  6 C        2.0090    -3.3230    -0.0430 C.ar  1 <1>  -0.1500 
  7 C       -0.5100    -4.0310     0.5820 C.ar  1 <1>   0.4100 
  8 C        1.6770    -4.5330     0.5290 C.ar  1 <1>   0.1600 
  9 N        0.4530    -4.9050     0.8480 N.ar  1 <1>  -0.6200 
 10 N       -1.8090    -4.3980     0.8920 N.pl3 1 <1>  -0.8380 
 11 C       -2.8730    -4.3320    -0.1430 C.3   1 <1>   0.2090 
 12 C       -2.0920    -5.3650     1.9910 C.3   1 <1>   0.2090 
 13 C       -3.0900    -5.7210    -0.7460 C.3   1 <1>  -0.1600 
 14 C       -2.3220    -6.7640     1.4150 C.3   1 <1>  -0.1600 
 15 C       -3.4130    -6.7710     0.3330 C.3   1 <1>   0.4240 
 16 O       -4.5690    -6.3210     1.0130 O.3   1 <1>  -0.5600 
 17 C       -3.6230    -8.1950    -0.2610 C.ar  1 <1>  -0.1430 
 18 C       -5.8060    -6.6150     0.4550 C.3   1 <1>   0.1200 
 19 C       -2.6020    -8.8850    -0.9280 C.ar  1 <1>   0.0830 
 20 C       -4.8620    -8.8260    -0.1360 C.ar  1 <1>  -0.1430 
 21 C       -6.0150    -8.1180     0.5450 C.3   1 <1>  -0.0170 
 22 O       -1.3950    -8.2850    -1.0880 O.3   1 <1>  -0.3630 
 23 C       -2.8260   -10.1660    -1.4270 C.ar  1 <1>  -0.1500 
 24 C       -5.0720   -10.1010    -0.6330 C.ar  1 <1>  -0.1500 
 25 C       -0.2260    -9.0020    -1.4140 C.3   1 <1>   0.0400 
 26 C       -4.0550   -10.7740    -1.2770 C.ar  1 <1>  -0.1500 
 27 H        3.2600    -0.6500    -0.2750 H     1 <1>   0.0800 
 28 H        2.6860     0.3740    -1.5640 H     1 <1>   0.0800 
 29 H        3.1520    -1.2690    -1.9170 H     1 <1>   0.0800 
 30 H       -1.0850    -2.1220    -0.1470 H     1 <1>   0.1500 
 31 H        3.0400    -3.1220    -0.2660 H     1 <1>   0.1500 
 32 H        2.4610    -5.2410     0.7390 H     1 <1>   0.1500 
 33 H       -2.5980    -3.6460    -0.9240 H     1 <1>   0.0800 
 34 H       -3.7830    -3.9770     0.3100 H     1 <1>   0.0800 
 35 H       -2.9670    -5.0390     2.5260 H     1 <1>   0.0800 
 36 H       -1.2700    -5.3860     2.6860 H     1 <1>   0.0800 
 37 H       -2.1900    -5.9880    -1.2620 H     1 <1>   0.0800 
 38 H       -3.8730    -5.6890    -1.4770 H     1 <1>   0.0800 
 39 H       -2.5990    -7.4410     2.2000 H     1 <1>   0.0800 
 40 H       -1.3860    -7.1010     1.0170 H     1 <1>   0.0800 
 41 H       -5.8300    -6.2760    -0.5650 H     1 <1>   0.0800 
 42 H       -6.5570    -6.0940     1.0220 H     1 <1>   0.0800 
 43 H       -6.9450    -8.3740     0.0700 H     1 <1>   0.0800 
 44 H       -6.0650    -8.4140     1.5780 H     1 <1>   0.0800 
 45 H       -2.0560   -10.7060    -1.9430 H     1 <1>   0.1500 
 46 H       -6.0310   -10.5770    -0.5210 H     1 <1>   0.1500 
 47 H        0.6090    -8.3320    -1.3210 H     1 <1>   0.0800 
 48 H       -0.3020    -9.3530    -2.4270 H     1 <1>   0.0800 
 49 H       -0.1170    -9.8210    -0.7250 H     1 <1>   0.0800 
 50 H       -4.2210   -11.7640    -1.6620 H     1 <1>   0.1500 
@<TRIPOS>BOND
  1   1   2  2   
  2   2   3  1   
  3   2   4  1   
  4   3   5  ar  
  5   3   6  ar  
  6   4  27  1   
  7   4  28  1   
  8   4  29  1   
  9   5   7  ar  
 10   5  30  1   
 11   6   8  ar  
 12   6  31  1   
 13   7   9  ar  
 14   7  10  1   
 15   8   9  ar  
 16   8  32  1   
 17  10  11  1   
 18  10  12  1   
 19  11  13  1   
 20  11  33  1   
 21  11  34  1   
 22  12  14  1   
 23  12  35  1   
 24  12  36  1   
 25  13  15  1   
 26  13  37  1   
 27  13  38  1   
 28  14  15  1   
 29  14  39  1   
 30  14  40  1   
 31  15  16  1   
 32  15  17  1   
 33  16  18  1   
 34  17  19  ar  
 35  17  20  ar  
 36  18  21  1   
 37  18  41  1   
 38  18  42  1   
 39  19  22  1   
 40  19  23  ar  
 41  20  21  1   
 42  20  24  ar  
 43  21  43  1   
 44  21  44  1   
 45  22  25  1   
 46  23  26  ar  
 47  23  45  1   
 48  24  26  ar  
 49  24  46  1   
 50  25  47  1   
 51  25  48  1   
 52  25  49  1   
 53  26  50  1   
@<TRIPOS>SUBSTRUCTURE
  1 ****  13 GROUP 4 **** **** 0

# MOE 2024.06 (io_trps.svl 2023.06)
