@<TRIPOS>MOLECULE
NONAME
54 57 1 0 0 
SMALL
USER_CHARGES


@<TRIPOS>ATOM
  1 O        0.2610    -0.9410    -1.7320 O.2   1 <1>  -0.5700 
  2 C        0.1370    -2.1050    -1.4120 C.2   1 <1>   0.5440 
  3 N       -0.4070    -2.9130    -2.3490 N.am  1 <1>  -0.8000 
  4 C        0.5660    -2.5830    -0.1140 C.ar  1 <1>   0.0860 
  5 C        0.0150    -3.7200     0.5220 C.ar  1 <1>   0.4100 
  6 C        1.5750    -1.9040     0.5580 C.ar  1 <1>  -0.1500 
  7 N        0.4200    -4.1720     1.7090 N.ar  1 <1>  -0.6200 
  8 N       -1.0360    -4.4450    -0.0190 N.pl3 1 <1>  -0.8380 
  9 C        1.9900    -2.3740     1.7820 C.ar  1 <1>  -0.1500 
 10 C        1.3870    -3.5020     2.3040 C.ar  1 <1>   0.1600 
 11 C       -2.4080    -3.8950     0.1840 C.3   1 <1>   0.2090 
 12 C       -0.9750    -5.9460    -0.0030 C.3   1 <1>   0.2090 
 13 C       -3.0900    -4.5080     1.4280 C.3   1 <1>   0.2090 
 14 C       -1.6990    -6.5480     1.2180 C.3   1 <1>   0.2090 
 15 N       -3.1080    -6.0150     1.3660 N.pl3 1 <1>  -0.8380 
 16 C       -4.1870    -6.8410     1.3740 C.ar  1 <1>   0.7710 
 17 N       -4.0500    -8.0960     0.9730 N.ar  1 <1>  -0.6200 
 18 N       -5.3720    -6.3630     1.7960 N.ar  1 <1>  -0.1790 
 19 C       -5.1040    -8.8920     0.9880 C.ar  1 <1>   0.4100 
 20 C       -6.4850    -7.1340     1.8090 C.ar  1 <1>   0.2110 
 21 N       -4.9320   -10.1820     0.5940 N.pl3 1 <1>  -0.8380 
 22 C       -6.3650    -8.4170     1.3960 C.ar  1 <1>  -0.1500 
 23 C       -5.6920   -11.3400     1.1500 C.3   1 <1>   0.2090 
 24 C       -3.8390   -10.5940    -0.3400 C.3   1 <1>   0.2090 
 25 C       -6.3360   -12.1180     0.0020 C.3   1 <1>  -0.1600 
 26 C       -4.4400   -11.3820    -1.5060 C.3   1 <1>  -0.1600 
 27 C       -5.2620   -12.5630    -0.9900 C.3   1 <1>   0.2000 
 28 O       -5.8800   -13.1700    -2.0600 O.3   1 <1>  -0.6800 
 29 H       -0.6950    -2.5340    -3.2500 H     1 <1>   0.3700 
 30 H       -0.6880    -3.8660    -2.0990 H     1 <1>   0.3700 
 31 H        2.0240    -1.0270     0.1220 H     1 <1>   0.1500 
 32 H        2.7720    -1.8750     2.3260 H     1 <1>   0.1500 
 33 H        1.7200    -3.8670     3.2620 H     1 <1>   0.1500 
 34 H       -3.0020    -4.0970    -0.6900 H     1 <1>   0.0800 
 35 H       -2.3520    -2.8260     0.3020 H     1 <1>   0.0800 
 36 H        0.0540    -6.2630     0.0090 H     1 <1>   0.0800 
 37 H       -1.4240    -6.3290    -0.9020 H     1 <1>   0.0800 
 38 H       -4.0820    -4.1040     1.5010 H     1 <1>   0.0800 
 39 H       -2.5390    -4.1970     2.3010 H     1 <1>   0.0800 
 40 H       -1.1380    -6.2990     2.1020 H     1 <1>   0.0800 
 41 H       -1.6830    -7.6200     1.1320 H     1 <1>   0.0800 
 42 H       -5.3630    -5.4090     2.1350 H     1 <1>   0.4570 
 43 H       -7.4200    -6.7100     2.1410 H     1 <1>   0.1500 
 44 H       -7.2120    -9.0750     1.3620 H     1 <1>   0.1500 
 45 H       -6.4430   -11.0220     1.8500 H     1 <1>   0.0800 
 46 H       -5.0090   -11.9830     1.6800 H     1 <1>   0.0800 
 47 H       -3.1270   -11.2020     0.1920 H     1 <1>   0.0800 
 48 H       -3.3190    -9.7360    -0.7310 H     1 <1>   0.0800 
 49 H       -7.0590   -11.4880    -0.4830 H     1 <1>   0.0800 
 50 H       -6.8370   -12.9820     0.3980 H     1 <1>   0.0800 
 51 H       -3.6460   -11.7450    -2.1330 H     1 <1>   0.0800 
 52 H       -5.0590   -10.7180    -2.0820 H     1 <1>   0.0800 
 53 H       -4.6150   -13.2930    -0.5320 H     1 <1>   0.0800 
 54 H       -6.4520   -12.5310    -2.5250 H     1 <1>   0.4000 
@<TRIPOS>BOND
  1   1   2  2   
  2   2   3  am  
  3   2   4  1   
  4   3  29  1   
  5   3  30  1   
  6   4   5  ar  
  7   4   6  ar  
  8   5   7  ar  
  9   5   8  1   
 10   6   9  ar  
 11   6  31  1   
 12   7  10  ar  
 13   8  11  1   
 14   8  12  1   
 15   9  10  ar  
 16   9  32  1   
 17  10  33  1   
 18  11  13  1   
 19  11  34  1   
 20  11  35  1   
 21  12  14  1   
 22  12  36  1   
 23  12  37  1   
 24  13  15  1   
 25  13  38  1   
 26  13  39  1   
 27  14  15  1   
 28  14  40  1   
 29  14  41  1   
 30  15  16  1   
 31  16  17  ar  
 32  16  18  ar  
 33  17  19  ar  
 34  18  20  ar  
 35  18  42  1   
 36  19  21  1   
 37  19  22  ar  
 38  20  22  ar  
 39  20  43  1   
 40  21  23  1   
 41  21  24  1   
 42  22  44  1   
 43  23  25  1   
 44  23  45  1   
 45  23  46  1   
 46  24  26  1   
 47  24  47  1   
 48  24  48  1   
 49  25  27  1   
 50  25  49  1   
 51  25  50  1   
 52  26  27  1   
 53  26  51  1   
 54  26  52  1   
 55  27  28  1   
 56  27  53  1   
 57  28  54  1   
@<TRIPOS>SUBSTRUCTURE
  1 ****  15 GROUP 4 **** **** 0

# MOE 2024.06 (io_trps.svl 2023.06)
