@<TRIPOS>MOLECULE
NONAME
35 37 1 0 0 
SMALL
USER_CHARGES


@<TRIPOS>ATOM
  1 F       -0.8060     0.1120     0.0200 F     1 <1>  -0.1900 
  2 C       -2.0660     0.4600    -0.0730 C.ar  1 <1>   0.1900 
  3 C       -2.5100     1.5810     0.6160 C.ar  1 <1>   0.0820 
  4 C       -2.9120    -0.3000    -0.8570 C.ar  1 <1>  -0.1500 
  5 O       -1.6710     2.3160     1.3710 O.3   1 <1>  -0.5330 
  6 C       -3.8430     1.9400     0.5160 C.ar  1 <1>  -0.1500 
  7 C       -4.2460     0.0700    -0.9620 C.ar  1 <1>  -0.1440 
  8 C       -4.7030     1.1870    -0.2700 C.ar  1 <1>  -0.1500 
  9 C       -5.1880    -0.7530    -1.8350 C.3   1 <1>   0.0440 
 10 C       -5.4110    -2.1620    -1.3020 C.2   1 <1>   0.5690 
 11 O       -4.8420    -3.0650    -1.8740 O.2   1 <1>  -0.5700 
 12 N       -6.2300    -2.3790    -0.2340 N.am  1 <1>  -0.6600 
 13 C       -7.0010    -1.3540     0.5250 C.3   1 <1>   0.2350 
 14 C       -6.6220    -3.7360     0.2400 C.3   1 <1>   0.2350 
 15 C       -8.2450    -2.0720     1.0100 C.3   1 <1>  -0.2420 
 16 C       -8.0030    -3.5550     0.8520 C.3   1 <1>  -0.2420 
 17 C       -8.9520    -1.2270     2.0720 C.2   1 <1>   0.9470 
 18 C       -9.0960    -2.8820     0.0630 C.3   1 <1>  -0.2000 
 19 C       -8.3540    -4.7300     1.7680 C.2   1 <1>   0.9470 
 20 O      -10.1170    -0.8550     1.8770 O.co2 1 <1>  -0.9000 
 21 O       -8.2860    -0.7690     3.0110 O.co2 1 <1>  -0.9000 
 22 O       -9.3620    -5.4100     1.5310 O.co2 1 <1>  -0.9000 
 23 O       -7.5410    -5.0740     2.6370 O.co2 1 <1>  -0.9000 
 24 H       -2.5360    -1.1680    -1.3710 H     1 <1>   0.1500 
 25 H       -0.7670     1.9460     1.3650 H     1 <1>   0.4500 
 26 H       -4.2020     2.8000     1.0530 H     1 <1>   0.1500 
 27 H       -5.7380     1.4780    -0.3320 H     1 <1>   0.1500 
 28 H       -4.7630    -0.8300    -2.8190 H     1 <1>   0.0800 
 29 H       -6.1360    -0.2620    -1.9450 H     1 <1>   0.0800 
 30 H       -6.4160    -1.0200     1.3650 H     1 <1>   0.0800 
 31 H       -7.2800    -0.5150    -0.0830 H     1 <1>   0.0800 
 32 H       -6.6490    -4.4440    -0.5700 H     1 <1>   0.0800 
 33 H       -5.9220    -4.0670     0.9890 H     1 <1>   0.0800 
 34 H       -8.9850    -2.7530    -0.9970 H     1 <1>   0.1000 
 35 H      -10.1150    -3.0850     0.3500 H     1 <1>   0.1000 
@<TRIPOS>BOND
  1   1   2  1   
  2   2   3  ar  
  3   2   4  ar  
  4   3   5  1   
  5   3   6  ar  
  6   4   7  ar  
  7   4  24  1   
  8   5  25  1   
  9   6   8  ar  
 10   6  26  1   
 11   7   8  ar  
 12   7   9  1   
 13   8  27  1   
 14   9  10  1   
 15   9  28  1   
 16   9  29  1   
 17  10  11  2   
 18  10  12  am  
 19  12  13  1   
 20  12  14  1   
 21  13  15  1   
 22  13  30  1   
 23  13  31  1   
 24  14  16  1   
 25  14  32  1   
 26  14  33  1   
 27  15  16  1   
 28  15  17  1   
 29  15  18  1   
 30  16  18  1   
 31  16  19  1   
 32  17  20  ar  
 33  17  21  ar  
 34  18  34  1   
 35  18  35  1   
 36  19  22  ar  
 37  19  23  ar  
@<TRIPOS>SUBSTRUCTURE
  1 ****  13 GROUP 4 **** **** 0

# MOE 2024.06 (io_trps.svl 2023.06)
