@<TRIPOS>MOLECULE
NONAME
44 44 1 0 0 
SMALL
USER_CHARGES


@<TRIPOS>ATOM
  1 O       -0.4020     0.2710    -0.5550 O.2   1 <1>  -0.5700 
  2 C        0.6190    -0.3280    -0.3250 C.2   1 <1>   0.5690 
  3 N        1.7900     0.2710     0.0490 N.am  1 <1>  -0.4940 
  4 C        0.6090    -1.8330    -0.4570 C.3   1 <1>  -0.0990 
  5 C        2.1250     1.6310     0.2630 C.2   1 <1>  -0.0880 
  6 C        0.2650    -2.4960     0.8810 C.3   1 <1>   0.2200 
  7 N        1.3250     2.6390     0.7150 N.pl3 1 <1>   0.3140 
  8 C        3.3520     2.1770     0.0790 C.2   1 <1>  -0.1810 
  9 N        0.5870    -3.9380     0.8320 N.am  1 <1>  -0.7300 
 10 C       -1.1810    -2.2730     1.3280 C.3   1 <1>  -0.2400 
 11 N        2.0110     3.7960     0.8300 N.2   1 <1>  -0.7070 
 12 C       -0.0780     2.5930     1.1460 C.3   1 <1>   0.0160 
 13 C        3.2140     3.5140     0.4440 C.2   1 <1>   0.1080 
 14 C        4.6140     1.4950    -0.4240 C.3   1 <1>   0.0210 
 15 C        0.0270    -5.0040     0.2120 C.2   1 <1>   0.5690 
 16 C        4.3060     4.5690     0.4160 C.3   1 <1>   0.0210 
 17 C        5.4320     0.9460     0.7470 C.3   1 <1>  -0.2400 
 18 O        0.5430    -6.0820     0.3400 O.2   1 <1>  -0.5700 
 19 C       -1.2190    -4.9060    -0.6340 C.3   1 <1>  -0.1790 
 20 C        4.3570     5.2750    -0.9430 C.3   1 <1>  -0.2400 
 21 H        2.5970    -0.3490     0.0920 H     1 <1>   0.3700 
 22 H        1.5760    -2.1620    -0.7900 H     1 <1>   0.0800 
 23 H       -0.1130    -2.0990    -1.2060 H     1 <1>   0.0800 
 24 H        0.9010    -2.0640     1.6370 H     1 <1>   0.0800 
 25 H        1.3990    -4.2020     1.3950 H     1 <1>   0.3700 
 26 H       -1.8750    -2.5100     0.5450 H     1 <1>   0.0800 
 27 H       -1.3270    -1.2390     1.5860 H     1 <1>   0.0800 
 28 H       -1.4000    -2.8670     2.1970 H     1 <1>   0.0800 
 29 H       -0.2650     1.6700     1.6590 H     1 <1>   0.0800 
 30 H       -0.7100     2.6680     0.2810 H     1 <1>   0.0800 
 31 H       -0.2720     3.4180     1.8050 H     1 <1>   0.0800 
 32 H        5.2050     2.1960    -0.9860 H     1 <1>   0.0800 
 33 H        4.3480     0.6930    -1.0890 H     1 <1>   0.0800 
 34 H        5.2560     4.1160     0.6300 H     1 <1>   0.0800 
 35 H        4.1050     5.2920     1.1860 H     1 <1>   0.0800 
 36 H        5.7190     1.7460     1.4050 H     1 <1>   0.0800 
 37 H        6.3200     0.4610     0.3840 H     1 <1>   0.0800 
 38 H        4.8500     0.2360     1.3070 H     1 <1>   0.0800 
 39 H       -1.1600    -4.0800    -1.3130 H     1 <1>   0.0800 
 40 H       -2.0780    -4.8000     0.0010 H     1 <1>   0.0800 
 41 H       -1.3310    -5.8080    -1.2070 H     1 <1>   0.0800 
 42 H        4.5610     4.5670    -1.7260 H     1 <1>   0.0800 
 43 H        5.1230     6.0290    -0.9430 H     1 <1>   0.0800 
 44 H        3.4080     5.7430    -1.1420 H     1 <1>   0.0800 
@<TRIPOS>BOND
  1   1   2  2   
  2   2   3  am  
  3   2   4  1   
  4   3   5  1   
  5   3  21  1   
  6   4   6  1   
  7   4  22  1   
  8   4  23  1   
  9   5   7  1   
 10   5   8  2   
 11   6   9  1   
 12   6  10  1   
 13   6  24  1   
 14   7  11  1   
 15   7  12  1   
 16   8  13  1   
 17   8  14  1   
 18   9  15  am  
 19   9  25  1   
 20  10  26  1   
 21  10  27  1   
 22  10  28  1   
 23  11  13  2   
 24  12  29  1   
 25  12  30  1   
 26  12  31  1   
 27  13  16  1   
 28  14  17  1   
 29  14  32  1   
 30  14  33  1   
 31  15  18  2   
 32  15  19  1   
 33  16  20  1   
 34  16  34  1   
 35  16  35  1   
 36  17  36  1   
 37  17  37  1   
 38  17  38  1   
 39  19  39  1   
 40  19  40  1   
 41  19  41  1   
 42  20  42  1   
 43  20  43  1   
 44  20  44  1   
@<TRIPOS>SUBSTRUCTURE
  1 ****   3 GROUP 4 **** **** 0

# MOE 2024.06 (io_trps.svl 2023.06)
