@<TRIPOS>MOLECULE
NONAME
49 52 1 0 0 
SMALL
USER_CHARGES


@<TRIPOS>ATOM
  1 O       -2.8400     1.4970     2.0640 O.2   1 <1>  -0.5700 
  2 C       -2.3220     1.3530     0.9810 C.2   1 <1>   0.5690 
  3 N       -2.0930     0.0990     0.4660 N.am  1 <1>  -0.6600 
  4 C       -1.9920     2.6290     0.2190 C.3   1 <1>   0.1570 
  5 C       -2.6310    -1.1140     1.1580 C.3   1 <1>   0.3210 
  6 C       -1.3650    -0.1850    -0.8180 C.3   1 <1>   0.1400 
  7 N       -0.5390     2.8560     0.0760 N.pl3 1 <1>   0.0480 
  8 C       -3.7540    -1.7380     0.3360 C.2   1 <1>   0.0460 
  9 C       -2.2570    -0.1660    -2.0770 C.3   1 <1>   0.1200 
 10 C        0.1250     3.0140    -1.1020 C.ar  1 <1>  -0.1520 
 11 C        0.4100     2.9780     1.0470 C.2   1 <1>   0.1010 
 12 N       -3.5160    -2.7960    -0.4680 N.2   1 <1>  -0.5650 
 13 C       -5.0530    -1.3600     0.2610 C.2   1 <1>  -0.3320 
 14 O       -3.4180     0.5670    -1.8710 O.3   1 <1>  -0.6800 
 15 C        1.4490     3.2080    -0.7560 C.ar  1 <1>   0.2270 
 16 C       -0.2740     3.0030    -2.4430 C.ar  1 <1>  -0.1500 
 17 N        1.5990     3.1790     0.5940 N.2   1 <1>  -0.5650 
 18 C        0.0810     2.8840     2.5290 C.3   1 <1>  -0.0150 
 19 C       -4.6650    -3.0420    -1.0060 C.2   1 <1>   0.0360 
 20 N       -5.6430    -2.2050    -0.6050 N.pl3 1 <1>   0.0330 
 21 C       -5.8040    -0.2390     0.9600 C.3   1 <1>  -0.0600 
 22 C        2.4100     3.3950    -1.7480 C.ar  1 <1>  -0.1500 
 23 C        0.6820     3.1880    -3.4160 C.ar  1 <1>  -0.1500 
 24 C       -0.6970     3.9780     3.1920 C.3   1 <1>  -0.2000 
 25 C        0.7510     3.7860     3.5200 C.3   1 <1>  -0.2000 
 26 C        2.0250     3.3840    -3.0700 C.ar  1 <1>  -0.1500 
 27 H       -2.4100     3.4650     0.7470 H     1 <1>   0.0800 
 28 H       -2.4470     2.5930    -0.7490 H     1 <1>   0.0800 
 29 H       -3.0130    -0.8640     2.1320 H     1 <1>   0.0800 
 30 H       -1.8440    -1.8340     1.2940 H     1 <1>   0.0800 
 31 H       -0.8950    -1.1510    -0.7540 H     1 <1>   0.0800 
 32 H       -0.5630     0.5150    -0.9490 H     1 <1>   0.0800 
 33 H       -2.5440    -1.1690    -2.3390 H     1 <1>   0.0800 
 34 H       -1.7250     0.2620    -2.9090 H     1 <1>   0.0800 
 35 H       -3.9130     0.1270    -1.1420 H     1 <1>   0.4000 
 36 H       -1.3070     2.8540    -2.7070 H     1 <1>   0.1500 
 37 H       -0.1010     1.8720     2.8440 H     1 <1>   0.1000 
 38 H       -4.8470    -3.8370    -1.7090 H     1 <1>   0.1500 
 39 H       -6.6240    -2.2180    -0.8990 H     1 <1>   0.2700 
 40 H       -5.1590     0.2820     1.6450 H     1 <1>   0.0800 
 41 H       -6.6330    -0.6370     1.5160 H     1 <1>   0.0800 
 42 H       -6.1750     0.4680     0.2380 H     1 <1>   0.0800 
 43 H        3.4310     3.5450    -1.4510 H     1 <1>   0.1500 
 44 H        0.4050     3.1850    -4.4560 H     1 <1>   0.1500 
 45 H       -1.4460     3.6980     3.9130 H     1 <1>   0.1000 
 46 H       -0.9760     4.8440     2.6170 H     1 <1>   0.1000 
 47 H        1.4750     4.4910     3.1480 H     1 <1>   0.1000 
 48 H        1.0250     3.3790     4.4770 H     1 <1>   0.1000 
 49 H        2.7540     3.5280    -3.8480 H     1 <1>   0.1500 
@<TRIPOS>BOND
  1   1   2  2   
  2   2   3  am  
  3   2   4  1   
  4   3   5  1   
  5   3   6  1   
  6   4   7  1   
  7   4  27  1   
  8   4  28  1   
  9   5   8  1   
 10   5  29  1   
 11   5  30  1   
 12   6   9  1   
 13   6  31  1   
 14   6  32  1   
 15   7  10  1   
 16   7  11  1   
 17   8  12  1   
 18   8  13  2   
 19   9  14  1   
 20   9  33  1   
 21   9  34  1   
 22  10  15  ar  
 23  10  16  ar  
 24  11  17  2   
 25  11  18  1   
 26  12  19  2   
 27  13  20  1   
 28  13  21  1   
 29  14  35  1   
 30  15  17  1   
 31  15  22  ar  
 32  16  23  ar  
 33  16  36  1   
 34  18  24  1   
 35  18  25  1   
 36  18  37  1   
 37  19  20  1   
 38  19  38  1   
 39  20  39  1   
 40  21  40  1   
 41  21  41  1   
 42  21  42  1   
 43  22  26  ar  
 44  22  43  1   
 45  23  26  ar  
 46  23  44  1   
 47  24  25  1   
 48  24  45  1   
 49  24  46  1   
 50  25  47  1   
 51  25  48  1   
 52  26  49  1   
@<TRIPOS>SUBSTRUCTURE
  1 ****   2 GROUP 4 **** **** 0

# MOE 2024.06 (io_trps.svl 2023.06)
