@<TRIPOS>MOLECULE
NONAME
46 47 1 0 0 
SMALL
USER_CHARGES


@<TRIPOS>ATOM
  1 S        0.5690    -0.4580     0.9820 S.o2  1 <1>   1.3330 
  2 O        1.5940    -1.2550     1.6180 O.2   1 <1>  -0.6500 
  3 O       -0.1760     0.5010     1.7650 O.2   1 <1>  -0.6500 
  4 N       -0.5370    -1.5250     0.2600 N.am  1 <1>  -0.8490 
  5 C        1.2490     0.4090    -0.4330 C.3   1 <1>  -0.0550 
  6 C       -1.6620    -1.8410     1.1450 C.3   1 <1>   0.1160 
  7 C        0.0810    -2.7660    -0.2210 C.3   1 <1>   0.1160 
  8 C        2.2570     1.5160    -0.0610 C.3   1 <1>  -0.0800 
  9 C        2.6140     2.3570    -1.2750 C.3   1 <1>   0.2200 
 10 C        3.6220     0.9390     0.3160 C.3   1 <1>   0.1200 
 11 N        3.1030     3.6790    -0.8280 N.am  1 <1>  -0.7300 
 12 C        3.7600     1.5620    -1.9010 C.3   1 <1>   0.1200 
 13 O        4.3110     0.7720    -0.8860 O.3   1 <1>  -0.5600 
 14 C        2.5550     4.8920    -1.1230 C.2   1 <1>   0.7160 
 15 O        1.5440     4.9280    -1.7990 O.2   1 <1>  -0.5700 
 16 C        3.1910     6.1060    -0.6330 C.2   1 <1>   0.1410 
 17 N        4.3710     6.0320     0.1320 N.2   1 <1>  -0.5650 
 18 C        2.7490     7.3650    -0.8460 C.2   1 <1>  -0.1100 
 19 C        4.7960     7.1810     0.4740 C.2   1 <1>   0.1980 
 20 S        3.8070     8.5090    -0.0880 S.3   1 <1>  -0.0800 
 21 C        6.0250     7.5200     1.2960 C.3   1 <1>   0.0200 
 22 C        7.1490     8.0930     0.4220 C.3   1 <1>  -0.1600 
 23 C        8.4010     8.4090     1.2480 C.3   1 <1>  -0.2400 
 24 H        1.7180    -0.2950    -1.0930 H     1 <1>   0.0800 
 25 H        0.4320     0.8580    -0.9630 H     1 <1>   0.0800 
 26 H       -2.3500    -2.5060     0.6520 H     1 <1>   0.0800 
 27 H       -2.1940    -0.9400     1.4020 H     1 <1>   0.0800 
 28 H       -1.3080    -2.3030     2.0520 H     1 <1>   0.0800 
 29 H       -0.6440    -3.3590    -0.7500 H     1 <1>   0.0800 
 30 H        0.4680    -3.3400     0.6060 H     1 <1>   0.0800 
 31 H        0.8920    -2.5420    -0.8930 H     1 <1>   0.0800 
 32 H        1.8450     2.1210     0.7300 H     1 <1>   0.0800 
 33 H        1.7920     2.4780    -1.9610 H     1 <1>   0.0800 
 34 H        3.5740    -0.0060     0.8270 H     1 <1>   0.0800 
 35 H        4.1780     1.6390     0.9160 H     1 <1>   0.0800 
 36 H        3.9720     3.6970    -0.2860 H     1 <1>   0.3700 
 37 H        4.5230     2.1970    -2.3150 H     1 <1>   0.0800 
 38 H        3.3890     0.8970    -2.6600 H     1 <1>   0.0800 
 39 H        1.8940     7.7340    -1.3830 H     1 <1>   0.1500 
 40 H        5.7520     8.2260     2.0600 H     1 <1>   0.0800 
 41 H        6.3690     6.6230     1.7800 H     1 <1>   0.0800 
 42 H        7.3980     7.3800    -0.3450 H     1 <1>   0.0800 
 43 H        6.8070     8.9930    -0.0610 H     1 <1>   0.0800 
 44 H        8.7770     7.5180     1.7190 H     1 <1>   0.0800 
 45 H        8.1780     9.1370     2.0080 H     1 <1>   0.0800 
 46 H        9.1700     8.8080     0.6100 H     1 <1>   0.0800 
@<TRIPOS>BOND
  1   1   2  2   
  2   1   3  2   
  3   1   4  am  
  4   1   5  1   
  5   4   6  1   
  6   4   7  1   
  7   5   8  1   
  8   5  24  1   
  9   5  25  1   
 10   6  26  1   
 11   6  27  1   
 12   6  28  1   
 13   7  29  1   
 14   7  30  1   
 15   7  31  1   
 16   8   9  1   
 17   8  10  1   
 18   8  32  1   
 19   9  11  1   
 20   9  12  1   
 21   9  33  1   
 22  10  13  1   
 23  10  34  1   
 24  10  35  1   
 25  11  14  am  
 26  11  36  1   
 27  12  13  1   
 28  12  37  1   
 29  12  38  1   
 30  14  15  2   
 31  14  16  1   
 32  16  17  1   
 33  16  18  2   
 34  17  19  2   
 35  18  20  1   
 36  18  39  1   
 37  19  20  1   
 38  19  21  1   
 39  21  22  1   
 40  21  40  1   
 41  21  41  1   
 42  22  23  1   
 43  22  42  1   
 44  22  43  1   
 45  23  44  1   
 46  23  45  1   
 47  23  46  1   
@<TRIPOS>SUBSTRUCTURE
  1 ****  11 GROUP 4 **** **** 0

# MOE 2024.06 (io_trps.svl 2023.06)
