@<TRIPOS>MOLECULE
NONAME
38 38 1 0 0 
SMALL
USER_CHARGES


@<TRIPOS>ATOM
  1 O       -0.0690     0.1980    -1.3770 O.2   1 <1>  -0.5700 
  2 C        0.8130    -0.4260    -0.8390 C.2   1 <1>   0.5690 
  3 N        1.9520     0.1410    -0.3530 N.am  1 <1>  -0.4930 
  4 C        0.6420    -1.9210    -0.6910 C.3   1 <1>  -0.0990 
  5 C        2.3250     1.5090    -0.3310 C.2   1 <1>   0.0630 
  6 C       -0.0790    -2.2610     0.6180 C.3   1 <1>   0.2200 
  7 C        3.4790     2.0200     0.1540 C.2   1 <1>  -0.3320 
  8 C        1.6100     2.6170    -0.7880 C.2   1 <1>   0.1390 
  9 N        0.0750    -3.7000     0.9250 N.am  1 <1>  -0.7300 
 10 C       -1.5540    -1.8550     0.6360 C.3   1 <1>  -0.2400 
 11 N        3.4110     3.3660    -0.0260 N.pl3 1 <1>   0.3140 
 12 C        4.6650     1.3060     0.7890 C.3   1 <1>  -0.0600 
 13 N        2.2540     3.7300    -0.6050 N.2   1 <1>  -0.7070 
 14 C       -0.4420    -4.8320     0.3940 C.2   1 <1>   0.5690 
 15 C        4.4240     4.3820     0.3360 C.3   1 <1>   0.0960 
 16 O       -0.1030    -5.8920     0.8510 O.2   1 <1>  -0.5700 
 17 C       -1.4310    -4.8330    -0.7470 C.3   1 <1>  -0.1790 
 18 C        5.4390     4.5830    -0.7960 C.3   1 <1>  -0.2400 
 19 H        2.6500    -0.4820     0.0420 H     1 <1>   0.3700 
 20 H        1.6100    -2.3870    -0.7070 H     1 <1>   0.0800 
 21 H        0.0820    -2.2780    -1.5340 H     1 <1>   0.0800 
 22 H        0.4080    -1.7220     1.4140 H     1 <1>   0.0800 
 23 H        0.6350     2.5650    -1.2400 H     1 <1>   0.1500 
 24 H        0.6900    -3.8900     1.7200 H     1 <1>   0.3700 
 25 H       -2.0700    -2.2040    -0.2390 H     1 <1>   0.0800 
 26 H       -1.6350    -0.7830     0.6510 H     1 <1>   0.0800 
 27 H       -2.0370    -2.2370     1.5170 H     1 <1>   0.0800 
 28 H        4.5030     0.2450     0.8170 H     1 <1>   0.0800 
 29 H        4.8100     1.6540     1.7960 H     1 <1>   0.0800 
 30 H        5.5580     1.4970     0.2220 H     1 <1>   0.0800 
 31 H        4.9200     4.0730     1.2370 H     1 <1>   0.0800 
 32 H        3.9100     5.3060     0.5320 H     1 <1>   0.0800 
 33 H       -1.1120    -4.1780    -1.5310 H     1 <1>   0.0800 
 34 H       -2.3960    -4.5340    -0.3860 H     1 <1>   0.0800 
 35 H       -1.5120    -5.8270    -1.1470 H     1 <1>   0.0800 
 36 H        5.9660     3.6680    -0.9990 H     1 <1>   0.0800 
 37 H        6.1520     5.3370    -0.5170 H     1 <1>   0.0800 
 38 H        4.9310     4.9060    -1.6880 H     1 <1>   0.0800 
@<TRIPOS>BOND
  1   1   2  2   
  2   2   3  am  
  3   2   4  1   
  4   3   5  1   
  5   3  19  1   
  6   4   6  1   
  7   4  20  1   
  8   4  21  1   
  9   5   7  2   
 10   5   8  1   
 11   6   9  1   
 12   6  10  1   
 13   6  22  1   
 14   7  11  1   
 15   7  12  1   
 16   8  13  2   
 17   8  23  1   
 18   9  14  am  
 19   9  24  1   
 20  10  25  1   
 21  10  26  1   
 22  10  27  1   
 23  11  13  1   
 24  11  15  1   
 25  12  28  1   
 26  12  29  1   
 27  12  30  1   
 28  14  16  2   
 29  14  17  1   
 30  15  18  1   
 31  15  31  1   
 32  15  32  1   
 33  17  33  1   
 34  17  34  1   
 35  17  35  1   
 36  18  36  1   
 37  18  37  1   
 38  18  38  1   
@<TRIPOS>SUBSTRUCTURE
  1 ****   3 GROUP 4 **** **** 0

# MOE 2024.06 (io_trps.svl 2023.06)
