@<TRIPOS>MOLECULE
NONAME
44 45 1 0 0 
SMALL
USER_CHARGES


@<TRIPOS>ATOM
  1 O       -1.3630     0.2750     2.2060 O.2   1 <1>  -0.5700 
  2 C       -1.5300     0.6930     1.0840 C.2   1 <1>   0.5690 
  3 N       -1.8930    -0.1560     0.0610 N.am  1 <1>  -0.6600 
  4 C       -1.3290     2.2050     0.9020 C.3   1 <1>  -0.0190 
  5 C       -2.1910    -1.5880     0.3580 C.3   1 <1>   0.2840 
  6 C       -2.1470     0.2190    -1.3610 C.3   1 <1>   0.0600 
  7 C       -2.6060     2.9510     0.4540 C.3   1 <1>  -0.1600 
  8 C       -0.0790     2.5640     0.0590 C.3   1 <1>  -0.1600 
  9 C       -3.6850    -1.8420     0.2200 C.ar  1 <1>  -0.1430 
 10 C       -2.4260     4.4830     0.4750 C.3   1 <1>   0.2000 
 11 C       -0.1920     3.9270    -0.6490 C.3   1 <1>  -0.1600 
 12 C       -4.1880    -2.6030    -0.8250 C.ar  1 <1>  -0.1500 
 13 C       -4.5600    -1.3030     1.1520 C.ar  1 <1>  -0.1500 
 14 O       -3.2590     5.0290    -0.5190 O.3   1 <1>  -0.5600 
 15 C       -0.9600     4.9290     0.2170 C.3   1 <1>   0.2000 
 16 C       -5.5540    -2.8140    -0.9300 C.ar  1 <1>   0.0820 
 17 C       -5.9250    -1.5160     1.0440 C.ar  1 <1>  -0.1500 
 18 C       -4.5990     5.1670    -0.1590 C.3   1 <1>   0.0400 
 19 O       -0.9620     6.1430    -0.4390 O.3   1 <1>  -0.6800 
 20 O       -6.0490    -3.5490    -1.9370 O.3   1 <1>  -0.5330 
 21 C       -6.4240    -2.2730     0.0000 C.ar  1 <1>  -0.1500 
 22 H       -1.1250     2.5810     1.8910 H     1 <1>   0.0800 
 23 H       -1.6400    -2.2120    -0.3240 H     1 <1>   0.0800 
 24 H       -1.8800    -1.8510     1.3540 H     1 <1>   0.0800 
 25 H       -1.7330    -0.5290    -2.0150 H     1 <1>   0.0800 
 26 H       -1.7030     1.1620    -1.6130 H     1 <1>   0.0800 
 27 H       -3.2090     0.2800    -1.5320 H     1 <1>   0.0800 
 28 H       -3.4160     2.6810     1.1080 H     1 <1>   0.0800 
 29 H       -2.8700     2.6530    -0.5420 H     1 <1>   0.0800 
 30 H        0.7710     2.5820     0.7200 H     1 <1>   0.0800 
 31 H        0.1260     1.8060    -0.6750 H     1 <1>   0.0800 
 32 H       -2.7220     4.8780     1.4320 H     1 <1>   0.0800 
 33 H       -0.7170     3.8020    -1.5800 H     1 <1>   0.0800 
 34 H        0.7930     4.3050    -0.8610 H     1 <1>   0.0800 
 35 H       -3.5220    -3.0280    -1.5530 H     1 <1>   0.1500 
 36 H       -4.1740    -0.7110     1.9660 H     1 <1>   0.1500 
 37 H       -0.4410     5.0600     1.1510 H     1 <1>   0.0800 
 38 H       -6.5950    -1.0940     1.7720 H     1 <1>   0.1500 
 39 H       -5.1250     5.6050    -0.9890 H     1 <1>   0.0800 
 40 H       -4.6730     5.8160     0.6970 H     1 <1>   0.0800 
 41 H       -5.0160     4.2000     0.0610 H     1 <1>   0.0800 
 42 H       -1.8150     6.1740    -0.9320 H     1 <1>   0.4000 
 43 H       -5.3630    -3.9100    -2.5240 H     1 <1>   0.4500 
 44 H       -7.4800    -2.4480    -0.0980 H     1 <1>   0.1500 
@<TRIPOS>BOND
  1   1   2  2   
  2   2   3  am  
  3   2   4  1   
  4   3   5  1   
  5   3   6  1   
  6   4   7  1   
  7   4   8  1   
  8   4  22  1   
  9   5   9  1   
 10   5  23  1   
 11   5  24  1   
 12   6  25  1   
 13   6  26  1   
 14   6  27  1   
 15   7  10  1   
 16   7  28  1   
 17   7  29  1   
 18   8  11  1   
 19   8  30  1   
 20   8  31  1   
 21   9  12  ar  
 22   9  13  ar  
 23  10  14  1   
 24  10  15  1   
 25  10  32  1   
 26  11  15  1   
 27  11  33  1   
 28  11  34  1   
 29  12  16  ar  
 30  12  35  1   
 31  13  17  ar  
 32  13  36  1   
 33  14  18  1   
 34  15  19  1   
 35  15  37  1   
 36  16  20  1   
 37  16  21  ar  
 38  17  21  ar  
 39  17  38  1   
 40  18  39  1   
 41  18  40  1   
 42  18  41  1   
 43  19  42  1   
 44  20  43  1   
 45  21  44  1   
@<TRIPOS>SUBSTRUCTURE
  1 ****   3 GROUP 4 **** **** 0

# MOE 2024.06 (io_trps.svl 2023.06)
