@<TRIPOS>MOLECULE
NONAME
46 48 1 0 0 
SMALL
USER_CHARGES


@<TRIPOS>ATOM
  1 F       -1.9210    -0.3820     1.2900 F     1 <1>  -0.1900 
  2 C       -2.3500     0.5440     0.4770 C.ar  1 <1>   0.1900 
  3 C       -3.1700     0.1960    -0.6040 C.ar  1 <1>   0.0860 
  4 C       -1.9500     1.8390     0.7450 C.ar  1 <1>  -0.1500 
  5 C       -3.5960    -1.1640    -0.8840 C.2   1 <1>   0.5440 
  6 C       -3.5730     1.2450    -1.4400 C.ar  1 <1>  -0.1500 
  7 C       -2.3870     2.8300    -0.1080 C.ar  1 <1>   0.1900 
  8 O       -3.7970    -1.5150    -2.0300 O.2   1 <1>  -0.5700 
  9 N       -3.8750    -2.0910     0.0950 N.am  1 <1>  -0.6600 
 10 C       -3.1910     2.5550    -1.2000 C.ar  1 <1>  -0.1500 
 11 F       -2.0300     4.0620     0.1190 F     1 <1>  -0.1900 
 12 C       -4.7730    -1.7690     1.2400 C.3   1 <1>   0.1400 
 13 C       -3.7930    -3.5470    -0.2130 C.3   1 <1>   0.1400 
 14 C       -6.1900    -2.3520     1.0120 C.3   1 <1>   0.4230 
 15 C       -5.2000    -4.1030    -0.4890 C.3   1 <1>   0.3430 
 16 N       -6.1570    -3.8310     0.6550 N.4   1 <1>  -0.9590 
 17 C       -6.9460    -1.5430    -0.0690 C.3   1 <1>   0.1200 
 18 C       -7.5600    -4.3040     0.3810 C.3   1 <1>   0.4230 
 19 O       -8.2310    -2.0650    -0.2510 O.3   1 <1>  -0.5600 
 20 C       -8.2700    -3.4030    -0.6600 C.3   1 <1>   0.1200 
 21 C       -7.5640    -5.7910    -0.0140 C.3   1 <1>  -0.1600 
 22 C       -8.9660    -6.4150     0.0710 C.3   1 <1>  -0.1600 
 23 C       -8.9160    -7.9120    -0.2460 C.3   1 <1>  -0.2400 
 24 H       -1.3200     2.0700     1.5850 H     1 <1>   0.1500 
 25 H       -4.1910     1.0260    -2.2960 H     1 <1>   0.1500 
 26 H       -3.5050     3.3560    -1.8470 H     1 <1>   0.1500 
 27 H       -4.3530    -2.1780     2.1430 H     1 <1>   0.0800 
 28 H       -4.8410    -0.7020     1.3720 H     1 <1>   0.0800 
 29 H       -3.1700    -3.7060    -1.0780 H     1 <1>   0.0800 
 30 H       -3.3410    -4.0670     0.6130 H     1 <1>   0.0800 
 31 H       -6.7410    -2.2280     1.9300 H     1 <1>   0.0800 
 32 H       -5.1250    -5.1630    -0.6660 H     1 <1>   0.0800 
 33 H       -5.5680    -3.6430    -1.3930 H     1 <1>   0.0800 
 34 H       -5.8130    -4.3400     1.4760 H     1 <1>   0.4500 
 35 H       -6.4280    -1.5600    -1.0130 H     1 <1>   0.0800 
 36 H       -7.0550    -0.5190     0.2400 H     1 <1>   0.0800 
 37 H       -8.1240    -4.2190     1.2950 H     1 <1>   0.0800 
 38 H       -9.3060    -3.6760    -0.7480 H     1 <1>   0.0800 
 39 H       -7.8140    -3.4840    -1.6310 H     1 <1>   0.0800 
 40 H       -7.1980    -5.9120    -1.0180 H     1 <1>   0.0800 
 41 H       -6.9200    -6.3340     0.6560 H     1 <1>   0.0800 
 42 H       -9.3710    -6.2850     1.0620 H     1 <1>   0.0800 
 43 H       -9.6360    -5.9420    -0.6270 H     1 <1>   0.0800 
 44 H       -8.2840    -8.4320     0.4530 H     1 <1>   0.0800 
 45 H       -8.5420    -8.0790    -1.2420 H     1 <1>   0.0800 
 46 H       -9.9040    -8.3340    -0.1840 H     1 <1>   0.0800 
@<TRIPOS>BOND
  1   1   2  1   
  2   2   3  ar  
  3   2   4  ar  
  4   3   5  1   
  5   3   6  ar  
  6   4   7  ar  
  7   4  24  1   
  8   5   8  2   
  9   5   9  am  
 10   6  10  ar  
 11   6  25  1   
 12   7  10  ar  
 13   7  11  1   
 14   9  12  1   
 15   9  13  1   
 16  10  26  1   
 17  12  14  1   
 18  12  27  1   
 19  12  28  1   
 20  13  15  1   
 21  13  29  1   
 22  13  30  1   
 23  14  16  1   
 24  14  17  1   
 25  14  31  1   
 26  15  16  1   
 27  15  32  1   
 28  15  33  1   
 29  16  18  1   
 30  16  34  1   
 31  17  19  1   
 32  17  35  1   
 33  17  36  1   
 34  18  20  1   
 35  18  21  1   
 36  18  37  1   
 37  19  20  1   
 38  20  38  1   
 39  20  39  1   
 40  21  22  1   
 41  21  40  1   
 42  21  41  1   
 43  22  23  1   
 44  22  42  1   
 45  22  43  1   
 46  23  44  1   
 47  23  45  1   
 48  23  46  1   
@<TRIPOS>SUBSTRUCTURE
  1 ****   9 GROUP 4 **** **** 0

# MOE 2024.06 (io_trps.svl 2023.06)
