@<TRIPOS>MOLECULE
NONAME
48 50 1 0 0 
SMALL
USER_CHARGES


@<TRIPOS>ATOM
  1 O        0.5180     0.1020    -1.4360 O.2   1 <1>  -0.5700 
  2 C        1.3790    -0.7270    -1.2630 C.2   1 <1>   0.5690 
  3 N        2.6810    -0.4720    -1.5280 N.am  1 <1>  -0.7300 
  4 C        0.9930    -2.0790    -0.7150 C.3   1 <1>  -0.0990 
  5 C        3.1900     0.8100    -2.0440 C.3   1 <1>   0.3200 
  6 C        0.3450    -2.9400    -1.8030 C.3   1 <1>   0.0200 
  7 C        3.2820     1.7820    -0.8930 C.2   1 <1>  -0.3320 
  8 C       -0.0290    -4.2970    -1.2440 C.2   1 <1>   0.0060 
  9 N        2.1940     2.1790    -0.2070 N.pl3 1 <1>   0.3000 
 10 C        4.3400     2.4160    -0.3430 C.2   1 <1>  -0.1500 
 11 N        0.7460    -5.3220    -1.2830 N.2   1 <1>  -0.5650 
 12 N       -1.2220    -4.5350    -0.6430 N.pl3 1 <1>   0.0330 
 13 N        2.5120     3.0500     0.7720 N.2   1 <1>  -0.7070 
 14 C        3.8030     3.1880     0.6840 C.2   1 <1>   0.1080 
 15 C        0.0340    -6.3180    -0.6710 C.ar  1 <1>   0.2270 
 16 C       -1.1950    -5.8350    -0.2640 C.ar  1 <1>  -0.1520 
 17 C        4.5950     4.0980     1.6150 C.3   1 <1>   0.3010 
 18 C        0.3840    -7.6540    -0.4310 C.ar  1 <1>  -0.1430 
 19 C       -2.1140    -6.6510     0.3930 C.ar  1 <1>  -0.1500 
 20 O        5.9680     4.0370     1.3370 O.3   1 <1>  -0.5600 
 21 C       -0.5200    -8.4690     0.2320 C.ar  1 <1>  -0.1430 
 22 C        1.7490    -8.1390    -0.9090 C.3   1 <1>  -0.0970 
 23 C       -1.7650    -7.9590     0.6340 C.ar  1 <1>  -0.1500 
 24 C        6.7460     4.8480     2.1570 C.3   1 <1>   0.0400 
 25 C       -0.2110    -9.9250     0.5510 C.3   1 <1>  -0.0970 
 26 H        3.4010    -1.1360    -1.2390 H     1 <1>   0.3700 
 27 H        0.3030    -1.9360     0.0960 H     1 <1>   0.0800 
 28 H        1.8610    -2.5820    -0.3300 H     1 <1>   0.0800 
 29 H        2.5190     1.1930    -2.7950 H     1 <1>   0.0800 
 30 H        4.1590     0.6640    -2.4900 H     1 <1>   0.0800 
 31 H        1.0400    -3.0790    -2.6130 H     1 <1>   0.0800 
 32 H       -0.5290    -2.4500    -2.1960 H     1 <1>   0.0800 
 33 H        1.2340     1.8440    -0.3880 H     1 <1>   0.2700 
 34 H        5.3830     2.3690    -0.6040 H     1 <1>   0.1500 
 35 H       -1.9880    -3.8740    -0.4980 H     1 <1>   0.2700 
 36 H        4.4340     3.7900     2.6320 H     1 <1>   0.0800 
 37 H        4.2610     5.1120     1.4860 H     1 <1>   0.0800 
 38 H       -3.0670    -6.2620     0.7010 H     1 <1>   0.1500 
 39 H        2.0320    -7.6210    -1.8080 H     1 <1>   0.0800 
 40 H        1.7410    -9.1900    -1.1270 H     1 <1>   0.0800 
 41 H        2.4860    -7.9380    -0.1530 H     1 <1>   0.0800 
 42 H       -2.4600    -8.6050     1.1420 H     1 <1>   0.1500 
 43 H        7.7740     4.7290     1.8650 H     1 <1>   0.0800 
 44 H        6.6220     4.5420     3.1810 H     1 <1>   0.0800 
 45 H        6.4480     5.8740     2.0270 H     1 <1>   0.0800 
 46 H        0.7730   -10.0120     0.9750 H     1 <1>   0.0800 
 47 H       -0.2600   -10.5120    -0.3480 H     1 <1>   0.0800 
 48 H       -0.9140   -10.3240     1.2590 H     1 <1>   0.0800 
@<TRIPOS>BOND
  1   1   2  2   
  2   2   3  am  
  3   2   4  1   
  4   3   5  1   
  5   3  26  1   
  6   4   6  1   
  7   4  27  1   
  8   4  28  1   
  9   5   7  1   
 10   5  29  1   
 11   5  30  1   
 12   6   8  1   
 13   6  31  1   
 14   6  32  1   
 15   7   9  1   
 16   7  10  2   
 17   8  11  2   
 18   8  12  1   
 19   9  13  1   
 20   9  33  1   
 21  10  14  1   
 22  10  34  1   
 23  11  15  1   
 24  12  16  1   
 25  12  35  1   
 26  13  14  2   
 27  14  17  1   
 28  15  16  ar  
 29  15  18  ar  
 30  16  19  ar  
 31  17  20  1   
 32  17  36  1   
 33  17  37  1   
 34  18  21  ar  
 35  18  22  1   
 36  19  23  ar  
 37  19  38  1   
 38  20  24  1   
 39  21  23  ar  
 40  21  25  1   
 41  22  39  1   
 42  22  40  1   
 43  22  41  1   
 44  23  42  1   
 45  24  43  1   
 46  24  44  1   
 47  24  45  1   
 48  25  46  1   
 49  25  47  1   
 50  25  48  1   
@<TRIPOS>SUBSTRUCTURE
  1 ****   4 GROUP 4 **** **** 0

# MOE 2024.06 (io_trps.svl 2023.06)
