@<TRIPOS>MOLECULE
NONAME
62 64 1 0 0 
SMALL
USER_CHARGES


@<TRIPOS>ATOM
  1 O       -3.3360     2.0810     1.2640 O.2   1 <1>  -0.5700 
  2 C       -2.5320     1.8450     0.3850 C.2   1 <1>   0.5690 
  3 N       -2.9540     1.1760    -0.7550 N.am  1 <1>  -0.6600 
  4 C       -1.0580     2.3280     0.6170 C.3   1 <1>   0.3410 
  5 C       -4.3560     1.2370    -1.2700 C.3   1 <1>   0.2200 
  6 C       -2.1510     0.1150    -1.4250 C.3   1 <1>   0.0600 
  7 O       -1.1450     3.5900     1.2970 O.3   1 <1>  -0.3630 
  8 C       -0.2530     2.5460    -0.6850 C.3   1 <1>  -0.2400 
  9 C       -0.3190     1.3310     1.5290 C.3   1 <1>  -0.2400 
 10 C       -4.9490     2.6480    -1.3110 C.3   1 <1>  -0.1600 
 11 C       -5.3220     0.3740    -0.4510 C.3   1 <1>  -0.1600 
 12 C       -0.0550     4.3340     1.6320 C.ar  1 <1>   0.0820 
 13 C       -6.4580     2.4460    -1.1360 C.3   1 <1>  -0.0800 
 14 C       -6.5920     1.2140    -0.2460 C.3   1 <1>  -0.0800 
 15 C        0.4210     5.3610     0.8070 C.ar  1 <1>   0.0820 
 16 C        0.5730     4.0850     2.8430 C.ar  1 <1>  -0.1500 
 17 C       -7.1500     3.6020    -0.4020 C.3   1 <1>  -0.1600 
 18 C       -6.7350     1.7640     1.1790 C.3   1 <1>  -0.1600 
 19 O       -0.1700     5.7260    -0.3610 O.3   1 <1>  -0.3620 
 20 C        1.5570     6.0620     1.1760 C.ar  1 <1>  -0.1500 
 21 C        1.6990     4.8020     3.2110 C.ar  1 <1>  -0.1500 
 22 C       -7.3370     3.1630     1.0600 C.3   1 <1>   0.4230 
 23 C       -1.5480     6.0300    -0.3340 C.3   1 <1>   0.0400 
 24 C        2.1970     5.7840     2.3720 C.ar  1 <1>  -0.1500 
 25 N       -8.7720     3.1560     1.4910 N.4   1 <1>  -0.9590 
 26 C       -9.6640     2.2700     0.6720 C.3   1 <1>   0.2630 
 27 C       -9.3200     4.5450     1.5650 C.3   1 <1>   0.2630 
 28 H       -4.3680     0.8690    -2.2820 H     1 <1>   0.0800 
 29 H       -2.7600    -0.7570    -1.5900 H     1 <1>   0.0800 
 30 H       -1.3170    -0.1790    -0.8150 H     1 <1>   0.0800 
 31 H       -1.7920     0.4740    -2.3750 H     1 <1>   0.0800 
 32 H       -0.0540     1.6210    -1.1850 H     1 <1>   0.0800 
 33 H        0.7040     2.9870    -0.4800 H     1 <1>   0.0800 
 34 H       -0.8010     3.1850    -1.3530 H     1 <1>   0.0800 
 35 H       -0.3270     0.3500     1.0950 H     1 <1>   0.0800 
 36 H       -0.8130     1.2770     2.4820 H     1 <1>   0.0800 
 37 H        0.7060     1.6210     1.6660 H     1 <1>   0.0800 
 38 H       -4.5680     3.2510    -0.5090 H     1 <1>   0.0800 
 39 H       -4.7250     3.1330    -2.2450 H     1 <1>   0.0800 
 40 H       -5.5580    -0.5140    -1.0100 H     1 <1>   0.0800 
 41 H       -4.8890     0.0770     0.4880 H     1 <1>   0.0800 
 42 H       -6.9060     2.2610    -2.0990 H     1 <1>   0.0800 
 43 H       -7.4710     0.6520    -0.5150 H     1 <1>   0.0800 
 44 H        0.1780     3.3300     3.4990 H     1 <1>   0.1500 
 45 H       -8.0830     3.8250    -0.8840 H     1 <1>   0.0800 
 46 H       -6.5400     4.4880    -0.4400 H     1 <1>   0.0800 
 47 H       -5.7610     1.8840     1.6150 H     1 <1>   0.0800 
 48 H       -7.2940     1.1030     1.8150 H     1 <1>   0.0800 
 49 H        1.9320     6.8310     0.5260 H     1 <1>   0.1500 
 50 H        2.1860     4.5950     4.1480 H     1 <1>   0.1500 
 51 H       -6.7780     3.8260     1.7020 H     1 <1>   0.0800 
 52 H       -1.7760     6.6260    -1.1980 H     1 <1>   0.0800 
 53 H       -1.7690     6.5800     0.5640 H     1 <1>   0.0800 
 54 H       -2.1120     5.1160    -0.3640 H     1 <1>   0.0800 
 55 H        3.0770     6.3370     2.6520 H     1 <1>   0.1500 
 56 H       -8.7640     2.7770     2.4490 H     1 <1>   0.4500 
 57 H       -9.7070     2.6130    -0.3480 H     1 <1>   0.0800 
 58 H      -10.6630     2.2700     1.0770 H     1 <1>   0.0800 
 59 H       -9.2940     1.2580     0.6780 H     1 <1>   0.0800 
 60 H       -9.3480     4.9910     0.5840 H     1 <1>   0.0800 
 61 H       -8.7020     5.1570     2.2030 H     1 <1>   0.0800 
 62 H      -10.3200     4.5330     1.9670 H     1 <1>   0.0800 
@<TRIPOS>BOND
  1   1   2  2   
  2   2   3  am  
  3   2   4  1   
  4   3   5  1   
  5   3   6  1   
  6   4   7  1   
  7   4   8  1   
  8   4   9  1   
  9   5  10  1   
 10   5  11  1   
 11   5  28  1   
 12   6  29  1   
 13   6  30  1   
 14   6  31  1   
 15   7  12  1   
 16   8  32  1   
 17   8  33  1   
 18   8  34  1   
 19   9  35  1   
 20   9  36  1   
 21   9  37  1   
 22  10  13  1   
 23  10  38  1   
 24  10  39  1   
 25  11  14  1   
 26  11  40  1   
 27  11  41  1   
 28  12  15  ar  
 29  12  16  ar  
 30  13  14  1   
 31  13  17  1   
 32  13  42  1   
 33  14  18  1   
 34  14  43  1   
 35  15  19  1   
 36  15  20  ar  
 37  16  21  ar  
 38  16  44  1   
 39  17  22  1   
 40  17  45  1   
 41  17  46  1   
 42  18  22  1   
 43  18  47  1   
 44  18  48  1   
 45  19  23  1   
 46  20  24  ar  
 47  20  49  1   
 48  21  24  ar  
 49  21  50  1   
 50  22  25  1   
 51  22  51  1   
 52  23  52  1   
 53  23  53  1   
 54  23  54  1   
 55  24  55  1   
 56  25  26  1   
 57  25  27  1   
 58  25  56  1   
 59  26  57  1   
 60  26  58  1   
 61  26  59  1   
 62  27  60  1   
 63  27  61  1   
 64  27  62  1   
@<TRIPOS>SUBSTRUCTURE
  1 ****   1 GROUP 4 **** **** 0

# MOE 2024.06 (io_trps.svl 2023.06)
