@<TRIPOS>MOLECULE
NONAME
27 28 1 0 0 
SMALL
USER_CHARGES


@<TRIPOS>ATOM
  1 F       -9.9590     2.7180    -1.5030 F     1 <1>  -0.1900 
  2 C       -9.4160     1.8590    -0.6810 C.ar  1 <1>   0.1900 
  3 C      -10.0470     1.5590     0.5120 C.ar  1 <1>   0.1600 
  4 C       -8.2210     1.2700    -1.0250 C.ar  1 <1>  -0.1500 
  5 N       -9.5610     0.6990     1.3980 N.ar  1 <1>  -0.6200 
  6 C       -7.6990     0.3700    -0.1120 C.ar  1 <1>  -0.1430 
  7 C       -8.4100     0.1330     1.0650 C.ar  1 <1>   0.1600 
  8 C       -6.3780    -0.3330    -0.4070 C.3   1 <1>   0.0640 
  9 C       -6.5620    -1.8560    -0.4950 C.3   1 <1>  -0.1600 
 10 C       -5.3100     0.0210     0.6400 C.3   1 <1>  -0.1600 
 11 C       -5.2320    -2.5670    -0.7460 C.3   1 <1>   0.3430 
 12 C       -3.9980    -0.7170     0.3720 C.3   1 <1>   0.3430 
 13 N       -4.2520    -2.1840     0.3090 N.4   1 <1>  -0.9060 
 14 H      -10.9810     2.0430     0.7410 H     1 <1>   0.1500 
 15 H       -7.7440     1.5150    -1.9570 H     1 <1>   0.1500 
 16 H       -8.0160    -0.5640     1.7830 H     1 <1>   0.1500 
 17 H       -6.0230     0.0100    -1.3660 H     1 <1>   0.0800 
 18 H       -7.2390    -2.0830    -1.3010 H     1 <1>   0.0800 
 19 H       -7.0030    -2.2390     0.4090 H     1 <1>   0.0800 
 20 H       -5.6550    -0.2170     1.6310 H     1 <1>   0.0800 
 21 H       -5.1270     1.0820     0.6120 H     1 <1>   0.0800 
 22 H       -4.8520    -2.2860    -1.7160 H     1 <1>   0.0800 
 23 H       -5.3850    -3.6350    -0.7410 H     1 <1>   0.0800 
 24 H       -3.2910    -0.4950     1.1570 H     1 <1>   0.0800 
 25 H       -3.5800    -0.3790    -0.5630 H     1 <1>   0.0800 
 26 H       -3.3650    -2.6800     0.1500 H     1 <1>   0.4500 
 27 H       -4.6040    -2.5010     1.2220 H     1 <1>   0.4500 
@<TRIPOS>BOND
  1   1   2  1   
  2   2   3  ar  
  3   2   4  ar  
  4   3   5  ar  
  5   3  14  1   
  6   4   6  ar  
  7   4  15  1   
  8   5   7  ar  
  9   6   7  ar  
 10   6   8  1   
 11   7  16  1   
 12   8   9  1   
 13   8  10  1   
 14   8  17  1   
 15   9  11  1   
 16   9  18  1   
 17   9  19  1   
 18  10  12  1   
 19  10  20  1   
 20  10  21  1   
 21  11  13  1   
 22  11  22  1   
 23  11  23  1   
 24  12  13  1   
 25  12  24  1   
 26  12  25  1   
 27  13  26  1   
 28  13  27  1   
@<TRIPOS>SUBSTRUCTURE
  1 ****   6 GROUP 4 **** **** 0

# MOE 2024.06 (io_trps.svl 2023.06)
