@<TRIPOS>MOLECULE
NONAME
60 63 1 0 0 
SMALL
USER_CHARGES


@<TRIPOS>ATOM
  1 O       -1.1650     0.9470    -2.0770 O.2   1 <1>  -0.5700 
  2 C       -1.9540     1.2550    -1.2040 C.2   1 <1>   0.5440 
  3 N       -1.7380     2.4210    -0.4980 N.am  1 <1>  -0.6600 
  4 C       -3.0730     0.3830    -0.9320 C.ar  1 <1>   0.0860 
  5 C       -2.1600     2.6220     0.9220 C.3   1 <1>   0.1400 
  6 C       -0.7780     3.4640    -0.9730 C.3   1 <1>   0.1400 
  7 C       -2.9070    -1.0000    -0.9500 C.ar  1 <1>   0.1600 
  8 C       -4.3540     0.8530    -0.6550 C.ar  1 <1>  -0.1500 
  9 C       -0.9370     2.8690     1.8230 C.3   1 <1>   0.1200 
 10 C        0.3650     3.6480     0.0360 C.3   1 <1>   0.1200 
 11 N       -3.8430    -1.9020    -0.7050 N.ar  1 <1>  -0.6200 
 12 C       -5.3420    -0.0680    -0.4040 C.ar  1 <1>  -0.1500 
 13 O       -0.1450     3.9040     1.3150 O.3   1 <1>  -0.5600 
 14 C       -5.0540    -1.4290    -0.4360 C.ar  1 <1>   0.4100 
 15 N       -6.0460    -2.3420    -0.1810 N.pl3 1 <1>  -0.8690 
 16 C       -5.8890    -3.7830    -0.4090 C.3   1 <1>   0.2890 
 17 C       -7.2410    -4.3930    -0.7620 C.3   1 <1>  -0.1600 
 18 C       -5.3240    -4.4190     0.8560 C.3   1 <1>  -0.1600 
 19 C       -7.1070    -5.9070    -0.9110 C.3   1 <1>   0.3430 
 20 C       -5.2080    -5.9260     0.6780 C.3   1 <1>   0.3430 
 21 N       -6.5470    -6.5000     0.3440 N.4   1 <1>  -0.9590 
 22 C       -6.4500    -7.9920     0.2720 C.3   1 <1>   0.3430 
 23 C       -7.8250    -8.6640     0.2660 C.3   1 <1>  -0.0170 
 24 C       -7.6200   -10.1650     0.2990 C.ar  1 <1>  -0.1440 
 25 C       -7.5510   -10.8340     1.5120 C.ar  1 <1>  -0.1500 
 26 C       -7.4860   -10.8790    -0.8820 C.ar  1 <1>  -0.1500 
 27 C       -7.3440   -12.2020     1.5430 C.ar  1 <1>  -0.1500 
 28 C       -7.2790   -12.2470    -0.8500 C.ar  1 <1>  -0.1500 
 29 C       -7.2070   -12.9090     0.3620 C.ar  1 <1>  -0.1500 
 30 H       -2.6900     1.7600     1.2880 H     1 <1>   0.0800 
 31 H       -2.8180     3.4710     0.9790 H     1 <1>   0.0800 
 32 H       -1.3000     4.3970    -1.0880 H     1 <1>   0.0800 
 33 H       -0.3680     3.1980    -1.9320 H     1 <1>   0.0800 
 34 H       -1.9230    -1.3730    -1.1840 H     1 <1>   0.1500 
 35 H       -4.5550     1.9100    -0.6480 H     1 <1>   0.1500 
 36 H       -0.3350     1.9790     1.8960 H     1 <1>   0.0800 
 37 H       -1.2540     3.1530     2.8100 H     1 <1>   0.0800 
 38 H        0.9810     4.4830    -0.2470 H     1 <1>   0.0800 
 39 H        0.9780     2.7630     0.0760 H     1 <1>   0.0800 
 40 H       -6.3420     0.2530    -0.1850 H     1 <1>   0.1500 
 41 H       -7.0020    -1.9890    -0.1170 H     1 <1>   0.4000 
 42 H       -5.2070    -3.9430    -1.2300 H     1 <1>   0.0800 
 43 H       -7.5820    -3.9800    -1.6950 H     1 <1>   0.0800 
 44 H       -7.9670    -4.1680    -0.0020 H     1 <1>   0.0800 
 45 H       -5.9460    -4.1940     1.7030 H     1 <1>   0.0800 
 46 H       -4.3440    -4.0170     1.0440 H     1 <1>   0.0800 
 47 H       -6.4550    -6.1290    -1.7410 H     1 <1>   0.0800 
 48 H       -8.0770    -6.3270    -1.1220 H     1 <1>   0.0800 
 49 H       -4.8320    -6.3650     1.5890 H     1 <1>   0.0800 
 50 H       -4.5080    -6.1400    -0.1150 H     1 <1>   0.0800 
 51 H       -7.1790    -6.2570     1.1200 H     1 <1>   0.4500 
 52 H       -5.9050    -8.3580     1.1280 H     1 <1>   0.0800 
 53 H       -5.9060    -8.2860    -0.6110 H     1 <1>   0.0800 
 54 H       -8.3760    -8.4060    -0.6200 H     1 <1>   0.0800 
 55 H       -8.3920    -8.3630     1.1280 H     1 <1>   0.0800 
 56 H       -7.6600   -10.3060     2.4430 H     1 <1>   0.1500 
 57 H       -7.5440   -10.3870    -1.8370 H     1 <1>   0.1500 
 58 H       -7.2920   -12.7200     2.4860 H     1 <1>   0.1500 
 59 H       -7.1770   -12.8010    -1.7680 H     1 <1>   0.1500 
 60 H       -7.0470   -13.9740     0.3870 H     1 <1>   0.1500 
@<TRIPOS>BOND
  1   1   2  2   
  2   2   3  am  
  3   2   4  1   
  4   3   5  1   
  5   3   6  1   
  6   4   7  ar  
  7   4   8  ar  
  8   5   9  1   
  9   5  30  1   
 10   5  31  1   
 11   6  10  1   
 12   6  32  1   
 13   6  33  1   
 14   7  11  ar  
 15   7  34  1   
 16   8  12  ar  
 17   8  35  1   
 18   9  13  1   
 19   9  36  1   
 20   9  37  1   
 21  10  13  1   
 22  10  38  1   
 23  10  39  1   
 24  11  14  ar  
 25  12  14  ar  
 26  12  40  1   
 27  14  15  1   
 28  15  16  1   
 29  15  41  1   
 30  16  17  1   
 31  16  18  1   
 32  16  42  1   
 33  17  19  1   
 34  17  43  1   
 35  17  44  1   
 36  18  20  1   
 37  18  45  1   
 38  18  46  1   
 39  19  21  1   
 40  19  47  1   
 41  19  48  1   
 42  20  21  1   
 43  20  49  1   
 44  20  50  1   
 45  21  22  1   
 46  21  51  1   
 47  22  23  1   
 48  22  52  1   
 49  22  53  1   
 50  23  24  1   
 51  23  54  1   
 52  23  55  1   
 53  24  25  ar  
 54  24  26  ar  
 55  25  27  ar  
 56  25  56  1   
 57  26  28  ar  
 58  26  57  1   
 59  27  29  ar  
 60  27  58  1   
 61  28  29  ar  
 62  28  59  1   
 63  29  60  1   
@<TRIPOS>SUBSTRUCTURE
  1 ****  16 GROUP 4 **** **** 0

# MOE 2024.06 (io_trps.svl 2023.06)
