@<TRIPOS>MOLECULE
NONAME
58 62 1 0 0 
SMALL
USER_CHARGES


@<TRIPOS>ATOM
  1 N       -0.1040     0.2490    -0.0440 N.ar  1 <1>  -0.6200 
  2 C       -1.3810     0.6600    -0.0050 C.ar  1 <1>   0.6200 
  3 C        0.6600     0.8710    -0.9060 C.ar  1 <1>   0.1660 
  4 N       -1.8970     1.6420    -0.7580 N.ar  1 <1>  -0.6200 
  5 C       -2.2700    -0.0070     0.9340 C.ar  1 <1>   0.0000 
  6 C        0.2240     1.8770    -1.7080 C.ar  1 <1>  -0.1430 
  7 C        2.1270     0.5780    -1.1150 C.3   1 <1>   0.1440 
  8 C       -1.0940     2.2420    -1.6060 C.ar  1 <1>   0.1600 
  9 C       -3.3130     0.6760     1.5660 C.ar  1 <1>  -0.1500 
 10 C       -2.1220    -1.3620     1.2470 C.ar  1 <1>  -0.1500 
 11 C        1.3290     2.4130    -2.5840 C.3   1 <1>  -0.0160 
 12 C        2.8100     0.5010     0.2620 C.3   1 <1>   0.3430 
 13 C        2.3020    -0.7540    -1.8760 C.3   1 <1>  -0.1600 
 14 C        2.5950     1.7960    -1.9570 C.3   1 <1>  -0.1600 
 15 C       -4.1570     0.0480     2.4630 C.ar  1 <1>  -0.1500 
 16 C       -2.9630    -1.9970     2.1430 C.ar  1 <1>  -0.1500 
 17 N        4.2400     0.0740     0.1450 N.4   1 <1>  -0.9590 
 18 C        3.7730    -1.2110    -1.9100 C.3   1 <1>  -0.1600 
 19 C       -3.9830    -1.2920     2.7550 C.ar  1 <1>  -0.1500 
 20 C        4.4020    -1.2500    -0.5150 C.3   1 <1>   0.3430 
 21 C        4.9800     0.1510     1.4390 C.3   1 <1>   0.4860 
 22 C        6.4580     0.3850     1.1380 C.ar  1 <1>   0.1670 
 23 N        6.7250     1.1650     0.0940 N.ar  1 <1>  -0.6200 
 24 C        7.4270    -0.2120     1.9300 C.ar  1 <1>  -0.1500 
 25 C        8.0120     1.3600    -0.1580 C.ar  1 <1>   0.1600 
 26 C        8.7590     0.0000     1.6470 C.ar  1 <1>  -0.1500 
 27 C        9.0560     0.8110     0.5720 C.ar  1 <1>  -0.1430 
 28 C       10.5020     1.0960     0.1980 C.3   1 <1>  -0.0170 
 29 C       11.0200     0.0480    -0.7900 C.3   1 <1>  -0.2400 
 30 H       -1.4940     3.0320    -2.2200 H     1 <1>   0.1500 
 31 H       -3.4650     1.7200     1.3490 H     1 <1>   0.1500 
 32 H       -1.3380    -1.9270     0.7770 H     1 <1>   0.1500 
 33 H        1.3610     3.4890    -2.5740 H     1 <1>   0.0800 
 34 H        1.1910     2.0620    -3.5930 H     1 <1>   0.0800 
 35 H        2.2700    -0.2080     0.8690 H     1 <1>   0.0800 
 36 H        2.7440     1.4640     0.7390 H     1 <1>   0.0800 
 37 H        1.9210    -0.6600    -2.8790 H     1 <1>   0.0800 
 38 H        1.7170    -1.5140    -1.3850 H     1 <1>   0.0800 
 39 H        3.3130     1.5370    -2.7140 H     1 <1>   0.0800 
 40 H        3.0370     2.5350    -1.3110 H     1 <1>   0.0800 
 41 H       -4.9510     0.6010     2.9330 H     1 <1>   0.1500 
 42 H       -2.8260    -3.0410     2.3650 H     1 <1>   0.1500 
 43 H        4.7620     0.7560    -0.4370 H     1 <1>   0.4500 
 44 H        4.3550    -0.5600    -2.5400 H     1 <1>   0.0800 
 45 H        3.8260    -2.1950    -2.3420 H     1 <1>   0.0800 
 46 H       -4.6390    -1.7840     3.4520 H     1 <1>   0.1500 
 47 H        3.9190    -2.0140     0.0740 H     1 <1>   0.0800 
 48 H        5.4500    -1.4940    -0.6000 H     1 <1>   0.0800 
 49 H        4.8450    -0.7500     2.0130 H     1 <1>   0.0800 
 50 H        4.6200     0.9880     2.0140 H     1 <1>   0.0800 
 51 H        7.1600    -0.8370     2.7640 H     1 <1>   0.1500 
 52 H        8.2530     1.9930    -0.9960 H     1 <1>   0.1500 
 53 H        9.5360    -0.4500     2.2410 H     1 <1>   0.1500 
 54 H       11.1150     1.0890     1.0830 H     1 <1>   0.0800 
 55 H       10.5810     2.0760    -0.2420 H     1 <1>   0.0800 
 56 H       10.9680    -0.9340    -0.3530 H     1 <1>   0.0800 
 57 H       12.0440     0.2560    -1.0450 H     1 <1>   0.0800 
 58 H       10.4320     0.0580    -1.6900 H     1 <1>   0.0800 
@<TRIPOS>BOND
  1   1   2  ar  
  2   1   3  ar  
  3   2   4  ar  
  4   2   5  1   
  5   3   6  ar  
  6   3   7  1   
  7   4   8  ar  
  8   5   9  ar  
  9   5  10  ar  
 10   6   8  ar  
 11   6  11  1   
 12   7  12  1   
 13   7  13  1   
 14   7  14  1   
 15   8  30  1   
 16   9  15  ar  
 17   9  31  1   
 18  10  16  ar  
 19  10  32  1   
 20  11  14  1   
 21  11  33  1   
 22  11  34  1   
 23  12  17  1   
 24  12  35  1   
 25  12  36  1   
 26  13  18  1   
 27  13  37  1   
 28  13  38  1   
 29  14  39  1   
 30  14  40  1   
 31  15  19  ar  
 32  15  41  1   
 33  16  19  ar  
 34  16  42  1   
 35  17  20  1   
 36  17  21  1   
 37  17  43  1   
 38  18  20  1   
 39  18  44  1   
 40  18  45  1   
 41  19  46  1   
 42  20  47  1   
 43  20  48  1   
 44  21  22  1   
 45  21  49  1   
 46  21  50  1   
 47  22  23  ar  
 48  22  24  ar  
 49  23  25  ar  
 50  24  26  ar  
 51  24  51  1   
 52  25  27  ar  
 53  25  52  1   
 54  26  27  ar  
 55  26  53  1   
 56  27  28  1   
 57  28  29  1   
 58  28  54  1   
 59  28  55  1   
 60  29  56  1   
 61  29  57  1   
 62  29  58  1   
@<TRIPOS>SUBSTRUCTURE
  1 ****  12 GROUP 4 **** **** 0

# MOE 2024.06 (io_trps.svl 2023.06)
