@<TRIPOS>MOLECULE
NONAME
37 38 1 0 0 
SMALL
USER_CHARGES


@<TRIPOS>ATOM
  1 CL       0.8550    -1.3630    -0.1720 Cl    1 <1>  -0.1230 
  2 C       -0.4890    -2.4710    -0.3750 C.2   1 <1>   0.1230 
  3 C       -0.5620    -3.5000    -1.3010 C.2   1 <1>   0.1390 
  4 C       -1.6410    -2.5000     0.3200 C.2   1 <1>  -0.3020 
  5 N       -1.6920    -4.1430    -1.1970 N.2   1 <1>  -0.7070 
  6 N       -2.3550    -3.5210    -0.1970 N.pl3 1 <1>   0.3140 
  7 C       -3.6980    -3.9560     0.2190 C.3   1 <1>   0.0960 
  8 C       -3.8870    -5.4300    -0.1670 C.3   1 <1>   0.3430 
  9 N       -5.2380    -5.9820     0.2030 N.4   1 <1>  -0.9590 
 10 C       -5.2080    -7.4750     0.0380 C.3   1 <1>   0.3430 
 11 C       -6.3270    -5.3670    -0.6300 C.3   1 <1>   0.2630 
 12 C       -6.4230    -8.1640     0.6660 C.3   1 <1>   0.0210 
 13 C       -6.2570    -9.6600     0.5300 C.2   1 <1>  -0.1810 
 14 C       -5.4660   -10.4880     1.3210 C.2   1 <1>   0.1390 
 15 C       -6.8210   -10.4900    -0.3730 C.2   1 <1>  -0.3020 
 16 N       -5.5220   -11.7240     0.9380 N.2   1 <1>  -0.7070 
 17 N       -6.3670   -11.7310    -0.1050 N.pl3 1 <1>   0.3140 
 18 C       -6.7030   -12.9740    -0.8090 C.3   1 <1>   0.0160 
 19 H        0.2130    -3.7350    -2.0110 H     1 <1>   0.1500 
 20 H       -1.9680    -1.8640     1.1210 H     1 <1>   0.1500 
 21 H       -4.4130    -3.3330    -0.2840 H     1 <1>   0.0800 
 22 H       -3.7820    -3.8290     1.2820 H     1 <1>   0.0800 
 23 H       -3.1180    -6.0040     0.3260 H     1 <1>   0.0800 
 24 H       -3.7370    -5.5310    -1.2300 H     1 <1>   0.0800 
 25 H       -5.4160    -5.7840     1.1990 H     1 <1>   0.4500 
 26 H       -4.3210    -7.8710     0.5080 H     1 <1>   0.0800 
 27 H       -5.1600    -7.7310    -1.0090 H     1 <1>   0.0800 
 28 H       -6.1620    -5.5770    -1.6750 H     1 <1>   0.0800 
 29 H       -6.3510    -4.2980    -0.4940 H     1 <1>   0.0800 
 30 H       -7.2890    -5.7630    -0.3480 H     1 <1>   0.0800 
 31 H       -7.3280    -7.8740     0.1630 H     1 <1>   0.0800 
 32 H       -6.5040    -7.9160     1.7090 H     1 <1>   0.0800 
 33 H       -4.8690   -10.1680     2.1590 H     1 <1>   0.1500 
 34 H       -7.5070   -10.2850    -1.1740 H     1 <1>   0.1500 
 35 H       -7.5520   -12.8120    -1.4460 H     1 <1>   0.0800 
 36 H       -6.9320   -13.7320    -0.0840 H     1 <1>   0.0800 
 37 H       -5.8580   -13.2830    -1.3950 H     1 <1>   0.0800 
@<TRIPOS>BOND
  1   1   2  1   
  2   2   3  1   
  3   2   4  2   
  4   3   5  2   
  5   3  19  1   
  6   4   6  1   
  7   4  20  1   
  8   5   6  1   
  9   6   7  1   
 10   7   8  1   
 11   7  21  1   
 12   7  22  1   
 13   8   9  1   
 14   8  23  1   
 15   8  24  1   
 16   9  10  1   
 17   9  11  1   
 18   9  25  1   
 19  10  12  1   
 20  10  26  1   
 21  10  27  1   
 22  11  28  1   
 23  11  29  1   
 24  11  30  1   
 25  12  13  1   
 26  12  31  1   
 27  12  32  1   
 28  13  14  1   
 29  13  15  2   
 30  14  16  2   
 31  14  33  1   
 32  15  17  1   
 33  15  34  1   
 34  16  17  1   
 35  17  18  1   
 36  18  35  1   
 37  18  36  1   
 38  18  37  1   
@<TRIPOS>SUBSTRUCTURE
  1 ****   8 GROUP 4 **** **** 0

# MOE 2024.06 (io_trps.svl 2023.06)
