@<TRIPOS>MOLECULE
NONAME
53 55 1 0 0 
SMALL
USER_CHARGES


@<TRIPOS>ATOM
  1 O        0.5050     1.1700    -2.4660 O.2   1 <1>  -0.5700 
  2 C        0.7680     1.2510    -1.2910 C.2   1 <1>   0.5690 
  3 N        0.2410     2.1340    -0.4150 N.am  1 <1>  -0.6600 
  4 C        1.7580     0.3490    -0.6080 C.3   1 <1>  -0.0990 
  5 C        0.7770     1.9810     0.9480 C.3   1 <1>   0.1400 
  6 C       -0.7740     3.1590    -0.7440 C.3   1 <1>   0.1400 
  7 C        1.9380     0.9890     0.7800 C.3   1 <1>  -0.1600 
  8 C       -2.0800     2.8680    -0.0010 C.3   1 <1>  -0.1600 
  9 C       -3.2060     3.8170    -0.4520 C.3   1 <1>  -0.0990 
 10 C       -4.5330     3.6130     0.2750 C.2   1 <1>   0.5690 
 11 O       -4.5580     2.8560     1.2180 O.2   1 <1>  -0.5700 
 12 N       -5.6560     4.2800    -0.1450 N.am  1 <1>  -0.6600 
 13 C       -6.9890     4.0300     0.4900 C.3   1 <1>   0.1400 
 14 C       -5.7310     5.2360    -1.2830 C.3   1 <1>   0.1400 
 15 C       -7.9820     3.4350    -0.5400 C.3   1 <1>   0.0000 
 16 C       -6.6760     4.6770    -2.3530 C.3   1 <1>  -0.1600 
 17 C       -9.3680     3.2060     0.0870 C.3   1 <1>   0.2000 
 18 C       -8.0660     4.3630    -1.7730 C.3   1 <1>  -0.1600 
 19 C       -7.5710     2.0000    -0.9140 C.3   1 <1>  -0.1600 
 20 O       -9.7300     4.2620     0.9270 O.3   1 <1>  -0.5600 
 21 C       -9.2620     1.8870     0.8590 C.3   1 <1>  -0.1600 
 22 C       -8.1000     1.1140     0.2180 C.3   1 <1>  -0.1600 
 23 C      -11.0720     4.2840     1.2990 C.3   1 <1>   0.0400 
 24 H        1.3330    -0.6350    -0.5310 H     1 <1>   0.0800 
 25 H        2.6800     0.3120    -1.1580 H     1 <1>   0.0800 
 26 H        1.1190     2.9260     1.3330 H     1 <1>   0.0800 
 27 H        0.0150     1.5730     1.5910 H     1 <1>   0.0800 
 28 H       -0.3980     4.1310    -0.4760 H     1 <1>   0.0800 
 29 H       -0.9510     3.1470    -1.8070 H     1 <1>   0.0800 
 30 H        2.8660     1.5330     0.8090 H     1 <1>   0.0800 
 31 H        1.9430     0.2550     1.5650 H     1 <1>   0.0800 
 32 H       -2.3810     1.8530    -0.1960 H     1 <1>   0.0800 
 33 H       -1.9250     2.9830     1.0580 H     1 <1>   0.0800 
 34 H       -3.3730     3.6660    -1.5020 H     1 <1>   0.0800 
 35 H       -2.8970     4.8340    -0.2940 H     1 <1>   0.0800 
 36 H       -6.8900     3.3700     1.3330 H     1 <1>   0.0800 
 37 H       -7.3670     4.9660     0.8610 H     1 <1>   0.0800 
 38 H       -6.1140     6.1750    -0.9200 H     1 <1>   0.0800 
 39 H       -4.7630     5.4190    -1.7110 H     1 <1>   0.0800 
 40 H       -6.7740     5.3960    -3.1470 H     1 <1>   0.0800 
 41 H       -6.2420     3.7860    -2.7720 H     1 <1>   0.0800 
 42 H      -10.1000     3.1140    -0.6980 H     1 <1>   0.0800 
 43 H       -8.6840     3.9180    -2.5340 H     1 <1>   0.0800 
 44 H       -8.5330     5.2860    -1.4750 H     1 <1>   0.0800 
 45 H       -8.0530     1.7120    -1.8320 H     1 <1>   0.0800 
 46 H       -6.5080     1.8870    -1.0370 H     1 <1>   0.0800 
 47 H       -9.0370     2.0770     1.8940 H     1 <1>   0.0800 
 48 H      -10.1790     1.3310     0.7830 H     1 <1>   0.0800 
 49 H       -7.3230     0.9620     0.9490 H     1 <1>   0.0800 
 50 H       -8.4160     0.1550    -0.1550 H     1 <1>   0.0800 
 51 H      -11.2310     5.1480     1.9200 H     1 <1>   0.0800 
 52 H      -11.3060     3.3930     1.8540 H     1 <1>   0.0800 
 53 H      -11.6850     4.3550     0.4170 H     1 <1>   0.0800 
@<TRIPOS>BOND
  1   1   2  2   
  2   2   3  am  
  3   2   4  1   
  4   3   5  1   
  5   3   6  1   
  6   4   7  1   
  7   4  24  1   
  8   4  25  1   
  9   5   7  1   
 10   5  26  1   
 11   5  27  1   
 12   6   8  1   
 13   6  28  1   
 14   6  29  1   
 15   7  30  1   
 16   7  31  1   
 17   8   9  1   
 18   8  32  1   
 19   8  33  1   
 20   9  10  1   
 21   9  34  1   
 22   9  35  1   
 23  10  11  2   
 24  10  12  am  
 25  12  13  1   
 26  12  14  1   
 27  13  15  1   
 28  13  36  1   
 29  13  37  1   
 30  14  16  1   
 31  14  38  1   
 32  14  39  1   
 33  15  17  1   
 34  15  18  1   
 35  15  19  1   
 36  16  18  1   
 37  16  40  1   
 38  16  41  1   
 39  17  20  1   
 40  17  21  1   
 41  17  42  1   
 42  18  43  1   
 43  18  44  1   
 44  19  22  1   
 45  19  45  1   
 46  19  46  1   
 47  20  23  1   
 48  21  22  1   
 49  21  47  1   
 50  21  48  1   
 51  22  49  1   
 52  22  50  1   
 53  23  51  1   
 54  23  52  1   
 55  23  53  1   
@<TRIPOS>SUBSTRUCTURE
  1 ****  10 GROUP 4 **** **** 0

# MOE 2024.06 (io_trps.svl 2023.06)
