@<TRIPOS>MOLECULE
NONAME
50 52 1 0 0 
SMALL
USER_CHARGES


@<TRIPOS>ATOM
  1 CL      -0.1820    -2.4230    -2.8410 Cl    1 <1>  -0.1770 
  2 C       -1.2420    -3.3330    -1.7960 C.ar  1 <1>   0.1770 
  3 C       -2.4300    -3.8310    -2.2960 C.ar  1 <1>  -0.1500 
  4 C       -0.8820    -3.5430    -0.4790 C.ar  1 <1>  -0.1500 
  5 C       -3.2670    -4.5500    -1.4620 C.ar  1 <1>  -0.1500 
  6 C       -1.7270    -4.2670     0.3440 C.ar  1 <1>  -0.1500 
  7 C       -2.9350    -4.7890    -0.1260 C.ar  1 <1>   0.0530 
  8 C       -3.7990    -5.5410     0.7510 C.2   1 <1>   0.0870 
  9 O       -3.8220    -5.2790     2.0350 O.3   1 <1>  -0.0190 
 10 C       -4.6750    -6.5550     0.5430 C.2   1 <1>  -0.2330 
 11 N       -4.6580    -6.0390     2.6920 N.2   1 <1>  -0.4100 
 12 C       -5.1930    -6.8200     1.8170 C.2   1 <1>   0.3720 
 13 C       -5.0000    -7.2170    -0.6750 C.2   1 <1>   1.0330 
 14 N       -6.1660    -7.7850     2.1580 N.pl3 1 <1>  -0.8210 
 15 O       -5.8380    -6.7620    -1.4680 O.co2 1 <1>  -0.9000 
 16 O       -4.5040    -8.3220    -0.9740 O.co2 1 <1>  -0.9000 
 17 C       -5.9070    -9.1730     1.6900 C.3   1 <1>   0.2090 
 18 C       -6.7360    -7.7020     3.5310 C.3   1 <1>   0.1290 
 19 C       -7.0940    -9.7780     0.8910 C.3   1 <1>  -0.0800 
 20 C       -6.6690   -10.8260    -0.1670 C.3   1 <1>   0.5030 
 21 C       -7.9480    -8.7700     0.0800 C.3   1 <1>  -0.1600 
 22 N       -6.5780   -10.0310    -1.3970 N.4   1 <1>  -0.9590 
 23 C       -7.7690   -11.8900    -0.3240 C.3   1 <1>  -0.2400 
 24 C       -5.3340   -11.5430     0.0760 C.3   1 <1>  -0.2400 
 25 C       -7.6900    -9.0600    -1.3930 C.3   1 <1>   0.3430 
 26 C       -6.3520   -10.6900    -2.7060 C.3   1 <1>   0.2630 
 27 H       -2.6960    -3.6580    -3.3220 H     1 <1>   0.1500 
 28 H        0.0450    -3.1470    -0.1090 H     1 <1>   0.1500 
 29 H       -4.1950    -4.9270    -1.8550 H     1 <1>   0.1500 
 30 H       -1.4490    -4.4350     1.3700 H     1 <1>   0.1500 
 31 H       -5.7030    -9.7990     2.5410 H     1 <1>   0.0800 
 32 H       -5.0050    -9.1690     1.1150 H     1 <1>   0.0800 
 33 H       -7.0410    -6.6890     3.7350 H     1 <1>   0.0800 
 34 H       -5.9940    -7.9930     4.2540 H     1 <1>   0.0800 
 35 H       -7.5940    -8.3430     3.6150 H     1 <1>   0.0800 
 36 H       -7.7250   -10.2490     1.6230 H     1 <1>   0.0800 
 37 H       -7.7160    -7.7390     0.2700 H     1 <1>   0.0800 
 38 H       -8.9940    -8.9060     0.2860 H     1 <1>   0.0800 
 39 H       -5.7380    -9.4070    -1.2530 H     1 <1>   0.4500 
 40 H       -8.7250   -11.4490    -0.5370 H     1 <1>   0.0800 
 41 H       -7.8620   -12.4470     0.5920 H     1 <1>   0.0800 
 42 H       -7.5260   -12.5910    -1.1020 H     1 <1>   0.0800 
 43 H       -4.5000   -10.8730    -0.0280 H     1 <1>   0.0800 
 44 H       -5.1990   -12.3440    -0.6270 H     1 <1>   0.0800 
 45 H       -5.3170   -11.9670     1.0630 H     1 <1>   0.0800 
 46 H       -7.4260    -8.1650    -1.9330 H     1 <1>   0.0800 
 47 H       -8.5660    -9.4980    -1.8400 H     1 <1>   0.0800 
 48 H       -7.1940   -11.3090    -2.9660 H     1 <1>   0.0800 
 49 H       -5.4630   -11.2970    -2.6630 H     1 <1>   0.0800 
 50 H       -6.2150    -9.9400    -3.4680 H     1 <1>   0.0800 
@<TRIPOS>BOND
  1   1   2  1   
  2   2   3  ar  
  3   2   4  ar  
  4   3   5  ar  
  5   3  27  1   
  6   4   6  ar  
  7   4  28  1   
  8   5   7  ar  
  9   5  29  1   
 10   6   7  ar  
 11   6  30  1   
 12   7   8  1   
 13   8   9  1   
 14   8  10  2   
 15   9  11  1   
 16  10  12  1   
 17  10  13  1   
 18  11  12  2   
 19  12  14  1   
 20  13  15  ar  
 21  13  16  ar  
 22  14  17  1   
 23  14  18  1   
 24  17  19  1   
 25  17  31  1   
 26  17  32  1   
 27  18  33  1   
 28  18  34  1   
 29  18  35  1   
 30  19  20  1   
 31  19  21  1   
 32  19  36  1   
 33  20  22  1   
 34  20  23  1   
 35  20  24  1   
 36  21  25  1   
 37  21  37  1   
 38  21  38  1   
 39  22  25  1   
 40  22  26  1   
 41  22  39  1   
 42  23  40  1   
 43  23  41  1   
 44  23  42  1   
 45  24  43  1   
 46  24  44  1   
 47  24  45  1   
 48  25  46  1   
 49  25  47  1   
 50  26  48  1   
 51  26  49  1   
 52  26  50  1   
@<TRIPOS>SUBSTRUCTURE
  1 ****  13 GROUP 4 **** **** 0

# MOE 2024.06 (io_trps.svl 2023.06)
