@<TRIPOS>MOLECULE
NONAME
52 54 1 0 0 
SMALL
USER_CHARGES


@<TRIPOS>ATOM
  1 O        0.7680     0.8100    -0.4510 O.2   1 <1>  -0.5700 
  2 C        1.0870    -0.3510    -0.5630 C.2   1 <1>   0.5690 
  3 N        2.2210    -0.8550     0.0300 N.am  1 <1>  -0.5090 
  4 C        0.1540    -1.1880    -1.4240 C.3   1 <1>  -0.0990 
  5 C        2.9860    -0.0580     1.0220 C.3   1 <1>   0.0490 
  6 C        2.7940    -2.2090    -0.2150 C.3   1 <1>   0.2840 
  7 C       -0.8960    -1.9190    -0.5700 C.3   1 <1>   0.1760 
  8 C        3.1640    -0.6080     2.4050 C.3   1 <1>  -0.2000 
  9 C        2.2720     0.5680     2.1800 C.3   1 <1>  -0.2000 
 10 C        4.2110    -2.1220    -0.7660 C.ar  1 <1>  -0.1440 
 11 N       -0.2940    -3.0660     0.1780 N.pl3 1 <1>   0.3140 
 12 C       -2.1230    -2.3390    -1.3980 C.3   1 <1>  -0.2400 
 13 C        5.2210    -2.9250    -0.2750 C.ar  1 <1>  -0.1500 
 14 C        4.5650    -1.2510    -1.7790 C.ar  1 <1>  -0.1500 
 15 N       -0.0080    -2.8950     1.4780 N.2   1 <1>  -0.7070 
 16 C        0.1070    -4.2920    -0.2380 C.2   1 <1>  -0.3320 
 17 C        6.4970    -2.8230    -0.8050 C.ar  1 <1>   0.1600 
 18 C        5.8710    -1.2270    -2.2370 C.ar  1 <1>   0.1600 
 19 C        0.5550    -3.9880     1.8620 C.2   1 <1>   0.1080 
 20 C        0.6630    -4.9340     0.8370 C.2   1 <1>  -0.0860 
 21 C       -0.0190    -4.8260    -1.6610 C.3   1 <1>  -0.0600 
 22 N        6.8450    -1.9940    -1.7750 N.ar  1 <1>  -0.6200 
 23 C        1.0270    -4.1720     3.2890 C.3   1 <1>  -0.0590 
 24 C        1.2420    -6.2420     0.9920 C.2   1 <1>   0.5950 
 25 O        2.2260    -6.4570     1.6540 O.2   1 <1>  -0.5700 
 26 C        0.5980    -7.4330     0.3160 C.3   1 <1>  -0.1790 
 27 H        0.6950    -1.8560    -2.0610 H     1 <1>   0.0800 
 28 H       -0.3620    -0.5040    -2.0730 H     1 <1>   0.0800 
 29 H        3.8010     0.4860     0.5750 H     1 <1>   0.1000 
 30 H        2.2010    -2.7630    -0.9130 H     1 <1>   0.0800 
 31 H        2.7940    -2.7570     0.7090 H     1 <1>   0.0800 
 32 H       -1.2480    -1.2240     0.1740 H     1 <1>   0.0800 
 33 H        4.1000    -0.4470     2.9100 H     1 <1>   0.1000 
 34 H        2.6920    -1.5330     2.6830 H     1 <1>   0.1000 
 35 H        1.2070     0.4360     2.2580 H     1 <1>   0.1000 
 36 H        2.5950     1.5370     2.5160 H     1 <1>   0.1000 
 37 H       -1.8430    -2.8920    -2.2740 H     1 <1>   0.0800 
 38 H       -2.6550    -1.4620    -1.7190 H     1 <1>   0.0800 
 39 H       -2.7900    -2.9300    -0.7940 H     1 <1>   0.0800 
 40 H        5.0300    -3.6290     0.5150 H     1 <1>   0.1500 
 41 H        3.8380    -0.5870    -2.2110 H     1 <1>   0.1500 
 42 H        7.2710    -3.4570    -0.4080 H     1 <1>   0.1500 
 43 H        6.1280    -0.5390    -3.0240 H     1 <1>   0.1500 
 44 H        0.2610    -4.0800    -2.3810 H     1 <1>   0.0800 
 45 H       -1.0320    -5.1330    -1.8520 H     1 <1>   0.0800 
 46 H        0.6260    -5.6720    -1.8130 H     1 <1>   0.0800 
 47 H        0.7220    -3.3330     3.8880 H     1 <1>   0.0800 
 48 H        2.0990    -4.2440     3.3120 H     1 <1>   0.0800 
 49 H        0.6050    -5.0670     3.7050 H     1 <1>   0.0800 
 50 H       -0.4090    -7.2020     0.0250 H     1 <1>   0.0800 
 51 H        0.5790    -8.2610     0.9990 H     1 <1>   0.0800 
 52 H        1.1720    -7.7090    -0.5480 H     1 <1>   0.0800 
@<TRIPOS>BOND
  1   1   2  2   
  2   2   3  am  
  3   2   4  1   
  4   3   5  1   
  5   3   6  1   
  6   4   7  1   
  7   4  27  1   
  8   4  28  1   
  9   5   8  1   
 10   5   9  1   
 11   5  29  1   
 12   6  10  1   
 13   6  30  1   
 14   6  31  1   
 15   7  11  1   
 16   7  12  1   
 17   7  32  1   
 18   8   9  1   
 19   8  33  1   
 20   8  34  1   
 21   9  35  1   
 22   9  36  1   
 23  10  13  ar  
 24  10  14  ar  
 25  11  15  1   
 26  11  16  1   
 27  12  37  1   
 28  12  38  1   
 29  12  39  1   
 30  13  17  ar  
 31  13  40  1   
 32  14  18  ar  
 33  14  41  1   
 34  15  19  2   
 35  16  20  2   
 36  16  21  1   
 37  17  22  ar  
 38  17  42  1   
 39  18  22  ar  
 40  18  43  1   
 41  19  20  1   
 42  19  23  1   
 43  20  24  1   
 44  21  44  1   
 45  21  45  1   
 46  21  46  1   
 47  23  47  1   
 48  23  48  1   
 49  23  49  1   
 50  24  25  2   
 51  24  26  1   
 52  26  50  1   
 53  26  51  1   
 54  26  52  1   
@<TRIPOS>SUBSTRUCTURE
  1 ****   6 GROUP 4 **** **** 0

# MOE 2024.06 (io_trps.svl 2023.06)
