@<TRIPOS>MOLECULE
NONAME
58 62 1 0 0 
SMALL
USER_CHARGES


@<TRIPOS>ATOM
  1 S       -3.9730     0.6490    -0.9780 S.3   1 <1>  -0.0800 
  2 C       -2.9970    -0.7990    -0.7050 C.2   1 <1>  -0.0450 
  3 C       -2.8820     1.6510    -0.0480 C.2   1 <1>  -0.1100 
  4 C       -3.4380    -2.0490    -1.2740 C.2   1 <1>   0.7150 
  5 C       -1.9210    -0.4560     0.0500 C.2   1 <1>  -0.1500 
  6 C       -1.8570     0.9180     0.4220 C.2   1 <1>  -0.1500 
  7 O       -4.1570    -2.0780    -2.2560 O.2   1 <1>  -0.5700 
  8 N       -3.0930    -3.2590    -0.7020 N.am  1 <1>  -0.6600 
  9 C       -3.1650    -3.4710     0.7610 C.3   1 <1>   0.1400 
 10 C       -3.1130    -4.5020    -1.5080 C.3   1 <1>   0.1400 
 11 C       -4.4960    -4.1630     1.0670 C.3   1 <1>  -0.1600 
 12 C       -4.4400    -5.2180    -1.2560 C.3   1 <1>  -0.1600 
 13 C       -4.6720    -5.4440     0.2440 C.3   1 <1>   0.4230 
 14 N       -6.0500    -5.9290     0.4590 N.4   1 <1>  -0.9060 
 15 C       -6.3460    -7.3060    -0.0230 C.3   1 <1>   0.4230 
 16 C       -7.8420    -7.5540     0.1480 C.3   1 <1>  -0.0800 
 17 C       -5.7790    -8.3020     0.9810 C.3   1 <1>   0.1200 
 18 C       -7.9450    -8.0490     1.6040 C.3   1 <1>   0.1200 
 19 C       -8.3720    -8.5990    -0.8570 C.3   1 <1>  -0.0160 
 20 O       -6.6300    -8.1520     2.0670 O.3   1 <1>  -0.5600 
 21 C       -9.8780    -8.7830    -0.7000 C.ar  1 <1>  -0.1440 
 22 C      -10.8130    -7.8360    -1.1860 C.ar  1 <1>   0.0000 
 23 C      -10.3710    -9.8850    -0.0630 C.ar  1 <1>  -0.1500 
 24 C      -12.1850    -8.0780    -0.9310 C.ar  1 <1>   0.3100 
 25 C      -10.4730    -6.6700    -1.9120 C.ar  1 <1>  -0.1500 
 26 C      -11.7500   -10.0370     0.1200 C.ar  1 <1>   0.1600 
 27 N      -12.6330    -9.1790    -0.2790 N.ar  1 <1>  -0.6200 
 28 C      -13.1350    -7.1430    -1.3700 C.ar  1 <1>  -0.1500 
 29 C      -11.4250    -5.7810    -2.3320 C.ar  1 <1>  -0.1500 
 30 C      -12.7730    -6.0150    -2.0540 C.ar  1 <1>  -0.1500 
 31 H       -3.1240     2.6950     0.0480 H     1 <1>   0.1500 
 32 H       -1.1490    -1.1400     0.3580 H     1 <1>   0.1500 
 33 H       -1.0460     1.2970     1.0210 H     1 <1>   0.1500 
 34 H       -2.3320    -4.0780     1.0770 H     1 <1>   0.0800 
 35 H       -3.1160    -2.5320     1.2870 H     1 <1>   0.0800 
 36 H       -3.0110    -4.2670    -2.5560 H     1 <1>   0.0800 
 37 H       -2.2800    -5.1240    -1.2260 H     1 <1>   0.0800 
 38 H       -5.2860    -3.4660     0.8480 H     1 <1>   0.0800 
 39 H       -4.5260    -4.3930     2.1170 H     1 <1>   0.0800 
 40 H       -4.4190    -6.1540    -1.7820 H     1 <1>   0.0800 
 41 H       -5.2250    -4.6090    -1.6710 H     1 <1>   0.0800 
 42 H       -3.9620    -6.1750     0.6000 H     1 <1>   0.0800 
 43 H       -6.7060    -5.2550     0.0500 H     1 <1>   0.4500 
 44 H       -6.2380    -5.9600     1.4730 H     1 <1>   0.4500 
 45 H       -6.0030    -7.4660    -1.0330 H     1 <1>   0.0800 
 46 H       -8.4090    -6.6480     0.0270 H     1 <1>   0.0800 
 47 H       -4.7670    -8.0960     1.2810 H     1 <1>   0.0800 
 48 H       -5.8550    -9.3160     0.6270 H     1 <1>   0.0800 
 49 H       -8.4050    -9.0200     1.6810 H     1 <1>   0.0800 
 50 H       -8.4770    -7.3550     2.2330 H     1 <1>   0.0800 
 51 H       -7.8820    -9.5450    -0.7010 H     1 <1>   0.0800 
 52 H       -8.1570    -8.3000    -1.8680 H     1 <1>   0.0800 
 53 H       -9.7300   -10.6590     0.3190 H     1 <1>   0.1500 
 54 H       -9.4480    -6.4720    -2.1540 H     1 <1>   0.1500 
 55 H      -12.0980   -10.9210     0.6280 H     1 <1>   0.1500 
 56 H      -14.1670    -7.3480    -1.1510 H     1 <1>   0.1500 
 57 H      -11.1560    -4.8950    -2.8840 H     1 <1>   0.1500 
 58 H      -13.5140    -5.3080    -2.3860 H     1 <1>   0.1500 
@<TRIPOS>BOND
  1   1   2  1   
  2   1   3  1   
  3   2   4  1   
  4   2   5  2   
  5   3   6  2   
  6   3  31  1   
  7   4   7  2   
  8   4   8  am  
  9   5   6  1   
 10   5  32  1   
 11   6  33  1   
 12   8   9  1   
 13   8  10  1   
 14   9  11  1   
 15   9  34  1   
 16   9  35  1   
 17  10  12  1   
 18  10  36  1   
 19  10  37  1   
 20  11  13  1   
 21  11  38  1   
 22  11  39  1   
 23  12  13  1   
 24  12  40  1   
 25  12  41  1   
 26  13  14  1   
 27  13  42  1   
 28  14  15  1   
 29  14  43  1   
 30  14  44  1   
 31  15  16  1   
 32  15  17  1   
 33  15  45  1   
 34  16  18  1   
 35  16  19  1   
 36  16  46  1   
 37  17  20  1   
 38  17  47  1   
 39  17  48  1   
 40  18  20  1   
 41  18  49  1   
 42  18  50  1   
 43  19  21  1   
 44  19  51  1   
 45  19  52  1   
 46  21  22  ar  
 47  21  23  ar  
 48  22  24  ar  
 49  22  25  ar  
 50  23  26  ar  
 51  23  53  1   
 52  24  27  ar  
 53  24  28  ar  
 54  25  29  ar  
 55  25  54  1   
 56  26  27  ar  
 57  26  55  1   
 58  28  30  ar  
 59  28  56  1   
 60  29  30  ar  
 61  29  57  1   
 62  30  58  1   
@<TRIPOS>SUBSTRUCTURE
  1 ****  14 GROUP 4 **** **** 0

# MOE 2024.06 (io_trps.svl 2023.06)
