@<TRIPOS>MOLECULE
NONAME
45 47 1 0 0 
SMALL
USER_CHARGES


@<TRIPOS>ATOM
  1 S       -1.1170     0.7640     1.1640 S.3   1 <1>  -0.3320 
  2 C       -0.5740     1.8970    -0.1330 C.ar  1 <1>   0.1020 
  3 C       -1.9070    -0.6600     0.3030 C.3   1 <1>   0.1500 
  4 C       -0.6600     3.2670     0.0850 C.ar  1 <1>  -0.1440 
  5 C       -0.0780     1.3910    -1.3240 C.ar  1 <1>  -0.1500 
  6 C       -3.1270    -0.1330    -0.4570 C.3   1 <1>  -0.1600 
  7 C       -2.3080    -1.6690     1.3800 C.3   1 <1>  -0.1600 
  8 C       -0.2620     4.1260    -0.9280 C.ar  1 <1>  -0.1500 
  9 C       -1.1800     3.8390     1.3970 C.3   1 <1>  -0.0970 
 10 C        0.3160     2.2610    -2.3250 C.ar  1 <1>  -0.1500 
 11 C       -3.9720    -1.2820    -0.9980 C.3   1 <1>   0.3430 
 12 C       -3.1710    -2.7810     0.7930 C.3   1 <1>   0.3430 
 13 C        0.2200     3.6270    -2.1270 C.ar  1 <1>  -0.1500 
 14 N       -4.3700    -2.1880     0.1210 N.4   1 <1>  -0.9590 
 15 C       -5.3000    -3.2450    -0.4060 C.3   1 <1>   0.3430 
 16 C       -6.0010    -4.0550     0.6930 C.3   1 <1>   0.0960 
 17 N       -6.8510    -5.0700     0.0550 N.pl3 1 <1>   0.3140 
 18 N       -6.5820    -5.5360    -1.1770 N.2   1 <1>  -0.7070 
 19 C       -7.9500    -5.6500     0.5720 C.2   1 <1>  -0.3020 
 20 C       -7.5180    -6.4070    -1.4140 C.2   1 <1>   0.1390 
 21 C       -8.4060    -6.5210    -0.3520 C.2   1 <1>  -0.1500 
 22 H       -1.1780    -1.0880    -0.3620 H     1 <1>   0.0800 
 23 H        0.0210     0.3350    -1.4790 H     1 <1>   0.1500 
 24 H       -2.8030     0.4810    -1.2790 H     1 <1>   0.0800 
 25 H       -3.7280     0.4810     0.1890 H     1 <1>   0.0800 
 26 H       -2.8490    -1.1740     2.1670 H     1 <1>   0.0800 
 27 H       -1.4200    -2.0960     1.8120 H     1 <1>   0.0800 
 28 H       -0.3220     5.1920    -0.7900 H     1 <1>   0.1500 
 29 H       -0.5730     3.4930     2.2140 H     1 <1>   0.0800 
 30 H       -2.1950     3.5260     1.5600 H     1 <1>   0.0800 
 31 H       -1.1530     4.9140     1.3880 H     1 <1>   0.0800 
 32 H        0.7030     1.8810    -3.2550 H     1 <1>   0.1500 
 33 H       -3.4060    -1.8330    -1.7320 H     1 <1>   0.0800 
 34 H       -4.8500    -0.8810    -1.4810 H     1 <1>   0.0800 
 35 H       -3.4750    -3.4470     1.5850 H     1 <1>   0.0800 
 36 H       -2.5950    -3.3480     0.0780 H     1 <1>   0.0800 
 37 H        0.5260     4.3050    -2.9040 H     1 <1>   0.1500 
 38 H       -4.8710    -1.6090     0.8100 H     1 <1>   0.4500 
 39 H       -4.7480    -3.9250    -1.0370 H     1 <1>   0.0800 
 40 H       -6.0610    -2.7830    -1.0140 H     1 <1>   0.0800 
 41 H       -6.6230    -3.4200     1.2950 H     1 <1>   0.0800 
 42 H       -5.2890    -4.5680     1.3100 H     1 <1>   0.0800 
 43 H       -8.3450    -5.4270     1.5470 H     1 <1>   0.1500 
 44 H       -7.5910    -6.9720    -2.3300 H     1 <1>   0.1500 
 45 H       -9.2620    -7.1730    -0.3090 H     1 <1>   0.1500 
@<TRIPOS>BOND
  1   1   2  1   
  2   1   3  1   
  3   2   4  ar  
  4   2   5  ar  
  5   3   6  1   
  6   3   7  1   
  7   3  22  1   
  8   4   8  ar  
  9   4   9  1   
 10   5  10  ar  
 11   5  23  1   
 12   6  11  1   
 13   6  24  1   
 14   6  25  1   
 15   7  12  1   
 16   7  26  1   
 17   7  27  1   
 18   8  13  ar  
 19   8  28  1   
 20   9  29  1   
 21   9  30  1   
 22   9  31  1   
 23  10  13  ar  
 24  10  32  1   
 25  11  14  1   
 26  11  33  1   
 27  11  34  1   
 28  12  14  1   
 29  12  35  1   
 30  12  36  1   
 31  13  37  1   
 32  14  15  1   
 33  14  38  1   
 34  15  16  1   
 35  15  39  1   
 36  15  40  1   
 37  16  17  1   
 38  16  41  1   
 39  16  42  1   
 40  17  18  1   
 41  17  19  1   
 42  18  20  2   
 43  19  21  2   
 44  19  43  1   
 45  20  21  1   
 46  20  44  1   
 47  21  45  1   
@<TRIPOS>SUBSTRUCTURE
  1 ****  11 GROUP 4 **** **** 0

# MOE 2024.06 (io_trps.svl 2023.06)
