@<TRIPOS>MOLECULE
NONAME
55 56 1 0 0 
SMALL
USER_CHARGES


@<TRIPOS>ATOM
  1 S       -0.3540     0.0120     0.2130 S.3   1 <1>  -0.4600 
  2 C       -1.0530    -1.5830    -0.2910 C.3   1 <1>   0.0700 
  3 C        1.2780     0.0090    -0.5720 C.3   1 <1>  -0.0100 
  4 C       -2.4420    -1.7030     0.3390 C.3   1 <1>  -0.0990 
  5 C       -3.1560    -2.9930    -0.0340 C.2   1 <1>   0.5690 
  6 O       -2.5520    -3.8140    -0.6840 O.2   1 <1>  -0.5700 
  7 N       -4.4590    -3.2070     0.3520 N.am  1 <1>  -0.6600 
  8 C       -5.1640    -4.4640    -0.0370 C.3   1 <1>   0.1400 
  9 C       -5.2780    -2.2210     1.1130 C.3   1 <1>   0.1400 
 10 C       -6.3600    -4.1890    -0.9610 C.3   1 <1>   0.1400 
 11 C       -6.1480    -1.4250     0.1340 C.3   1 <1>  -0.1600 
 12 N       -7.5050    -3.5640    -0.2170 N.am  1 <1>  -0.6600 
 13 C       -7.5080    -2.0630    -0.1890 C.3   1 <1>   0.1400 
 14 C       -8.5440    -4.2620     0.3630 C.2   1 <1>   0.5690 
 15 O       -9.4680    -3.6830     0.8880 O.2   1 <1>  -0.5700 
 16 C       -8.6110    -5.8180     0.3540 C.3   1 <1>   0.4840 
 17 N       -9.9560    -6.3760    -0.0770 N.4   1 <1>  -0.9590 
 18 C       -8.1960    -6.4010     1.7130 C.3   1 <1>  -0.2400 
 19 C      -11.0390    -6.1930     0.9440 C.3   1 <1>   0.3430 
 20 C       -9.8670    -7.7890    -0.5450 C.3   1 <1>   0.3430 
 21 C      -12.3870    -6.5850     0.3380 C.3   1 <1>  -0.1600 
 22 C      -11.1950    -8.2060    -1.1800 C.3   1 <1>  -0.1600 
 23 C      -12.3720    -8.0160    -0.2140 C.3   1 <1>  -0.1600 
 24 H       -0.3920    -2.3570     0.0590 H     1 <1>   0.0800 
 25 H       -1.1030    -1.5940    -1.3650 H     1 <1>   0.0800 
 26 H        1.7640     0.9340    -0.3190 H     1 <1>   0.0800 
 27 H        1.1370    -0.0710    -1.6350 H     1 <1>   0.0800 
 28 H        1.8300    -0.8310    -0.1890 H     1 <1>   0.0800 
 29 H       -3.0370    -0.8700     0.0130 H     1 <1>   0.0800 
 30 H       -2.3400    -1.6630     1.4070 H     1 <1>   0.0800 
 31 H       -5.4850    -4.9770     0.8510 H     1 <1>   0.0800 
 32 H       -4.4850    -5.1200    -0.5540 H     1 <1>   0.0800 
 33 H       -4.6390    -1.5450     1.6530 H     1 <1>   0.0800 
 34 H       -5.8910    -2.7280     1.8400 H     1 <1>   0.0800 
 35 H       -6.6710    -5.1090    -1.4170 H     1 <1>   0.0800 
 36 H       -6.0440    -3.5410    -1.7610 H     1 <1>   0.0800 
 37 H       -5.6030    -1.2460    -0.7760 H     1 <1>   0.0800 
 38 H       -6.3440    -0.4600     0.5640 H     1 <1>   0.0800 
 39 H       -7.8550    -1.6950    -1.1390 H     1 <1>   0.0800 
 40 H       -8.2080    -1.7200     0.5550 H     1 <1>   0.0800 
 41 H       -7.8860    -6.1510    -0.3650 H     1 <1>   0.0800 
 42 H      -10.2550    -5.8040    -0.8770 H     1 <1>   0.4500 
 43 H       -8.8250    -6.0290     2.5020 H     1 <1>   0.0800 
 44 H       -7.1910    -6.0950     1.9400 H     1 <1>   0.0800 
 45 H       -8.2180    -7.4750     1.7060 H     1 <1>   0.0800 
 46 H      -11.0840    -5.1670     1.2700 H     1 <1>   0.0800 
 47 H      -10.8400    -6.8120     1.8040 H     1 <1>   0.0800 
 48 H       -9.6510    -8.4370     0.2890 H     1 <1>   0.0800 
 49 H       -9.0770    -7.8920    -1.2710 H     1 <1>   0.0800 
 50 H      -12.6410    -5.8890    -0.4430 H     1 <1>   0.0800 
 51 H      -13.1470    -6.5040     1.0960 H     1 <1>   0.0800 
 52 H      -11.1370    -9.2420    -1.4680 H     1 <1>   0.0800 
 53 H      -11.3600    -7.6340    -2.0760 H     1 <1>   0.0800 
 54 H      -13.3000    -8.2220    -0.7220 H     1 <1>   0.0800 
 55 H      -12.2840    -8.7140     0.6020 H     1 <1>   0.0800 
@<TRIPOS>BOND
  1   1   2  1   
  2   1   3  1   
  3   2   4  1   
  4   2  24  1   
  5   2  25  1   
  6   3  26  1   
  7   3  27  1   
  8   3  28  1   
  9   4   5  1   
 10   4  29  1   
 11   4  30  1   
 12   5   6  2   
 13   5   7  am  
 14   7   8  1   
 15   7   9  1   
 16   8  10  1   
 17   8  31  1   
 18   8  32  1   
 19   9  11  1   
 20   9  33  1   
 21   9  34  1   
 22  10  12  1   
 23  10  35  1   
 24  10  36  1   
 25  11  13  1   
 26  11  37  1   
 27  11  38  1   
 28  12  13  1   
 29  12  14  am  
 30  13  39  1   
 31  13  40  1   
 32  14  15  2   
 33  14  16  1   
 34  16  17  1   
 35  16  18  1   
 36  16  41  1   
 37  17  19  1   
 38  17  20  1   
 39  17  42  1   
 40  18  43  1   
 41  18  44  1   
 42  18  45  1   
 43  19  21  1   
 44  19  46  1   
 45  19  47  1   
 46  20  22  1   
 47  20  48  1   
 48  20  49  1   
 49  21  23  1   
 50  21  50  1   
 51  21  51  1   
 52  22  23  1   
 53  22  52  1   
 54  22  53  1   
 55  23  54  1   
 56  23  55  1   
@<TRIPOS>SUBSTRUCTURE
  1 ****  10 GROUP 4 **** **** 0

# MOE 2024.06 (io_trps.svl 2023.06)
