@<TRIPOS>MOLECULE
NONAME
36 37 1 0 0 
SMALL
USER_CHARGES


@<TRIPOS>ATOM
  1 O       -0.6120     0.2700    -0.5000 O.2   1 <1>  -0.5700 
  2 C       -1.6820     0.7090    -0.1470 C.2   1 <1>   0.5770 
  3 N       -2.6660    -0.1230     0.3320 N.am  1 <1>  -0.6600 
  4 C       -1.9100     2.2210    -0.2360 C.3   1 <1>   0.0530 
  5 C       -2.4060    -1.5890     0.4510 C.3   1 <1>   0.3200 
  6 C       -3.9740     0.3660     0.8720 C.3   1 <1>   0.1400 
  7 C       -0.7960     3.0720    -0.9150 C.3   1 <1>   0.0000 
  8 C       -1.5830     2.9940     1.0700 C.3   1 <1>   0.0000 
  9 C       -3.5320    -2.3840    -0.1800 C.2   1 <1>  -0.3320 
 10 C       -5.0330     0.4880    -0.2320 C.3   1 <1>   0.1200 
 11 C       -1.0730     4.1470     0.1680 C.3   1 <1>   0.0000 
 12 N       -4.5930    -2.8770     0.4870 N.pl3 1 <1>   0.0330 
 13 C       -3.6990    -2.7420    -1.4720 C.2   1 <1>   0.0770 
 14 O       -6.2210     0.9080     0.3480 O.3   1 <1>  -0.6800 
 15 C       -5.3450    -3.4950    -0.4490 C.2   1 <1>   0.0060 
 16 N       -4.8410    -3.4350    -1.6370 N.2   1 <1>  -0.5650 
 17 C       -6.6510    -4.1870    -0.1260 C.3   1 <1>  -0.0600 
 18 H       -2.8780     2.4850    -0.6260 H     1 <1>   0.0000 
 19 H       -2.2980    -1.8500     1.4890 H     1 <1>   0.0800 
 20 H       -1.4880    -1.8520    -0.0470 H     1 <1>   0.0800 
 21 H       -3.8420     1.3250     1.3380 H     1 <1>   0.0800 
 22 H       -4.3260    -0.3150     1.6260 H     1 <1>   0.0800 
 23 H       -1.0390     3.3910    -1.9130 H     1 <1>   0.0000 
 24 H        0.1950     2.6620    -0.8250 H     1 <1>   0.0000 
 25 H       -0.7950     2.5380     1.6450 H     1 <1>   0.0000 
 26 H       -2.4480     3.2530     1.6550 H     1 <1>   0.0000 
 27 H       -5.2140    -0.4570    -0.7120 H     1 <1>   0.0800 
 28 H       -4.7410     1.2160    -0.9680 H     1 <1>   0.0800 
 29 H       -1.8550     4.8320    -0.1150 H     1 <1>   0.0000 
 30 H       -0.1870     4.6310     0.5390 H     1 <1>   0.0000 
 31 H       -4.8050    -2.8020     1.4850 H     1 <1>   0.2700 
 32 H       -3.0490    -2.5280    -2.3050 H     1 <1>   0.1500 
 33 H       -6.9260     0.9690    -0.3290 H     1 <1>   0.4000 
 34 H       -7.3480    -3.4850     0.2920 H     1 <1>   0.0800 
 35 H       -6.4830    -4.9860     0.5720 H     1 <1>   0.0800 
 36 H       -7.0740    -4.5990    -1.0250 H     1 <1>   0.0800 
@<TRIPOS>BOND
  1   1   2  2   
  2   2   3  am  
  3   2   4  1   
  4   3   5  1   
  5   3   6  1   
  6   4   7  1   
  7   4   8  1   
  8   4  18  1   
  9   5   9  1   
 10   5  19  1   
 11   5  20  1   
 12   6  10  1   
 13   6  21  1   
 14   6  22  1   
 15   7  11  1   
 16   7  23  1   
 17   7  24  1   
 18   8  11  1   
 19   8  25  1   
 20   8  26  1   
 21   9  12  1   
 22   9  13  2   
 23  10  14  1   
 24  10  27  1   
 25  10  28  1   
 26  11  29  1   
 27  11  30  1   
 28  12  15  1   
 29  12  31  1   
 30  13  16  1   
 31  13  32  1   
 32  14  33  1   
 33  15  16  2   
 34  15  17  1   
 35  17  34  1   
 36  17  35  1   
 37  17  36  1   
@<TRIPOS>SUBSTRUCTURE
  1 ****   3 GROUP 4 **** **** 0

# MOE 2024.06 (io_trps.svl 2023.06)
