@<TRIPOS>MOLECULE
NONAME
45 47 1 0 0 
SMALL
USER_CHARGES


@<TRIPOS>ATOM
  1 O       -0.0130    -0.4470     0.3030 O.3   1 <1>  -0.3630 
  2 C       -0.0750    -1.8080     0.3620 C.ar  1 <1>   0.0830 
  3 C        0.9940     0.2050    -0.4410 C.3   1 <1>   0.0400 
  4 C       -1.0590    -2.3670     1.1710 C.ar  1 <1>   0.0830 
  5 C        0.7810    -2.6560    -0.3330 C.ar  1 <1>  -0.1500 
  6 O       -1.8970    -1.5670     1.8480 O.3   1 <1>  -0.5330 
  7 C       -1.1930    -3.7360     1.2940 C.ar  1 <1>  -0.1500 
  8 C        0.6430    -4.0320    -0.2170 C.ar  1 <1>  -0.1500 
  9 C       -0.3470    -4.5790     0.5900 C.ar  1 <1>  -0.1430 
 10 C       -0.5140    -6.0810     0.7040 C.3   1 <1>   0.4860 
 11 N       -1.2360    -6.5680    -0.5030 N.4   1 <1>  -0.9590 
 12 C       -2.6300    -6.0140    -0.6060 C.3   1 <1>   0.3430 
 13 C       -1.3360    -8.0570    -0.5360 C.3   1 <1>   0.3430 
 14 C       -3.5670    -7.2200    -0.7220 C.3   1 <1>   0.2000 
 15 C       -2.7790    -8.3990    -0.1660 C.3   1 <1>  -0.0800 
 16 O       -4.7380    -7.0450    -0.0010 O.3   1 <1>  -0.6800 
 17 C       -3.2580    -9.7550    -0.7190 C.3   1 <1>  -0.0170 
 18 C       -2.4850   -10.9250    -0.1240 C.ar  1 <1>   0.1670 
 19 N       -1.1830   -10.9600    -0.3710 N.ar  1 <1>  -0.6200 
 20 C       -3.1510   -11.8890     0.6320 C.ar  1 <1>   0.1600 
 21 C       -0.6040   -12.0230     0.1680 C.ar  1 <1>   0.1600 
 22 N       -2.5680   -12.9380     1.1840 N.ar  1 <1>  -0.6200 
 23 C       -1.2740   -12.9790     0.9210 C.ar  1 <1>   0.1600 
 24 H        0.8620     1.2660    -0.3250 H     1 <1>   0.0800 
 25 H        0.8930    -0.0610    -1.4790 H     1 <1>   0.0800 
 26 H        1.9570    -0.0860    -0.0600 H     1 <1>   0.0800 
 27 H        1.5570    -2.2650    -0.9640 H     1 <1>   0.1500 
 28 H       -1.6660    -0.6300     1.6740 H     1 <1>   0.4500 
 29 H       -1.9630    -4.1120     1.9440 H     1 <1>   0.1500 
 30 H        1.3240    -4.6640    -0.7630 H     1 <1>   0.1500 
 31 H       -1.0680    -6.3220     1.5970 H     1 <1>   0.0800 
 32 H        0.4580    -6.5440     0.7690 H     1 <1>   0.0800 
 33 H       -0.6970    -6.2410    -1.3160 H     1 <1>   0.4500 
 34 H       -2.8770    -5.4490     0.2770 H     1 <1>   0.0800 
 35 H       -2.7270    -5.3780    -1.4710 H     1 <1>   0.0800 
 36 H       -1.1360    -8.4130    -1.5340 H     1 <1>   0.0800 
 37 H       -0.6390    -8.5280     0.1390 H     1 <1>   0.0800 
 38 H       -3.8320    -7.3720    -1.7550 H     1 <1>   0.0800 
 39 H       -2.8450    -8.4110     0.9080 H     1 <1>   0.0800 
 40 H       -4.5980    -7.0360     0.9670 H     1 <1>   0.4000 
 41 H       -3.1440    -9.7810    -1.7890 H     1 <1>   0.0800 
 42 H       -4.3070    -9.8710    -0.5070 H     1 <1>   0.0800 
 43 H       -4.2110   -11.7940     0.7890 H     1 <1>   0.1500 
 44 H        0.4530   -12.1490     0.0080 H     1 <1>   0.1500 
 45 H       -0.7180   -13.8090     1.3220 H     1 <1>   0.1500 
@<TRIPOS>BOND
  1   1   2  1   
  2   1   3  1   
  3   2   4  ar  
  4   2   5  ar  
  5   3  24  1   
  6   3  25  1   
  7   3  26  1   
  8   4   6  1   
  9   4   7  ar  
 10   5   8  ar  
 11   5  27  1   
 12   6  28  1   
 13   7   9  ar  
 14   7  29  1   
 15   8   9  ar  
 16   8  30  1   
 17   9  10  1   
 18  10  11  1   
 19  10  31  1   
 20  10  32  1   
 21  11  12  1   
 22  11  13  1   
 23  11  33  1   
 24  12  14  1   
 25  12  34  1   
 26  12  35  1   
 27  13  15  1   
 28  13  36  1   
 29  13  37  1   
 30  14  15  1   
 31  14  16  1   
 32  14  38  1   
 33  15  17  1   
 34  15  39  1   
 35  16  40  1   
 36  17  18  1   
 37  17  41  1   
 38  17  42  1   
 39  18  19  ar  
 40  18  20  ar  
 41  19  21  ar  
 42  20  22  ar  
 43  20  43  1   
 44  21  23  ar  
 45  21  44  1   
 46  22  23  ar  
 47  23  45  1   
@<TRIPOS>SUBSTRUCTURE
  1 ****  11 GROUP 4 **** **** 0

# MOE 2024.06 (io_trps.svl 2023.06)
