@<TRIPOS>MOLECULE
NONAME
54 56 1 0 0 
SMALL
USER_CHARGES


@<TRIPOS>ATOM
  1 O       -0.8020    -1.6140    -1.3550 O.2   1 <1>  -0.5700 
  2 C        0.0880    -2.1770    -0.7720 C.2   1 <1>   0.5690 
  3 N       -0.1370    -2.8640     0.3670 N.am  1 <1>  -0.7300 
  4 C        1.5100    -2.1340    -1.2910 C.3   1 <1>  -0.0990 
  5 C        0.9310    -3.5670     1.1060 C.3   1 <1>   0.1400 
  6 C        2.1700    -3.5250    -1.1940 C.3   1 <1>  -0.0800 
  7 C        1.8480    -4.2990     0.1070 C.3   1 <1>  -0.0800 
  8 C        3.6990    -3.4750    -1.2920 C.3   1 <1>  -0.1600 
  9 C        3.2050    -4.6830     0.7140 C.3   1 <1>  -0.1600 
 10 C        4.1780    -4.6660    -0.4610 C.3   1 <1>   0.2200 
 11 N        5.5920    -4.5780    -0.0020 N.am  1 <1>  -0.6600 
 12 C        6.5210    -3.8890    -0.7470 C.2   1 <1>   0.5440 
 13 C        6.0660    -5.7920     0.7180 C.3   1 <1>   0.0600 
 14 O        7.1640    -4.5200    -1.5670 O.2   1 <1>  -0.5700 
 15 C        6.7390    -2.4650    -0.5630 C.ar  1 <1>   0.0860 
 16 C        7.3960    -1.7020    -1.5320 C.ar  1 <1>  -0.1500 
 17 C        6.3050    -1.7920     0.5830 C.ar  1 <1>  -0.1500 
 18 C        7.6020    -0.3460    -1.3710 C.ar  1 <1>  -0.1500 
 19 C        6.5080    -0.4360     0.7450 C.ar  1 <1>  -0.1500 
 20 C        7.1580     0.3080    -0.2280 C.ar  1 <1>   0.1000 
 21 N        7.3560     1.6650    -0.0450 N.pl3 1 <1>  -0.8380 
 22 C        6.6930     2.5860    -1.0010 C.3   1 <1>   0.2090 
 23 C        8.6900     2.0870     0.4490 C.3   1 <1>   0.2090 
 24 C        6.0100     3.7050    -0.2240 C.3   1 <1>  -0.2400 
 25 C        8.6090     2.2910     1.9560 C.3   1 <1>  -0.2400 
 26 H       -1.0900    -2.8720     0.7370 H     1 <1>   0.3700 
 27 H        1.5120    -1.7920    -2.3100 H     1 <1>   0.0800 
 28 H        2.0470    -1.4190    -0.6950 H     1 <1>   0.0800 
 29 H        1.4940    -2.8370     1.6650 H     1 <1>   0.0800 
 30 H        0.4990    -4.2700     1.7970 H     1 <1>   0.0800 
 31 H        1.8000    -4.1180    -2.0150 H     1 <1>   0.0800 
 32 H        1.3470    -5.2090    -0.1780 H     1 <1>   0.0800 
 33 H        4.0480    -2.5600    -0.8510 H     1 <1>   0.0800 
 34 H        4.0360    -3.5400    -2.3110 H     1 <1>   0.0800 
 35 H        3.1640    -5.6490     1.1840 H     1 <1>   0.0800 
 36 H        3.5140    -3.9420     1.4310 H     1 <1>   0.0800 
 37 H        4.0510    -5.5640    -1.0430 H     1 <1>   0.0800 
 38 H        5.6040    -5.8520     1.6870 H     1 <1>   0.0800 
 39 H        7.1340    -5.7500     0.8460 H     1 <1>   0.0800 
 40 H        5.8250    -6.6740     0.1490 H     1 <1>   0.0800 
 41 H        7.7490    -2.1910    -2.4240 H     1 <1>   0.1500 
 42 H        5.8030    -2.3440     1.3570 H     1 <1>   0.1500 
 43 H        8.1130     0.2180    -2.1280 H     1 <1>   0.1500 
 44 H        6.1670     0.0710     1.6290 H     1 <1>   0.1500 
 45 H        7.4170     2.9910    -1.6880 H     1 <1>   0.0800 
 46 H        5.9540     2.0440    -1.5670 H     1 <1>   0.0800 
 47 H        9.4180     1.3240     0.2240 H     1 <1>   0.0800 
 48 H        8.9970     3.0010    -0.0300 H     1 <1>   0.0800 
 49 H        6.7360     4.2930     0.3050 H     1 <1>   0.0800 
 50 H        5.3100     3.2850     0.4770 H     1 <1>   0.0800 
 51 H        5.4770     4.3450    -0.9020 H     1 <1>   0.0800 
 52 H        8.3430     1.3660     2.4360 H     1 <1>   0.0800 
 53 H        7.8730     3.0380     2.1900 H     1 <1>   0.0800 
 54 H        9.5620     2.6110     2.3320 H     1 <1>   0.0800 
@<TRIPOS>BOND
  1   1   2  2   
  2   2   3  am  
  3   2   4  1   
  4   3   5  1   
  5   3  26  1   
  6   4   6  1   
  7   4  27  1   
  8   4  28  1   
  9   5   7  1   
 10   5  29  1   
 11   5  30  1   
 12   6   7  1   
 13   6   8  1   
 14   6  31  1   
 15   7   9  1   
 16   7  32  1   
 17   8  10  1   
 18   8  33  1   
 19   8  34  1   
 20   9  10  1   
 21   9  35  1   
 22   9  36  1   
 23  10  11  1   
 24  10  37  1   
 25  11  12  am  
 26  11  13  1   
 27  12  14  2   
 28  12  15  1   
 29  13  38  1   
 30  13  39  1   
 31  13  40  1   
 32  15  16  ar  
 33  15  17  ar  
 34  16  18  ar  
 35  16  41  1   
 36  17  19  ar  
 37  17  42  1   
 38  18  20  ar  
 39  18  43  1   
 40  19  20  ar  
 41  19  44  1   
 42  20  21  1   
 43  21  22  1   
 44  21  23  1   
 45  22  24  1   
 46  22  45  1   
 47  22  46  1   
 48  23  25  1   
 49  23  47  1   
 50  23  48  1   
 51  24  49  1   
 52  24  50  1   
 53  24  51  1   
 54  25  52  1   
 55  25  53  1   
 56  25  54  1   
@<TRIPOS>SUBSTRUCTURE
  1 ****  17 GROUP 4 **** **** 0

# MOE 2024.06 (io_trps.svl 2023.06)
