@<TRIPOS>MOLECULE
NONAME
37 39 1 0 0 
SMALL
USER_CHARGES


@<TRIPOS>ATOM
  1 O       -0.8790     0.4770    -0.5340 O.3   1 <1>  -0.3400 
  2 C       -0.5200     1.7070    -0.1140 C.ar  1 <1>   0.0830 
  3 C       -1.4800    -0.3520     0.4410 C.3   1 <1>   0.2580 
  4 C        0.7800     1.9560     0.3210 C.ar  1 <1>  -0.1440 
  5 C       -1.4620     2.7240    -0.1370 C.ar  1 <1>  -0.1500 
  6 C       -1.7390    -1.7700    -0.1090 C.3   1 <1>   0.2450 
  7 C       -3.0150    -0.2020     0.5010 C.3   1 <1>   0.2450 
  8 C        1.1090     3.2340     0.7480 C.ar  1 <1>  -0.1500 
  9 C        1.8470     0.8670     0.3290 C.3   1 <1>  -0.0160 
 10 C       -1.1220     3.9930     0.2930 C.ar  1 <1>  -0.1500 
 11 N       -3.1140    -1.7140     0.5090 N.3   1 <1>  -0.5900 
 12 C        0.1640     4.2460     0.7380 C.ar  1 <1>  -0.1500 
 13 C        2.4730     0.7170    -1.0600 C.3   1 <1>  -0.2400 
 14 C       -4.1540    -2.4080    -0.1010 C.ar  1 <1>   0.4100 
 15 N       -5.0210    -1.6740    -0.7990 N.ar  1 <1>  -0.6200 
 16 C       -4.2810    -3.8140     0.0240 C.ar  1 <1>   0.3830 
 17 C       -5.9830    -2.3830    -1.3540 C.ar  1 <1>   0.1600 
 18 N       -5.2610    -4.5140    -0.5510 N.ar  1 <1>  -0.6200 
 19 C       -3.3100    -4.5280     0.8050 C.1   1 <1>   0.4840 
 20 C       -6.1000    -3.7580    -1.2360 C.ar  1 <1>   0.1600 
 21 N       -2.5150    -5.0800     1.4150 N.1   1 <1>  -0.5570 
 22 H       -0.9680    -0.3200     1.3870 H     1 <1>   0.0000 
 23 H       -2.4550     2.5250    -0.4950 H     1 <1>   0.1500 
 24 H       -1.1300    -2.5270     0.3500 H     1 <1>   0.0000 
 25 H       -1.7940    -1.8270    -1.1830 H     1 <1>   0.0000 
 26 H       -3.4330     0.2400    -0.3870 H     1 <1>   0.0000 
 27 H       -3.3710     0.2210     1.4230 H     1 <1>   0.0000 
 28 H        2.1060     3.4500     1.0870 H     1 <1>   0.1500 
 29 H        1.4180    -0.0700     0.6340 H     1 <1>   0.0800 
 30 H        2.6150     1.1140     1.0400 H     1 <1>   0.0800 
 31 H       -1.8530     4.7830     0.2800 H     1 <1>   0.1500 
 32 H        0.4320     5.2330     1.0730 H     1 <1>   0.1500 
 33 H        1.7200     0.4420    -1.7760 H     1 <1>   0.0800 
 34 H        3.2320    -0.0450    -1.0450 H     1 <1>   0.0800 
 35 H        2.9180     1.6460    -1.3680 H     1 <1>   0.0800 
 36 H       -6.7170    -1.8490    -1.9330 H     1 <1>   0.1500 
 37 H       -6.9210    -4.2530    -1.7270 H     1 <1>   0.1500 
@<TRIPOS>BOND
  1   1   2  1   
  2   1   3  1   
  3   2   4  ar  
  4   2   5  ar  
  5   3   6  1   
  6   3   7  1   
  7   3  22  1   
  8   4   8  ar  
  9   4   9  1   
 10   5  10  ar  
 11   5  23  1   
 12   6  11  1   
 13   6  24  1   
 14   6  25  1   
 15   7  11  1   
 16   7  26  1   
 17   7  27  1   
 18   8  12  ar  
 19   8  28  1   
 20   9  13  1   
 21   9  29  1   
 22   9  30  1   
 23  10  12  ar  
 24  10  31  1   
 25  11  14  1   
 26  12  32  1   
 27  13  33  1   
 28  13  34  1   
 29  13  35  1   
 30  14  15  ar  
 31  14  16  ar  
 32  15  17  ar  
 33  16  18  ar  
 34  16  19  1   
 35  17  20  ar  
 36  17  36  1   
 37  18  20  ar  
 38  19  21  3   
 39  20  37  1   
@<TRIPOS>SUBSTRUCTURE
  1 ****   3 GROUP 4 **** **** 0

# MOE 2024.06 (io_trps.svl 2023.06)
