@<TRIPOS>MOLECULE
NONAME
49 51 1 0 0 
SMALL
USER_CHARGES


@<TRIPOS>ATOM
  1 O       -2.0940     0.0670     2.2320 O.2   1 <1>  -0.5700 
  2 C       -2.0530     0.6470     1.1640 C.2   1 <1>   0.7160 
  3 N       -2.3840    -0.0200     0.0080 N.am  1 <1>  -0.6600 
  4 C       -1.6840     2.0420     1.1250 C.2   1 <1>  -0.0860 
  5 C       -2.5030    -1.5190     0.0160 C.3   1 <1>   0.3640 
  6 C       -2.8830     0.7360    -1.1830 C.3   1 <1>   0.1400 
  7 C       -0.6710     2.6600     0.4570 C.2   1 <1>  -0.0400 
  8 C       -2.3360     3.0870     1.8090 C.2   1 <1>  -0.1500 
  9 C       -1.1300    -2.1340    -0.2700 C.ar  1 <1>  -0.1440 
 10 C       -3.5650    -2.1050    -0.9620 C.3   1 <1>   0.2000 
 11 C       -3.5370    -0.1520    -2.2490 C.3   1 <1>   0.1200 
 12 O       -0.6890     3.9540     0.6640 O.3   1 <1>  -0.2800 
 13 C        0.4240     2.0870    -0.4200 C.3   1 <1>  -0.0600 
 14 C       -1.6840     4.2210     1.4810 C.2   1 <1>  -0.0100 
 15 C       -0.6530    -3.1380     0.5620 C.ar  1 <1>  -0.1500 
 16 C       -0.3490    -1.7290    -1.3460 C.ar  1 <1>  -0.1500 
 17 O       -4.3140    -1.1270    -1.6360 O.3   1 <1>  -0.5600 
 18 C       -4.5680    -3.0190    -0.2450 C.3   1 <1>   0.1200 
 19 C        0.5740    -3.7350     0.3290 C.ar  1 <1>   0.0830 
 20 C        0.8870    -2.3080    -1.5790 C.ar  1 <1>  -0.1500 
 21 O       -3.9190    -4.1140     0.3200 O.3   1 <1>  -0.6800 
 22 O        0.9520    -4.7360     1.1610 O.3   1 <1>  -0.3630 
 23 C        1.3650    -3.2990    -0.7400 C.ar  1 <1>   0.0830 
 24 C        1.0290    -6.0240     0.5940 C.3   1 <1>   0.0400 
 25 O        2.5970    -3.7990    -1.0030 O.3   1 <1>  -0.3630 
 26 C        3.5880    -3.5720    -0.0240 C.3   1 <1>   0.0400 
 27 H       -2.7880    -1.8260     1.0080 H     1 <1>   0.0800 
 28 H       -3.6130     1.4550    -0.8510 H     1 <1>   0.0800 
 29 H       -2.0720     1.2820    -1.6310 H     1 <1>   0.0800 
 30 H       -3.1830     2.9560     2.4580 H     1 <1>   0.1500 
 31 H       -3.0690    -2.6870    -1.7200 H     1 <1>   0.0800 
 32 H       -2.8000    -0.6290    -2.8700 H     1 <1>   0.0800 
 33 H       -4.1810     0.4400    -2.8760 H     1 <1>   0.0800 
 34 H        0.3570     1.0160    -0.4580 H     1 <1>   0.0800 
 35 H        1.3830     2.3570    -0.0170 H     1 <1>   0.0800 
 36 H        0.3410     2.4840    -1.4150 H     1 <1>   0.0800 
 37 H       -1.8530     5.2400     1.7810 H     1 <1>   0.1500 
 38 H       -1.2360    -3.4730     1.4030 H     1 <1>   0.1500 
 39 H       -0.6910    -0.9560    -2.0080 H     1 <1>   0.1500 
 40 H       -5.3060    -3.3880    -0.9370 H     1 <1>   0.0800 
 41 H       -5.0570    -2.4810     0.5490 H     1 <1>   0.0800 
 42 H        1.4920    -1.9900    -2.4090 H     1 <1>   0.1500 
 43 H       -3.5860    -4.7210    -0.3700 H     1 <1>   0.4000 
 44 H        1.2560    -6.7230     1.3780 H     1 <1>   0.0800 
 45 H        1.8050    -6.0410    -0.1500 H     1 <1>   0.0800 
 46 H        0.0790    -6.2640     0.1500 H     1 <1>   0.0800 
 47 H        4.5320    -3.8990    -0.4190 H     1 <1>   0.0800 
 48 H        3.3490    -4.1310     0.8630 H     1 <1>   0.0800 
 49 H        3.6240    -2.5200     0.1970 H     1 <1>   0.0800 
@<TRIPOS>BOND
  1   1   2  2   
  2   2   3  am  
  3   2   4  1   
  4   3   5  1   
  5   3   6  1   
  6   4   7  2   
  7   4   8  1   
  8   5   9  1   
  9   5  10  1   
 10   5  27  1   
 11   6  11  1   
 12   6  28  1   
 13   6  29  1   
 14   7  12  1   
 15   7  13  1   
 16   8  14  2   
 17   8  30  1   
 18   9  15  ar  
 19   9  16  ar  
 20  10  17  1   
 21  10  18  1   
 22  10  31  1   
 23  11  17  1   
 24  11  32  1   
 25  11  33  1   
 26  12  14  1   
 27  13  34  1   
 28  13  35  1   
 29  13  36  1   
 30  14  37  1   
 31  15  19  ar  
 32  15  38  1   
 33  16  20  ar  
 34  16  39  1   
 35  18  21  1   
 36  18  40  1   
 37  18  41  1   
 38  19  22  1   
 39  19  23  ar  
 40  20  23  ar  
 41  20  42  1   
 42  21  43  1   
 43  22  24  1   
 44  23  25  1   
 45  24  44  1   
 46  24  45  1   
 47  24  46  1   
 48  25  26  1   
 49  26  47  1   
 50  26  48  1   
 51  26  49  1   
@<TRIPOS>SUBSTRUCTURE
  1 ****   9 GROUP 4 **** **** 0

# MOE 2024.06 (io_trps.svl 2023.06)
