@<TRIPOS>MOLECULE
NONAME
46 48 1 0 0 
SMALL
USER_CHARGES


@<TRIPOS>ATOM
  1 S       -0.9290    -0.1640     0.1060 S.o2  1 <1>   1.3330 
  2 O        0.4660     0.0210     0.4120 O.2   1 <1>  -0.6500 
  3 O       -1.4740     0.2160    -1.1740 O.2   1 <1>  -0.6500 
  4 N       -1.1760    -1.8070     0.2790 N.am  1 <1>  -0.9140 
  5 C       -1.9340     0.5240     1.4030 C.3   1 <1>  -0.1350 
  6 C       -0.7850    -2.5420    -0.9400 C.3   1 <1>   0.2570 
  7 C       -0.9720    -4.0600    -0.8210 C.2   1 <1>   0.5690 
  8 O        0.0010    -4.7370    -0.5870 O.2   1 <1>  -0.5700 
  9 N       -2.2120    -4.6240    -0.9630 N.am  1 <1>  -0.6600 
 10 C       -3.5000    -3.8930    -1.0870 C.3   1 <1>   0.1400 
 11 C       -2.4610    -6.0760    -0.7770 C.3   1 <1>   0.1400 
 12 C       -4.5250    -4.8440    -0.4730 C.3   1 <1>   0.2000 
 13 C       -3.9880    -6.2360    -0.8350 C.3   1 <1>  -0.0800 
 14 O       -4.4930    -4.6720     0.9030 O.3   1 <1>  -0.6800 
 15 C       -4.5360    -7.3800     0.0440 C.3   1 <1>  -0.0170 
 16 C       -4.1610    -8.8100    -0.3650 C.ar  1 <1>  -0.1430 
 17 C       -4.4670    -9.8890     0.5020 C.ar  1 <1>   0.0000 
 18 C       -3.5460    -9.1230    -1.5460 C.ar  1 <1>  -0.1500 
 19 C       -4.0960   -11.1950     0.0980 C.ar  1 <1>   0.3100 
 20 C       -5.1280    -9.7500     1.7460 C.ar  1 <1>  -0.1500 
 21 C       -3.2260   -10.4520    -1.8510 C.ar  1 <1>   0.1600 
 22 N       -3.4760   -11.4590    -1.0790 N.ar  1 <1>  -0.6200 
 23 C       -4.3810   -12.2790     0.9440 C.ar  1 <1>  -0.1500 
 24 C       -5.3930   -10.8280     2.5470 C.ar  1 <1>  -0.1500 
 25 C       -5.0150   -12.1110     2.1440 C.ar  1 <1>  -0.1500 
 26 H       -0.4970    -2.0880     0.9870 H     1 <1>   0.4200 
 27 H       -1.6150     0.1550     2.3580 H     1 <1>   0.0800 
 28 H       -2.9620     0.2580     1.2530 H     1 <1>   0.0800 
 29 H       -1.8510     1.5930     1.4020 H     1 <1>   0.0800 
 30 H       -1.3670    -2.1980    -1.7770 H     1 <1>   0.0800 
 31 H        0.2510    -2.3440    -1.1610 H     1 <1>   0.0800 
 32 H       -3.4880    -2.9440    -0.5770 H     1 <1>   0.0800 
 33 H       -3.7180    -3.7410    -2.1290 H     1 <1>   0.0800 
 34 H       -1.9660    -6.6410    -1.5470 H     1 <1>   0.0800 
 35 H       -2.0770    -6.3780     0.1830 H     1 <1>   0.0800 
 36 H       -5.5290    -4.6670    -0.8190 H     1 <1>   0.0800 
 37 H       -4.2680    -6.4180    -1.8570 H     1 <1>   0.0800 
 38 H       -3.5590    -4.6610     1.1940 H     1 <1>   0.4000 
 39 H       -5.6100    -7.3110     0.0600 H     1 <1>   0.0800 
 40 H       -4.1890    -7.2200     1.0500 H     1 <1>   0.0800 
 41 H       -3.2870    -8.3880    -2.2820 H     1 <1>   0.1500 
 42 H       -5.4360    -8.7770     2.0790 H     1 <1>   0.1500 
 43 H       -2.7390   -10.6480    -2.7910 H     1 <1>   0.1500 
 44 H       -4.0810   -13.2560     0.6110 H     1 <1>   0.1500 
 45 H       -5.8960   -10.7040     3.4910 H     1 <1>   0.1500 
 46 H       -5.2270   -12.9510     2.7820 H     1 <1>   0.1500 
@<TRIPOS>BOND
  1   1   2  2   
  2   1   3  2   
  3   1   4  am  
  4   1   5  1   
  5   4   6  1   
  6   4  26  1   
  7   5  27  1   
  8   5  28  1   
  9   5  29  1   
 10   6   7  1   
 11   6  30  1   
 12   6  31  1   
 13   7   8  2   
 14   7   9  am  
 15   9  10  1   
 16   9  11  1   
 17  10  12  1   
 18  10  32  1   
 19  10  33  1   
 20  11  13  1   
 21  11  34  1   
 22  11  35  1   
 23  12  13  1   
 24  12  14  1   
 25  12  36  1   
 26  13  15  1   
 27  13  37  1   
 28  14  38  1   
 29  15  16  1   
 30  15  39  1   
 31  15  40  1   
 32  16  17  ar  
 33  16  18  ar  
 34  17  19  ar  
 35  17  20  ar  
 36  18  21  ar  
 37  18  41  1   
 38  19  22  ar  
 39  19  23  ar  
 40  20  24  ar  
 41  20  42  1   
 42  21  22  ar  
 43  21  43  1   
 44  23  25  ar  
 45  23  44  1   
 46  24  25  ar  
 47  24  45  1   
 48  25  46  1   
@<TRIPOS>SUBSTRUCTURE
  1 ****  11 GROUP 4 **** **** 0

# MOE 2024.06 (io_trps.svl 2023.06)
