@<TRIPOS>MOLECULE
NONAME
44 45 1 0 0 
SMALL
USER_CHARGES


@<TRIPOS>ATOM
  1 S        0.6860     0.7870    -1.4970 S.o2  1 <1>   1.3330 
  2 O        0.8480    -0.5280    -2.0740 O.2   1 <1>  -0.6500 
  3 O       -0.0190     1.8110    -2.2350 O.2   1 <1>  -0.6500 
  4 N       -0.1120     0.6050    -0.0070 N.am  1 <1>  -0.8490 
  5 C        2.3120     1.3940    -1.0430 C.3   1 <1>  -0.0550 
  6 C       -1.1620    -0.4160    -0.0650 C.3   1 <1>   0.1160 
  7 C       -0.6720     1.8610     0.5070 C.3   1 <1>   0.1160 
  8 C        3.1860     0.3680    -0.2890 C.3   1 <1>  -0.0800 
  9 C        4.6310     0.7950    -0.0690 C.3   1 <1>   0.2200 
 10 C        2.7140     0.0220     1.1300 C.3   1 <1>   0.1200 
 11 N        4.7030     2.2150     0.3520 N.am  1 <1>  -0.7300 
 12 C        5.0000    -0.0820     1.1170 C.3   1 <1>   0.1200 
 13 O        3.8620    -0.0810     1.9230 O.3   1 <1>  -0.5600 
 14 C        4.9770     3.2690    -0.4690 C.2   1 <1>   0.5440 
 15 O        5.1440     3.0450    -1.6500 O.2   1 <1>  -0.5700 
 16 C        5.0240     4.6230     0.0470 C.ar  1 <1>   0.0860 
 17 C        4.7520     5.7200    -0.7530 C.ar  1 <1>  -0.1500 
 18 C        5.3330     4.9280     1.3670 C.ar  1 <1>  -0.1500 
 19 C        4.7810     7.0000    -0.2320 C.ar  1 <1>   0.3930 
 20 C        5.3400     6.2410     1.7980 C.ar  1 <1>   0.1600 
 21 O        4.4950     8.0110    -1.0790 O.3   1 <1>  -0.3630 
 22 N        5.0660     7.2830     1.0350 N.ar  1 <1>  -0.6200 
 23 C        4.5090     9.3550    -0.6390 C.3   1 <1>   0.0400 
 24 H        2.8270     1.6670    -1.9440 H     1 <1>   0.0800 
 25 H        2.2060     2.2850    -0.4570 H     1 <1>   0.0800 
 26 H       -1.6410    -0.5150     0.8940 H     1 <1>   0.0800 
 27 H       -0.7350    -1.3700    -0.3270 H     1 <1>   0.0800 
 28 H       -1.8990    -0.1530    -0.8060 H     1 <1>   0.0800 
 29 H       -1.0850     1.7070     1.4890 H     1 <1>   0.0800 
 30 H       -1.4500     2.2220    -0.1470 H     1 <1>   0.0800 
 31 H        0.0960     2.6110     0.5750 H     1 <1>   0.0800 
 32 H        3.2000    -0.5460    -0.8580 H     1 <1>   0.0800 
 33 H        5.2580     0.6160    -0.9270 H     1 <1>   0.0800 
 34 H        2.1830    -0.9150     1.1560 H     1 <1>   0.0800 
 35 H        2.0990     0.7990     1.5500 H     1 <1>   0.0800 
 36 H        4.4370     2.3610     1.3290 H     1 <1>   0.3700 
 37 H        5.8420     0.2930     1.6710 H     1 <1>   0.0800 
 38 H        5.1860    -1.0950     0.8040 H     1 <1>   0.0800 
 39 H        4.5150     5.5850    -1.7920 H     1 <1>   0.1500 
 40 H        5.5770     4.1450     2.0620 H     1 <1>   0.1500 
 41 H        5.5840     6.4480     2.8260 H     1 <1>   0.1500 
 42 H        4.2580     9.9860    -1.4720 H     1 <1>   0.0800 
 43 H        5.4950     9.5920    -0.2780 H     1 <1>   0.0800 
 44 H        3.7840     9.4720     0.1470 H     1 <1>   0.0800 
@<TRIPOS>BOND
  1   1   2  2   
  2   1   3  2   
  3   1   4  am  
  4   1   5  1   
  5   4   6  1   
  6   4   7  1   
  7   5   8  1   
  8   5  24  1   
  9   5  25  1   
 10   6  26  1   
 11   6  27  1   
 12   6  28  1   
 13   7  29  1   
 14   7  30  1   
 15   7  31  1   
 16   8   9  1   
 17   8  10  1   
 18   8  32  1   
 19   9  11  1   
 20   9  12  1   
 21   9  33  1   
 22  10  13  1   
 23  10  34  1   
 24  10  35  1   
 25  11  14  am  
 26  11  36  1   
 27  12  13  1   
 28  12  37  1   
 29  12  38  1   
 30  14  15  2   
 31  14  16  1   
 32  16  17  ar  
 33  16  18  ar  
 34  17  19  ar  
 35  17  39  1   
 36  18  20  ar  
 37  18  40  1   
 38  19  21  1   
 39  19  22  ar  
 40  20  22  ar  
 41  20  41  1   
 42  21  23  1   
 43  23  42  1   
 44  23  43  1   
 45  23  44  1   
@<TRIPOS>SUBSTRUCTURE
  1 ****  11 GROUP 4 **** **** 0

# MOE 2024.06 (io_trps.svl 2023.06)
