@<TRIPOS>MOLECULE
NONAME
47 49 1 0 0 
SMALL
USER_CHARGES


@<TRIPOS>ATOM
  1 O       -0.9660     0.5120    -2.8130 O.2   1 <1>  -0.5700 
  2 C       -1.4990     1.1870    -1.9630 C.2   1 <1>   0.5690 
  3 N       -2.5810     0.7220    -1.2590 N.am  1 <1>  -0.6600 
  4 C       -0.8870     2.5470    -1.6540 C.3   1 <1>   0.0440 
  5 C       -3.3580     1.4520    -0.2270 C.3   1 <1>   0.1400 
  6 C       -2.7600    -0.7220    -1.0080 C.3   1 <1>   0.1400 
  7 C       -0.3990     2.6400    -0.2010 C.ar  1 <1>  -0.1440 
  8 C       -3.3570     0.5280     0.9950 C.3   1 <1>   0.2000 
  9 C       -2.7850    -0.8150     0.5210 C.3   1 <1>  -0.0800 
 10 C       -0.6130     3.7650     0.5930 C.ar  1 <1>  -0.1440 
 11 C        0.2610     1.5440     0.3400 C.ar  1 <1>  -0.1500 
 12 O       -2.5440     1.0430     1.9930 O.3   1 <1>  -0.6800 
 13 C       -3.5740    -2.0170     1.0640 C.3   1 <1>  -0.0170 
 14 C       -0.1950     3.7520     1.9150 C.ar  1 <1>  -0.1500 
 15 C       -1.2940     5.0200     0.0650 C.3   1 <1>  -0.0970 
 16 C        0.6740     1.5340     1.6600 C.ar  1 <1>  -0.1430 
 17 C       -2.9700    -3.3340     0.6050 C.ar  1 <1>   0.1670 
 18 C        0.4380     2.6450     2.4480 C.ar  1 <1>  -0.1500 
 19 C        1.3710     0.3190     2.2420 C.3   1 <1>  -0.0970 
 20 N       -3.3960    -3.8090    -0.5540 N.ar  1 <1>  -0.6200 
 21 C       -2.0130    -3.9710     1.3930 C.ar  1 <1>   0.1600 
 22 C       -2.8060    -4.9500    -0.8700 C.ar  1 <1>   0.1600 
 23 N       -1.4220    -5.1120     1.0800 N.ar  1 <1>  -0.6200 
 24 C       -1.8510    -5.5800    -0.0800 C.ar  1 <1>   0.1600 
 25 H       -0.0500     2.7070    -2.3080 H     1 <1>   0.0800 
 26 H       -1.6240     3.2910    -1.8800 H     1 <1>   0.0800 
 27 H       -2.9590     2.4210     0.0040 H     1 <1>   0.0800 
 28 H       -4.3660     1.5670    -0.5850 H     1 <1>   0.0800 
 29 H       -3.6940    -1.0450    -1.4350 H     1 <1>   0.0800 
 30 H       -1.9580    -1.3080    -1.4250 H     1 <1>   0.0800 
 31 H       -4.3520     0.4350     1.3960 H     1 <1>   0.0800 
 32 H       -1.7610    -0.9000     0.8440 H     1 <1>   0.0800 
 33 H        0.4540     0.6780    -0.2710 H     1 <1>   0.1500 
 34 H       -1.6810     1.3400     1.6190 H     1 <1>   0.4000 
 35 H       -4.5970    -1.9660     0.7350 H     1 <1>   0.0800 
 36 H       -3.5750    -1.9810     2.1390 H     1 <1>   0.0800 
 37 H       -0.3590     4.6090     2.5450 H     1 <1>   0.1500 
 38 H       -1.2300     5.8220     0.7780 H     1 <1>   0.0800 
 39 H       -2.3330     4.8250    -0.1300 H     1 <1>   0.0800 
 40 H       -0.8170     5.3460    -0.8420 H     1 <1>   0.0800 
 41 H        0.7490     2.6530     3.4780 H     1 <1>   0.1500 
 42 H        2.1660     0.6250     2.8980 H     1 <1>   0.0800 
 43 H        1.7920    -0.2900     1.4620 H     1 <1>   0.0800 
 44 H        0.6670    -0.2710     2.8010 H     1 <1>   0.0800 
 45 H       -1.7220    -3.5150     2.3230 H     1 <1>   0.1500 
 46 H       -3.0910    -5.4100    -1.8000 H     1 <1>   0.1500 
 47 H       -1.4280    -6.5070    -0.4230 H     1 <1>   0.1500 
@<TRIPOS>BOND
  1   1   2  2   
  2   2   3  am  
  3   2   4  1   
  4   3   5  1   
  5   3   6  1   
  6   4   7  1   
  7   4  25  1   
  8   4  26  1   
  9   5   8  1   
 10   5  27  1   
 11   5  28  1   
 12   6   9  1   
 13   6  29  1   
 14   6  30  1   
 15   7  10  ar  
 16   7  11  ar  
 17   8   9  1   
 18   8  12  1   
 19   8  31  1   
 20   9  13  1   
 21   9  32  1   
 22  10  14  ar  
 23  10  15  1   
 24  11  16  ar  
 25  11  33  1   
 26  12  34  1   
 27  13  17  1   
 28  13  35  1   
 29  13  36  1   
 30  14  18  ar  
 31  14  37  1   
 32  15  38  1   
 33  15  39  1   
 34  15  40  1   
 35  16  18  ar  
 36  16  19  1   
 37  17  20  ar  
 38  17  21  ar  
 39  18  41  1   
 40  19  42  1   
 41  19  43  1   
 42  19  44  1   
 43  20  22  ar  
 44  21  23  ar  
 45  21  45  1   
 46  22  24  ar  
 47  22  46  1   
 48  23  24  ar  
 49  24  47  1   
@<TRIPOS>SUBSTRUCTURE
  1 ****   9 GROUP 4 **** **** 0

# MOE 2024.06 (io_trps.svl 2023.06)
