@<TRIPOS>MOLECULE
NONAME
43 44 1 0 0 
SMALL
USER_CHARGES


@<TRIPOS>ATOM
  1 CL       1.1790    -2.5740    -2.1710 Cl    1 <1>  -0.1770 
  2 C        0.5770    -3.8110    -1.1000 C.ar  1 <1>   0.1770 
  3 C        0.6540    -5.1360    -1.4840 C.ar  1 <1>  -0.1500 
  4 C        0.0310    -3.4500     0.1160 C.ar  1 <1>  -0.1500 
  5 C        0.1740    -6.1180    -0.6340 C.ar  1 <1>  -0.1500 
  6 C       -0.4490    -4.4340     0.9640 C.ar  1 <1>  -0.1500 
  7 C       -0.3830    -5.7720     0.5930 C.ar  1 <1>  -0.1430 
  8 C       -0.9250    -6.8410     1.5260 C.3   1 <1>   0.4870 
  9 N       -2.0280    -7.5610     0.8440 N.4   1 <1>  -0.9590 
 10 C       -3.1240    -6.6950     0.3250 C.3   1 <1>   0.3430 
 11 C       -2.6710    -8.6500     1.6140 C.3   1 <1>   0.3430 
 12 C       -4.3340    -7.6270     0.1660 C.3   1 <1>   0.2000 
 13 C       -3.9730    -8.9520     0.8600 C.3   1 <1>  -0.0800 
 14 O       -5.4480    -7.0750     0.7820 O.3   1 <1>  -0.6800 
 15 C       -3.8900   -10.1360    -0.1430 C.3   1 <1>  -0.0550 
 16 S       -2.4190   -10.2490    -1.1810 S.o2  1 <1>   1.3330 
 17 O       -2.5970   -11.2710    -2.1790 O.2   1 <1>  -0.6500 
 18 O       -2.0420    -8.9010    -1.5540 O.2   1 <1>  -0.6500 
 19 N       -1.2110   -10.7750    -0.1100 N.am  1 <1>  -0.8490 
 20 C       -1.3560   -12.1950     0.2600 C.3   1 <1>   0.1160 
 21 C        0.1260   -10.6160    -0.7050 C.3   1 <1>   0.1160 
 22 H        1.0860    -5.3880    -2.4370 H     1 <1>   0.1500 
 23 H       -0.0120    -2.4100     0.3900 H     1 <1>   0.1500 
 24 H        0.2410    -7.1460    -0.9470 H     1 <1>   0.1500 
 25 H       -0.8710    -4.1400     1.9110 H     1 <1>   0.1500 
 26 H       -1.2850    -6.3840     2.4330 H     1 <1>   0.0800 
 27 H       -0.1350    -7.5300     1.7800 H     1 <1>   0.0800 
 28 H       -1.6220    -7.9900    -0.0130 H     1 <1>   0.4500 
 29 H       -3.3540    -5.9120     1.0280 H     1 <1>   0.0800 
 30 H       -2.8460    -6.2620    -0.6230 H     1 <1>   0.0800 
 31 H       -2.0330    -9.5150     1.6970 H     1 <1>   0.0800 
 32 H       -2.9090    -8.2960     2.6050 H     1 <1>   0.0800 
 33 H       -4.5720    -7.7570    -0.8770 H     1 <1>   0.0800 
 34 H       -4.7320    -9.2120     1.5780 H     1 <1>   0.0800 
 35 H       -5.3690    -7.0100     1.7540 H     1 <1>   0.4000 
 36 H       -4.7500   -10.0830    -0.7850 H     1 <1>   0.0800 
 37 H       -3.9910   -11.0520     0.4050 H     1 <1>   0.0800 
 38 H       -0.5790   -12.4810     0.9510 H     1 <1>   0.0800 
 39 H       -1.2860   -12.8250    -0.6130 H     1 <1>   0.0800 
 40 H       -2.3030   -12.3750     0.7350 H     1 <1>   0.0800 
 41 H        0.8870   -10.9450    -0.0160 H     1 <1>   0.0800 
 42 H        0.3140    -9.5840    -0.9440 H     1 <1>   0.0800 
 43 H        0.2050   -11.1940    -1.6120 H     1 <1>   0.0800 
@<TRIPOS>BOND
  1   1   2  1   
  2   2   3  ar  
  3   2   4  ar  
  4   3   5  ar  
  5   3  22  1   
  6   4   6  ar  
  7   4  23  1   
  8   5   7  ar  
  9   5  24  1   
 10   6   7  ar  
 11   6  25  1   
 12   7   8  1   
 13   8   9  1   
 14   8  26  1   
 15   8  27  1   
 16   9  10  1   
 17   9  11  1   
 18   9  28  1   
 19  10  12  1   
 20  10  29  1   
 21  10  30  1   
 22  11  13  1   
 23  11  31  1   
 24  11  32  1   
 25  12  13  1   
 26  12  14  1   
 27  12  33  1   
 28  13  15  1   
 29  13  34  1   
 30  14  35  1   
 31  15  16  1   
 32  15  36  1   
 33  15  37  1   
 34  16  17  2   
 35  16  18  2   
 36  16  19  am  
 37  19  20  1   
 38  19  21  1   
 39  20  38  1   
 40  20  39  1   
 41  20  40  1   
 42  21  41  1   
 43  21  42  1   
 44  21  43  1   
@<TRIPOS>SUBSTRUCTURE
  1 ****   9 GROUP 4 **** **** 0

# MOE 2024.06 (io_trps.svl 2023.06)
