@<TRIPOS>MOLECULE
NONAME
42 43 1 0 0 
SMALL
USER_CHARGES


@<TRIPOS>ATOM
  1 F       -2.4910     0.3280     0.3750 F     1 <1>  -0.3400 
  2 C       -3.2450    -0.3120    -0.5090 C.3   1 <1>   1.1640 
  3 F       -2.4340    -0.6820    -1.4940 F     1 <1>  -0.3400 
  4 F       -4.0630     0.5970    -1.0280 F     1 <1>  -0.3400 
  5 C       -4.0020    -1.4900     0.1240 C.ar  1 <1>  -0.1440 
  6 C       -5.1900    -1.2750     0.8160 C.ar  1 <1>  -0.1500 
  7 C       -3.5180    -2.7920     0.0330 C.ar  1 <1>  -0.1500 
  8 C       -5.8760    -2.3290     1.3930 C.ar  1 <1>  -0.1500 
  9 C       -4.2050    -3.8450     0.6110 C.ar  1 <1>  -0.1500 
 10 C       -5.3900    -3.6230     1.2920 C.ar  1 <1>  -0.1430 
 11 C       -6.1460    -4.7850     1.9310 C.3   1 <1>   0.0440 
 12 C       -6.3150    -5.9880     1.0080 C.2   1 <1>   0.5690 
 13 O       -5.5930    -6.9370     1.2100 O.2   1 <1>  -0.5700 
 14 N       -7.2530    -6.0060     0.0050 N.am  1 <1>  -0.6600 
 15 C       -7.4550    -7.2350    -0.8270 C.3   1 <1>   0.3210 
 16 C       -8.1070    -4.8280    -0.3680 C.3   1 <1>   0.1400 
 17 C       -8.8340    -7.8370    -0.5830 C.2   1 <1>   0.0460 
 18 C       -9.5000    -4.8280     0.2920 C.3   1 <1>   0.1200 
 19 N       -9.8250    -7.6810    -1.4850 N.2   1 <1>  -0.5650 
 20 C       -9.2640    -8.5500     0.4860 C.2   1 <1>  -0.3320 
 21 O       -9.4650    -5.4490     1.5320 O.3   1 <1>  -0.6800 
 22 C      -10.8300    -8.2960    -0.9520 C.2   1 <1>   0.0360 
 23 N      -10.5550    -8.8460     0.2480 N.pl3 1 <1>   0.0330 
 24 C       -8.5370    -8.9850     1.7480 C.3   1 <1>  -0.0600 
 25 H       -5.5890    -0.2780     0.9120 H     1 <1>   0.1500 
 26 H       -2.5990    -3.0000    -0.4890 H     1 <1>   0.1500 
 27 H       -6.7910    -2.1340     1.9260 H     1 <1>   0.1500 
 28 H       -3.8080    -4.8440     0.5290 H     1 <1>   0.1500 
 29 H       -7.1140    -4.4650     2.2680 H     1 <1>   0.0800 
 30 H       -5.6020    -5.1030     2.8020 H     1 <1>   0.0800 
 31 H       -6.7110    -7.9770    -0.5990 H     1 <1>   0.0800 
 32 H       -7.3540    -6.9850    -1.8680 H     1 <1>   0.0800 
 33 H       -8.2330    -4.8030    -1.4370 H     1 <1>   0.0800 
 34 H       -7.6050    -3.9160    -0.1040 H     1 <1>   0.0800 
 35 H      -10.2050    -5.3580    -0.3230 H     1 <1>   0.0800 
 36 H       -9.8550    -3.8210     0.4250 H     1 <1>   0.0800 
 37 H       -9.1620    -6.3730     1.3840 H     1 <1>   0.4000 
 38 H      -11.8020    -8.3750    -1.4070 H     1 <1>   0.1500 
 39 H      -11.1960    -9.3750     0.8450 H     1 <1>   0.2700 
 40 H       -7.5030    -8.6920     1.7110 H     1 <1>   0.0800 
 41 H       -8.5780   -10.0540     1.8500 H     1 <1>   0.0800 
 42 H       -8.9870    -8.5320     2.6140 H     1 <1>   0.0800 
@<TRIPOS>BOND
  1   1   2  1   
  2   2   3  1   
  3   2   4  1   
  4   2   5  1   
  5   5   6  ar  
  6   5   7  ar  
  7   6   8  ar  
  8   6  25  1   
  9   7   9  ar  
 10   7  26  1   
 11   8  10  ar  
 12   8  27  1   
 13   9  10  ar  
 14   9  28  1   
 15  10  11  1   
 16  11  12  1   
 17  11  29  1   
 18  11  30  1   
 19  12  13  2   
 20  12  14  am  
 21  14  15  1   
 22  14  16  1   
 23  15  17  1   
 24  15  31  1   
 25  15  32  1   
 26  16  18  1   
 27  16  33  1   
 28  16  34  1   
 29  17  19  1   
 30  17  20  2   
 31  18  21  1   
 32  18  35  1   
 33  18  36  1   
 34  19  22  2   
 35  20  23  1   
 36  20  24  1   
 37  21  37  1   
 38  22  23  1   
 39  22  38  1   
 40  23  39  1   
 41  24  40  1   
 42  24  41  1   
 43  24  42  1   
@<TRIPOS>SUBSTRUCTURE
  1 ****  14 GROUP 4 **** **** 0

# MOE 2024.06 (io_trps.svl 2023.06)
