@<TRIPOS>MOLECULE
NONAME
45 47 1 0 0 
SMALL
USER_CHARGES


@<TRIPOS>ATOM
  1 O       -0.4440     0.1040    -1.3590 O.2   1 <1>  -0.5700 
  2 C       -1.2890     0.7980    -0.8410 C.2   1 <1>   0.5690 
  3 N       -2.3760     0.2390    -0.2110 N.am  1 <1>  -0.6600 
  4 C       -1.1050     2.3160    -0.9580 C.3   1 <1>   0.1810 
  5 C       -2.5140    -1.2430    -0.0430 C.3   1 <1>   0.1400 
  6 C       -3.5040     1.0010     0.4100 C.3   1 <1>   0.1400 
  7 O       -1.1850     2.9710     0.2850 O.3   1 <1>  -0.5600 
  8 C       -3.9310    -1.7200    -0.4110 C.3   1 <1>   0.3440 
  9 C       -4.8740     0.3980     0.0230 C.3   1 <1>   0.2950 
 10 C       -0.9710     4.3620     0.2130 C.3   1 <1>   0.1810 
 11 O       -4.8910    -0.9740     0.2920 O.3   1 <1>  -0.5600 
 12 C       -4.1000    -3.2040    -0.0950 C.ar  1 <1>  -0.1440 
 13 C       -6.0760     1.0110     0.7630 C.3   1 <1>  -0.1950 
 14 C       -1.1040     5.0310     1.5800 C.2   1 <1>   0.5690 
 15 C       -3.7880    -4.1490    -1.0620 C.ar  1 <1>  -0.1500 
 16 C       -4.5490    -3.6350     1.1470 C.ar  1 <1>  -0.1500 
 17 C       -6.1220     2.4320     1.2410 C.3   1 <1>  -0.2000 
 18 C       -6.0900     1.3020     2.2320 C.3   1 <1>  -0.2000 
 19 O       -1.2340     6.2270     1.6460 O.2   1 <1>  -0.5700 
 20 N       -1.0760     4.2880     2.7040 N.am  1 <1>  -0.8000 
 21 C       -3.9200    -5.5010    -0.7940 C.ar  1 <1>  -0.1500 
 22 C       -4.6820    -4.9860     1.4170 C.ar  1 <1>  -0.1500 
 23 C       -4.3670    -5.9210     0.4460 C.ar  1 <1>  -0.1500 
 24 H       -1.8630     2.7120    -1.6070 H     1 <1>   0.0800 
 25 H       -0.1360     2.5130    -1.3820 H     1 <1>   0.0800 
 26 H       -1.8010    -1.7630    -0.6580 H     1 <1>   0.0800 
 27 H       -2.3130    -1.5030     0.9810 H     1 <1>   0.0800 
 28 H       -3.3880     0.9780     1.4780 H     1 <1>   0.0800 
 29 H       -3.4840     2.0280     0.0980 H     1 <1>   0.0800 
 30 H       -4.1000    -1.5650    -1.4630 H     1 <1>   0.0800 
 31 H       -5.0250     0.5310    -1.0340 H     1 <1>   0.0800 
 32 H        0.0190     4.5400    -0.1680 H     1 <1>   0.0800 
 33 H       -1.6960     4.7890    -0.4560 H     1 <1>   0.0800 
 34 H       -6.9940     0.6260     0.3520 H     1 <1>   0.1000 
 35 H       -3.4380    -3.8400    -2.0310 H     1 <1>   0.1500 
 36 H       -4.8000    -2.9170     1.9080 H     1 <1>   0.1500 
 37 H       -5.2580     3.0710     1.1860 H     1 <1>   0.1000 
 38 H       -7.0400     2.9840     1.1250 H     1 <1>   0.1000 
 39 H       -6.9830     1.0670     2.7850 H     1 <1>   0.1000 
 40 H       -5.2010     1.1380     2.8140 H     1 <1>   0.1000 
 41 H       -1.1600     4.7250     3.6220 H     1 <1>   0.3700 
 42 H       -0.9890     3.2710     2.6610 H     1 <1>   0.3700 
 43 H       -3.6760    -6.2260    -1.5500 H     1 <1>   0.1500 
 44 H       -5.0320    -5.3080     2.3820 H     1 <1>   0.1500 
 45 H       -4.4710    -6.9710     0.6560 H     1 <1>   0.1500 
@<TRIPOS>BOND
  1   1   2  2   
  2   2   3  am  
  3   2   4  1   
  4   3   5  1   
  5   3   6  1   
  6   4   7  1   
  7   4  24  1   
  8   4  25  1   
  9   5   8  1   
 10   5  26  1   
 11   5  27  1   
 12   6   9  1   
 13   6  28  1   
 14   6  29  1   
 15   7  10  1   
 16   8  11  1   
 17   8  12  1   
 18   8  30  1   
 19   9  11  1   
 20   9  13  1   
 21   9  31  1   
 22  10  14  1   
 23  10  32  1   
 24  10  33  1   
 25  12  15  ar  
 26  12  16  ar  
 27  13  17  1   
 28  13  18  1   
 29  13  34  1   
 30  14  19  2   
 31  14  20  am  
 32  15  21  ar  
 33  15  35  1   
 34  16  22  ar  
 35  16  36  1   
 36  17  18  1   
 37  17  37  1   
 38  17  38  1   
 39  18  39  1   
 40  18  40  1   
 41  20  41  1   
 42  20  42  1   
 43  21  23  ar  
 44  21  43  1   
 45  22  23  ar  
 46  22  44  1   
 47  23  45  1   
@<TRIPOS>SUBSTRUCTURE
  1 ****   6 GROUP 4 **** **** 0

# MOE 2024.06 (io_trps.svl 2023.06)
