@<TRIPOS>MOLECULE
NONAME
55 57 1 0 0 
SMALL
USER_CHARGES


@<TRIPOS>ATOM
  1 O        0.1820    -0.0320     0.3090 O.2   1 <1>  -0.5700 
  2 C        1.2930    -0.4970     0.3590 C.2   1 <1>   0.5690 
  3 N        2.4300     0.2380     0.1870 N.am  1 <1>  -0.4940 
  4 C        1.4490    -1.9880     0.6330 C.3   1 <1>  -0.0990 
  5 C        2.5710     1.6060    -0.0490 C.2   1 <1>   0.2040 
  6 C        0.1350    -2.7750     0.4270 C.3   1 <1>  -0.1600 
  7 O        1.5580     2.4360    -0.0860 O.3   1 <1>  -0.0190 
  8 C        3.7020     2.3200    -0.2600 C.2   1 <1>  -0.0540 
  9 C        0.2700    -4.2900     0.6300 C.3   1 <1>   0.4230 
 10 N        1.9430     3.6670    -0.3060 N.2   1 <1>  -0.4100 
 11 C        5.0630     1.8570    -0.3150 C.ar  1 <1>   0.0540 
 12 C        3.2200     3.6230    -0.4140 C.2   1 <1>   0.1080 
 13 N       -0.9610    -4.9540     0.1330 N.4   1 <1>  -0.9590 
 14 C        0.5260    -4.6610     2.0940 C.3   1 <1>  -0.2400 
 15 C        5.4950     1.0430    -1.3580 C.ar  1 <1>  -0.1500 
 16 C        5.9790     2.1990     0.6760 C.ar  1 <1>  -0.1500 
 17 C        4.0820     4.8390    -0.6820 C.3   1 <1>  -0.0590 
 18 C       -2.2400    -4.6380     0.8610 C.3   1 <1>   0.3430 
 19 C       -0.8280    -6.4360    -0.0680 C.3   1 <1>   0.3430 
 20 C        6.7970     0.5810    -1.4090 C.ar  1 <1>  -0.1500 
 21 C        7.2820     1.7400     0.6300 C.ar  1 <1>  -0.1500 
 22 C       -3.4620    -5.2250     0.1130 C.3   1 <1>   0.1100 
 23 C       -2.0740    -7.0170    -0.7810 C.3   1 <1>   0.1100 
 24 C        7.6930     0.9290    -0.4130 C.ar  1 <1>  -0.1500 
 25 N       -3.0700    -5.9710    -1.1070 N.3   1 <1>  -0.8100 
 26 C       -4.2430    -6.5390    -1.7850 C.3   1 <1>   0.0300 
 27 H        3.3130    -0.2630     0.2550 H     1 <1>   0.3700 
 28 H        1.7880    -2.0930     1.6480 H     1 <1>   0.0800 
 29 H        2.2070    -2.3780    -0.0210 H     1 <1>   0.0800 
 30 H       -0.2030    -2.5860    -0.5780 H     1 <1>   0.0800 
 31 H       -0.6030    -2.3800     1.1040 H     1 <1>   0.0800 
 32 H        1.1030    -4.6330     0.0370 H     1 <1>   0.0800 
 33 H       -1.1620    -4.6140    -0.8210 H     1 <1>   0.4500 
 34 H       -0.2250    -4.2470     2.7410 H     1 <1>   0.0800 
 35 H        1.4780    -4.2720     2.4070 H     1 <1>   0.0800 
 36 H        0.5630    -5.7260     2.2240 H     1 <1>   0.0800 
 37 H        4.8030     0.7770    -2.1390 H     1 <1>   0.1500 
 38 H        5.6620     2.8270     1.4900 H     1 <1>   0.1500 
 39 H        4.7680     4.6330    -1.4840 H     1 <1>   0.0800 
 40 H        4.6370     5.0940     0.2010 H     1 <1>   0.0800 
 41 H        3.4640     5.6740    -0.9590 H     1 <1>   0.0800 
 42 H       -2.3670    -3.5710     0.9420 H     1 <1>   0.0800 
 43 H       -2.2070    -5.0410     1.8590 H     1 <1>   0.0800 
 44 H       -0.7030    -6.9290     0.8810 H     1 <1>   0.0800 
 45 H        0.0430    -6.6480    -0.6660 H     1 <1>   0.0800 
 46 H        7.1190    -0.0450    -2.2240 H     1 <1>   0.1500 
 47 H        7.9790     2.0120     1.4040 H     1 <1>   0.1500 
 48 H       -4.1210    -4.4190    -0.1620 H     1 <1>   0.0800 
 49 H       -4.0060    -5.8720     0.7810 H     1 <1>   0.0800 
 50 H       -2.5230    -7.7680    -0.1510 H     1 <1>   0.0800 
 51 H       -1.7600    -7.5040    -1.6890 H     1 <1>   0.0800 
 52 H        8.7080     0.5710    -0.4510 H     1 <1>   0.1500 
 53 H       -4.9320    -5.7550    -2.0500 H     1 <1>   0.0800 
 54 H       -4.7470    -7.2480    -1.1500 H     1 <1>   0.0800 
 55 H       -3.9390    -7.0370    -2.6910 H     1 <1>   0.0800 
@<TRIPOS>BOND
  1   1   2  2   
  2   2   3  am  
  3   2   4  1   
  4   3   5  1   
  5   3  27  1   
  6   4   6  1   
  7   4  28  1   
  8   4  29  1   
  9   5   7  1   
 10   5   8  2   
 11   6   9  1   
 12   6  30  1   
 13   6  31  1   
 14   7  10  1   
 15   8  11  1   
 16   8  12  1   
 17   9  13  1   
 18   9  14  1   
 19   9  32  1   
 20  10  12  2   
 21  11  15  ar  
 22  11  16  ar  
 23  12  17  1   
 24  13  18  1   
 25  13  19  1   
 26  13  33  1   
 27  14  34  1   
 28  14  35  1   
 29  14  36  1   
 30  15  20  ar  
 31  15  37  1   
 32  16  21  ar  
 33  16  38  1   
 34  17  39  1   
 35  17  40  1   
 36  17  41  1   
 37  18  22  1   
 38  18  42  1   
 39  18  43  1   
 40  19  23  1   
 41  19  44  1   
 42  19  45  1   
 43  20  24  ar  
 44  20  46  1   
 45  21  24  ar  
 46  21  47  1   
 47  22  25  1   
 48  22  48  1   
 49  22  49  1   
 50  23  25  1   
 51  23  50  1   
 52  23  51  1   
 53  24  52  1   
 54  25  26  1   
 55  26  53  1   
 56  26  54  1   
 57  26  55  1   
@<TRIPOS>SUBSTRUCTURE
  1 ****   2 GROUP 4 **** **** 0

# MOE 2024.06 (io_trps.svl 2023.06)
