@<TRIPOS>MOLECULE
NONAME
44 46 1 0 0 
SMALL
USER_CHARGES


@<TRIPOS>ATOM
  1 O       -0.4490     0.1090    -0.3990 O.2   1 <1>  -0.5700 
  2 C       -1.5270     0.6730    -0.3960 C.2   1 <1>   0.5440 
  3 N       -1.5530     2.0470    -0.2740 N.am  1 <1>  -0.6600 
  4 C       -2.7340    -0.1130    -0.5050 C.ar  1 <1>   0.0860 
  5 C       -0.3250     2.8800    -0.4580 C.3   1 <1>   0.1400 
  6 C       -2.6830     2.8040     0.3450 C.3   1 <1>   0.1400 
  7 C       -2.8590    -1.3130     0.1910 C.ar  1 <1>   0.1600 
  8 C       -3.8130     0.2630    -1.2990 C.ar  1 <1>  -0.1500 
  9 C        0.0160     3.6360     0.8350 C.3   1 <1>   0.1200 
 10 C       -2.2040     3.5780     1.5870 C.3   1 <1>   0.1200 
 11 N       -3.9150    -2.1090     0.1890 N.ar  1 <1>  -0.6200 
 12 C       -4.9170    -0.5550    -1.3200 C.ar  1 <1>  -0.1500 
 13 O       -1.0910     4.3690     1.2820 O.3   1 <1>  -0.5600 
 14 C       -4.9370    -1.7250    -0.5660 C.ar  1 <1>   0.4100 
 15 N       -6.0450    -2.5300    -0.5970 N.pl3 1 <1>  -0.8690 
 16 C       -6.1000    -3.8530     0.0580 C.3   1 <1>   0.2090 
 17 C       -7.5390    -4.3630     0.0230 C.3   1 <1>  -0.1600 
 18 C       -7.6580    -5.7340     0.7020 C.3   1 <1>   0.0200 
 19 C       -9.0760    -6.2770     0.6760 C.2   1 <1>  -0.0400 
 20 O       -9.2850    -7.4670     1.2010 O.3   1 <1>  -0.2800 
 21 C      -10.2330    -5.7650     0.1990 C.2   1 <1>  -0.1500 
 22 C      -10.5680    -7.7430     1.0740 C.2   1 <1>  -0.0100 
 23 C      -11.2140    -6.7290     0.4610 C.2   1 <1>  -0.1500 
 24 H       -0.4970     3.5920    -1.2470 H     1 <1>   0.0800 
 25 H        0.5130     2.2690    -0.7460 H     1 <1>   0.0800 
 26 H       -3.4740     2.1370     0.6390 H     1 <1>   0.0800 
 27 H       -3.0800     3.5010    -0.3730 H     1 <1>   0.0800 
 28 H       -2.0210    -1.6250     0.7910 H     1 <1>   0.1500 
 29 H       -3.7720     1.1670    -1.8810 H     1 <1>   0.1500 
 30 H        0.8210     4.3270     0.6610 H     1 <1>   0.0800 
 31 H        0.3120     2.9460     1.6070 H     1 <1>   0.0800 
 32 H       -1.9370     2.8970     2.3760 H     1 <1>   0.0800 
 33 H       -2.9820     4.2300     1.9420 H     1 <1>   0.0800 
 34 H       -5.7740    -0.3040    -1.9150 H     1 <1>   0.1500 
 35 H       -6.6970    -2.4060    -1.3720 H     1 <1>   0.4000 
 36 H       -5.7630    -3.7610     1.0780 H     1 <1>   0.0800 
 37 H       -5.4440    -4.5320    -0.4610 H     1 <1>   0.0800 
 38 H       -7.8620    -4.4490    -0.9990 H     1 <1>   0.0800 
 39 H       -8.1720    -3.6600     0.5360 H     1 <1>   0.0800 
 40 H       -7.3410    -5.6610     1.7280 H     1 <1>   0.0800 
 41 H       -7.0160    -6.4410     0.2060 H     1 <1>   0.0800 
 42 H      -10.4080    -4.8210    -0.2850 H     1 <1>   0.1500 
 43 H      -10.9360    -8.6820     1.4480 H     1 <1>   0.1500 
 44 H      -12.2570    -6.6470     0.2120 H     1 <1>   0.1500 
@<TRIPOS>BOND
  1   1   2  2   
  2   2   3  am  
  3   2   4  1   
  4   3   5  1   
  5   3   6  1   
  6   4   7  ar  
  7   4   8  ar  
  8   5   9  1   
  9   5  24  1   
 10   5  25  1   
 11   6  10  1   
 12   6  26  1   
 13   6  27  1   
 14   7  11  ar  
 15   7  28  1   
 16   8  12  ar  
 17   8  29  1   
 18   9  13  1   
 19   9  30  1   
 20   9  31  1   
 21  10  13  1   
 22  10  32  1   
 23  10  33  1   
 24  11  14  ar  
 25  12  14  ar  
 26  12  34  1   
 27  14  15  1   
 28  15  16  1   
 29  15  35  1   
 30  16  17  1   
 31  16  36  1   
 32  16  37  1   
 33  17  18  1   
 34  17  38  1   
 35  17  39  1   
 36  18  19  1   
 37  18  40  1   
 38  18  41  1   
 39  19  20  1   
 40  19  21  2   
 41  20  22  1   
 42  21  23  1   
 43  21  42  1   
 44  22  23  2   
 45  22  43  1   
 46  23  44  1   
@<TRIPOS>SUBSTRUCTURE
  1 ****  14 GROUP 4 **** **** 0

# MOE 2024.06 (io_trps.svl 2023.06)
