@<TRIPOS>MOLECULE
NONAME
49 51 1 0 0 
SMALL
USER_CHARGES


@<TRIPOS>ATOM
  1 O       -1.7970    -2.1360     1.8230 O.co2 1 <1>  -0.9000 
  2 C       -1.7160    -1.7070     0.6690 C.2   1 <1>   0.9060 
  3 O       -0.9170    -0.8340     0.3150 O.co2 1 <1>  -0.9000 
  4 C       -2.7620    -2.1680    -0.3490 C.3   1 <1>   0.2370 
  5 N       -4.0020    -1.2920    -0.4130 N.4   1 <1>  -0.9590 
  6 C       -4.7160    -1.3430     0.8990 C.3   1 <1>   0.3430 
  7 C       -3.6270     0.1090    -0.7620 C.3   1 <1>   0.3430 
  8 C       -6.1770    -0.8520     0.7330 C.3   1 <1>   0.1900 
  9 C       -4.8350     1.0420    -1.0060 C.3   1 <1>  -0.0800 
 10 N       -6.5660    -0.8120    -0.7230 N.3   1 <1>  -0.8100 
 11 C       -6.3940     0.4830     1.4720 C.3   1 <1>   0.1200 
 12 C       -5.0880     1.9900     0.1790 C.3   1 <1>   0.1200 
 13 C       -6.1460     0.3800    -1.4880 C.3   1 <1>   0.1100 
 14 C       -7.9600    -1.2040    -0.9820 C.3   1 <1>   0.2530 
 15 O       -5.2710     1.3070     1.3740 O.3   1 <1>  -0.5600 
 16 C       -8.1150    -2.6780    -0.6660 C.ar  1 <1>  -0.1430 
 17 C       -7.3630    -3.6230    -1.3250 C.ar  1 <1>   0.1600 
 18 C       -8.9810    -3.1390     0.2990 C.ar  1 <1>   0.1600 
 19 N       -7.4380    -4.9010    -1.0480 N.ar  1 <1>  -0.6200 
 20 N       -9.0790    -4.4100     0.6000 N.ar  1 <1>  -0.6200 
 21 C       -8.2900    -5.2280    -0.0880 C.ar  1 <1>   0.7200 
 22 N       -8.3360    -6.5490     0.1890 N.pl3 1 <1>  -0.8690 
 23 C       -9.4410    -7.2020     0.9050 C.3   1 <1>   0.2090 
 24 C       -9.0980    -8.6760     1.0730 C.3   1 <1>  -0.2400 
 25 H       -3.0390    -3.1730    -0.0860 H     1 <1>   0.0800 
 26 H       -2.2810    -2.1880    -1.3090 H     1 <1>   0.0800 
 27 H       -4.7040    -1.6150    -1.0930 H     1 <1>   0.4500 
 28 H       -4.7350    -2.3590     1.2550 H     1 <1>   0.0800 
 29 H       -4.1920    -0.7560     1.6380 H     1 <1>   0.0800 
 30 H       -3.0050     0.5200     0.0200 H     1 <1>   0.0800 
 31 H       -3.0280     0.0840    -1.6570 H     1 <1>   0.0800 
 32 H       -6.7920    -1.5760     1.2370 H     1 <1>   0.0800 
 33 H       -4.5330     1.6980    -1.8020 H     1 <1>   0.0800 
 34 H       -6.5240     0.2810     2.5210 H     1 <1>   0.0800 
 35 H       -7.2650     1.0060     1.1180 H     1 <1>   0.0800 
 36 H       -5.9470     2.6170     0.0080 H     1 <1>   0.0800 
 37 H       -4.2320     2.6280     0.3190 H     1 <1>   0.0800 
 38 H       -6.0230     0.0860    -2.5180 H     1 <1>   0.0800 
 39 H       -6.9330     1.1160    -1.4620 H     1 <1>   0.0800 
 40 H       -8.6310    -0.6060    -0.3880 H     1 <1>   0.0800 
 41 H       -8.1980    -1.0490    -2.0220 H     1 <1>   0.0800 
 42 H       -6.6760    -3.3180    -2.0950 H     1 <1>   0.1500 
 43 H       -9.6050    -2.4510     0.8430 H     1 <1>   0.1500 
 44 H       -7.8510    -7.1130    -0.5050 H     1 <1>   0.4000 
 45 H       -9.5700    -6.7370     1.8690 H     1 <1>   0.0800 
 46 H      -10.3520    -7.0890     0.3410 H     1 <1>   0.0800 
 47 H       -8.1840    -8.7800     1.6310 H     1 <1>   0.0800 
 48 H       -8.9930    -9.1480     0.1140 H     1 <1>   0.0800 
 49 H       -9.8850    -9.1690     1.6130 H     1 <1>   0.0800 
@<TRIPOS>BOND
  1   1   2  ar  
  2   2   3  ar  
  3   2   4  1   
  4   4   5  1   
  5   4  25  1   
  6   4  26  1   
  7   5   6  1   
  8   5   7  1   
  9   5  27  1   
 10   6   8  1   
 11   6  28  1   
 12   6  29  1   
 13   7   9  1   
 14   7  30  1   
 15   7  31  1   
 16   8  10  1   
 17   8  11  1   
 18   8  32  1   
 19   9  12  1   
 20   9  13  1   
 21   9  33  1   
 22  10  13  1   
 23  10  14  1   
 24  11  15  1   
 25  11  34  1   
 26  11  35  1   
 27  12  15  1   
 28  12  36  1   
 29  12  37  1   
 30  13  38  1   
 31  13  39  1   
 32  14  16  1   
 33  14  40  1   
 34  14  41  1   
 35  16  17  ar  
 36  16  18  ar  
 37  17  19  ar  
 38  17  42  1   
 39  18  20  ar  
 40  18  43  1   
 41  19  21  ar  
 42  20  21  ar  
 43  21  22  1   
 44  22  23  1   
 45  22  44  1   
 46  23  24  1   
 47  23  45  1   
 48  23  46  1   
 49  24  47  1   
 50  24  48  1   
 51  24  49  1   
@<TRIPOS>SUBSTRUCTURE
  1 ****   8 GROUP 4 **** **** 0

# MOE 2024.06 (io_trps.svl 2023.06)
