@<TRIPOS>MOLECULE
NONAME
52 54 1 0 0 
SMALL
USER_CHARGES


@<TRIPOS>ATOM
  1 O       -1.3660     2.5080     2.7870 O.2   1 <1>  -0.5700 
  2 C       -0.7390     3.3620     2.2160 C.2   1 <1>   0.5690 
  3 N       -1.3440     4.4990     1.7990 N.am  1 <1>  -0.7300 
  4 C        0.7570     3.1620     1.9330 C.3   1 <1>   0.1810 
  5 C       -0.6110     5.6150     1.1700 C.3   1 <1>   0.3640 
  6 O        1.4200     4.3520     1.5380 O.3   1 <1>  -0.5600 
  7 C       -1.5540     6.3380     0.2150 C.ar  1 <1>  -0.1440 
  8 C        0.7170     5.1030     0.5600 C.3   1 <1>   0.2610 
  9 C       -1.7480     5.9240    -1.0970 C.ar  1 <1>   0.1600 
 10 C       -2.2600     7.4380     0.6670 C.ar  1 <1>  -0.1500 
 11 C        1.5740     6.2670     0.0600 C.2   1 <1>   0.5690 
 12 N       -2.5500     6.5160    -1.9680 N.ar  1 <1>  -0.6200 
 13 C       -3.1080     8.0580    -0.2250 C.ar  1 <1>  -0.1500 
 14 O        1.3870     6.6930    -1.0540 O.2   1 <1>  -0.5700 
 15 N        2.5310     6.7920     0.8800 N.am  1 <1>  -0.7300 
 16 C       -3.2150     7.5630    -1.5130 C.ar  1 <1>   0.1600 
 17 C        3.6430     7.7680     0.6170 C.3   1 <1>   0.1400 
 18 C        3.6030     8.5690    -0.7100 C.3   1 <1>   0.3430 
 19 N        2.3010     9.2560    -0.9770 N.4   1 <1>  -0.9590 
 20 C        2.2760     9.8820    -2.3190 C.3   1 <1>   0.3430 
 21 C        1.8630    10.2100     0.0730 C.3   1 <1>   0.3430 
 22 C        0.9900     9.5050    -3.0550 C.3   1 <1>  -0.1600 
 23 C        0.3360    10.2920     0.1330 C.3   1 <1>  -0.1600 
 24 C       -0.3080     9.5370    -2.2290 C.3   1 <1>  -0.1600 
 25 C       -0.3770    10.6580    -1.1820 C.3   1 <1>  -0.1600 
 26 H       -2.3450     4.6170     1.9760 H     1 <1>   0.3700 
 27 H        0.8740     2.4340     1.1510 H     1 <1>   0.0800 
 28 H        1.2400     2.7940     2.8200 H     1 <1>   0.0800 
 29 H       -0.3480     6.3080     1.9520 H     1 <1>   0.0800 
 30 H        0.5200     4.4520    -0.2720 H     1 <1>   0.0800 
 31 H       -1.2250     5.0600    -1.4660 H     1 <1>   0.1500 
 32 H       -2.1680     7.8030     1.6760 H     1 <1>   0.1500 
 33 H       -3.6870     8.9140     0.0700 H     1 <1>   0.1500 
 34 H        2.6600     6.2540     1.7500 H     1 <1>   0.3700 
 35 H       -3.8820     8.0520    -2.2030 H     1 <1>   0.1500 
 36 H        3.6840     8.4630     1.4370 H     1 <1>   0.0800 
 37 H        4.5700     7.2210     0.6350 H     1 <1>   0.0800 
 38 H        3.8000     7.8800    -1.5150 H     1 <1>   0.0800 
 39 H        4.3980     9.2960    -0.7020 H     1 <1>   0.0800 
 40 H        1.6070     8.4810    -1.0180 H     1 <1>   0.4500 
 41 H        2.3320    10.9540    -2.2210 H     1 <1>   0.0800 
 42 H        3.1190     9.5540    -2.9040 H     1 <1>   0.0800 
 43 H        2.2180     9.8860     1.0360 H     1 <1>   0.0800 
 44 H        2.2750    11.1870    -0.1240 H     1 <1>   0.0800 
 45 H        0.8850    10.1810    -3.8850 H     1 <1>   0.0800 
 46 H        1.1040     8.5200    -3.4750 H     1 <1>   0.0800 
 47 H       -0.0480     9.3570     0.5010 H     1 <1>   0.0800 
 48 H        0.0830    11.0380     0.8670 H     1 <1>   0.0800 
 49 H       -1.1320     9.6490    -2.9140 H     1 <1>   0.0800 
 50 H       -0.4510     8.5860    -1.7460 H     1 <1>   0.0800 
 51 H       -1.4160    10.8240    -0.9520 H     1 <1>   0.0800 
 52 H        0.0050    11.5810    -1.5860 H     1 <1>   0.0800 
@<TRIPOS>BOND
  1   1   2  2   
  2   2   3  am  
  3   2   4  1   
  4   3   5  1   
  5   3  26  1   
  6   4   6  1   
  7   4  27  1   
  8   4  28  1   
  9   5   7  1   
 10   5   8  1   
 11   5  29  1   
 12   6   8  1   
 13   7   9  ar  
 14   7  10  ar  
 15   8  11  1   
 16   8  30  1   
 17   9  12  ar  
 18   9  31  1   
 19  10  13  ar  
 20  10  32  1   
 21  11  14  2   
 22  11  15  am  
 23  12  16  ar  
 24  13  16  ar  
 25  13  33  1   
 26  15  17  1   
 27  15  34  1   
 28  16  35  1   
 29  17  18  1   
 30  17  36  1   
 31  17  37  1   
 32  18  19  1   
 33  18  38  1   
 34  18  39  1   
 35  19  20  1   
 36  19  21  1   
 37  19  40  1   
 38  20  22  1   
 39  20  41  1   
 40  20  42  1   
 41  21  23  1   
 42  21  43  1   
 43  21  44  1   
 44  22  24  1   
 45  22  45  1   
 46  22  46  1   
 47  23  25  1   
 48  23  47  1   
 49  23  48  1   
 50  24  25  1   
 51  24  49  1   
 52  24  50  1   
 53  25  51  1   
 54  25  52  1   
@<TRIPOS>SUBSTRUCTURE
  1 ****  14 GROUP 4 **** **** 0

# MOE 2024.06 (io_trps.svl 2023.06)
