@<TRIPOS>MOLECULE
NONAME
52 54 1 0 0 
SMALL
USER_CHARGES


@<TRIPOS>ATOM
  1 CL       0.3410     0.4070     0.2710 Cl    1 <1>  -0.1770 
  2 C       -1.1910     1.2150     0.0750 C.ar  1 <1>   0.1770 
  3 C       -1.2940     2.5510     0.3430 C.ar  1 <1>  -0.1500 
  4 C       -2.2860     0.4740    -0.3570 C.ar  1 <1>  -0.1500 
  5 C       -2.5220     3.2250     0.1900 C.ar  1 <1>   0.0000 
  6 C       -3.5040     1.0890    -0.5220 C.ar  1 <1>  -0.1440 
  7 C       -3.6330     2.4690    -0.2520 C.ar  1 <1>   0.3610 
  8 C       -2.6810     4.6230     0.4560 C.ar  1 <1>   0.1000 
  9 C       -4.6870     0.2470    -0.9990 C.3   1 <1>  -0.0960 
 10 N       -4.8430     3.1080    -0.4150 N.ar  1 <1>  -0.1790 
 11 N       -1.6290     5.3550     0.8890 N.pl3 1 <1>  -0.8690 
 12 C       -3.9470     5.1790     0.2600 C.ar  1 <1>  -0.1500 
 13 C       -5.0030     4.4200    -0.1700 C.ar  1 <1>   0.2110 
 14 C       -1.5140     6.8040     1.1730 C.3   1 <1>   0.2090 
 15 C       -0.2350     7.3150     0.5100 C.3   1 <1>  -0.1600 
 16 C       -0.0810     8.8220     0.7200 C.3   1 <1>   0.3430 
 17 N        1.0930     9.3430    -0.0370 N.4   1 <1>  -0.9590 
 18 C        2.3950     8.9280     0.5940 C.3   1 <1>   0.3430 
 19 C        1.0060    10.8290    -0.1590 C.3   1 <1>   0.3430 
 20 C        3.6090     9.4310    -0.2020 C.3   1 <1>  -0.0190 
 21 C        2.1650    11.3500    -1.0120 C.3   1 <1>  -0.1600 
 22 C        4.8740     9.0420     0.5470 C.2   1 <1>   0.5690 
 23 C        3.5270    10.9530    -0.4240 C.3   1 <1>  -0.1600 
 24 O        4.7880     8.6180     1.6690 O.2   1 <1>  -0.5700 
 25 N        6.0780     9.1670    -0.0400 N.am  1 <1>  -0.8000 
 26 H       -0.4150     3.0730     0.6720 H     1 <1>   0.1500 
 27 H       -2.1400    -0.5760    -0.5520 H     1 <1>   0.1500 
 28 H       -4.3880    -0.7770    -1.1480 H     1 <1>   0.0800 
 29 H       -5.0630     0.6120    -1.9390 H     1 <1>   0.0800 
 30 H       -5.4770     0.2480    -0.2680 H     1 <1>   0.0800 
 31 H       -5.6280     2.5360    -0.7340 H     1 <1>   0.4570 
 32 H       -0.7530     4.8590     1.1010 H     1 <1>   0.4000 
 33 H       -4.1090     6.2210     0.4550 H     1 <1>   0.1500 
 34 H       -5.9760     4.8640    -0.3150 H     1 <1>   0.1500 
 35 H       -1.4730     6.9530     2.2400 H     1 <1>   0.0800 
 36 H       -2.3640     7.3370     0.7840 H     1 <1>   0.0800 
 37 H       -0.2910     7.1040    -0.5430 H     1 <1>   0.0800 
 38 H        0.6030     6.7960     0.9380 H     1 <1>   0.0800 
 39 H        0.0310     9.0410     1.7710 H     1 <1>   0.0800 
 40 H       -0.9760     9.3130     0.3700 H     1 <1>   0.0800 
 41 H        1.0640     8.9550    -0.9900 H     1 <1>   0.4500 
 42 H        2.4510     7.8540     0.6680 H     1 <1>   0.0800 
 43 H        2.4530     9.3260     1.5960 H     1 <1>   0.0800 
 44 H        1.0520    11.2800     0.8200 H     1 <1>   0.0800 
 45 H        0.0710    11.1100    -0.6180 H     1 <1>   0.0800 
 46 H        3.6250     8.9270    -1.1510 H     1 <1>   0.0800 
 47 H        2.1030    12.4240    -1.0630 H     1 <1>   0.0800 
 48 H        2.0700    10.9770    -2.0170 H     1 <1>   0.0800 
 49 H        4.3140    11.2730    -1.0870 H     1 <1>   0.0800 
 50 H        3.6700    11.4590     0.5170 H     1 <1>   0.0800 
 51 H        6.9170     8.9080     0.4870 H     1 <1>   0.3700 
 52 H        6.2460     9.5300    -0.9780 H     1 <1>   0.3700 
@<TRIPOS>BOND
  1   1   2  1   
  2   2   3  ar  
  3   2   4  ar  
  4   3   5  ar  
  5   3  26  1   
  6   4   6  ar  
  7   4  27  1   
  8   5   7  ar  
  9   5   8  ar  
 10   6   7  ar  
 11   6   9  1   
 12   7  10  ar  
 13   8  11  1   
 14   8  12  ar  
 15   9  28  1   
 16   9  29  1   
 17   9  30  1   
 18  10  13  ar  
 19  10  31  1   
 20  11  14  1   
 21  11  32  1   
 22  12  13  ar  
 23  12  33  1   
 24  13  34  1   
 25  14  15  1   
 26  14  35  1   
 27  14  36  1   
 28  15  16  1   
 29  15  37  1   
 30  15  38  1   
 31  16  17  1   
 32  16  39  1   
 33  16  40  1   
 34  17  18  1   
 35  17  19  1   
 36  17  41  1   
 37  18  20  1   
 38  18  42  1   
 39  18  43  1   
 40  19  21  1   
 41  19  44  1   
 42  19  45  1   
 43  20  22  1   
 44  20  23  1   
 45  20  46  1   
 46  21  23  1   
 47  21  47  1   
 48  21  48  1   
 49  22  24  2   
 50  22  25  am  
 51  23  49  1   
 52  23  50  1   
 53  25  51  1   
 54  25  52  1   
@<TRIPOS>SUBSTRUCTURE
  1 ****  11 GROUP 4 **** **** 0

# MOE 2024.06 (io_trps.svl 2023.06)
