@<TRIPOS>MOLECULE
NONAME
50 53 1 0 0 
SMALL
USER_CHARGES


@<TRIPOS>ATOM
  1 O        0.2290     0.3460    -0.1150 O.3   1 <1>  -0.5600 
  2 C        1.1660     1.2530    -0.5730 C.3   1 <1>   0.2000 
  3 C       -0.2420    -0.5820    -1.0630 C.3   1 <1>   0.2640 
  4 C        2.5560     0.6320    -0.4030 C.3   1 <1>  -0.1600 
  5 C        1.0070     2.5040     0.2890 C.3   1 <1>  -0.1600 
  6 C       -1.1040    -1.6670    -0.4260 C.ar  1 <1>   0.1660 
  7 C        3.6590     1.6670    -0.6020 C.3   1 <1>   0.3430 
  8 C        2.1470     3.4900     0.0640 C.3   1 <1>   0.3430 
  9 N       -1.2810    -2.7530    -1.1680 N.ar  1 <1>  -0.6200 
 10 C       -1.6570    -1.5020     0.8380 C.ar  1 <1>  -0.1500 
 11 N        3.4520     2.8120     0.3350 N.4   1 <1>  -0.9590 
 12 C       -2.0270    -3.7050    -0.6300 C.ar  1 <1>   0.1600 
 13 C       -2.4320    -2.5020     1.3850 C.ar  1 <1>  -0.1500 
 14 C        4.6240     3.7500     0.2650 C.3   1 <1>   0.3430 
 15 C       -2.6160    -3.6330     0.6200 C.ar  1 <1>  -0.1500 
 16 C        4.6280     4.7970     1.3860 C.3   1 <1>   0.0960 
 17 N        5.8730     5.5670     1.2710 N.pl3 1 <1>   0.0480 
 18 C        6.1770     6.4580     0.2910 C.ar  1 <1>  -0.1520 
 19 C        7.0430     5.3220     1.9160 C.2   1 <1>   0.0360 
 20 C        7.5360     6.6890     0.4140 C.ar  1 <1>   0.2270 
 21 C        5.4250     7.0990    -0.7000 C.ar  1 <1>  -0.1500 
 22 N        8.0510     5.9600     1.4410 N.2   1 <1>  -0.5650 
 23 C        8.1790     7.5620    -0.4600 C.ar  1 <1>  -0.1500 
 24 C        6.0700     7.9600    -1.5600 C.ar  1 <1>  -0.1500 
 25 C        7.4460     8.1910    -1.4430 C.ar  1 <1>  -0.1500 
 26 H        0.9660     1.4900    -1.6070 H     1 <1>   0.0800 
 27 H        0.5990    -1.0510    -1.5410 H     1 <1>   0.0800 
 28 H       -0.8220    -0.0560    -1.8010 H     1 <1>   0.0800 
 29 H        2.6920    -0.1550    -1.1220 H     1 <1>   0.0800 
 30 H        2.6460     0.2020     0.5800 H     1 <1>   0.0800 
 31 H        0.9740     2.2300     1.3300 H     1 <1>   0.0800 
 32 H        0.0750     2.9820     0.0440 H     1 <1>   0.0800 
 33 H        3.6460     2.0190    -1.6220 H     1 <1>   0.0800 
 34 H        4.6160     1.2050    -0.4170 H     1 <1>   0.0800 
 35 H        2.0170     4.3330     0.7240 H     1 <1>   0.0800 
 36 H        2.1210     3.8480    -0.9530 H     1 <1>   0.0800 
 37 H       -1.4850    -0.6000     1.3950 H     1 <1>   0.1500 
 38 H        3.4000     2.4050     1.2810 H     1 <1>   0.4500 
 39 H       -2.1790    -4.5930    -1.2200 H     1 <1>   0.1500 
 40 H       -2.8720    -2.4030     2.3620 H     1 <1>   0.1500 
 41 H        4.6280     4.2550    -0.6880 H     1 <1>   0.0800 
 42 H        5.5360     3.1790     0.3400 H     1 <1>   0.0800 
 43 H       -3.2090    -4.4500     0.9860 H     1 <1>   0.1500 
 44 H        4.6040     4.3250     2.3510 H     1 <1>   0.0800 
 45 H        3.8000     5.4750     1.2920 H     1 <1>   0.0800 
 46 H        7.1080     4.6410     2.7480 H     1 <1>   0.1500 
 47 H        4.3670     6.9370    -0.7870 H     1 <1>   0.1500 
 48 H        9.2350     7.7230    -0.3440 H     1 <1>   0.1500 
 49 H        5.5230     8.4720    -2.3340 H     1 <1>   0.1500 
 50 H        7.9280     8.8700    -2.1260 H     1 <1>   0.1500 
@<TRIPOS>BOND
  1   1   2  1   
  2   1   3  1   
  3   2   4  1   
  4   2   5  1   
  5   2  26  1   
  6   3   6  1   
  7   3  27  1   
  8   3  28  1   
  9   4   7  1   
 10   4  29  1   
 11   4  30  1   
 12   5   8  1   
 13   5  31  1   
 14   5  32  1   
 15   6   9  ar  
 16   6  10  ar  
 17   7  11  1   
 18   7  33  1   
 19   7  34  1   
 20   8  11  1   
 21   8  35  1   
 22   8  36  1   
 23   9  12  ar  
 24  10  13  ar  
 25  10  37  1   
 26  11  14  1   
 27  11  38  1   
 28  12  15  ar  
 29  12  39  1   
 30  13  15  ar  
 31  13  40  1   
 32  14  16  1   
 33  14  41  1   
 34  14  42  1   
 35  15  43  1   
 36  16  17  1   
 37  16  44  1   
 38  16  45  1   
 39  17  18  1   
 40  17  19  1   
 41  18  20  ar  
 42  18  21  ar  
 43  19  22  2   
 44  19  46  1   
 45  20  22  1   
 46  20  23  ar  
 47  21  24  ar  
 48  21  47  1   
 49  23  25  ar  
 50  23  48  1   
 51  24  25  ar  
 52  24  49  1   
 53  25  50  1   
@<TRIPOS>SUBSTRUCTURE
  1 ****  11 GROUP 4 **** **** 0

# MOE 2024.06 (io_trps.svl 2023.06)
