@<TRIPOS>MOLECULE
NONAME
42 43 1 0 0 
SMALL
USER_CHARGES


@<TRIPOS>ATOM
  1 S       -0.2160     0.1860    -0.6950 S.o2  1 <1>   1.3330 
  2 O        0.0090     1.0400    -1.8390 O.2   1 <1>  -0.6500 
  3 O       -0.9290    -1.0600    -0.8630 O.2   1 <1>  -0.6500 
  4 N        1.2960    -0.1940    -0.0180 N.am  1 <1>  -0.8490 
  5 C       -1.0140     1.1380     0.6060 C.3   1 <1>  -0.0550 
  6 C        1.2740    -1.3860     0.8380 C.3   1 <1>   0.1160 
  7 C        2.3470    -0.3310    -1.0320 C.3   1 <1>   0.1160 
  8 C       -0.5680     2.6050     0.7990 C.3   1 <1>  -0.0800 
  9 C       -1.0870     3.5670    -0.2700 C.3   1 <1>   0.2000 
 10 C        0.9350     2.8840     0.8450 C.3   1 <1>   0.1400 
 11 O       -2.3960     3.9180     0.0280 O.3   1 <1>  -0.6800 
 12 C       -0.1550     4.7820    -0.2150 C.3   1 <1>   0.1400 
 13 N        1.0450     4.3300     0.5390 N.am  1 <1>  -0.6600 
 14 C        2.1700     5.0800     0.8470 C.2   1 <1>   0.5440 
 15 O        3.0790     4.4890     1.4060 O.2   1 <1>  -0.5700 
 16 C        2.3400     6.5060     0.5350 C.ar  1 <1>   0.3960 
 17 N        1.2860     7.3150     0.3220 N.ar  1 <1>  -0.6200 
 18 C        3.6450     7.0150     0.4740 C.ar  1 <1>   0.1600 
 19 C        1.6210     8.5650     0.0620 C.ar  1 <1>   0.1600 
 20 N        3.9810     8.2680     0.2090 N.ar  1 <1>  -0.6200 
 21 C        2.9290     9.0350     0.0050 C.ar  1 <1>   0.1670 
 22 C        3.2190    10.4900    -0.3020 C.3   1 <1>  -0.0970 
 23 H       -2.0700     1.1470     0.4140 H     1 <1>   0.0800 
 24 H       -0.8760     0.6190     1.5340 H     1 <1>   0.0800 
 25 H        2.2300    -1.5170     1.3150 H     1 <1>   0.0800 
 26 H        1.0500    -2.2650     0.2540 H     1 <1>   0.0800 
 27 H        0.5240    -1.2820     1.6030 H     1 <1>   0.0800 
 28 H        3.2900    -0.5540    -0.5650 H     1 <1>   0.0800 
 29 H        2.4550     0.5910    -1.5790 H     1 <1>   0.0800 
 30 H        2.0970    -1.1170    -1.7250 H     1 <1>   0.0800 
 31 H       -0.9540     2.9330     1.7490 H     1 <1>   0.0800 
 32 H       -1.0700     3.1380    -1.2570 H     1 <1>   0.0800 
 33 H        1.4700     2.3460     0.0840 H     1 <1>   0.0800 
 34 H        1.3550     2.6550     1.8100 H     1 <1>   0.0800 
 35 H       -2.4300     4.4070     0.8730 H     1 <1>   0.4000 
 36 H       -0.6250     5.5960     0.3060 H     1 <1>   0.0800 
 37 H        0.1260     5.0900    -1.2070 H     1 <1>   0.0800 
 38 H        4.4580     6.3330     0.6560 H     1 <1>   0.1500 
 39 H        0.8170     9.2570    -0.1160 H     1 <1>   0.1500 
 40 H        2.3130    11.0460    -0.4560 H     1 <1>   0.0800 
 41 H        3.8240    10.5570    -1.1880 H     1 <1>   0.0800 
 42 H        3.7610    10.9280     0.5170 H     1 <1>   0.0800 
@<TRIPOS>BOND
  1   1   2  2   
  2   1   3  2   
  3   1   4  am  
  4   1   5  1   
  5   4   6  1   
  6   4   7  1   
  7   5   8  1   
  8   5  23  1   
  9   5  24  1   
 10   6  25  1   
 11   6  26  1   
 12   6  27  1   
 13   7  28  1   
 14   7  29  1   
 15   7  30  1   
 16   8   9  1   
 17   8  10  1   
 18   8  31  1   
 19   9  11  1   
 20   9  12  1   
 21   9  32  1   
 22  10  13  1   
 23  10  33  1   
 24  10  34  1   
 25  11  35  1   
 26  12  13  1   
 27  12  36  1   
 28  12  37  1   
 29  13  14  am  
 30  14  15  2   
 31  14  16  1   
 32  16  17  ar  
 33  16  18  ar  
 34  17  19  ar  
 35  18  20  ar  
 36  18  38  1   
 37  19  21  ar  
 38  19  39  1   
 39  20  21  ar  
 40  21  22  1   
 41  22  40  1   
 42  22  41  1   
 43  22  42  1   
@<TRIPOS>SUBSTRUCTURE
  1 ****  13 GROUP 4 **** **** 0

# MOE 2024.06 (io_trps.svl 2023.06)
