@<TRIPOS>MOLECULE
NONAME
41 43 1 0 0 
SMALL
USER_CHARGES


@<TRIPOS>ATOM
  1 O        0.4800     0.1750     0.1390 O.3   1 <1>  -0.6800 
  2 C        1.6690    -0.1010    -0.5180 C.3   1 <1>   0.2000 
  3 C        2.3250    -1.3400     0.0850 C.3   1 <1>  -0.0800 
  4 C        2.6860     1.0220    -0.3030 C.3   1 <1>   0.2090 
  5 C        3.8200    -1.1260    -0.1520 C.3   1 <1>   0.2090 
  6 C        1.8010    -2.6690    -0.4860 C.3   1 <1>  -0.0170 
  7 N        4.0170     0.3490    -0.1480 N.pl3 1 <1>  -0.8380 
  8 C        2.6810    -3.8260    -0.0380 C.ar  1 <1>  -0.1440 
  9 C        5.1560     1.0590     0.0390 C.ar  1 <1>   0.7710 
 10 C        3.4790    -4.5240    -0.9230 C.ar  1 <1>  -0.1500 
 11 C        2.7370    -4.2280     1.2820 C.ar  1 <1>  -0.1500 
 12 N        5.0980     2.3820     0.0210 N.ar  1 <1>  -0.6200 
 13 N        6.3110     0.4000     0.2330 N.ar  1 <1>  -0.1790 
 14 C        4.2870    -5.5470    -0.4550 C.ar  1 <1>   0.1600 
 15 C        3.5820    -5.2630     1.6470 C.ar  1 <1>   0.1600 
 16 C        6.2130     3.0470     0.2030 C.ar  1 <1>   0.4100 
 17 C        7.4800     1.0580     0.4250 C.ar  1 <1>   0.2110 
 18 N        4.3680    -5.9200     0.8110 N.ar  1 <1>  -0.6200 
 19 N        6.0880     4.3760     0.1760 N.pl3 1 <1>  -0.9000 
 20 C        7.4590     2.4150     0.4140 C.ar  1 <1>  -0.1440 
 21 C        8.7290     3.2380     0.6220 C.3   1 <1>  -0.0970 
 22 H       -0.2020    -0.4950    -0.0630 H     1 <1>   0.4000 
 23 H        1.4690    -0.2170    -1.5700 H     1 <1>   0.0800 
 24 H        2.1720    -1.3270     1.1510 H     1 <1>   0.0800 
 25 H        2.4530     1.5690     0.5960 H     1 <1>   0.0800 
 26 H        2.6940     1.6950    -1.1440 H     1 <1>   0.0800 
 27 H        4.1000    -1.5180    -1.1170 H     1 <1>   0.0800 
 28 H        4.3920    -1.6120     0.6210 H     1 <1>   0.0800 
 29 H        1.7840    -2.6260    -1.5610 H     1 <1>   0.0800 
 30 H        0.7920    -2.8380    -0.1500 H     1 <1>   0.0800 
 31 H        3.4800    -4.2920    -1.9720 H     1 <1>   0.1500 
 32 H        2.1330    -3.7500     2.0320 H     1 <1>   0.1500 
 33 H        6.2460    -0.6110     0.2300 H     1 <1>   0.4570 
 34 H        4.9010    -6.0860    -1.1570 H     1 <1>   0.1500 
 35 H        3.6130    -5.5650     2.6810 H     1 <1>   0.1500 
 36 H        8.3820     0.4880     0.5790 H     1 <1>   0.1500 
 37 H        5.1680     4.7980     0.0260 H     1 <1>   0.4000 
 38 H        6.8510     5.0420     0.3020 H     1 <1>   0.4000 
 39 H        9.5870     2.6060     0.7670 H     1 <1>   0.0800 
 40 H        8.6230     3.8680     1.4880 H     1 <1>   0.0800 
 41 H        8.9110     3.8600    -0.2370 H     1 <1>   0.0800 
@<TRIPOS>BOND
  1   1   2  1   
  2   1  22  1   
  3   2   3  1   
  4   2   4  1   
  5   2  23  1   
  6   3   5  1   
  7   3   6  1   
  8   3  24  1   
  9   4   7  1   
 10   4  25  1   
 11   4  26  1   
 12   5   7  1   
 13   5  27  1   
 14   5  28  1   
 15   6   8  1   
 16   6  29  1   
 17   6  30  1   
 18   7   9  1   
 19   8  10  ar  
 20   8  11  ar  
 21   9  12  ar  
 22   9  13  ar  
 23  10  14  ar  
 24  10  31  1   
 25  11  15  ar  
 26  11  32  1   
 27  12  16  ar  
 28  13  17  ar  
 29  13  33  1   
 30  14  18  ar  
 31  14  34  1   
 32  15  18  ar  
 33  15  35  1   
 34  16  19  1   
 35  16  20  ar  
 36  17  20  ar  
 37  17  36  1   
 38  19  37  1   
 39  19  38  1   
 40  20  21  1   
 41  21  39  1   
 42  21  40  1   
 43  21  41  1   
@<TRIPOS>SUBSTRUCTURE
  1 ****   5 GROUP 4 **** **** 0

# MOE 2024.06 (io_trps.svl 2023.06)
