@<TRIPOS>MOLECULE
NONAME
53 55 1 0 0 
SMALL
USER_CHARGES


@<TRIPOS>ATOM
  1 O       -0.8120     0.2060    -0.9790 O.2   1 <1>  -0.5700 
  2 C       -1.7900     0.8990    -0.8270 C.2   1 <1>   0.5690 
  3 N       -3.0460     0.3790    -1.0230 N.am  1 <1>  -0.6600 
  4 C       -1.6100     2.3440    -0.3870 C.3   1 <1>  -0.0990 
  5 C       -3.2150    -1.0020    -1.5520 C.3   1 <1>   0.1400 
  6 C       -4.3080     0.9880    -0.5180 C.3   1 <1>   0.1400 
  7 C       -0.1630     2.8500    -0.4850 C.3   1 <1>  -0.0160 
  8 C       -3.7450    -1.9160    -0.4260 C.3   1 <1>   0.4230 
  9 C       -4.8450     0.1020     0.6140 C.3   1 <1>  -0.1600 
 10 C       -0.0850     4.3030    -0.0450 C.ar  1 <1>  -0.1440 
 11 N       -3.7840    -3.3940    -0.7960 N.4   1 <1>  -0.9590 
 12 C       -5.0730    -1.3800     0.1910 C.3   1 <1>   0.0000 
 13 C        0.1010     4.6170     1.2930 C.ar  1 <1>  -0.1500 
 14 C       -0.2060     5.3250    -0.9770 C.ar  1 <1>  -0.1500 
 15 C       -4.6580    -4.2250     0.0950 C.3   1 <1>   0.3430 
 16 C       -4.0900    -3.6930    -2.2340 C.3   1 <1>   0.2630 
 17 C       -5.4210    -2.2130     1.4600 C.3   1 <1>  -0.1600 
 18 C       -6.2240    -1.4730    -0.8520 C.3   1 <1>   0.1200 
 19 C        0.1640     5.9380     1.6990 C.ar  1 <1>  -0.1500 
 20 C       -0.1420     6.6490    -0.5760 C.ar  1 <1>  -0.1500 
 21 C       -4.7650    -3.6080     1.4890 C.3   1 <1>  -0.1600 
 22 O       -7.3610    -0.8120    -0.4190 O.3   1 <1>  -0.6800 
 23 C        0.0430     6.9500     0.7630 C.ar  1 <1>   0.0820 
 24 O        0.1070     8.2280     1.1670 O.3   1 <1>  -0.5330 
 25 H       -2.2290     2.9710    -1.0020 H     1 <1>   0.0800 
 26 H       -1.9400     2.4350     0.6310 H     1 <1>   0.0800 
 27 H       -3.8950    -0.9660    -2.3830 H     1 <1>   0.0800 
 28 H       -2.2730    -1.3810    -1.9080 H     1 <1>   0.0800 
 29 H       -4.1430     1.9830    -0.1440 H     1 <1>   0.0800 
 30 H       -5.0250     1.0570    -1.3190 H     1 <1>   0.0800 
 31 H        0.1880     2.7540    -1.4980 H     1 <1>   0.0800 
 32 H        0.4780     2.2500     0.1380 H     1 <1>   0.0800 
 33 H       -3.0150    -1.8270     0.3630 H     1 <1>   0.0800 
 34 H       -4.1320     0.1480     1.4200 H     1 <1>   0.0800 
 35 H       -5.7560     0.5350     0.9880 H     1 <1>   0.0800 
 36 H       -2.8200    -3.7210    -0.6290 H     1 <1>   0.4500 
 37 H        0.1970     3.8340     2.0250 H     1 <1>   0.1500 
 38 H       -0.3490     5.0930    -2.0170 H     1 <1>   0.1500 
 39 H       -5.6480    -4.2930    -0.3250 H     1 <1>   0.0800 
 40 H       -4.2600    -5.2260     0.1680 H     1 <1>   0.0800 
 41 H       -5.0730    -3.3360    -2.4950 H     1 <1>   0.0800 
 42 H       -4.0540    -4.7560    -2.4100 H     1 <1>   0.0800 
 43 H       -3.3680    -3.2210    -2.8810 H     1 <1>   0.0800 
 44 H       -5.1080    -1.6950     2.3510 H     1 <1>   0.0800 
 45 H       -6.4880    -2.3280     1.5450 H     1 <1>   0.0800 
 46 H       -6.5010    -2.4930    -1.0470 H     1 <1>   0.0800 
 47 H       -5.9480    -1.0130    -1.7830 H     1 <1>   0.0800 
 48 H        0.3090     6.1900     2.7340 H     1 <1>   0.1500 
 49 H       -0.2360     7.4320    -1.3050 H     1 <1>   0.1500 
 50 H       -5.3480    -4.2570     2.1200 H     1 <1>   0.0800 
 51 H       -3.7820    -3.5480     1.9240 H     1 <1>   0.0800 
 52 H       -7.7490    -1.2220     0.3800 H     1 <1>   0.4000 
 53 H        0.0230     8.8630     0.4350 H     1 <1>   0.4500 
@<TRIPOS>BOND
  1   1   2  2   
  2   2   3  am  
  3   2   4  1   
  4   3   5  1   
  5   3   6  1   
  6   4   7  1   
  7   4  25  1   
  8   4  26  1   
  9   5   8  1   
 10   5  27  1   
 11   5  28  1   
 12   6   9  1   
 13   6  29  1   
 14   6  30  1   
 15   7  10  1   
 16   7  31  1   
 17   7  32  1   
 18   8  11  1   
 19   8  12  1   
 20   8  33  1   
 21   9  12  1   
 22   9  34  1   
 23   9  35  1   
 24  10  13  ar  
 25  10  14  ar  
 26  11  15  1   
 27  11  16  1   
 28  11  36  1   
 29  12  17  1   
 30  12  18  1   
 31  13  19  ar  
 32  13  37  1   
 33  14  20  ar  
 34  14  38  1   
 35  15  21  1   
 36  15  39  1   
 37  15  40  1   
 38  16  41  1   
 39  16  42  1   
 40  16  43  1   
 41  17  21  1   
 42  17  44  1   
 43  17  45  1   
 44  18  22  1   
 45  18  46  1   
 46  18  47  1   
 47  19  23  ar  
 48  19  48  1   
 49  20  23  ar  
 50  20  49  1   
 51  21  50  1   
 52  21  51  1   
 53  22  52  1   
 54  23  24  1   
 55  24  53  1   
@<TRIPOS>SUBSTRUCTURE
  1 ****   2 GROUP 4 **** **** 0

# MOE 2024.06 (io_trps.svl 2023.06)
