@<TRIPOS>MOLECULE
NONAME
39 42 1 0 0 
SMALL
USER_CHARGES


@<TRIPOS>ATOM
  1 S       -0.3710     0.0930     0.6280 S.3   1 <1>  -0.0800 
  2 C       -1.2680     1.4840     0.1160 C.2   1 <1>   0.1980 
  3 C       -1.2460    -0.8060    -0.5600 C.2   1 <1>   0.1980 
  4 N       -2.0960     1.2170    -0.8140 N.2   1 <1>  -0.3380 
  5 C       -1.0170     2.8120     0.8230 C.3   1 <1>   0.2900 
  6 N       -2.0800    -0.0960    -1.2040 N.2   1 <1>  -0.3380 
  7 C       -0.9450    -2.2800    -0.7050 C.3   1 <1>  -0.0600 
  8 N        0.0800     3.6150     0.2280 N.3   1 <1>  -0.8100 
  9 C        0.3280     4.9010     0.9040 C.3   1 <1>   0.3700 
 10 C        1.3690     2.9260     0.1650 C.3   1 <1>   0.1100 
 11 C       -0.7870     5.9500     0.7490 C.2   1 <1>   0.2980 
 12 C        1.6730     5.3310     0.3230 C.3   1 <1>  -0.1600 
 13 C        2.4260     4.0250     0.0790 C.3   1 <1>  -0.1600 
 14 O       -1.8550     5.8020     1.4920 O.3   1 <1>  -0.0190 
 15 N       -0.7960     6.9800     0.0000 N.2   1 <1>  -0.5650 
 16 N       -2.6070     6.8090     1.1820 N.2   1 <1>  -0.4100 
 17 C       -1.9880     7.5040     0.2950 C.2   1 <1>   0.4620 
 18 C       -2.4840     8.7150    -0.3280 C.ar  1 <1>   0.0540 
 19 C       -3.7010     9.2890     0.0170 C.ar  1 <1>  -0.1500 
 20 C       -1.7860     9.3980    -1.3160 C.ar  1 <1>  -0.1500 
 21 C       -4.1340    10.4460    -0.6010 C.ar  1 <1>   0.1600 
 22 C       -2.3050    10.5510    -1.8750 C.ar  1 <1>   0.1600 
 23 N       -3.4640    11.0940    -1.5400 N.ar  1 <1>  -0.6200 
 24 H       -0.8110     2.6220     1.8620 H     1 <1>   0.0800 
 25 H       -1.9310     3.3750     0.7620 H     1 <1>   0.0800 
 26 H       -1.5650    -2.7020    -1.4750 H     1 <1>   0.0800 
 27 H       -1.1450    -2.7870     0.2210 H     1 <1>   0.0800 
 28 H        0.0860    -2.4170    -0.9720 H     1 <1>   0.0800 
 29 H        0.4670     4.7150     1.9550 H     1 <1>   0.0800 
 30 H        1.5280     2.3450     1.0590 H     1 <1>   0.0800 
 31 H        1.4050     2.2780    -0.6960 H     1 <1>   0.0800 
 32 H        1.5150     5.8280    -0.6180 H     1 <1>   0.0800 
 33 H        2.1970     5.9950     0.9860 H     1 <1>   0.0800 
 34 H        3.1830     3.8640     0.8260 H     1 <1>   0.0800 
 35 H        2.8910     4.0260    -0.8920 H     1 <1>   0.0800 
 36 H       -4.3140     8.8310     0.7720 H     1 <1>   0.1500 
 37 H       -0.8340     9.0290    -1.6520 H     1 <1>   0.1500 
 38 H       -5.0820    10.8650    -0.3090 H     1 <1>   0.1500 
 39 H       -1.7370    11.0550    -2.6380 H     1 <1>   0.1500 
@<TRIPOS>BOND
  1   1   2  1   
  2   1   3  1   
  3   2   4  2   
  4   2   5  1   
  5   3   6  2   
  6   3   7  1   
  7   4   6  1   
  8   5   8  1   
  9   5  24  1   
 10   5  25  1   
 11   7  26  1   
 12   7  27  1   
 13   7  28  1   
 14   8   9  1   
 15   8  10  1   
 16   9  11  1   
 17   9  12  1   
 18   9  29  1   
 19  10  13  1   
 20  10  30  1   
 21  10  31  1   
 22  11  14  1   
 23  11  15  2   
 24  12  13  1   
 25  12  32  1   
 26  12  33  1   
 27  13  34  1   
 28  13  35  1   
 29  14  16  1   
 30  15  17  1   
 31  16  17  2   
 32  17  18  1   
 33  18  19  ar  
 34  18  20  ar  
 35  19  21  ar  
 36  19  36  1   
 37  20  22  ar  
 38  20  37  1   
 39  21  23  ar  
 40  21  38  1   
 41  22  23  ar  
 42  22  39  1   
@<TRIPOS>SUBSTRUCTURE
  1 ****  11 GROUP 4 **** **** 0

# MOE 2024.06 (io_trps.svl 2023.06)
