@<TRIPOS>MOLECULE
NONAME
47 48 1 0 0 
SMALL
USER_CHARGES


@<TRIPOS>ATOM
  1 O        0.4560     0.2640    -0.2330 O.3   1 <1>  -0.5600 
  2 C        0.3800     1.5590     0.3010 C.3   1 <1>   0.2000 
  3 C        1.5770    -0.4610     0.1830 C.3   1 <1>   0.2000 
  4 C       -0.9680     2.1810    -0.1370 C.3   1 <1>  -0.0800 
  5 C        1.6080     2.3850    -0.1450 C.3   1 <1>   0.2090 
  6 C        2.8700     0.2480    -0.2760 C.3   1 <1>   0.2090 
  7 C        1.4240    -1.8750    -0.3910 C.3   1 <1>  -0.1600 
  8 C       -1.1620     3.6030     0.4180 C.3   1 <1>  -0.2400 
  9 C       -2.1600     1.3150     0.3060 C.3   1 <1>  -0.2400 
 10 N        2.8980     1.6830     0.1410 N.pl3 1 <1>  -0.8210 
 11 C        2.5140    -2.8460     0.0940 C.3   1 <1>  -0.1600 
 12 C        4.0680     2.3790    -0.1630 C.2   1 <1>   0.5990 
 13 C        2.2610    -4.2630    -0.4330 C.3   1 <1>  -0.1600 
 14 N        5.2080     1.8490    -0.3950 N.2   1 <1>  -0.4100 
 15 N        4.0830     3.7050    -0.2310 N.2   1 <1>  -0.5650 
 16 C        3.3460    -5.2310     0.0460 C.3   1 <1>  -0.2400 
 17 O        6.0430     2.8270    -0.6280 O.3   1 <1>  -0.0190 
 18 C        5.3050     3.9020    -0.5110 C.2   1 <1>   0.2980 
 19 C        5.9540     5.2590    -0.7180 C.3   1 <1>   0.0200 
 20 C        6.9820     5.5770     0.3760 C.3   1 <1>  -0.2400 
 21 H        0.3900     1.4740     1.3750 H     1 <1>   0.0800 
 22 H        1.5600    -0.5110     1.2590 H     1 <1>   0.0800 
 23 H       -0.9730     2.2390    -1.2120 H     1 <1>   0.0800 
 24 H        1.6030     3.3250     0.3770 H     1 <1>   0.0800 
 25 H        1.5380     2.5880    -1.1990 H     1 <1>   0.0800 
 26 H        2.9490     0.1860    -1.3480 H     1 <1>   0.0800 
 27 H        3.7170    -0.2570     0.1510 H     1 <1>   0.0800 
 28 H        0.4630    -2.2550    -0.0900 H     1 <1>   0.0800 
 29 H        1.4410    -1.8230    -1.4660 H     1 <1>   0.0800 
 30 H       -1.0940     3.6030     1.4920 H     1 <1>   0.0800 
 31 H       -2.1290     3.9820     0.1390 H     1 <1>   0.0800 
 32 H       -0.4240     4.2780     0.0230 H     1 <1>   0.0800 
 33 H       -2.1760     1.2110     1.3760 H     1 <1>   0.0800 
 34 H       -2.0940     0.3340    -0.1300 H     1 <1>   0.0800 
 35 H       -3.0870     1.7570    -0.0130 H     1 <1>   0.0800 
 36 H        3.4800    -2.5150    -0.2470 H     1 <1>   0.0800 
 37 H        2.5240    -2.8630     1.1710 H     1 <1>   0.0800 
 38 H        1.3010    -4.6100    -0.0920 H     1 <1>   0.0800 
 39 H        2.2470    -4.2510    -1.5100 H     1 <1>   0.0800 
 40 H        3.3630    -5.2750     1.1210 H     1 <1>   0.0800 
 41 H        4.3130    -4.9150    -0.3040 H     1 <1>   0.0800 
 42 H        3.1510    -6.2190    -0.3330 H     1 <1>   0.0800 
 43 H        6.4300     5.2720    -1.6810 H     1 <1>   0.0800 
 44 H        5.1870     6.0130    -0.7160 H     1 <1>   0.0800 
 45 H        7.7710     4.8460     0.3720 H     1 <1>   0.0800 
 46 H        6.5070     5.5670     1.3420 H     1 <1>   0.0800 
 47 H        7.4100     6.5490     0.2110 H     1 <1>   0.0800 
@<TRIPOS>BOND
  1   1   2  1   
  2   1   3  1   
  3   2   4  1   
  4   2   5  1   
  5   2  21  1   
  6   3   6  1   
  7   3   7  1   
  8   3  22  1   
  9   4   8  1   
 10   4   9  1   
 11   4  23  1   
 12   5  10  1   
 13   5  24  1   
 14   5  25  1   
 15   6  10  1   
 16   6  26  1   
 17   6  27  1   
 18   7  11  1   
 19   7  28  1   
 20   7  29  1   
 21   8  30  1   
 22   8  31  1   
 23   8  32  1   
 24   9  33  1   
 25   9  34  1   
 26   9  35  1   
 27  10  12  1   
 28  11  13  1   
 29  11  36  1   
 30  11  37  1   
 31  12  14  2   
 32  12  15  1   
 33  13  16  1   
 34  13  38  1   
 35  13  39  1   
 36  14  17  1   
 37  15  18  2   
 38  16  40  1   
 39  16  41  1   
 40  16  42  1   
 41  17  18  1   
 42  18  19  1   
 43  19  20  1   
 44  19  43  1   
 45  19  44  1   
 46  20  45  1   
 47  20  46  1   
 48  20  47  1   
@<TRIPOS>SUBSTRUCTURE
  1 ****  10 GROUP 4 **** **** 0

# MOE 2024.06 (io_trps.svl 2023.06)
