@<TRIPOS>MOLECULE
NONAME
47 50 1 0 0 
SMALL
USER_CHARGES


@<TRIPOS>ATOM
  1 O        0.2760     0.4170    -0.1810 O.3   1 <1>  -0.5600 
  2 C        0.3390     1.8030    -0.2830 C.3   1 <1>   0.2000 
  3 C        1.4550    -0.2380    -0.5330 C.3   1 <1>   0.2000 
  4 C        1.4200     2.3480     0.6770 C.3   1 <1>   0.2090 
  5 C       -1.0530     2.3320     0.0550 C.3   1 <1>  -0.2400 
  6 C        2.6150     0.2050     0.3890 C.3   1 <1>   0.2090 
  7 C        1.1750    -1.7350    -0.4290 C.3   1 <1>  -0.2400 
  8 N        2.7700     1.7100     0.4330 N.pl3 1 <1>  -0.8380 
  9 C        3.9590     2.3560     0.3300 C.ar  1 <1>   0.4610 
 10 N        3.9840     3.6890     0.2500 N.ar  1 <1>  -0.1790 
 11 C        5.2240     1.7090     0.3030 C.ar  1 <1>  -0.1500 
 12 C        5.1240     4.4600     0.1210 C.ar  1 <1>   0.3610 
 13 C        6.3960     2.3920     0.1770 C.ar  1 <1>  -0.1430 
 14 C        6.3770     3.8170     0.0750 C.ar  1 <1>   0.0000 
 15 C        5.0340     5.8540     0.0330 C.ar  1 <1>  -0.1500 
 16 C        7.7240     1.6440     0.1530 C.3   1 <1>  -0.0970 
 17 C        7.5260     4.6160    -0.0630 C.ar  1 <1>  -0.1500 
 18 C        6.1790     6.5980    -0.1010 C.ar  1 <1>  -0.1430 
 19 C        7.4120     5.9800    -0.1480 C.ar  1 <1>  -0.1430 
 20 C        6.3200     8.0980    -0.2100 C.3   1 <1>  -0.0170 
 21 C        8.5200     6.9940    -0.2950 C.3   1 <1>  -0.0170 
 22 C        7.8240     8.3310     0.0070 C.3   1 <1>  -0.1600 
 23 H        0.5800     2.0570    -1.3010 H     1 <1>   0.0800 
 24 H        1.6860     0.0090    -1.5560 H     1 <1>   0.0800 
 25 H        1.1120     2.1330     1.6870 H     1 <1>   0.0800 
 26 H        1.4580     3.4150     0.5720 H     1 <1>   0.0800 
 27 H       -1.3290     2.0520     1.0560 H     1 <1>   0.0800 
 28 H       -1.7730     1.9230    -0.6320 H     1 <1>   0.0800 
 29 H       -1.0790     3.4030    -0.0270 H     1 <1>   0.0800 
 30 H        3.5020    -0.2760     0.0280 H     1 <1>   0.0800 
 31 H        2.4240    -0.1600     1.3840 H     1 <1>   0.0800 
 32 H        0.9050    -1.9980     0.5790 H     1 <1>   0.0800 
 33 H        2.0450    -2.2990    -0.7130 H     1 <1>   0.0800 
 34 H        0.3690    -2.0010    -1.0890 H     1 <1>   0.0800 
 35 H        3.0950     4.1680     0.2660 H     1 <1>   0.4570 
 36 H        5.2570     0.6420     0.3980 H     1 <1>   0.1500 
 37 H        4.0820     6.3510     0.0690 H     1 <1>   0.1500 
 38 H        7.5770     0.5830     0.2440 H     1 <1>   0.0800 
 39 H        8.3460     1.9660     0.9700 H     1 <1>   0.0800 
 40 H        8.2390     1.8310    -0.7720 H     1 <1>   0.0800 
 41 H        8.5030     4.1680    -0.1030 H     1 <1>   0.1500 
 42 H        6.0310     8.4170    -1.1970 H     1 <1>   0.0800 
 43 H        5.7320     8.6150     0.5280 H     1 <1>   0.0800 
 44 H        9.3290     6.8060     0.3890 H     1 <1>   0.0800 
 45 H        8.8880     6.9810    -1.3060 H     1 <1>   0.0800 
 46 H        8.2010     9.1280    -0.6090 H     1 <1>   0.0800 
 47 H        7.9900     8.5810     1.0410 H     1 <1>   0.0800 
@<TRIPOS>BOND
  1   1   2  1   
  2   1   3  1   
  3   2   4  1   
  4   2   5  1   
  5   2  23  1   
  6   3   6  1   
  7   3   7  1   
  8   3  24  1   
  9   4   8  1   
 10   4  25  1   
 11   4  26  1   
 12   5  27  1   
 13   5  28  1   
 14   5  29  1   
 15   6   8  1   
 16   6  30  1   
 17   6  31  1   
 18   7  32  1   
 19   7  33  1   
 20   7  34  1   
 21   8   9  1   
 22   9  10  ar  
 23   9  11  ar  
 24  10  12  ar  
 25  10  35  1   
 26  11  13  ar  
 27  11  36  1   
 28  12  14  ar  
 29  12  15  ar  
 30  13  14  ar  
 31  13  16  1   
 32  14  17  ar  
 33  15  18  ar  
 34  15  37  1   
 35  16  38  1   
 36  16  39  1   
 37  16  40  1   
 38  17  19  ar  
 39  17  41  1   
 40  18  19  ar  
 41  18  20  1   
 42  19  21  1   
 43  20  22  1   
 44  20  42  1   
 45  20  43  1   
 46  21  22  1   
 47  21  44  1   
 48  21  45  1   
 49  22  46  1   
 50  22  47  1   
@<TRIPOS>SUBSTRUCTURE
  1 ****  10 GROUP 4 **** **** 0

# MOE 2024.06 (io_trps.svl 2023.06)
