@<TRIPOS>MOLECULE
NONAME
49 52 1 0 0 
SMALL
USER_CHARGES


@<TRIPOS>ATOM
  1 O       -0.5300     0.4000     1.4400 O.2   1 <1>  -0.5700 
  2 C       -1.4430     1.0410     0.9470 C.2   1 <1>   0.7150 
  3 N       -2.6070     0.3500     0.6600 N.am  1 <1>  -0.6600 
  4 C       -1.2620     2.4600     0.6770 C.2   1 <1>   0.0550 
  5 C       -3.7560     0.8590    -0.1370 C.3   1 <1>   0.1400 
  6 C       -2.7120    -1.1240     0.8190 C.3   1 <1>   0.1400 
  7 O       -2.3280     3.2730     0.5740 O.3   1 <1>  -0.2800 
  8 C       -0.1290     3.2010     0.5070 C.2   1 <1>  -0.1810 
  9 C       -4.7440    -0.3060    -0.1900 C.3   1 <1>   0.2000 
 10 C       -3.8520    -1.5480    -0.1130 C.3   1 <1>  -0.0800 
 11 C       -1.9000     4.5110     0.3440 C.ar  1 <1>   0.1400 
 12 C       -0.5220     4.5340     0.2900 C.ar  1 <1>   0.0000 
 13 C        1.3310     2.7780     0.5270 C.3   1 <1>  -0.0590 
 14 O       -5.5480    -0.2430     0.9390 O.3   1 <1>  -0.6800 
 15 C       -4.5690    -2.8390     0.3250 C.3   1 <1>   0.0200 
 16 C       -2.6660     5.6540     0.1720 C.ar  1 <1>  -0.1500 
 17 C        0.1300     5.7480     0.0560 C.ar  1 <1>  -0.1500 
 18 C       -3.6790    -4.0690     0.2530 C.2   1 <1>  -0.0400 
 19 C       -2.0230     6.8540    -0.0610 C.ar  1 <1>   0.0820 
 20 C       -0.6180     6.8950    -0.1180 C.ar  1 <1>  -0.1500 
 21 O       -4.1280    -5.1940     0.7410 O.3   1 <1>  -0.0190 
 22 C       -2.4480    -4.2980    -0.2330 C.2   1 <1>  -0.1500 
 23 O       -2.8080     7.9470    -0.2250 O.3   1 <1>  -0.3620 
 24 N       -3.2650    -6.1600     0.6130 N.2   1 <1>  -0.4100 
 25 C       -2.2420    -5.6490     0.0300 C.2   1 <1>   0.1080 
 26 C       -2.2590     9.2250    -0.4580 C.3   1 <1>   0.0400 
 27 C       -0.9890    -6.4200    -0.3200 C.3   1 <1>  -0.0590 
 28 H       -4.2080     1.7260     0.3130 H     1 <1>   0.0800 
 29 H       -3.4150     1.1030    -1.1280 H     1 <1>   0.0800 
 30 H       -1.7860    -1.6080     0.5570 H     1 <1>   0.0800 
 31 H       -2.9490    -1.3490     1.8450 H     1 <1>   0.0800 
 32 H       -5.3770    -0.2850    -1.0610 H     1 <1>   0.0800 
 33 H       -3.4350    -1.7050    -1.0920 H     1 <1>   0.0800 
 34 H        1.8180     3.1040    -0.3750 H     1 <1>   0.0800 
 35 H        1.4300     1.7110     0.5960 H     1 <1>   0.0800 
 36 H        1.8270     3.2230     1.3710 H     1 <1>   0.0800 
 37 H       -4.9880    -0.0390     1.7160 H     1 <1>   0.4000 
 38 H       -5.4270    -3.0020    -0.3030 H     1 <1>   0.0800 
 39 H       -4.9240    -2.7370     1.3360 H     1 <1>   0.0800 
 40 H       -3.7370     5.6010     0.2200 H     1 <1>   0.1500 
 41 H        1.2030     5.7720     0.0160 H     1 <1>   0.1500 
 42 H       -0.1060     7.8200    -0.2970 H     1 <1>   0.1500 
 43 H       -1.7520    -3.6380    -0.7160 H     1 <1>   0.1500 
 44 H       -3.0700     9.9250    -0.5500 H     1 <1>   0.0800 
 45 H       -1.6930     9.2010    -1.3720 H     1 <1>   0.0800 
 46 H       -1.6370     9.4960     0.3760 H     1 <1>   0.0800 
 47 H       -0.1390    -5.9740     0.1620 H     1 <1>   0.0800 
 48 H       -0.8410    -6.4120    -1.3840 H     1 <1>   0.0800 
 49 H       -1.0820    -7.4390     0.0110 H     1 <1>   0.0800 
@<TRIPOS>BOND
  1   1   2  2   
  2   2   3  am  
  3   2   4  1   
  4   3   5  1   
  5   3   6  1   
  6   4   7  1   
  7   4   8  2   
  8   5   9  1   
  9   5  28  1   
 10   5  29  1   
 11   6  10  1   
 12   6  30  1   
 13   6  31  1   
 14   7  11  1   
 15   8  12  1   
 16   8  13  1   
 17   9  10  1   
 18   9  14  1   
 19   9  32  1   
 20  10  15  1   
 21  10  33  1   
 22  11  12  ar  
 23  11  16  ar  
 24  12  17  ar  
 25  13  34  1   
 26  13  35  1   
 27  13  36  1   
 28  14  37  1   
 29  15  18  1   
 30  15  38  1   
 31  15  39  1   
 32  16  19  ar  
 33  16  40  1   
 34  17  20  ar  
 35  17  41  1   
 36  18  21  1   
 37  18  22  2   
 38  19  20  ar  
 39  19  23  1   
 40  20  42  1   
 41  21  24  1   
 42  22  25  1   
 43  22  43  1   
 44  23  26  1   
 45  24  25  2   
 46  25  27  1   
 47  26  44  1   
 48  26  45  1   
 49  26  46  1   
 50  27  47  1   
 51  27  48  1   
 52  27  49  1   
@<TRIPOS>SUBSTRUCTURE
  1 ****   3 GROUP 4 **** **** 0

# MOE 2024.06 (io_trps.svl 2023.06)
