@<TRIPOS>MOLECULE
NONAME
52 55 1 0 0 
SMALL
USER_CHARGES


@<TRIPOS>ATOM
  1 O        2.1150    -1.2700     0.5960 O.3   1 <1>  -0.5600 
  2 C        1.0490    -2.1050     0.2090 C.3   1 <1>   0.2800 
  3 C        1.8470    -0.1340     1.3730 C.3   1 <1>   0.1200 
  4 C       -0.3240    -1.6400     0.7830 C.3   1 <1>   0.2000 
  5 C        1.0880    -2.1320    -1.3290 C.3   1 <1>  -0.1600 
  6 C        1.3980    -3.5010     0.7450 C.3   1 <1>  -0.1600 
  7 C        0.7380     0.6820     0.7060 C.3   1 <1>  -0.1600 
  8 O       -1.3710    -2.3950     0.2450 O.3   1 <1>  -0.6800 
  9 C       -0.5810    -0.1070     0.6610 C.3   1 <1>   0.2800 
 10 C        2.4270    -2.6550    -1.8360 C.3   1 <1>   0.3430 
 11 C        2.7300    -3.9900     0.1910 C.3   1 <1>   0.3430 
 12 O       -1.3120     0.2520     1.7760 O.3   1 <1>  -0.6800 
 13 C       -1.4360     0.3350    -0.5360 C.3   1 <1>  -0.2400 
 14 N        2.6690    -4.0280    -1.3000 N.4   1 <1>  -0.9590 
 15 C        3.9410    -4.6050    -1.8740 C.3   1 <1>   0.5240 
 16 C        5.1860    -3.7710    -1.5560 C.2   1 <1>   0.3350 
 17 N        5.6800    -2.9030    -2.3500 N.2   1 <1>  -0.4100 
 18 N        5.8290    -3.8860    -0.3880 N.2   1 <1>  -0.5650 
 19 O        6.6770    -2.4340    -1.6940 O.3   1 <1>  -0.0190 
 20 C        6.7710    -3.0130    -0.5270 C.2   1 <1>   0.4250 
 21 C        7.8130    -2.6520     0.4100 C.ar  1 <1>   0.0530 
 22 C        7.9470    -3.3190     1.6290 C.ar  1 <1>  -0.1500 
 23 C        8.7220    -1.6260     0.1390 C.ar  1 <1>  -0.1500 
 24 C        8.9360    -2.9810     2.5340 C.ar  1 <1>  -0.1500 
 25 C        9.7130    -1.2830     1.0410 C.ar  1 <1>  -0.1500 
 26 C        9.8220    -1.9600     2.2420 C.ar  1 <1>  -0.1500 
 27 H        1.5650    -0.4450     2.3660 H     1 <1>   0.0800 
 28 H        2.7550     0.4410     1.4360 H     1 <1>   0.0800 
 29 H       -0.3070    -1.8760     1.8330 H     1 <1>   0.0800 
 30 H        0.2950    -2.7460    -1.7160 H     1 <1>   0.0800 
 31 H        0.9430    -1.1410    -1.7110 H     1 <1>   0.0800 
 32 H        1.4560    -3.4640     1.8190 H     1 <1>   0.0800 
 33 H        0.6220    -4.2020     0.4910 H     1 <1>   0.0800 
 34 H        1.0670     0.9170    -0.2900 H     1 <1>   0.0800 
 35 H        0.6070     1.6150     1.2250 H     1 <1>   0.0800 
 36 H       -2.2090    -2.0960     0.6580 H     1 <1>   0.4000 
 37 H        3.2120    -1.9900    -1.5060 H     1 <1>   0.0800 
 38 H        2.4260    -2.6680    -2.9140 H     1 <1>   0.0800 
 39 H        2.9480    -4.9710     0.5830 H     1 <1>   0.0800 
 40 H        3.5110    -3.3160     0.5100 H     1 <1>   0.0800 
 41 H       -1.5870     1.1860     1.7060 H     1 <1>   0.4000 
 42 H       -0.9850     0.0250    -1.4590 H     1 <1>   0.0800 
 43 H       -1.5320     1.4060    -0.5590 H     1 <1>   0.0800 
 44 H       -2.4190    -0.0990    -0.4880 H     1 <1>   0.0800 
 45 H        1.8780    -4.6220    -1.5730 H     1 <1>   0.4500 
 46 H        4.0940    -5.5990    -1.4900 H     1 <1>   0.0800 
 47 H        3.8510    -4.6740    -2.9450 H     1 <1>   0.0800 
 48 H        7.2680    -4.1170     1.8730 H     1 <1>   0.1500 
 49 H        8.6590    -1.0840    -0.7880 H     1 <1>   0.1500 
 50 H        9.0200    -3.5100     3.4680 H     1 <1>   0.1500 
 51 H       10.4020    -0.4880     0.8100 H     1 <1>   0.1500 
 52 H       10.5930    -1.6940     2.9450 H     1 <1>   0.1500 
@<TRIPOS>BOND
  1   1   2  1   
  2   1   3  1   
  3   2   4  1   
  4   2   5  1   
  5   2   6  1   
  6   3   7  1   
  7   3  27  1   
  8   3  28  1   
  9   4   8  1   
 10   4   9  1   
 11   4  29  1   
 12   5  10  1   
 13   5  30  1   
 14   5  31  1   
 15   6  11  1   
 16   6  32  1   
 17   6  33  1   
 18   7   9  1   
 19   7  34  1   
 20   7  35  1   
 21   8  36  1   
 22   9  12  1   
 23   9  13  1   
 24  10  14  1   
 25  10  37  1   
 26  10  38  1   
 27  11  14  1   
 28  11  39  1   
 29  11  40  1   
 30  12  41  1   
 31  13  42  1   
 32  13  43  1   
 33  13  44  1   
 34  14  15  1   
 35  14  45  1   
 36  15  16  1   
 37  15  46  1   
 38  15  47  1   
 39  16  17  2   
 40  16  18  1   
 41  17  19  1   
 42  18  20  2   
 43  19  20  1   
 44  20  21  1   
 45  21  22  ar  
 46  21  23  ar  
 47  22  24  ar  
 48  22  48  1   
 49  23  25  ar  
 50  23  49  1   
 51  24  26  ar  
 52  24  50  1   
 53  25  26  ar  
 54  25  51  1   
 55  26  52  1   
@<TRIPOS>SUBSTRUCTURE
  1 ****   1 GROUP 4 **** **** 0

# MOE 2024.06 (io_trps.svl 2023.06)
