@<TRIPOS>MOLECULE
NONAME
47 50 1 0 0 
SMALL
USER_CHARGES


@<TRIPOS>ATOM
  1 CL       1.4160     1.1420    -0.6920 Cl    1 <1>  -0.1770 
  2 C        2.4460    -0.2210    -0.3250 C.ar  1 <1>   0.1770 
  3 C        3.5630    -0.0580     0.4900 C.ar  1 <1>   0.0860 
  4 C        2.1160    -1.4460    -0.8750 C.ar  1 <1>  -0.1500 
  5 C        3.9200     1.2230     1.0550 C.2   1 <1>   0.5440 
  6 C        4.3400    -1.1870     0.7400 C.ar  1 <1>  -0.1500 
  7 C        2.9120    -2.5480    -0.6180 C.ar  1 <1>  -0.1500 
  8 O        3.9380     1.3570     2.2620 O.2   1 <1>  -0.5700 
  9 N        4.2980     2.3010     0.2770 N.am  1 <1>  -0.6600 
 10 C        4.0370    -2.4300     0.1940 C.ar  1 <1>  -0.0230 
 11 C        4.2870     3.6820     0.8590 C.3   1 <1>   0.1400 
 12 C        4.7580     2.1540    -1.1270 C.3   1 <1>   0.1400 
 13 N        4.8750    -3.5520     0.4580 N.pl3 1 <1>   0.5930 
 14 C        5.6990     4.2580     1.1140 C.3   1 <1>   0.4230 
 15 C        6.1570     2.7500    -1.3590 C.3   1 <1>  -0.0800 
 16 N        6.2270    -3.4610     0.5150 N.2   1 <1>  -0.7070 
 17 C        4.4920    -4.8350     0.6730 C.2   1 <1>  -0.3020 
 18 N        6.2910     4.9630    -0.0800 N.4   1 <1>  -0.9590 
 19 C        6.7280     3.2020     1.5900 C.3   1 <1>   0.1200 
 20 C        7.2550     2.1140    -0.4640 C.3   1 <1>   0.1200 
 21 C        6.1030     4.2890    -1.4020 C.3   1 <1>   0.3430 
 22 C        6.6480    -4.6620     0.7580 C.2   1 <1>   0.1390 
 23 C        5.6040    -5.5720     0.8670 C.2   1 <1>  -0.1500 
 24 C        5.9830     6.4220    -0.1270 C.3   1 <1>   0.2630 
 25 O        7.6780     2.9450     0.5810 O.3   1 <1>  -0.5600 
 26 H        1.2440    -1.5320    -1.5000 H     1 <1>   0.1500 
 27 H        5.2050    -1.0900     1.3770 H     1 <1>   0.1500 
 28 H        2.6570    -3.5000    -1.0560 H     1 <1>   0.1500 
 29 H        3.7260     4.3400     0.2200 H     1 <1>   0.0800 
 30 H        3.7680     3.6600     1.8020 H     1 <1>   0.0800 
 31 H        4.7910     1.1110    -1.3930 H     1 <1>   0.0800 
 32 H        4.0400     2.6230    -1.7800 H     1 <1>   0.0800 
 33 H        5.5940     4.9750     1.9110 H     1 <1>   0.0800 
 34 H        6.3970     2.4480    -2.3630 H     1 <1>   0.0800 
 35 H        3.4620    -5.1360     0.6780 H     1 <1>   0.1500 
 36 H        7.3040     4.8220     0.1030 H     1 <1>   0.4500 
 37 H        6.2780     2.2800     1.9120 H     1 <1>   0.0800 
 38 H        7.2670     3.5990     2.4320 H     1 <1>   0.0800 
 39 H        8.1290     1.9170    -1.0620 H     1 <1>   0.0800 
 40 H        6.9290     1.1750    -0.0470 H     1 <1>   0.0800 
 41 H        5.1580     4.5870    -1.8250 H     1 <1>   0.0800 
 42 H        6.8770     4.6340    -2.0690 H     1 <1>   0.0800 
 43 H        7.6900    -4.9170     0.8620 H     1 <1>   0.1500 
 44 H        5.6990    -6.6250     1.0670 H     1 <1>   0.1500 
 45 H        4.9310     6.5770    -0.3020 H     1 <1>   0.0800 
 46 H        6.5400     6.8960    -0.9190 H     1 <1>   0.0800 
 47 H        6.2520     6.8910     0.8060 H     1 <1>   0.0800 
@<TRIPOS>BOND
  1   1   2  1   
  2   2   3  ar  
  3   2   4  ar  
  4   3   5  1   
  5   3   6  ar  
  6   4   7  ar  
  7   4  26  1   
  8   5   8  2   
  9   5   9  am  
 10   6  10  ar  
 11   6  27  1   
 12   7  10  ar  
 13   7  28  1   
 14   9  11  1   
 15   9  12  1   
 16  10  13  1   
 17  11  14  1   
 18  11  29  1   
 19  11  30  1   
 20  12  15  1   
 21  12  31  1   
 22  12  32  1   
 23  13  16  1   
 24  13  17  1   
 25  14  18  1   
 26  14  19  1   
 27  14  33  1   
 28  15  20  1   
 29  15  21  1   
 30  15  34  1   
 31  16  22  2   
 32  17  23  2   
 33  17  35  1   
 34  18  21  1   
 35  18  24  1   
 36  18  36  1   
 37  19  25  1   
 38  19  37  1   
 39  19  38  1   
 40  20  25  1   
 41  20  39  1   
 42  20  40  1   
 43  21  41  1   
 44  21  42  1   
 45  22  23  1   
 46  22  43  1   
 47  23  44  1   
 48  24  45  1   
 49  24  46  1   
 50  24  47  1   
@<TRIPOS>SUBSTRUCTURE
  1 ****   3 GROUP 4 **** **** 0

# MOE 2024.06 (io_trps.svl 2023.06)
