@<TRIPOS>MOLECULE
NONAME
20 20 1 0 0 
SMALL
USER_CHARGES


@<TRIPOS>ATOM
  1 S       -0.5370     0.0130    -0.3690 S.3   1 <1>  -0.3310 
  2 C        0.1000    -1.3800     0.5550 C.2   1 <1>  -0.0490 
  3 C        0.9920     0.5840    -1.2850 C.3   1 <1>   0.3800 
  4 C        1.3870    -1.6740     0.3840 C.2   1 <1>  -0.0490 
  5 S        2.3070    -0.6360    -0.7460 S.3   1 <1>  -0.3310 
  6 P        1.3980     2.3290    -1.0290 P.3   1 <1>   1.2420 
  7 O        0.3620     3.2750    -1.4460 O.2   1 <1>  -0.7000 
  8 O        1.7770     2.5060     0.5270 O.3   1 <1>  -0.5510 
  9 O        2.7940     2.6000    -1.7920 O.3   1 <1>  -0.5510 
 10 C        1.7260     3.7630     1.1150 C.3   1 <1>   0.0400 
 11 C        4.0430     2.4310    -1.2030 C.3   1 <1>   0.0400 
 12 H       -0.6330    -1.8630     1.1780 H     1 <1>   0.1500 
 13 H        0.8040     0.3640    -2.3180 H     1 <1>   0.0800 
 14 H        1.9720    -2.4590     0.8340 H     1 <1>   0.1500 
 15 H        2.0450     3.6740     2.1380 H     1 <1>   0.0800 
 16 H        0.7120     4.1250     1.0770 H     1 <1>   0.0800 
 17 H        2.3770     4.4320     0.5790 H     1 <1>   0.0800 
 18 H        4.7950     2.6280    -1.9470 H     1 <1>   0.0800 
 19 H        4.1430     1.4230    -0.8430 H     1 <1>   0.0800 
 20 H        4.1480     3.1280    -0.3900 H     1 <1>   0.0800 
@<TRIPOS>BOND
  1   1   2  1   
  2   1   3  1   
  3   2   4  2   
  4   2  12  1   
  5   3   5  1   
  6   3   6  1   
  7   3  13  1   
  8   4   5  1   
  9   4  14  1   
 10   6   7  2   
 11   6   8  1   
 12   6   9  1   
 13   8  10  1   
 14   9  11  1   
 15  10  15  1   
 16  10  16  1   
 17  10  17  1   
 18  11  18  1   
 19  11  19  1   
 20  11  20  1   
@<TRIPOS>SUBSTRUCTURE
  1 ****   3 GROUP 4 **** **** 0

# MOE 2024.06 (io_trps.svl 2023.06)
