@<TRIPOS>MOLECULE
NONAME
57 59 1 0 0 
SMALL
USER_CHARGES


@<TRIPOS>ATOM
  1 O        0.2740     1.7410    -0.9980 O.2   1 <1>  -0.5700 
  2 C       -0.2990     2.7920    -1.1640 C.2   1 <1>   0.5690 
  3 N       -1.0230     3.4320    -0.1920 N.am  1 <1>  -0.6600 
  4 C       -0.2160     3.4370    -2.5430 C.3   1 <1>   0.1810 
  5 C       -1.7140     4.7280    -0.5000 C.3   1 <1>   0.3640 
  6 C       -1.1370     2.9870     1.2230 C.3   1 <1>   0.2200 
  7 O       -0.1360     4.8340    -2.4420 O.3   1 <1>  -0.5600 
  8 C       -3.2290     4.5120    -0.5430 C.ar  1 <1>  -0.1440 
  9 C       -1.2520     5.4450    -1.8040 C.3   1 <1>   0.2610 
 10 C        0.2290     3.0670     1.9040 C.3   1 <1>  -0.2400 
 11 C       -1.7490     1.5900     1.3250 C.3   1 <1>  -0.2400 
 12 C       -4.0680     5.4750     0.0000 C.ar  1 <1>  -0.1500 
 13 C       -3.7940     3.3830    -1.1250 C.ar  1 <1>  -0.1500 
 14 C       -0.9240     6.8990    -1.4550 C.2   1 <1>   0.5690 
 15 C       -5.4420     5.3130    -0.0320 C.ar  1 <1>  -0.1500 
 16 C       -5.1680     3.2190    -1.1570 C.ar  1 <1>  -0.1500 
 17 O       -1.8010     7.6280    -1.0530 O.2   1 <1>  -0.5700 
 18 N        0.3640     7.3190    -1.5510 N.am  1 <1>  -0.7300 
 19 C       -5.9930     4.1840    -0.6100 C.ar  1 <1>  -0.1500 
 20 C        0.9150     8.5880    -1.0190 C.3   1 <1>   0.1400 
 21 C        1.9190     8.3680     0.1340 C.3   1 <1>   0.0000 
 22 C        3.0470     7.3350    -0.1760 C.3   1 <1>   0.0000 
 23 C        1.4160     7.4250     1.2720 C.3   1 <1>   0.0000 
 24 C        2.4340     9.7350     0.6380 C.3   1 <1>   0.1200 
 25 C        2.7600     6.6550     1.1890 C.3   1 <1>   0.0000 
 26 O        3.3630     9.5870     1.6670 O.3   1 <1>  -0.5600 
 27 C        3.8540    10.7870     2.1680 C.3   1 <1>   0.0400 
 28 H       -1.0790     3.1770    -3.1280 H     1 <1>   0.0800 
 29 H        0.6700     3.0930    -3.0460 H     1 <1>   0.0800 
 30 H       -1.5080     5.3920     0.3230 H     1 <1>   0.0800 
 31 H       -1.8000     3.6600     1.7430 H     1 <1>   0.0800 
 32 H       -2.0590     5.4520    -2.5130 H     1 <1>   0.0800 
 33 H        0.9180     2.3720     1.4600 H     1 <1>   0.0800 
 34 H        0.1310     2.8250     2.9470 H     1 <1>   0.0800 
 35 H        0.6270     4.0620     1.8220 H     1 <1>   0.0800 
 36 H       -1.0970     0.8460     0.9050 H     1 <1>   0.0800 
 37 H       -2.6960     1.5620     0.8170 H     1 <1>   0.0800 
 38 H       -1.9150     1.3420     2.3570 H     1 <1>   0.0800 
 39 H       -3.6590     6.3660     0.4480 H     1 <1>   0.1500 
 40 H       -3.1710     2.6180    -1.5530 H     1 <1>   0.1500 
 41 H       -6.0810     6.0680     0.3920 H     1 <1>   0.1500 
 42 H       -5.5940     2.3400    -1.6070 H     1 <1>   0.1500 
 43 H        1.0420     6.6370    -1.9090 H     1 <1>   0.3700 
 44 H       -7.0620     4.0580    -0.6350 H     1 <1>   0.1500 
 45 H        1.4030     9.1110    -1.8240 H     1 <1>   0.0800 
 46 H        0.1050     9.2050    -0.6690 H     1 <1>   0.0800 
 47 H        2.8330     6.6770    -0.9990 H     1 <1>   0.0000 
 48 H        4.0320     7.7630    -0.2390 H     1 <1>   0.0000 
 49 H        1.2670     7.9160     2.2170 H     1 <1>   0.0000 
 50 H        0.5850     6.7980     1.0010 H     1 <1>   0.0000 
 51 H        1.6100    10.3190     1.0120 H     1 <1>   0.0800 
 52 H        2.9110    10.2660    -0.1680 H     1 <1>   0.0800 
 53 H        3.4560     6.9480     1.9550 H     1 <1>   0.0000 
 54 H        2.6370     5.5890     1.1150 H     1 <1>   0.0000 
 55 H        4.5560    10.5590     2.9500 H     1 <1>   0.0800 
 56 H        3.0390    11.3650     2.5710 H     1 <1>   0.0800 
 57 H        4.3500    11.3260     1.3800 H     1 <1>   0.0800 
@<TRIPOS>BOND
  1   1   2  2   
  2   2   3  am  
  3   2   4  1   
  4   3   5  1   
  5   3   6  1   
  6   4   7  1   
  7   4  28  1   
  8   4  29  1   
  9   5   8  1   
 10   5   9  1   
 11   5  30  1   
 12   6  10  1   
 13   6  11  1   
 14   6  31  1   
 15   7   9  1   
 16   8  12  ar  
 17   8  13  ar  
 18   9  14  1   
 19   9  32  1   
 20  10  33  1   
 21  10  34  1   
 22  10  35  1   
 23  11  36  1   
 24  11  37  1   
 25  11  38  1   
 26  12  15  ar  
 27  12  39  1   
 28  13  16  ar  
 29  13  40  1   
 30  14  17  2   
 31  14  18  am  
 32  15  19  ar  
 33  15  41  1   
 34  16  19  ar  
 35  16  42  1   
 36  18  20  1   
 37  18  43  1   
 38  19  44  1   
 39  20  21  1   
 40  20  45  1   
 41  20  46  1   
 42  21  22  1   
 43  21  23  1   
 44  21  24  1   
 45  22  25  1   
 46  22  47  1   
 47  22  48  1   
 48  23  25  1   
 49  23  49  1   
 50  23  50  1   
 51  24  26  1   
 52  24  51  1   
 53  24  52  1   
 54  25  53  1   
 55  25  54  1   
 56  26  27  1   
 57  27  55  1   
 58  27  56  1   
 59  27  57  1   
@<TRIPOS>SUBSTRUCTURE
  1 ****   5 GROUP 4 **** **** 0

# MOE 2024.06 (io_trps.svl 2023.06)
