@<TRIPOS>MOLECULE
NONAME
45 48 1 0 0 
SMALL
USER_CHARGES


@<TRIPOS>ATOM
  1 S        2.3080    -0.1380     1.5870 S.3   1 <1>  -0.0800 
  2 C        1.0700    -0.9480     0.6170 C.2   1 <1>   0.2930 
  3 C        1.7670     1.3940     0.9960 C.2   1 <1>  -0.1400 
  4 N        0.3560    -0.1030    -0.0650 N.2   1 <1>  -0.5650 
  5 C        1.0050    -2.4050     0.6990 C.2   1 <1>   0.7150 
  6 C        0.7560     1.1970     0.1490 C.2   1 <1>   0.0460 
  7 C        2.3960     2.7010     1.4200 C.3   1 <1>   0.0200 
  8 O        1.7570    -3.0170     1.4410 O.2   1 <1>  -0.5700 
  9 N        0.1140    -3.1650    -0.0410 N.am  1 <1>  -0.6600 
 10 C        0.0620     2.3470    -0.5540 C.3   1 <1>   0.0210 
 11 C        1.4760     3.8570     0.9770 C.3   1 <1>  -0.1600 
 12 C       -0.8250    -2.6550    -1.0710 C.3   1 <1>   0.1400 
 13 C        0.0070    -4.6370     0.0860 C.3   1 <1>   0.1400 
 14 C        0.9000     3.6410    -0.4410 C.3   1 <1>  -0.1600 
 15 C       -1.4650    -3.9050    -1.6780 C.3   1 <1>   0.2000 
 16 C       -1.2910    -5.0060    -0.6330 C.3   1 <1>  -0.0800 
 17 O       -2.8110    -3.7140    -1.9460 O.3   1 <1>  -0.6800 
 18 C       -1.2790    -6.4160    -1.2430 C.3   1 <1>  -0.0170 
 19 C       -1.0820    -7.4740    -0.1690 C.ar  1 <1>  -0.1440 
 20 C       -2.1320    -7.9210     0.6070 C.ar  1 <1>  -0.1500 
 21 C        0.1510    -8.0370     0.0900 C.ar  1 <1>  -0.1500 
 22 C       -1.9040    -8.8800     1.5800 C.ar  1 <1>   0.1600 
 23 C        0.2720    -8.9900     1.0890 C.ar  1 <1>   0.1600 
 24 N       -0.7270    -9.4230     1.8410 N.ar  1 <1>  -0.6200 
 25 H        2.5270     2.7230     2.4870 H     1 <1>   0.0800 
 26 H        3.3600     2.7920     0.9510 H     1 <1>   0.0800 
 27 H       -0.0840     2.1000    -1.5900 H     1 <1>   0.0800 
 28 H       -0.9020     2.4900    -0.1010 H     1 <1>   0.0800 
 29 H        0.6560     3.9310     1.6720 H     1 <1>   0.0800 
 30 H        2.0220     4.7830     1.0150 H     1 <1>   0.0800 
 31 H       -1.5640    -2.0300    -0.6010 H     1 <1>   0.0800 
 32 H       -0.2930    -2.0970    -1.8220 H     1 <1>   0.0800 
 33 H        0.8580    -5.0880    -0.3940 H     1 <1>   0.0800 
 34 H       -0.0170    -4.9360     1.1220 H     1 <1>   0.0800 
 35 H        1.7180     3.5830    -1.1390 H     1 <1>   0.0800 
 36 H        0.2910     4.4840    -0.7200 H     1 <1>   0.0800 
 37 H       -0.9680    -4.1570    -2.6000 H     1 <1>   0.0800 
 38 H       -2.0830    -4.9380     0.0920 H     1 <1>   0.0800 
 39 H       -3.2840    -3.4480    -1.1340 H     1 <1>   0.4000 
 40 H       -0.4960    -6.4930    -1.9780 H     1 <1>   0.0800 
 41 H       -2.2140    -6.5920    -1.7490 H     1 <1>   0.0800 
 42 H       -3.1240    -7.5330     0.4640 H     1 <1>   0.1500 
 43 H        1.0210    -7.7470    -0.4700 H     1 <1>   0.1500 
 44 H       -2.7350    -9.2170     2.1760 H     1 <1>   0.1500 
 45 H        1.2410    -9.4180     1.2790 H     1 <1>   0.1500 
@<TRIPOS>BOND
  1   1   2  1   
  2   1   3  1   
  3   2   4  2   
  4   2   5  1   
  5   3   6  2   
  6   3   7  1   
  7   4   6  1   
  8   5   8  2   
  9   5   9  am  
 10   6  10  1   
 11   7  11  1   
 12   7  25  1   
 13   7  26  1   
 14   9  12  1   
 15   9  13  1   
 16  10  14  1   
 17  10  27  1   
 18  10  28  1   
 19  11  14  1   
 20  11  29  1   
 21  11  30  1   
 22  12  15  1   
 23  12  31  1   
 24  12  32  1   
 25  13  16  1   
 26  13  33  1   
 27  13  34  1   
 28  14  35  1   
 29  14  36  1   
 30  15  16  1   
 31  15  17  1   
 32  15  37  1   
 33  16  18  1   
 34  16  38  1   
 35  17  39  1   
 36  18  19  1   
 37  18  40  1   
 38  18  41  1   
 39  19  20  ar  
 40  19  21  ar  
 41  20  22  ar  
 42  20  42  1   
 43  21  23  ar  
 44  21  43  1   
 45  22  24  ar  
 46  22  44  1   
 47  23  24  ar  
 48  23  45  1   
@<TRIPOS>SUBSTRUCTURE
  1 ****   9 GROUP 4 **** **** 0

# MOE 2024.06 (io_trps.svl 2023.06)
