@<TRIPOS>MOLECULE
NONAME
48 50 1 0 0 
SMALL
USER_CHARGES


@<TRIPOS>ATOM
  1 O        1.6720     0.6050    -1.3980 O.2   1 <1>  -0.5700 
  2 C        1.9360    -0.2590    -0.5710 C.2   1 <1>   0.5440 
  3 N        2.6850     0.0550     0.5590 N.am  1 <1>  -0.2980 
  4 C        1.5020    -1.6200    -0.7330 C.ar  1 <1>   0.0860 
  5 N        3.0540    -0.8590     1.5170 N.2   1 <1>  -0.5120 
  6 C        3.1260     1.4550     0.7820 C.3   1 <1>   0.1400 
  7 C        1.8790    -2.5430     0.2520 C.ar  1 <1>   0.0860 
  8 C        0.7340    -2.0620    -1.8150 C.ar  1 <1>  -0.1500 
  9 C        2.6640    -2.0720     1.3510 C.2   1 <1>   0.3040 
 10 C        4.3670     1.7640    -0.0580 C.3   1 <1>   0.1400 
 11 C        1.4770    -3.8770     0.1270 C.ar  1 <1>  -0.1500 
 12 C        0.3470    -3.3800    -1.9230 C.ar  1 <1>  -0.1500 
 13 N        4.5510     3.2320    -0.1740 N.am  1 <1>  -0.7300 
 14 C        0.7200    -4.2930    -0.9470 C.ar  1 <1>  -0.1500 
 15 C        5.3350     3.9890     0.6340 C.2   1 <1>   0.5690 
 16 O        5.9750     3.5090     1.5360 O.2   1 <1>  -0.5700 
 17 C        5.3850     5.4980     0.4110 C.3   1 <1>  -0.0190 
 18 C        3.9900     6.1410     0.5490 C.3   1 <1>  -0.1600 
 19 C        6.0460     5.8640    -0.9410 C.3   1 <1>  -0.1600 
 20 C        4.0490     7.6810     0.4790 C.3   1 <1>   0.2000 
 21 C        5.6400     7.2520    -1.4740 C.3   1 <1>  -0.1600 
 22 O        2.8590     8.1320    -0.1190 O.3   1 <1>  -0.5600 
 23 C        5.2620     8.2030    -0.3360 C.3   1 <1>   0.2000 
 24 C        1.7590     8.2090     0.7330 C.3   1 <1>   0.0400 
 25 O        4.9430     9.4250    -0.8900 O.3   1 <1>  -0.6800 
 26 H        2.3230     2.1170     0.5100 H     1 <1>   0.0800 
 27 H        3.3530     1.5980     1.8240 H     1 <1>   0.0800 
 28 H        0.4450    -1.3520    -2.5720 H     1 <1>   0.1500 
 29 H        2.9420    -2.8040     2.0880 H     1 <1>   0.0600 
 30 H        4.2560     1.3540    -1.0460 H     1 <1>   0.0800 
 31 H        5.2320     1.3210     0.4070 H     1 <1>   0.0800 
 32 H        1.7650    -4.5880     0.8820 H     1 <1>   0.1500 
 33 H       -0.2450    -3.7060    -2.7630 H     1 <1>   0.1500 
 34 H        4.0070     3.6830    -0.9130 H     1 <1>   0.3700 
 35 H        0.4150    -5.3220    -1.0360 H     1 <1>   0.1500 
 36 H        6.0010     5.9040     1.1960 H     1 <1>   0.0800 
 37 H        3.5550     5.8470     1.4870 H     1 <1>   0.0800 
 38 H        3.3630     5.7760    -0.2450 H     1 <1>   0.0800 
 39 H        7.1150     5.8300    -0.8100 H     1 <1>   0.0800 
 40 H        5.7990     5.1320    -1.6910 H     1 <1>   0.0800 
 41 H        4.1200     8.0950     1.4710 H     1 <1>   0.0800 
 42 H        4.7880     7.1420    -2.1220 H     1 <1>   0.0800 
 43 H        6.4500     7.6690    -2.0470 H     1 <1>   0.0800 
 44 H        6.1140     8.3440     0.3080 H     1 <1>   0.0800 
 45 H        0.9210     8.5730     0.1650 H     1 <1>   0.0800 
 46 H        1.9760     8.8940     1.5340 H     1 <1>   0.0800 
 47 H        1.5330     7.2300     1.1200 H     1 <1>   0.0800 
 48 H        3.9710     9.4040    -1.0400 H     1 <1>   0.4000 
@<TRIPOS>BOND
  1   1   2  2   
  2   2   3  am  
  3   2   4  1   
  4   3   5  1   
  5   3   6  1   
  6   4   7  ar  
  7   4   8  ar  
  8   5   9  2   
  9   6  10  1   
 10   6  26  1   
 11   6  27  1   
 12   7   9  1   
 13   7  11  ar  
 14   8  12  ar  
 15   8  28  1   
 16   9  29  1   
 17  10  13  1   
 18  10  30  1   
 19  10  31  1   
 20  11  14  ar  
 21  11  32  1   
 22  12  14  ar  
 23  12  33  1   
 24  13  15  am  
 25  13  34  1   
 26  14  35  1   
 27  15  16  2   
 28  15  17  1   
 29  17  18  1   
 30  17  19  1   
 31  17  36  1   
 32  18  20  1   
 33  18  37  1   
 34  18  38  1   
 35  19  21  1   
 36  19  39  1   
 37  19  40  1   
 38  20  22  1   
 39  20  23  1   
 40  20  41  1   
 41  21  23  1   
 42  21  42  1   
 43  21  43  1   
 44  22  24  1   
 45  23  25  1   
 46  23  44  1   
 47  24  45  1   
 48  24  46  1   
 49  24  47  1   
 50  25  48  1   
@<TRIPOS>SUBSTRUCTURE
  1 ****  10 GROUP 4 **** **** 0

# MOE 2024.06 (io_trps.svl 2023.06)
