@<TRIPOS>MOLECULE
NONAME
43 44 1 0 0 
SMALL
USER_CHARGES


@<TRIPOS>ATOM
  1 S       -1.5000    -0.2030    -1.2080 S.3   1 <1>  -0.0800 
  2 C       -1.3430    -1.2770     0.1450 C.2   1 <1>   0.4420 
  3 C       -1.0100     1.0750    -0.1520 C.2   1 <1>   0.1980 
  4 N       -0.9670    -0.6610     1.2080 N.2   1 <1>  -0.3380 
  5 N       -1.6300    -2.6030    -0.0830 N.am  1 <1>  -0.4940 
  6 N       -0.7790     0.6800     1.0310 N.2   1 <1>  -0.3380 
  7 C       -0.9070     2.4770    -0.7090 C.3   1 <1>   0.0200 
  8 C       -1.6640    -3.6630     0.7800 C.2   1 <1>   0.5690 
  9 C       -0.4270     3.4150     0.4040 C.3   1 <1>   0.3430 
 10 O       -1.4430    -3.5590     1.9620 O.2   1 <1>  -0.5700 
 11 C       -2.0060    -5.0400     0.1700 C.3   1 <1>   0.2810 
 12 N       -0.2290     4.8300    -0.0610 N.4   1 <1>  -0.9590 
 13 N       -3.3540    -5.0380    -0.4890 N.am  1 <1>  -0.6600 
 14 C       -1.8910    -6.2180     1.1520 C.3   1 <1>  -0.2400 
 15 C        0.4940     5.6060     0.9950 C.3   1 <1>   0.2630 
 16 C       -1.5210     5.5100    -0.3990 C.3   1 <1>   0.2630 
 17 C       -3.6010    -4.4580    -1.6800 C.2   1 <1>   0.5690 
 18 C       -4.5890    -5.4670     0.1980 C.3   1 <1>   0.1400 
 19 O       -2.7790    -3.8700    -2.3430 O.2   1 <1>  -0.5700 
 20 C       -5.0560    -4.5530    -2.0390 C.3   1 <1>  -0.0990 
 21 C       -5.7200    -4.9730    -0.7160 C.3   1 <1>  -0.1600 
 22 H       -1.9140    -2.8370    -1.0430 H     1 <1>   0.3700 
 23 H       -1.8760     2.7720    -1.0660 H     1 <1>   0.0800 
 24 H       -0.2050     2.4740    -1.5230 H     1 <1>   0.0800 
 25 H        0.5060     3.0300     0.7850 H     1 <1>   0.0800 
 26 H       -1.1370     3.3920     1.2160 H     1 <1>   0.0800 
 27 H       -1.2780    -5.2110    -0.6040 H     1 <1>   0.0800 
 28 H        0.3700     4.8170    -0.9020 H     1 <1>   0.4500 
 29 H       -2.5460    -6.0790     1.9930 H     1 <1>   0.0800 
 30 H       -0.8840    -6.2700     1.5260 H     1 <1>   0.0800 
 31 H       -2.1170    -7.1440     0.6560 H     1 <1>   0.0800 
 32 H       -0.0910     5.6430     1.9010 H     1 <1>   0.0800 
 33 H        0.6760     6.6150     0.6620 H     1 <1>   0.0800 
 34 H        1.4420     5.1430     1.2180 H     1 <1>   0.0800 
 35 H       -2.1720     5.5260     0.4610 H     1 <1>   0.0800 
 36 H       -2.0220     4.9940    -1.2020 H     1 <1>   0.0800 
 37 H       -1.3380     6.5260    -0.7100 H     1 <1>   0.0800 
 38 H       -4.6560    -5.0210     1.1770 H     1 <1>   0.0800 
 39 H       -4.6040    -6.5410     0.2800 H     1 <1>   0.0800 
 40 H       -5.1810    -5.3070    -2.7940 H     1 <1>   0.0800 
 41 H       -5.4270    -3.6090    -2.3930 H     1 <1>   0.0800 
 42 H       -6.1900    -4.1200    -0.2580 H     1 <1>   0.0800 
 43 H       -6.4650    -5.7360    -0.8650 H     1 <1>   0.0800 
@<TRIPOS>BOND
  1   1   2  1   
  2   1   3  1   
  3   2   4  2   
  4   2   5  1   
  5   3   6  2   
  6   3   7  1   
  7   4   6  1   
  8   5   8  am  
  9   5  22  1   
 10   7   9  1   
 11   7  23  1   
 12   7  24  1   
 13   8  10  2   
 14   8  11  1   
 15   9  12  1   
 16   9  25  1   
 17   9  26  1   
 18  11  13  1   
 19  11  14  1   
 20  11  27  1   
 21  12  15  1   
 22  12  16  1   
 23  12  28  1   
 24  13  17  am  
 25  13  18  1   
 26  14  29  1   
 27  14  30  1   
 28  14  31  1   
 29  15  32  1   
 30  15  33  1   
 31  15  34  1   
 32  16  35  1   
 33  16  36  1   
 34  16  37  1   
 35  17  19  2   
 36  17  20  1   
 37  18  21  1   
 38  18  38  1   
 39  18  39  1   
 40  20  21  1   
 41  20  40  1   
 42  20  41  1   
 43  21  42  1   
 44  21  43  1   
@<TRIPOS>SUBSTRUCTURE
  1 ****   2 GROUP 4 **** **** 0

# MOE 2024.06 (io_trps.svl 2023.06)
