@<TRIPOS>MOLECULE
NONAME
45 47 1 0 0 
SMALL
USER_CHARGES


@<TRIPOS>ATOM
  1 O        0.2120     1.8880    -1.8270 O.3   1 <1>  -0.6800 
  2 C        0.2000     1.6220    -0.4630 C.3   1 <1>   0.2000 
  3 C       -1.0420     2.3070     0.1540 C.3   1 <1>  -0.0800 
  4 C        1.5280     2.1320     0.1480 C.3   1 <1>   0.3430 
  5 C       -0.6920     2.9550     1.5120 C.3   1 <1>  -0.1600 
  6 C       -2.2150     1.3200     0.2610 C.3   1 <1>   0.1200 
  7 N        1.5030     3.6080     0.4280 N.4   1 <1>  -0.9590 
  8 C        0.4280     4.0020     1.4010 C.3   1 <1>   0.3430 
  9 O       -3.3240     2.0070     0.7200 O.3   1 <1>  -0.6800 
 10 C        1.4070     4.3920    -0.8420 C.3   1 <1>   0.4860 
 11 C        1.6670     5.8530    -0.5250 C.ar  1 <1>  -0.1440 
 12 C        2.9790     6.2340    -0.1330 C.ar  1 <1>   0.0000 
 13 C        0.6450     6.7740    -0.5840 C.ar  1 <1>  -0.1440 
 14 C        3.1910     7.5630     0.2970 C.ar  1 <1>   0.0000 
 15 C        4.1020     5.3680    -0.1480 C.ar  1 <1>  -0.1500 
 16 C        0.8870     8.0950    -0.1890 C.ar  1 <1>  -0.1500 
 17 C       -0.7690     6.4450    -1.0560 C.3   1 <1>  -0.0970 
 18 C        2.1220     8.4740     0.2490 C.ar  1 <1>  -0.1500 
 19 C        4.4660     7.9490     0.7560 C.ar  1 <1>  -0.1500 
 20 C        5.3310     5.7710     0.2940 C.ar  1 <1>  -0.1500 
 21 C        5.5140     7.0750     0.7610 C.ar  1 <1>  -0.1500 
 22 H       -0.5520     1.4690    -2.2780 H     1 <1>   0.4000 
 23 H        0.1560     0.5520    -0.3420 H     1 <1>   0.0800 
 24 H       -1.3570     3.1020    -0.5030 H     1 <1>   0.0800 
 25 H        2.3400     1.8840    -0.5150 H     1 <1>   0.0800 
 26 H        1.6920     1.6120     1.0770 H     1 <1>   0.0800 
 27 H       -0.4020     2.1960     2.2180 H     1 <1>   0.0800 
 28 H       -1.5590     3.4440     1.9230 H     1 <1>   0.0800 
 29 H       -1.9990     0.5260     0.9570 H     1 <1>   0.0800 
 30 H       -2.4590     0.9020    -0.7010 H     1 <1>   0.0800 
 31 H        2.3980     3.9010     0.8440 H     1 <1>   0.4500 
 32 H        0.8600     4.1490     2.3780 H     1 <1>   0.0800 
 33 H       -0.0010     4.9440     1.1020 H     1 <1>   0.0800 
 34 H       -4.1050     1.4190     0.7880 H     1 <1>   0.4000 
 35 H        2.1360     4.0430    -1.5550 H     1 <1>   0.0800 
 36 H        0.4330     4.2620    -1.2800 H     1 <1>   0.0800 
 37 H        4.0120     4.3690    -0.5290 H     1 <1>   0.1500 
 38 H        0.0900     8.8190    -0.2270 H     1 <1>   0.1500 
 39 H       -1.2860     7.3410    -1.3520 H     1 <1>   0.0800 
 40 H       -1.3340     5.9820    -0.2680 H     1 <1>   0.0800 
 41 H       -0.7530     5.7960    -1.9130 H     1 <1>   0.0800 
 42 H        2.2980     9.4890     0.5600 H     1 <1>   0.1500 
 43 H        4.6030     8.9580     1.1030 H     1 <1>   0.1500 
 44 H        6.1770     5.1050     0.2810 H     1 <1>   0.1500 
 45 H        6.4870     7.3770     1.1120 H     1 <1>   0.1500 
@<TRIPOS>BOND
  1   1   2  1   
  2   1  22  1   
  3   2   3  1   
  4   2   4  1   
  5   2  23  1   
  6   3   5  1   
  7   3   6  1   
  8   3  24  1   
  9   4   7  1   
 10   4  25  1   
 11   4  26  1   
 12   5   8  1   
 13   5  27  1   
 14   5  28  1   
 15   6   9  1   
 16   6  29  1   
 17   6  30  1   
 18   7   8  1   
 19   7  10  1   
 20   7  31  1   
 21   8  32  1   
 22   8  33  1   
 23   9  34  1   
 24  10  11  1   
 25  10  35  1   
 26  10  36  1   
 27  11  12  ar  
 28  11  13  ar  
 29  12  14  ar  
 30  12  15  ar  
 31  13  16  ar  
 32  13  17  1   
 33  14  18  ar  
 34  14  19  ar  
 35  15  20  ar  
 36  15  37  1   
 37  16  18  ar  
 38  16  38  1   
 39  17  39  1   
 40  17  40  1   
 41  17  41  1   
 42  18  42  1   
 43  19  21  ar  
 44  19  43  1   
 45  20  21  ar  
 46  20  44  1   
 47  21  45  1   
@<TRIPOS>SUBSTRUCTURE
  1 ****  10 GROUP 4 **** **** 0

# MOE 2024.06 (io_trps.svl 2023.06)
