@<TRIPOS>MOLECULE
NONAME
47 49 1 0 0 
SMALL
USER_CHARGES


@<TRIPOS>ATOM
  1 CL      -0.8270    -5.3420    -3.9720 Cl    1 <1>  -0.1770 
  2 C       -1.8410    -5.4380    -2.5520 C.ar  1 <1>   0.1770 
  3 C       -3.2030    -5.4240    -2.6710 C.ar  1 <1>  -0.1500 
  4 C       -1.2330    -5.5310    -1.3050 C.ar  1 <1>  -0.1500 
  5 C       -4.0170    -5.5020    -1.5310 C.ar  1 <1>  -0.1710 
  6 C       -2.0260    -5.6040    -0.1800 C.ar  1 <1>  -0.1500 
  7 O       -5.2530    -5.5100    -1.7160 O.3   1 <1>  -0.8290 
  8 C       -3.4270    -5.5820    -0.2360 C.ar  1 <1>   0.0860 
  9 C       -4.1470    -5.6610     1.0130 C.2   1 <1>   0.5440 
 10 O       -3.8970    -6.5910     1.7790 O.2   1 <1>  -0.5700 
 11 N       -5.0160    -4.6890     1.4970 N.am  1 <1>  -0.6600 
 12 C       -5.4550    -4.6940     2.9190 C.3   1 <1>   0.1400 
 13 C       -5.6050    -3.6070     0.6590 C.3   1 <1>   0.1400 
 14 C       -6.6780    -5.5960     3.1480 C.3   1 <1>   0.1400 
 15 C       -7.0950    -3.8340     0.3460 C.3   1 <1>  -0.1600 
 16 N       -7.6830    -5.5400     2.0390 N.am  1 <1>  -0.6600 
 17 C       -8.0050    -4.1800     1.5360 C.3   1 <1>   0.1400 
 18 C       -8.0880    -6.6130     1.2830 C.2   1 <1>   0.5690 
 19 O       -9.1740    -6.6040     0.7450 O.2   1 <1>  -0.5700 
 20 C       -7.1950    -7.8330     1.0530 C.3   1 <1>  -0.0190 
 21 C       -6.6700    -7.8670    -0.3890 C.3   1 <1>   0.1400 
 22 C       -7.9040    -9.1870     1.2810 C.3   1 <1>  -0.0990 
 23 N       -6.7810    -9.2850    -0.7820 N.am  1 <1>  -0.6600 
 24 C       -7.4390   -10.0320     0.1290 C.2   1 <1>   0.5690 
 25 C       -6.1500    -9.7330    -2.0400 C.3   1 <1>   0.0600 
 26 O       -7.6390   -11.2220     0.0660 O.2   1 <1>  -0.5700 
 27 H       -3.6850    -5.3570    -3.6270 H     1 <1>   0.1500 
 28 H       -0.1610    -5.5460    -1.2400 H     1 <1>   0.1500 
 29 H       -1.5650    -5.6840     0.7880 H     1 <1>   0.1500 
 30 H       -5.6900    -3.6910     3.2220 H     1 <1>   0.0800 
 31 H       -4.6470    -5.0320     3.5440 H     1 <1>   0.0800 
 32 H       -5.0650    -3.5210    -0.2670 H     1 <1>   0.0800 
 33 H       -5.4890    -2.6730     1.1770 H     1 <1>   0.0800 
 34 H       -7.1600    -5.2910     4.0590 H     1 <1>   0.0800 
 35 H       -6.3380    -6.6000     3.3080 H     1 <1>   0.0800 
 36 H       -7.1760    -4.6100    -0.3940 H     1 <1>   0.0800 
 37 H       -7.4660    -2.9410    -0.1180 H     1 <1>   0.0800 
 38 H       -9.0310    -4.1630     1.2060 H     1 <1>   0.0800 
 39 H       -7.9000    -3.4520     2.3200 H     1 <1>   0.0800 
 40 H       -6.3240    -7.8020     1.6720 H     1 <1>   0.0800 
 41 H       -5.6440    -7.5460    -0.4280 H     1 <1>   0.0800 
 42 H       -7.2590    -7.2520    -1.0490 H     1 <1>   0.0800 
 43 H       -8.9730    -9.0970     1.2250 H     1 <1>   0.0800 
 44 H       -7.6190    -9.6300     2.2160 H     1 <1>   0.0800 
 45 H       -6.5900    -9.2070    -2.8690 H     1 <1>   0.0800 
 46 H       -6.2960   -10.7910    -2.1690 H     1 <1>   0.0800 
 47 H       -5.0960    -9.5180    -2.0090 H     1 <1>   0.0800 
@<TRIPOS>BOND
  1   1   2  1   
  2   2   3  ar  
  3   2   4  ar  
  4   3   5  ar  
  5   3  27  1   
  6   4   6  ar  
  7   4  28  1   
  8   5   7  1   
  9   5   8  ar  
 10   6   8  ar  
 11   6  29  1   
 12   8   9  1   
 13   9  10  2   
 14   9  11  am  
 15  11  12  1   
 16  11  13  1   
 17  12  14  1   
 18  12  30  1   
 19  12  31  1   
 20  13  15  1   
 21  13  32  1   
 22  13  33  1   
 23  14  16  1   
 24  14  34  1   
 25  14  35  1   
 26  15  17  1   
 27  15  36  1   
 28  15  37  1   
 29  16  17  1   
 30  16  18  am  
 31  17  38  1   
 32  17  39  1   
 33  18  19  2   
 34  18  20  1   
 35  20  21  1   
 36  20  22  1   
 37  20  40  1   
 38  21  23  1   
 39  21  41  1   
 40  21  42  1   
 41  22  24  1   
 42  22  43  1   
 43  22  44  1   
 44  23  24  am  
 45  23  25  1   
 46  24  26  2   
 47  25  45  1   
 48  25  46  1   
 49  25  47  1   
@<TRIPOS>SUBSTRUCTURE
  1 ****   9 GROUP 4 **** **** 0

# MOE 2024.06 (io_trps.svl 2023.06)
