@<TRIPOS>MOLECULE
NONAME
45 47 1 0 0 
SMALL
USER_CHARGES


@<TRIPOS>ATOM
  1 F        0.3710    -0.4800     0.6070 F     1 <1>  -0.1900 
  2 C       -0.0130    -1.7390     0.6260 C.ar  1 <1>   0.1900 
  3 C       -1.3550    -2.0820     0.4410 C.ar  1 <1>   0.4100 
  4 C        0.9180    -2.7270     0.8460 C.ar  1 <1>   0.1660 
  5 N       -1.7080    -3.3560     0.5020 N.ar  1 <1>  -0.6200 
  6 N       -2.3770    -1.1730     0.1910 N.pl3 1 <1>  -0.8380 
  7 N        0.5540    -4.0000     0.8890 N.ar  1 <1>  -0.6200 
  8 C        2.3990    -2.4320     1.0530 C.3   1 <1>  -0.0170 
  9 C       -0.7380    -4.2270     0.7160 C.ar  1 <1>   0.4700 
 10 C       -3.7360    -1.3280     0.8020 C.3   1 <1>   0.2090 
 11 C       -2.2140     0.0160    -0.6850 C.3   1 <1>   0.2090 
 12 C        3.1940    -2.6220    -0.2440 C.3   1 <1>  -0.2400 
 13 C       -4.8460    -1.3500    -0.2800 C.3   1 <1>   0.0000 
 14 C       -3.3010     0.0260    -1.7660 C.3   1 <1>  -0.1600 
 15 C       -6.2430    -1.4480     0.3550 C.3   1 <1>   0.2000 
 16 C       -4.7150    -0.0980    -1.1730 C.3   1 <1>  -0.1600 
 17 C       -4.7850    -2.6550    -1.0930 C.3   1 <1>  -0.1600 
 18 O       -6.3470    -0.6540     1.5010 O.3   1 <1>  -0.5600 
 19 C       -6.4500    -2.9300     0.6840 C.3   1 <1>  -0.1600 
 20 C       -5.5010    -3.7060    -0.2400 C.3   1 <1>  -0.1600 
 21 C       -7.6470    -0.4340     1.9470 C.3   1 <1>   0.0400 
 22 H        2.5330    -1.4270     1.4110 H     1 <1>   0.0800 
 23 H        2.7820    -3.0960     1.8070 H     1 <1>   0.0800 
 24 H       -1.0410    -5.2600     0.7550 H     1 <1>   0.1500 
 25 H       -3.7800    -2.2210     1.3990 H     1 <1>   0.0800 
 26 H       -3.8990    -0.4950     1.4630 H     1 <1>   0.0800 
 27 H       -2.2850     0.9060    -0.0840 H     1 <1>   0.0800 
 28 H       -1.2500     0.0010    -1.1620 H     1 <1>   0.0800 
 29 H        2.8320    -1.9520    -1.0040 H     1 <1>   0.0800 
 30 H        3.0880    -3.6330    -0.5970 H     1 <1>   0.0800 
 31 H        4.2360    -2.4230    -0.0730 H     1 <1>   0.0800 
 32 H       -3.2260     0.9390    -2.3290 H     1 <1>   0.0800 
 33 H       -3.1160    -0.7890    -2.4440 H     1 <1>   0.0800 
 34 H       -6.9790    -1.1260    -0.3630 H     1 <1>   0.0800 
 35 H       -5.4380    -0.1290    -1.9690 H     1 <1>   0.0800 
 36 H       -4.9200     0.7750    -0.5770 H     1 <1>   0.0800 
 37 H       -5.3220    -2.5320    -2.0170 H     1 <1>   0.0800 
 38 H       -3.7760    -2.9510    -1.3230 H     1 <1>   0.0800 
 39 H       -6.1890    -3.1240     1.7100 H     1 <1>   0.0800 
 40 H       -7.4720    -3.2150     0.5100 H     1 <1>   0.0800 
 41 H       -4.7770    -4.2390     0.3530 H     1 <1>   0.0800 
 42 H       -6.0310    -4.4100    -0.8580 H     1 <1>   0.0800 
 43 H       -7.5990     0.1990     2.8150 H     1 <1>   0.0800 
 44 H       -8.1010    -1.3730     2.2110 H     1 <1>   0.0800 
 45 H       -8.2110     0.0560     1.1730 H     1 <1>   0.0800 
@<TRIPOS>BOND
  1   1   2  1   
  2   2   3  ar  
  3   2   4  ar  
  4   3   5  ar  
  5   3   6  1   
  6   4   7  ar  
  7   4   8  1   
  8   5   9  ar  
  9   6  10  1   
 10   6  11  1   
 11   7   9  ar  
 12   8  12  1   
 13   8  22  1   
 14   8  23  1   
 15   9  24  1   
 16  10  13  1   
 17  10  25  1   
 18  10  26  1   
 19  11  14  1   
 20  11  27  1   
 21  11  28  1   
 22  12  29  1   
 23  12  30  1   
 24  12  31  1   
 25  13  15  1   
 26  13  16  1   
 27  13  17  1   
 28  14  16  1   
 29  14  32  1   
 30  14  33  1   
 31  15  18  1   
 32  15  19  1   
 33  15  34  1   
 34  16  35  1   
 35  16  36  1   
 36  17  20  1   
 37  17  37  1   
 38  17  38  1   
 39  18  21  1   
 40  19  20  1   
 41  19  39  1   
 42  19  40  1   
 43  20  41  1   
 44  20  42  1   
 45  21  43  1   
 46  21  44  1   
 47  21  45  1   
@<TRIPOS>SUBSTRUCTURE
  1 ****   6 GROUP 4 **** **** 0

# MOE 2024.06 (io_trps.svl 2023.06)
