@<TRIPOS>MOLECULE
NONAME
47 50 1 0 0 
SMALL
USER_CHARGES


@<TRIPOS>ATOM
  1 F       -1.0230     1.0630     2.5930 F     1 <1>  -0.1900 
  2 C       -1.9480     1.5620     1.8190 C.ar  1 <1>   0.1900 
  3 C       -1.8580     1.3590     0.4560 C.ar  1 <1>  -0.1500 
  4 C       -2.9820     2.2760     2.3910 C.ar  1 <1>  -0.1500 
  5 C       -2.8390     1.8940    -0.3620 C.ar  1 <1>  -0.1500 
  6 C       -3.9570     2.8070     1.5630 C.ar  1 <1>  -0.1500 
  7 C       -3.8900     2.6230     0.1850 C.ar  1 <1>  -0.1430 
  8 C       -4.9690     3.2240    -0.7210 C.3   1 <1>   0.3950 
  9 N       -5.0240     4.7020    -0.4630 N.3   1 <1>  -0.8100 
 10 C       -6.3240     2.4840    -0.5490 C.2   1 <1>   0.5690 
 11 C       -6.2830     5.2930    -0.9710 C.3   1 <1>   0.1100 
 12 C       -3.8480     5.3840    -1.0420 C.3   1 <1>   0.2900 
 13 O       -6.3850     1.2810    -0.6450 O.2   1 <1>  -0.5700 
 14 N       -7.4650     3.1910    -0.3390 N.am  1 <1>  -0.7300 
 15 C       -7.5170     4.6720    -0.2890 C.3   1 <1>   0.1400 
 16 C       -3.7550     6.8080    -0.5260 C.2   1 <1>   0.0070 
 17 N       -3.7730     7.0640     0.8020 N.pl3 1 <1>   0.0330 
 18 N       -3.6700     7.8620    -1.2610 N.2   1 <1>  -0.5650 
 19 C       -3.6950     8.4110     0.9240 C.ar  1 <1>  -0.1520 
 20 C       -3.6280     8.8980    -0.3680 C.ar  1 <1>   0.2270 
 21 C       -3.6790     9.2660     2.0240 C.ar  1 <1>  -0.1500 
 22 C       -3.5370    10.2780    -0.5990 C.ar  1 <1>  -0.1430 
 23 C       -3.5970    10.6190     1.7940 C.ar  1 <1>  -0.1500 
 24 C       -3.5310    11.1350     0.4910 C.ar  1 <1>  -0.1430 
 25 C       -3.4550    10.7670    -2.0410 C.3   1 <1>  -0.0970 
 26 C       -3.4540    12.6460     0.3270 C.3   1 <1>  -0.0970 
 27 H       -1.0400     0.7920     0.0490 H     1 <1>   0.1500 
 28 H       -3.0210     2.4090     3.4570 H     1 <1>   0.1500 
 29 H       -2.7810     1.7350    -1.4250 H     1 <1>   0.1500 
 30 H       -4.7740     3.3650     1.9880 H     1 <1>   0.1500 
 31 H       -4.6850     3.0700    -1.7470 H     1 <1>   0.0800 
 32 H       -6.3540     5.1470    -2.0360 H     1 <1>   0.0800 
 33 H       -6.2930     6.3540    -0.7860 H     1 <1>   0.0800 
 34 H       -3.9110     5.3940    -2.1170 H     1 <1>   0.0800 
 35 H       -2.9440     4.8710    -0.7620 H     1 <1>   0.0800 
 36 H       -8.3270     2.6610    -0.1940 H     1 <1>   0.3700 
 37 H       -8.4090     5.0180    -0.7830 H     1 <1>   0.0800 
 38 H       -7.5540     4.9910     0.7390 H     1 <1>   0.0800 
 39 H       -3.8820     6.3680     1.5440 H     1 <1>   0.2700 
 40 H       -3.7290     8.8700     3.0230 H     1 <1>   0.1500 
 41 H       -3.5840    11.2950     2.6310 H     1 <1>   0.1500 
 42 H       -2.9660    10.0330    -2.6560 H     1 <1>   0.0800 
 43 H       -2.8950    11.6790    -2.1160 H     1 <1>   0.0800 
 44 H       -4.4460    10.9260    -2.4240 H     1 <1>   0.0800 
 45 H       -4.1450    12.9740    -0.4290 H     1 <1>   0.0800 
 46 H       -2.4580    12.9310     0.0400 H     1 <1>   0.0800 
 47 H       -3.7040    13.1470     1.2440 H     1 <1>   0.0800 
@<TRIPOS>BOND
  1   1   2  1   
  2   2   3  ar  
  3   2   4  ar  
  4   3   5  ar  
  5   3  27  1   
  6   4   6  ar  
  7   4  28  1   
  8   5   7  ar  
  9   5  29  1   
 10   6   7  ar  
 11   6  30  1   
 12   7   8  1   
 13   8   9  1   
 14   8  10  1   
 15   8  31  1   
 16   9  11  1   
 17   9  12  1   
 18  10  13  2   
 19  10  14  am  
 20  11  15  1   
 21  11  32  1   
 22  11  33  1   
 23  12  16  1   
 24  12  34  1   
 25  12  35  1   
 26  14  15  1   
 27  14  36  1   
 28  15  37  1   
 29  15  38  1   
 30  16  17  1   
 31  16  18  2   
 32  17  19  1   
 33  17  39  1   
 34  18  20  1   
 35  19  20  ar  
 36  19  21  ar  
 37  20  22  ar  
 38  21  23  ar  
 39  21  40  1   
 40  22  24  ar  
 41  22  25  1   
 42  23  24  ar  
 43  23  41  1   
 44  24  26  1   
 45  25  42  1   
 46  25  43  1   
 47  25  44  1   
 48  26  45  1   
 49  26  46  1   
 50  26  47  1   
@<TRIPOS>SUBSTRUCTURE
  1 ****  12 GROUP 4 **** **** 0

# MOE 2024.06 (io_trps.svl 2023.06)
