@<TRIPOS>MOLECULE
NONAME
45 47 1 0 0 
SMALL
USER_CHARGES


@<TRIPOS>ATOM
  1 O       -0.6730    -0.5890     0.6710 O.co2 1 <1>  -0.9000 
  2 C       -0.6100    -1.8270     0.6270 C.2   1 <1>   1.0330 
  3 O       -1.6770    -2.4650     0.5120 O.co2 1 <1>  -0.9000 
  4 C        0.6450    -2.5170     0.6890 C.2   1 <1>  -0.2330 
  5 C        0.7740    -3.8640     1.0230 C.2   1 <1>   0.3720 
  6 C        1.9300    -2.1270     0.4680 C.2   1 <1>   0.0870 
  7 N        2.0010    -4.2460     1.0040 N.2   1 <1>  -0.4100 
  8 N       -0.2910    -4.6970     1.3260 N.pl3 1 <1>  -0.8520 
  9 O        2.6850    -3.1840     0.6740 O.3   1 <1>  -0.0190 
 10 C        2.5650    -0.8940     0.0640 C.ar  1 <1>   0.0530 
 11 C       -0.3590    -5.9260     0.5160 C.3   1 <1>   0.2090 
 12 C        1.9390     0.0320    -0.7690 C.ar  1 <1>  -0.1500 
 13 C        3.8630    -0.5930     0.4830 C.ar  1 <1>  -0.1500 
 14 C       -1.7080    -6.6340     0.7140 C.3   1 <1>  -0.0800 
 15 C        2.5700     1.1980    -1.1640 C.ar  1 <1>  -0.1500 
 16 C        4.5040     0.5690     0.0910 C.ar  1 <1>  -0.1500 
 17 C       -1.7100    -7.9780    -0.0370 C.3   1 <1>  -0.1600 
 18 C       -2.8950    -5.7640     0.2540 C.3   1 <1>  -0.1600 
 19 C        3.8560     1.4690    -0.7360 C.ar  1 <1>  -0.1500 
 20 C       -3.0490    -8.7130     0.1130 C.3   1 <1>  -0.1600 
 21 C       -4.2320    -6.5050     0.3960 C.3   1 <1>  -0.1600 
 22 C       -4.2270    -7.8420    -0.3630 C.3   1 <1>  -0.0800 
 23 C       -5.5790    -8.5520    -0.1780 C.3   1 <1>   0.1200 
 24 O       -5.6110    -9.7130    -0.9330 O.3   1 <1>  -0.6800 
 25 H       -1.1450    -4.1240     1.1510 H     1 <1>   0.4000 
 26 H        0.4440    -6.5780     0.8150 H     1 <1>   0.0800 
 27 H       -0.2240    -5.6750    -0.5230 H     1 <1>   0.0800 
 28 H        0.9370    -0.1630    -1.1090 H     1 <1>   0.1500 
 29 H        4.3740    -1.2840     1.1300 H     1 <1>   0.1500 
 30 H       -1.8170    -6.8380     1.7660 H     1 <1>   0.0800 
 31 H        2.0510     1.8920    -1.8010 H     1 <1>   0.1500 
 32 H        5.5030     0.7730     0.4310 H     1 <1>   0.1500 
 33 H       -0.9210    -8.6040     0.3420 H     1 <1>   0.0800 
 34 H       -1.5200    -7.8040    -1.0820 H     1 <1>   0.0800 
 35 H       -2.7520    -5.4720    -0.7730 H     1 <1>   0.0800 
 36 H       -2.9370    -4.8610     0.8390 H     1 <1>   0.0800 
 37 H        4.3480     2.3760    -1.0420 H     1 <1>   0.1500 
 38 H       -3.1940    -8.9790     1.1460 H     1 <1>   0.0800 
 39 H       -3.0140    -9.6260    -0.4570 H     1 <1>   0.0800 
 40 H       -5.0190    -5.8730     0.0230 H     1 <1>   0.0800 
 41 H       -4.4200    -6.6820     1.4420 H     1 <1>   0.0800 
 42 H       -4.1000    -7.6230    -1.4090 H     1 <1>   0.0800 
 43 H       -6.3900    -7.9220    -0.5020 H     1 <1>   0.0800 
 44 H       -5.7340    -8.8220     0.8530 H     1 <1>   0.0800 
 45 H       -5.4110    -9.5140    -1.8670 H     1 <1>   0.4000 
@<TRIPOS>BOND
  1   1   2  ar  
  2   2   3  ar  
  3   2   4  1   
  4   4   5  1   
  5   4   6  2   
  6   5   7  2   
  7   5   8  1   
  8   6   9  1   
  9   6  10  1   
 10   7   9  1   
 11   8  11  1   
 12   8  25  1   
 13  10  12  ar  
 14  10  13  ar  
 15  11  14  1   
 16  11  26  1   
 17  11  27  1   
 18  12  15  ar  
 19  12  28  1   
 20  13  16  ar  
 21  13  29  1   
 22  14  17  1   
 23  14  18  1   
 24  14  30  1   
 25  15  19  ar  
 26  15  31  1   
 27  16  19  ar  
 28  16  32  1   
 29  17  20  1   
 30  17  33  1   
 31  17  34  1   
 32  18  21  1   
 33  18  35  1   
 34  18  36  1   
 35  19  37  1   
 36  20  22  1   
 37  20  38  1   
 38  20  39  1   
 39  21  22  1   
 40  21  40  1   
 41  21  41  1   
 42  22  23  1   
 43  22  42  1   
 44  23  24  1   
 45  23  43  1   
 46  23  44  1   
 47  24  45  1   
@<TRIPOS>SUBSTRUCTURE
  1 ****   5 GROUP 4 **** **** 0

# MOE 2024.06 (io_trps.svl 2023.06)
