@<TRIPOS>MOLECULE
NONAME
46 48 1 0 0 
SMALL
USER_CHARGES


@<TRIPOS>ATOM
  1 O       -0.2490     2.0270    -0.6460 O.2   1 <1>  -0.5700 
  2 C       -1.1070     2.4040     0.1190 C.2   1 <1>   0.5690 
  3 N       -0.7850     3.0930     1.2570 N.am  1 <1>  -0.6600 
  4 C       -2.5560     2.1290    -0.2450 C.3   1 <1>  -0.0990 
  5 C       -1.7850     3.6780     2.1920 C.3   1 <1>   0.1400 
  6 C        0.6520     3.3090     1.6400 C.3   1 <1>   0.2010 
  7 C       -3.5390     2.3960     0.9040 C.3   1 <1>  -0.1600 
  8 C       -3.1870     3.7240     1.5780 C.3   1 <1>  -0.1600 
  9 C        1.3130     4.4510     0.8700 C.2   1 <1>   0.5690 
 10 O        1.7140     5.4080     1.4880 O.2   1 <1>  -0.5700 
 11 N        1.4180     4.3270    -0.4870 N.am  1 <1>  -0.4940 
 12 C        1.8390     5.2260    -1.4970 C.2   1 <1>  -0.0880 
 13 N        2.8950     6.1000    -1.5040 N.pl3 1 <1>   0.3140 
 14 C        1.2430     5.3350    -2.7070 C.2   1 <1>  -0.1500 
 15 N        2.9740     6.7350    -2.7110 N.2   1 <1>  -0.7070 
 16 C        3.9800     6.2360    -0.4770 C.3   1 <1>   0.3190 
 17 C        1.9800     6.2790    -3.4030 C.2   1 <1>   0.1390 
 18 C        4.0640     7.6510     0.1130 C.ar  1 <1>  -0.1440 
 19 C        5.3380     5.8100    -1.0560 C.3   1 <1>  -0.2400 
 20 C        4.3560     8.7540    -0.6800 C.ar  1 <1>  -0.1500 
 21 C        3.8610     7.8460     1.4730 C.ar  1 <1>  -0.1500 
 22 C        4.4480    10.0200    -0.1280 C.ar  1 <1>  -0.1500 
 23 C        3.9520     9.1100     2.0280 C.ar  1 <1>  -0.1500 
 24 C        4.2470    10.1990     1.2290 C.ar  1 <1>  -0.1500 
 25 H       -2.6460     1.1090    -0.5690 H     1 <1>   0.0800 
 26 H       -2.8040     2.7610    -1.0780 H     1 <1>   0.0800 
 27 H       -1.4830     4.6770     2.4630 H     1 <1>   0.0800 
 28 H       -1.8070     3.0790     3.0870 H     1 <1>   0.0800 
 29 H        1.2060     2.4080     1.4500 H     1 <1>   0.0800 
 30 H        0.7190     3.5160     2.6930 H     1 <1>   0.0800 
 31 H       -3.4750     1.5990     1.6250 H     1 <1>   0.0800 
 32 H       -4.5460     2.4240     0.5230 H     1 <1>   0.0800 
 33 H       -3.2330     4.5250     0.8590 H     1 <1>   0.0800 
 34 H       -3.9030     3.9420     2.3510 H     1 <1>   0.0800 
 35 H        0.9170     3.4940    -0.8390 H     1 <1>   0.3700 
 36 H        0.3810     4.8090    -3.0750 H     1 <1>   0.1500 
 37 H        3.7630     5.5510     0.3160 H     1 <1>   0.0800 
 38 H        1.7630     6.6000    -4.4080 H     1 <1>   0.1500 
 39 H        5.6150     6.4490    -1.8760 H     1 <1>   0.0800 
 40 H        5.2890     4.7940    -1.4020 H     1 <1>   0.0800 
 41 H        6.0950     5.8830    -0.2960 H     1 <1>   0.0800 
 42 H        4.5100     8.6320    -1.7390 H     1 <1>   0.1500 
 43 H        3.6260     7.0120     2.1110 H     1 <1>   0.1500 
 44 H        4.6720    10.8630    -0.7570 H     1 <1>   0.1500 
 45 H        3.7890     9.2450     3.0830 H     1 <1>   0.1500 
 46 H        4.3160    11.1830     1.6590 H     1 <1>   0.1500 
@<TRIPOS>BOND
  1   1   2  2   
  2   2   3  am  
  3   2   4  1   
  4   3   5  1   
  5   3   6  1   
  6   4   7  1   
  7   4  25  1   
  8   4  26  1   
  9   5   8  1   
 10   5  27  1   
 11   5  28  1   
 12   6   9  1   
 13   6  29  1   
 14   6  30  1   
 15   7   8  1   
 16   7  31  1   
 17   7  32  1   
 18   8  33  1   
 19   8  34  1   
 20   9  10  2   
 21   9  11  am  
 22  11  12  1   
 23  11  35  1   
 24  12  13  1   
 25  12  14  2   
 26  13  15  1   
 27  13  16  1   
 28  14  17  1   
 29  14  36  1   
 30  15  17  2   
 31  16  18  1   
 32  16  19  1   
 33  16  37  1   
 34  17  38  1   
 35  18  20  ar  
 36  18  21  ar  
 37  19  39  1   
 38  19  40  1   
 39  19  41  1   
 40  20  22  ar  
 41  20  42  1   
 42  21  23  ar  
 43  21  43  1   
 44  22  24  ar  
 45  22  44  1   
 46  23  24  ar  
 47  23  45  1   
 48  24  46  1   
@<TRIPOS>SUBSTRUCTURE
  1 ****  11 GROUP 4 **** **** 0

# MOE 2024.06 (io_trps.svl 2023.06)
