@<TRIPOS>MOLECULE
NONAME
56 59 1 0 0 
SMALL
USER_CHARGES


@<TRIPOS>ATOM
  1 O       -0.2010     0.3870     1.6840 O.2   1 <1>  -0.5700 
  2 C       -1.1330     0.8570     1.0810 C.2   1 <1>   0.5690 
  3 N       -2.1120     0.1250     0.4700 N.am  1 <1>  -0.5470 
  4 C       -1.2030     2.3630     0.9640 C.3   1 <1>  -0.0990 
  5 C       -2.3210    -1.2600     0.3880 C.ar  1 <1>   0.1170 
  6 C       -0.2530     2.8690    -0.1320 C.3   1 <1>  -0.0990 
  7 C       -3.1680    -1.7410    -0.6070 C.ar  1 <1>  -0.1500 
  8 C       -1.7350    -2.1750     1.2640 C.ar  1 <1>  -0.1500 
  9 C       -0.2890     4.3780    -0.2250 C.2   1 <1>   0.5690 
 10 C       -3.4080    -3.0970    -0.7150 C.ar  1 <1>  -0.1430 
 11 C       -1.9780    -3.5340     1.1510 C.ar  1 <1>  -0.1500 
 12 O       -1.1820     4.8820    -0.8600 O.2   1 <1>  -0.5700 
 13 N        0.6860     5.0810     0.4230 N.am  1 <1>  -0.4940 
 14 C       -2.8210    -3.9830     0.1520 C.ar  1 <1>  -0.1430 
 15 C       -4.2810    -3.8110    -1.7160 C.3   1 <1>  -0.0170 
 16 C        0.8450     6.4850     0.5330 C.2   1 <1>  -0.0880 
 17 C       -3.2240    -5.4030    -0.1540 C.3   1 <1>  -0.0160 
 18 C       -4.3880    -5.2360    -1.1460 C.3   1 <1>  -0.1600 
 19 N        2.0240     7.1490     0.3690 N.pl3 1 <1>   0.3140 
 20 C       -0.0850     7.4270     0.8230 C.2   1 <1>  -0.1810 
 21 N        1.8680     8.4820     0.5640 N.2   1 <1>  -0.7070 
 22 C        3.3340     6.5430    -0.0110 C.3   1 <1>   0.1760 
 23 C        0.6080     8.6320     0.8240 C.2   1 <1>   0.1390 
 24 C       -1.5680     7.2680     1.1000 C.3   1 <1>  -0.0590 
 25 C        4.3880     6.6550     1.0930 C.3   1 <1>  -0.1600 
 26 C        3.9910     7.2120    -1.2190 C.3   1 <1>  -0.1600 
 27 C        5.7440     6.6080     0.3770 C.3   1 <1>  -0.1600 
 28 C        5.4630     6.8110    -1.1170 C.3   1 <1>  -0.1600 
 29 H       -2.7940     0.6720    -0.0500 H     1 <1>   0.3700 
 30 H       -0.9240     2.7890     1.9120 H     1 <1>   0.0800 
 31 H       -2.2100     2.6710     0.7480 H     1 <1>   0.0800 
 32 H       -0.5480     2.4610    -1.0830 H     1 <1>   0.0800 
 33 H        0.7490     2.5380     0.0720 H     1 <1>   0.0800 
 34 H       -3.6340    -1.0630    -1.2970 H     1 <1>   0.1500 
 35 H       -1.0840    -1.8310     2.0460 H     1 <1>   0.1500 
 36 H       -1.5180    -4.2290     1.8310 H     1 <1>   0.1500 
 37 H        1.3870     4.5190     0.9050 H     1 <1>   0.3700 
 38 H       -3.7920    -3.8210    -2.6740 H     1 <1>   0.0800 
 39 H       -5.2480    -3.3460    -1.8020 H     1 <1>   0.0800 
 40 H       -3.5320    -5.9270     0.7340 H     1 <1>   0.0800 
 41 H       -2.4000    -5.9170    -0.6160 H     1 <1>   0.0800 
 42 H       -4.3610    -5.9810    -1.9220 H     1 <1>   0.0800 
 43 H       -5.3160    -5.3240    -0.6080 H     1 <1>   0.0800 
 44 H        3.1850     5.5060    -0.2450 H     1 <1>   0.0800 
 45 H        0.1580     9.5900     1.0200 H     1 <1>   0.1500 
 46 H       -1.7770     6.2770     1.4590 H     1 <1>   0.0800 
 47 H       -2.1230     7.4290     0.1930 H     1 <1>   0.0800 
 48 H       -1.8880     7.9780     1.8400 H     1 <1>   0.0800 
 49 H        4.2910     5.8640     1.8150 H     1 <1>   0.0800 
 50 H        4.2900     7.6070     1.5890 H     1 <1>   0.0800 
 51 H        3.9140     8.2830    -1.1330 H     1 <1>   0.0800 
 52 H        3.5480     6.8920    -2.1460 H     1 <1>   0.0800 
 53 H        6.2270     5.6590     0.5370 H     1 <1>   0.0800 
 54 H        6.3860     7.3880     0.7520 H     1 <1>   0.0800 
 55 H        6.1040     7.5630    -1.5450 H     1 <1>   0.0800 
 56 H        5.6200     5.8830    -1.6400 H     1 <1>   0.0800 
@<TRIPOS>BOND
  1   1   2  2   
  2   2   3  am  
  3   2   4  1   
  4   3   5  1   
  5   3  29  1   
  6   4   6  1   
  7   4  30  1   
  8   4  31  1   
  9   5   7  ar  
 10   5   8  ar  
 11   6   9  1   
 12   6  32  1   
 13   6  33  1   
 14   7  10  ar  
 15   7  34  1   
 16   8  11  ar  
 17   8  35  1   
 18   9  12  2   
 19   9  13  am  
 20  10  14  ar  
 21  10  15  1   
 22  11  14  ar  
 23  11  36  1   
 24  13  16  1   
 25  13  37  1   
 26  14  17  1   
 27  15  18  1   
 28  15  38  1   
 29  15  39  1   
 30  16  19  1   
 31  16  20  2   
 32  17  18  1   
 33  17  40  1   
 34  17  41  1   
 35  18  42  1   
 36  18  43  1   
 37  19  21  1   
 38  19  22  1   
 39  20  23  1   
 40  20  24  1   
 41  21  23  2   
 42  22  25  1   
 43  22  26  1   
 44  22  44  1   
 45  23  45  1   
 46  24  46  1   
 47  24  47  1   
 48  24  48  1   
 49  25  27  1   
 50  25  49  1   
 51  25  50  1   
 52  26  28  1   
 53  26  51  1   
 54  26  52  1   
 55  27  28  1   
 56  27  53  1   
 57  27  54  1   
 58  28  55  1   
 59  28  56  1   
@<TRIPOS>SUBSTRUCTURE
  1 ****   6 GROUP 4 **** **** 0

# MOE 2024.06 (io_trps.svl 2023.06)
