@<TRIPOS>MOLECULE
NONAME
44 46 1 0 0 
SMALL
USER_CHARGES


@<TRIPOS>ATOM
  1 O       -1.1040    -0.0880     0.5600 O.3   1 <1>  -0.5600 
  2 C       -2.1940    -0.2180     1.4380 C.3   1 <1>   0.1200 
  3 C       -1.2350    -0.7320    -0.6760 C.3   1 <1>   0.1200 
  4 C       -3.3050     0.8040     1.0890 C.3   1 <1>   0.4230 
  5 C       -2.5220    -0.3410    -1.4400 C.3   1 <1>  -0.0800 
  6 N       -2.8200     1.7350     0.0040 N.4   1 <1>  -0.9590 
  7 C       -4.6680     0.1230     0.8050 C.3   1 <1>   0.1100 
  8 C       -3.7230    -1.2390    -1.0760 C.3   1 <1>   0.1100 
  9 C       -2.8650     1.1600    -1.3800 C.3   1 <1>   0.3430 
 10 C       -3.4630     3.0750     0.0590 C.3   1 <1>   0.2630 
 11 N       -4.8680    -0.4740    -0.5450 N.3   1 <1>  -0.8100 
 12 C       -6.1140    -1.2860    -0.5830 C.3   1 <1>   0.2900 
 13 C       -6.1300    -2.5710     0.2650 C.2   1 <1>   0.0060 
 14 N       -5.1920    -2.9780     1.0710 N.2   1 <1>  -0.5650 
 15 N       -7.1960    -3.4140     0.2290 N.pl3 1 <1>   0.0480 
 16 C       -5.6640    -4.1300     1.5770 C.2   1 <1>   0.0770 
 17 C       -6.8830    -4.4100     1.0760 C.2   1 <1>  -0.3020 
 18 C       -8.4540    -3.3180    -0.5460 C.3   1 <1>   0.0960 
 19 C       -9.5010    -2.5050     0.2210 C.3   1 <1>  -0.2400 
 20 H       -2.5510    -1.2340     1.4310 H     1 <1>   0.0800 
 21 H       -1.8290    -0.0130     2.4290 H     1 <1>   0.0800 
 22 H       -0.3720    -0.4530    -1.2570 H     1 <1>   0.0800 
 23 H       -1.1880    -1.7960    -0.5110 H     1 <1>   0.0800 
 24 H       -3.4490     1.3830     1.9850 H     1 <1>   0.0800 
 25 H       -2.3200    -0.5620    -2.4720 H     1 <1>   0.0800 
 26 H       -1.8090     1.7940     0.2160 H     1 <1>   0.4500 
 27 H       -5.4380     0.8590     0.9540 H     1 <1>   0.0800 
 28 H       -4.8170    -0.6190     1.5670 H     1 <1>   0.0800 
 29 H       -3.4260    -2.0070    -0.3840 H     1 <1>   0.0800 
 30 H       -4.0400    -1.7450    -1.9740 H     1 <1>   0.0800 
 31 H       -3.8510     1.2970    -1.7940 H     1 <1>   0.0800 
 32 H       -2.1720     1.6990    -2.0030 H     1 <1>   0.0800 
 33 H       -4.5150     2.9890    -0.1600 H     1 <1>   0.0800 
 34 H       -3.0120     3.7350    -0.6650 H     1 <1>   0.0800 
 35 H       -3.3450     3.5070     1.0390 H     1 <1>   0.0800 
 36 H       -6.9340    -0.6640    -0.2670 H     1 <1>   0.0800 
 37 H       -6.3030    -1.5580    -1.6060 H     1 <1>   0.0800 
 38 H       -5.0950    -4.7080     2.2870 H     1 <1>   0.1500 
 39 H       -7.5280    -5.2460     1.2750 H     1 <1>   0.1500 
 40 H       -8.2520    -2.8650    -1.4990 H     1 <1>   0.0800 
 41 H       -8.8230    -4.3140    -0.7210 H     1 <1>   0.0800 
 42 H       -9.1540    -1.5020     0.3930 H     1 <1>   0.0800 
 43 H       -9.7150    -2.9720     1.1660 H     1 <1>   0.0800 
 44 H      -10.4120    -2.4570    -0.3480 H     1 <1>   0.0800 
@<TRIPOS>BOND
  1   1   2  1   
  2   1   3  1   
  3   2   4  1   
  4   2  20  1   
  5   2  21  1   
  6   3   5  1   
  7   3  22  1   
  8   3  23  1   
  9   4   6  1   
 10   4   7  1   
 11   4  24  1   
 12   5   8  1   
 13   5   9  1   
 14   5  25  1   
 15   6   9  1   
 16   6  10  1   
 17   6  26  1   
 18   7  11  1   
 19   7  27  1   
 20   7  28  1   
 21   8  11  1   
 22   8  29  1   
 23   8  30  1   
 24   9  31  1   
 25   9  32  1   
 26  10  33  1   
 27  10  34  1   
 28  10  35  1   
 29  11  12  1   
 30  12  13  1   
 31  12  36  1   
 32  12  37  1   
 33  13  14  2   
 34  13  15  1   
 35  14  16  1   
 36  15  17  1   
 37  15  18  1   
 38  16  17  2   
 39  16  38  1   
 40  17  39  1   
 41  18  19  1   
 42  18  40  1   
 43  18  41  1   
 44  19  42  1   
 45  19  43  1   
 46  19  44  1   
@<TRIPOS>SUBSTRUCTURE
  1 ****  11 GROUP 4 **** **** 0

# MOE 2024.06 (io_trps.svl 2023.06)
