@<TRIPOS>MOLECULE
NONAME
44 47 1 0 0 
SMALL
USER_CHARGES


@<TRIPOS>ATOM
  1 O       -0.8630     0.6120     1.4270 O.2   1 <1>  -0.5700 
  2 C       -1.7580     1.1730     0.8130 C.2   1 <1>   0.7160 
  3 N       -2.8380     0.3970     0.4340 N.am  1 <1>  -0.6600 
  4 C       -1.6330     2.6020     0.5120 C.2   1 <1>   0.2030 
  5 C       -4.0370     0.8540    -0.3120 C.3   1 <1>   0.1400 
  6 C       -2.9400    -1.0530     0.7100 C.3   1 <1>   0.1400 
  7 N       -2.4360     3.3450    -0.2480 N.2   1 <1>  -0.7070 
  8 C       -0.5870     3.3800     1.0150 C.2   1 <1>  -0.1500 
  9 C       -4.9480    -0.3760    -0.4370 C.3   1 <1>   0.2000 
 10 C       -3.9880    -1.5610    -0.2830 C.3   1 <1>  -0.0800 
 11 N       -1.9030     4.5780    -0.2230 N.pl3 1 <1>   0.6010 
 12 C       -0.7670     4.6350     0.5430 C.2   1 <1>  -0.0260 
 13 O       -5.8690    -0.4070     0.6180 O.3   1 <1>  -0.5600 
 14 C       -4.6560    -2.8790     0.1490 C.3   1 <1>   0.0200 
 15 C       -2.3510     5.7220    -0.8520 C.2   1 <1>  -0.1810 
 16 N       -0.0300     5.7880     0.7280 N.2   1 <1>  -0.5760 
 17 C       -7.0190     0.3570     0.4250 C.3   1 <1>   0.0400 
 18 C       -3.7080    -4.0660     0.1230 C.2   1 <1>  -0.0400 
 19 C       -1.6370     6.8650    -0.6800 C.2   1 <1>  -0.1360 
 20 C       -0.4650     6.8480     0.1320 C.2   1 <1>   0.3760 
 21 O       -4.1350    -5.2190     0.5660 O.3   1 <1>  -0.0190 
 22 C       -2.4370    -4.2310    -0.2800 C.2   1 <1>  -0.1500 
 23 N       -3.2220    -6.1430     0.4830 N.2   1 <1>  -0.4100 
 24 C       -2.1870    -5.5760    -0.0230 C.2   1 <1>   0.1080 
 25 C       -0.8780    -6.2820    -0.2970 C.3   1 <1>  -0.0590 
 26 H       -4.5230     1.6630     0.2050 H     1 <1>   0.0800 
 27 H       -3.7300     1.1830    -1.2890 H     1 <1>   0.0800 
 28 H       -1.9890    -1.5400     0.5820 H     1 <1>   0.0800 
 29 H       -3.2800    -1.1880     1.7230 H     1 <1>   0.0800 
 30 H        0.2060     3.0360     1.6550 H     1 <1>   0.1500 
 31 H       -5.4790    -0.4070    -1.3730 H     1 <1>   0.0800 
 32 H       -3.5000    -1.7110    -1.2290 H     1 <1>   0.0800 
 33 H       -5.4820    -3.0910    -0.5060 H     1 <1>   0.0800 
 34 H       -5.0500    -2.7780     1.1460 H     1 <1>   0.0800 
 35 H       -3.2430     5.6270    -1.4410 H     1 <1>   0.1500 
 36 H       -7.6370     0.2530     1.3000 H     1 <1>   0.0800 
 37 H       -7.5490    -0.0100    -0.4360 H     1 <1>   0.0800 
 38 H       -6.7510     1.3900     0.2950 H     1 <1>   0.0800 
 39 H       -1.9200     7.7970    -1.1360 H     1 <1>   0.1500 
 40 H        0.0750     7.7720     0.2450 H     1 <1>   0.0600 
 41 H       -1.7430    -3.5310    -0.7050 H     1 <1>   0.1500 
 42 H       -0.6370    -6.2120    -1.3410 H     1 <1>   0.0800 
 43 H       -0.9590    -7.3200    -0.0270 H     1 <1>   0.0800 
 44 H       -0.0930    -5.8320     0.2820 H     1 <1>   0.0800 
@<TRIPOS>BOND
  1   1   2  2   
  2   2   3  am  
  3   2   4  1   
  4   3   5  1   
  5   3   6  1   
  6   4   7  2   
  7   4   8  1   
  8   5   9  1   
  9   5  26  1   
 10   5  27  1   
 11   6  10  1   
 12   6  28  1   
 13   6  29  1   
 14   7  11  1   
 15   8  12  2   
 16   8  30  1   
 17   9  10  1   
 18   9  13  1   
 19   9  31  1   
 20  10  14  1   
 21  10  32  1   
 22  11  12  1   
 23  11  15  1   
 24  12  16  1   
 25  13  17  1   
 26  14  18  1   
 27  14  33  1   
 28  14  34  1   
 29  15  19  2   
 30  15  35  1   
 31  16  20  2   
 32  17  36  1   
 33  17  37  1   
 34  17  38  1   
 35  18  21  1   
 36  18  22  2   
 37  19  20  1   
 38  19  39  1   
 39  20  40  1   
 40  21  23  1   
 41  22  24  1   
 42  22  41  1   
 43  23  24  2   
 44  24  25  1   
 45  25  42  1   
 46  25  43  1   
 47  25  44  1   
@<TRIPOS>SUBSTRUCTURE
  1 ****   3 GROUP 4 **** **** 0

# MOE 2024.06 (io_trps.svl 2023.06)
