@<TRIPOS>MOLECULE
NONAME
43 44 1 0 0 
SMALL
USER_CHARGES


@<TRIPOS>ATOM
  1 O       -0.8000     0.8860    -2.2610 O.co2 1 <1>  -0.9000 
  2 C       -1.0530     0.8810    -1.0510 C.2   1 <1>   0.9060 
  3 O       -1.7190    -0.0360    -0.5410 O.co2 1 <1>  -0.9000 
  4 C       -0.5610     2.0170    -0.1440 C.3   1 <1>  -0.1060 
  5 C       -1.8090     2.4960     0.6360 C.3   1 <1>   0.2000 
  6 C       -0.0870     3.1730    -1.0540 C.3   1 <1>   0.2090 
  7 C        0.6190     1.4290     0.7010 C.3   1 <1>  -0.1600 
  8 O       -2.1750     1.5510     1.5740 O.3   1 <1>  -0.6800 
  9 C       -1.6940     3.8580     1.3210 C.3   1 <1>  -0.1600 
 10 N        0.0250     4.4880    -0.3310 N.pl3 1 <1>  -0.8380 
 11 C        1.2130     2.2750     1.8380 C.3   1 <1>  -0.1600 
 12 C       -1.2340     4.9230     0.3300 C.3   1 <1>   0.2090 
 13 C        1.1210     5.3180    -0.4710 C.ar  1 <1>   0.7200 
 14 C        2.4840     1.6280     2.3950 C.3   1 <1>  -0.2400 
 15 N        2.2590     4.7670    -0.8890 N.ar  1 <1>  -0.6200 
 16 N        0.9530     6.6080    -0.1740 N.ar  1 <1>  -0.6200 
 17 C        3.2900     5.5640    -1.0100 C.ar  1 <1>   0.1600 
 18 C        2.0020     7.3810    -0.3060 C.ar  1 <1>   0.1600 
 19 C        3.2220     6.9080    -0.7290 C.ar  1 <1>  -0.1440 
 20 C        4.4290     7.8200    -0.8780 C.3   1 <1>  -0.0170 
 21 C        5.2280     7.8720     0.4260 C.3   1 <1>  -0.2400 
 22 H       -2.6260     2.5560    -0.0640 H     1 <1>   0.0800 
 23 H       -0.7990     3.3060    -1.8510 H     1 <1>   0.0800 
 24 H        0.8420     2.8940    -1.5190 H     1 <1>   0.0800 
 25 H        0.2920     0.4980     1.1310 H     1 <1>   0.0800 
 26 H        1.4090     1.1830     0.0130 H     1 <1>   0.0800 
 27 H       -2.1510     0.6850     1.0780 H     1 <1>   0.4000 
 28 H       -2.6550     4.1370     1.7090 H     1 <1>   0.0800 
 29 H       -1.0050     3.8270     2.1380 H     1 <1>   0.0800 
 30 H        1.4520     3.2610     1.4870 H     1 <1>   0.0800 
 31 H        0.4950     2.3530     2.6330 H     1 <1>   0.0800 
 32 H       -1.0990     5.8500     0.8590 H     1 <1>   0.0800 
 33 H       -1.9870     5.0730    -0.4250 H     1 <1>   0.0800 
 34 H        3.2330     1.5600     1.6260 H     1 <1>   0.0800 
 35 H        2.2690     0.6400     2.7620 H     1 <1>   0.0800 
 36 H        2.8730     2.2210     3.2030 H     1 <1>   0.0800 
 37 H        4.2160     5.1290    -1.3440 H     1 <1>   0.1500 
 38 H        1.8850     8.4240    -0.0680 H     1 <1>   0.1500 
 39 H        5.0600     7.4600    -1.6730 H     1 <1>   0.0800 
 40 H        4.1050     8.8120    -1.1420 H     1 <1>   0.0800 
 41 H        5.5740     6.8880     0.6920 H     1 <1>   0.0800 
 42 H        4.6130     8.2460     1.2260 H     1 <1>   0.0800 
 43 H        6.0800     8.5190     0.3140 H     1 <1>   0.0800 
@<TRIPOS>BOND
  1   1   2  ar  
  2   2   3  ar  
  3   2   4  1   
  4   4   5  1   
  5   4   6  1   
  6   4   7  1   
  7   5   8  1   
  8   5   9  1   
  9   5  22  1   
 10   6  10  1   
 11   6  23  1   
 12   6  24  1   
 13   7  11  1   
 14   7  25  1   
 15   7  26  1   
 16   8  27  1   
 17   9  12  1   
 18   9  28  1   
 19   9  29  1   
 20  10  12  1   
 21  10  13  1   
 22  11  14  1   
 23  11  30  1   
 24  11  31  1   
 25  12  32  1   
 26  12  33  1   
 27  13  15  ar  
 28  13  16  ar  
 29  14  34  1   
 30  14  35  1   
 31  14  36  1   
 32  15  17  ar  
 33  16  18  ar  
 34  17  19  ar  
 35  17  37  1   
 36  18  19  ar  
 37  18  38  1   
 38  19  20  1   
 39  20  21  1   
 40  20  39  1   
 41  20  40  1   
 42  21  41  1   
 43  21  42  1   
 44  21  43  1   
@<TRIPOS>SUBSTRUCTURE
  1 ****  10 GROUP 4 **** **** 0

# MOE 2024.06 (io_trps.svl 2023.06)
