@<TRIPOS>MOLECULE
NONAME
39 41 1 0 0 
SMALL
USER_CHARGES


@<TRIPOS>ATOM
  1 O       -0.5270     0.1510     0.3150 O.2   1 <1>  -0.5700 
  2 C       -1.4930     0.8940     0.2970 C.2   1 <1>   0.5440 
  3 N       -2.7470     0.3630     0.4780 N.am  1 <1>  -0.6600 
  4 C       -1.2710     2.3170     0.1100 C.ar  1 <1>   0.0860 
  5 C       -4.0240     1.0730     0.4820 C.3   1 <1>   0.2350 
  6 C       -3.0410    -1.0630     0.6150 C.3   1 <1>   0.2350 
  7 C       -0.4690     2.7770    -0.9310 C.ar  1 <1>  -0.1500 
  8 C       -1.8140     3.2760     0.9640 C.ar  1 <1>  -0.1500 
  9 C       -5.0860     0.1450    -0.0990 C.3   1 <1>  -0.2420 
 10 C       -4.4160    -1.3200    -0.0100 C.3   1 <1>  -0.2420 
 11 C       -0.2190     4.1220    -1.1340 C.ar  1 <1>   0.0820 
 12 C       -1.5960     4.6280     0.7700 C.ar  1 <1>  -0.1500 
 13 C       -6.1490     1.1960    -0.4280 C.2   1 <1>   0.9470 
 14 C       -5.7830    -1.0820    -0.4800 C.3   1 <1>  -0.2000 
 15 C       -4.3190    -2.8370    -0.1950 C.2   1 <1>   0.9470 
 16 O        0.6010     4.4150    -2.1820 O.3   1 <1>  -0.3630 
 17 C       -0.8080     5.0750    -0.2870 C.ar  1 <1>   0.0820 
 18 O       -6.2320     1.6580    -1.5730 O.co2 1 <1>  -0.9000 
 19 O       -6.8370     1.6460     0.4990 O.co2 1 <1>  -0.9000 
 20 O       -4.0140    -3.3130    -1.2960 O.co2 1 <1>  -0.9000 
 21 O       -4.4890    -3.5620     0.7950 O.co2 1 <1>  -0.9000 
 22 C        1.5570     5.4460    -2.0690 C.3   1 <1>   0.0400 
 23 O       -0.6220     6.4030    -0.5150 O.3   1 <1>  -0.3630 
 24 C       -1.5080     7.3720     0.0010 C.3   1 <1>   0.0400 
 25 H       -4.2850     1.2890     1.5040 H     1 <1>   0.0800 
 26 H       -3.9610     1.9970    -0.0700 H     1 <1>   0.0800 
 27 H       -2.2700    -1.6650     0.1600 H     1 <1>   0.0800 
 28 H       -3.0880    -1.2970     1.6640 H     1 <1>   0.0800 
 29 H       -0.0270     2.0560    -1.5960 H     1 <1>   0.1500 
 30 H       -2.4190     2.9500     1.7920 H     1 <1>   0.1500 
 31 H       -2.0490     5.3180     1.4560 H     1 <1>   0.1500 
 32 H       -5.9970    -1.2430    -1.5230 H     1 <1>   0.1000 
 33 H       -6.5950    -1.4170     0.1420 H     1 <1>   0.1000 
 34 H        2.3390     5.2570    -2.7810 H     1 <1>   0.0800 
 35 H        1.9590     5.4470    -1.0710 H     1 <1>   0.0800 
 36 H        1.0840     6.3840    -2.2910 H     1 <1>   0.0800 
 37 H       -1.2750     8.3160    -0.4560 H     1 <1>   0.0800 
 38 H       -1.3720     7.4390     1.0660 H     1 <1>   0.0800 
 39 H       -2.5170     7.0870    -0.2430 H     1 <1>   0.0800 
@<TRIPOS>BOND
  1   1   2  2   
  2   2   3  am  
  3   2   4  1   
  4   3   5  1   
  5   3   6  1   
  6   4   7  ar  
  7   4   8  ar  
  8   5   9  1   
  9   5  25  1   
 10   5  26  1   
 11   6  10  1   
 12   6  27  1   
 13   6  28  1   
 14   7  11  ar  
 15   7  29  1   
 16   8  12  ar  
 17   8  30  1   
 18   9  10  1   
 19   9  13  1   
 20   9  14  1   
 21  10  14  1   
 22  10  15  1   
 23  11  16  1   
 24  11  17  ar  
 25  12  17  ar  
 26  12  31  1   
 27  13  18  ar  
 28  13  19  ar  
 29  14  32  1   
 30  14  33  1   
 31  15  20  ar  
 32  15  21  ar  
 33  16  22  1   
 34  17  23  1   
 35  22  34  1   
 36  22  35  1   
 37  22  36  1   
 38  23  24  1   
 39  24  37  1   
 40  24  38  1   
 41  24  39  1   
@<TRIPOS>SUBSTRUCTURE
  1 ****   3 GROUP 4 **** **** 0

# MOE 2024.06 (io_trps.svl 2023.06)
