@<TRIPOS>MOLECULE
NONAME
42 44 1 0 0 
SMALL
USER_CHARGES


@<TRIPOS>ATOM
  1 F       -0.3770    -0.0520    -0.0050 F     1 <1>  -0.1900 
  2 C       -1.1080     1.0130    -0.2580 C.ar  1 <1>   0.1900 
  3 C       -0.5700     2.2910    -0.1010 C.ar  1 <1>   0.4100 
  4 C       -2.4130     0.8730    -0.6650 C.ar  1 <1>   0.1660 
  5 N       -1.3180     3.3570    -0.3390 N.ar  1 <1>  -0.6200 
  6 N        0.7340     2.5580     0.2910 N.pl3 1 <1>  -0.8380 
  7 N       -3.1550     1.9430    -0.9040 N.ar  1 <1>  -0.6200 
  8 C       -3.0780    -0.4850    -0.8580 C.3   1 <1>  -0.0170 
  9 C       -2.5640     3.1110    -0.7210 C.ar  1 <1>   0.4700 
 10 C        1.0080     3.4930     1.4300 C.3   1 <1>   0.2090 
 11 C        1.9010     1.8600    -0.3200 C.3   1 <1>   0.2090 
 12 C       -3.9380    -0.8650     0.3520 C.3   1 <1>  -0.2400 
 13 C        1.9780     4.6740     1.1250 C.3   1 <1>   0.4230 
 14 C        2.8430     2.8670    -1.0100 C.3   1 <1>  -0.0800 
 15 N        1.9840     5.1970    -0.3030 N.4   1 <1>  -0.9590 
 16 C        3.4140     4.3790     1.6110 C.3   1 <1>   0.1200 
 17 C        4.1590     3.0930    -0.2490 C.3   1 <1>   0.1200 
 18 C        2.1070     4.1620    -1.3890 C.3   1 <1>   0.3430 
 19 C        0.7440     5.9900    -0.5540 C.3   1 <1>   0.2630 
 20 O        3.9340     3.1830     1.1190 O.3   1 <1>  -0.5600 
 21 H       -3.6970    -0.4460    -1.7370 H     1 <1>   0.0800 
 22 H       -2.3360    -1.2460    -1.0210 H     1 <1>   0.0800 
 23 H       -3.1790     3.9750    -0.9100 H     1 <1>   0.1500 
 24 H        0.0750     3.9100     1.7690 H     1 <1>   0.0800 
 25 H        1.3960     2.9200     2.2550 H     1 <1>   0.0800 
 26 H        2.4210     1.2900     0.4330 H     1 <1>   0.0800 
 27 H        1.5460     1.1640    -1.0600 H     1 <1>   0.0800 
 28 H       -4.7040    -0.1260     0.5080 H     1 <1>   0.0800 
 29 H       -3.3300    -0.9250     1.2380 H     1 <1>   0.0800 
 30 H       -4.4070    -1.8190     0.1890 H     1 <1>   0.0800 
 31 H        1.6470     5.4850     1.7510 H     1 <1>   0.0800 
 32 H        3.1240     2.4100    -1.9420 H     1 <1>   0.0800 
 33 H        2.7930     5.8230    -0.3870 H     1 <1>   0.4500 
 34 H        3.4050     4.2840     2.6830 H     1 <1>   0.0800 
 35 H        4.0860     5.1800     1.3590 H     1 <1>   0.0800 
 36 H        4.6860     3.9690    -0.5880 H     1 <1>   0.0800 
 37 H        4.8010     2.2400    -0.3930 H     1 <1>   0.0800 
 38 H        1.1170     3.8830    -1.7160 H     1 <1>   0.0800 
 39 H        2.6040     4.6080    -2.2340 H     1 <1>   0.0800 
 40 H       -0.1240     5.3590    -0.4610 H     1 <1>   0.0800 
 41 H        0.7580     6.4060    -1.5480 H     1 <1>   0.0800 
 42 H        0.6600     6.7970     0.1560 H     1 <1>   0.0800 
@<TRIPOS>BOND
  1   1   2  1   
  2   2   3  ar  
  3   2   4  ar  
  4   3   5  ar  
  5   3   6  1   
  6   4   7  ar  
  7   4   8  1   
  8   5   9  ar  
  9   6  10  1   
 10   6  11  1   
 11   7   9  ar  
 12   8  12  1   
 13   8  21  1   
 14   8  22  1   
 15   9  23  1   
 16  10  13  1   
 17  10  24  1   
 18  10  25  1   
 19  11  14  1   
 20  11  26  1   
 21  11  27  1   
 22  12  28  1   
 23  12  29  1   
 24  12  30  1   
 25  13  15  1   
 26  13  16  1   
 27  13  31  1   
 28  14  17  1   
 29  14  18  1   
 30  14  32  1   
 31  15  18  1   
 32  15  19  1   
 33  15  33  1   
 34  16  20  1   
 35  16  34  1   
 36  16  35  1   
 37  17  20  1   
 38  17  36  1   
 39  17  37  1   
 40  18  38  1   
 41  18  39  1   
 42  19  40  1   
 43  19  41  1   
 44  19  42  1   
@<TRIPOS>SUBSTRUCTURE
  1 ****   6 GROUP 4 **** **** 0

# MOE 2024.06 (io_trps.svl 2023.06)
