@<TRIPOS>MOLECULE
NONAME
60 64 1 0 0 
SMALL
USER_CHARGES


@<TRIPOS>ATOM
  1 O        0.6280     0.3720    -0.4380 O.2   1 <1>  -0.5700 
  2 C       -0.1030     1.3390    -0.5370 C.2   1 <1>   0.5440 
  3 N       -1.4720     1.1620    -0.4780 N.am  1 <1>  -0.6600 
  4 C        0.4740     2.6460    -0.6960 C.ar  1 <1>   0.0860 
  5 C       -2.4680     2.2840    -0.5150 C.3   1 <1>   0.1400 
  6 C       -2.0920    -0.1780    -0.2710 C.3   1 <1>   0.1400 
  7 C        1.1560     3.3310     0.3010 C.ar  1 <1>   0.1660 
  8 C        0.3420     3.3220    -1.8930 C.ar  1 <1>   0.1600 
  9 C       -3.2940     2.3360     0.7830 C.3   1 <1>   0.1440 
 10 C       -2.9260    -0.1750     1.0180 C.3   1 <1>  -0.1600 
 11 N        1.5880     4.5550     0.1340 N.ar  1 <1>  -0.6200 
 12 C        1.4520     2.7240     1.6630 C.3   1 <1>  -0.0960 
 13 N        0.7690     4.5440    -2.0850 N.ar  1 <1>  -0.6200 
 14 C       -4.2910     3.4720     0.6540 C.ar  1 <1>   0.1670 
 15 C       -3.9600     0.9660     1.0320 C.3   1 <1>  -0.1600 
 16 C       -2.4340     2.7970     1.9900 C.3   1 <1>  -0.1600 
 17 C        1.3760     5.1260    -1.0520 C.ar  1 <1>   0.7200 
 18 N       -5.3840     3.4480    -0.0700 N.ar  1 <1>  -0.6200 
 19 C       -3.9010     4.5610     1.3710 C.ar  1 <1>  -0.1440 
 20 C       -2.5970     4.3230     2.0920 C.3   1 <1>  -0.0170 
 21 N        1.8140     6.4190    -1.2200 N.pl3 1 <1>  -0.8380 
 22 C       -6.1210     4.5680    -0.0530 C.ar  1 <1>   0.6200 
 23 C       -4.7050     5.6700     1.3340 C.ar  1 <1>   0.1600 
 24 C        1.4360     7.2420    -2.4030 C.3   1 <1>   0.1290 
 25 C        2.7580     7.0710    -0.2690 C.3   1 <1>   0.1290 
 26 N       -5.8140     5.6810     0.6290 N.ar  1 <1>  -0.6200 
 27 C       -7.3480     4.5750    -0.8390 C.ar  1 <1>   0.0000 
 28 C       -7.5000     3.7700    -1.9720 C.ar  1 <1>  -0.1500 
 29 C       -8.4330     5.3880    -0.4970 C.ar  1 <1>  -0.1500 
 30 C       -8.6630     3.7740    -2.7200 C.ar  1 <1>  -0.1500 
 31 C       -9.6000     5.3980    -1.2400 C.ar  1 <1>  -0.1500 
 32 C       -9.7180     4.5900    -2.3550 C.ar  1 <1>  -0.1500 
 33 H       -3.1330     2.1250    -1.3460 H     1 <1>   0.0800 
 34 H       -1.9890     3.2340    -0.6620 H     1 <1>   0.0800 
 35 H       -1.3390    -0.9460    -0.2110 H     1 <1>   0.0800 
 36 H       -2.7240    -0.4030    -1.1140 H     1 <1>   0.0800 
 37 H       -0.1480     2.8270    -2.7140 H     1 <1>   0.1500 
 38 H       -2.2620    -0.0840     1.8590 H     1 <1>   0.0800 
 39 H       -3.4340    -1.1190     1.1090 H     1 <1>   0.0800 
 40 H        1.0120     1.7530     1.7880 H     1 <1>   0.0800 
 41 H        1.0810     3.3730     2.4350 H     1 <1>   0.0800 
 42 H        2.5160     2.6300     1.7810 H     1 <1>   0.0800 
 43 H       -4.6840     0.7860     0.2550 H     1 <1>   0.0800 
 44 H       -4.4910     0.9760     1.9680 H     1 <1>   0.0800 
 45 H       -1.4050     2.5080     1.9020 H     1 <1>   0.0800 
 46 H       -2.8280     2.3620     2.8920 H     1 <1>   0.0800 
 47 H       -1.7980     4.8280     1.5750 H     1 <1>   0.0800 
 48 H       -2.6370     4.6510     3.1160 H     1 <1>   0.0800 
 49 H       -4.4390     6.5560     1.8840 H     1 <1>   0.1500 
 50 H        0.4730     6.9450    -2.7810 H     1 <1>   0.0800 
 51 H        2.1700     7.1150    -3.1800 H     1 <1>   0.0800 
 52 H        1.3830     8.2810    -2.1290 H     1 <1>   0.0800 
 53 H        3.3480     6.3340     0.2480 H     1 <1>   0.0800 
 54 H        2.2020     7.6430     0.4530 H     1 <1>   0.0800 
 55 H        3.4280     7.7230    -0.8010 H     1 <1>   0.0800 
 56 H       -6.6910     3.1280    -2.2740 H     1 <1>   0.1500 
 57 H       -8.3620     6.0240     0.3680 H     1 <1>   0.1500 
 58 H       -8.7480     3.1420    -3.5870 H     1 <1>   0.1500 
 59 H      -10.4170     6.0360    -0.9500 H     1 <1>   0.1500 
 60 H      -10.6240     4.5960    -2.9350 H     1 <1>   0.1500 
@<TRIPOS>BOND
  1   1   2  2   
  2   2   3  am  
  3   2   4  1   
  4   3   5  1   
  5   3   6  1   
  6   4   7  ar  
  7   4   8  ar  
  8   5   9  1   
  9   5  33  1   
 10   5  34  1   
 11   6  10  1   
 12   6  35  1   
 13   6  36  1   
 14   7  11  ar  
 15   7  12  1   
 16   8  13  ar  
 17   8  37  1   
 18   9  14  1   
 19   9  15  1   
 20   9  16  1   
 21  10  15  1   
 22  10  38  1   
 23  10  39  1   
 24  11  17  ar  
 25  12  40  1   
 26  12  41  1   
 27  12  42  1   
 28  13  17  ar  
 29  14  18  ar  
 30  14  19  ar  
 31  15  43  1   
 32  15  44  1   
 33  16  20  1   
 34  16  45  1   
 35  16  46  1   
 36  17  21  1   
 37  18  22  ar  
 38  19  20  1   
 39  19  23  ar  
 40  20  47  1   
 41  20  48  1   
 42  21  24  1   
 43  21  25  1   
 44  22  26  ar  
 45  22  27  1   
 46  23  26  ar  
 47  23  49  1   
 48  24  50  1   
 49  24  51  1   
 50  24  52  1   
 51  25  53  1   
 52  25  54  1   
 53  25  55  1   
 54  27  28  ar  
 55  27  29  ar  
 56  28  30  ar  
 57  28  56  1   
 58  29  31  ar  
 59  29  57  1   
 60  30  32  ar  
 61  30  58  1   
 62  31  32  ar  
 63  31  59  1   
 64  32  60  1   
@<TRIPOS>SUBSTRUCTURE
  1 ****   5 GROUP 4 **** **** 0

# MOE 2024.06 (io_trps.svl 2023.06)
