@<TRIPOS>MOLECULE
NONAME
46 49 1 0 0 
SMALL
USER_CHARGES


@<TRIPOS>ATOM
  1 O       -2.1660    -0.1570    -2.6920 O.2   1 <1>  -0.5700 
  2 C       -2.2760    -0.6680    -1.6120 C.2   1 <1>   0.5690 
  3 N       -2.1840     0.0760    -0.4960 N.am  1 <1>  -0.7300 
  4 C       -2.5600    -2.1420    -1.5100 C.3   1 <1>  -0.0190 
  5 C       -2.3070    -0.4280     0.8910 C.3   1 <1>   0.2200 
  6 C       -1.4380    -2.8910    -0.7560 C.3   1 <1>   0.1200 
  7 C       -3.9890    -2.3240    -0.9810 C.3   1 <1>   0.3430 
  8 C       -1.2140    -1.4880     1.1780 C.3   1 <1>   0.1200 
  9 C       -3.7530    -0.9340     1.1600 C.3   1 <1>   0.3430 
 10 O       -1.5180    -2.7500     0.6380 O.3   1 <1>  -0.5600 
 11 N       -4.1010    -2.2510     0.5160 N.4   1 <1>  -0.9590 
 12 C       -5.3770    -2.8250     1.0230 C.3   1 <1>   0.4860 
 13 C       -5.4650    -4.2700     0.5680 C.ar  1 <1>  -0.1430 
 14 C       -6.4290    -4.6960    -0.3450 C.ar  1 <1>  -0.1430 
 15 C       -4.5390    -5.1780     1.0690 C.ar  1 <1>  -0.1500 
 16 C       -6.4450    -6.0230    -0.7510 C.ar  1 <1>  -0.1500 
 17 C       -7.4810    -3.7520    -0.9150 C.3   1 <1>  -0.0970 
 18 C       -4.5560    -6.4960     0.6540 C.ar  1 <1>   0.0820 
 19 C       -5.5200    -6.9230    -0.2560 C.ar  1 <1>   0.0820 
 20 O       -3.6190    -7.3460     1.1440 O.3   1 <1>  -0.3630 
 21 O       -5.5730    -8.2150    -0.6660 O.3   1 <1>  -0.3620 
 22 C       -3.4810    -8.5970     0.4930 C.3   1 <1>   0.1200 
 23 C       -4.8570    -9.1590     0.1080 C.3   1 <1>   0.1200 
 24 H       -1.9330     1.0620    -0.6340 H     1 <1>   0.3700 
 25 H       -2.5530    -2.5110    -2.5200 H     1 <1>   0.0800 
 26 H       -2.1250     0.4090     1.5430 H     1 <1>   0.0800 
 27 H       -0.4660    -2.5580    -1.0840 H     1 <1>   0.0800 
 28 H       -1.5130    -3.9450    -0.9640 H     1 <1>   0.0800 
 29 H       -4.3260    -3.2950    -1.3070 H     1 <1>   0.0800 
 30 H       -4.6340    -1.5890    -1.4350 H     1 <1>   0.0800 
 31 H       -1.1260    -1.6250     2.2420 H     1 <1>   0.0800 
 32 H       -0.2550    -1.1670     0.8070 H     1 <1>   0.0800 
 33 H       -4.4480    -0.1760     0.8380 H     1 <1>   0.0800 
 34 H       -3.8630    -1.0400     2.2270 H     1 <1>   0.0800 
 35 H       -3.3480    -2.8970     0.8290 H     1 <1>   0.4500 
 36 H       -5.3950    -2.7950     2.1000 H     1 <1>   0.0800 
 37 H       -6.2130    -2.2580     0.6510 H     1 <1>   0.0800 
 38 H       -3.7870    -4.8890     1.7820 H     1 <1>   0.1500 
 39 H       -7.1780    -6.3820    -1.4520 H     1 <1>   0.1500 
 40 H       -8.1270    -4.2710    -1.6010 H     1 <1>   0.0800 
 41 H       -7.0180    -2.9420    -1.4480 H     1 <1>   0.0800 
 42 H       -8.0940    -3.3570    -0.1250 H     1 <1>   0.0800 
 43 H       -2.8780    -8.4520    -0.3860 H     1 <1>   0.0800 
 44 H       -2.9700    -9.2650     1.1640 H     1 <1>   0.0800 
 45 H       -5.4330    -9.3760     0.9900 H     1 <1>   0.0800 
 46 H       -4.7540   -10.0560    -0.4750 H     1 <1>   0.0800 
@<TRIPOS>BOND
  1   1   2  2   
  2   2   3  am  
  3   2   4  1   
  4   3   5  1   
  5   3  24  1   
  6   4   6  1   
  7   4   7  1   
  8   4  25  1   
  9   5   8  1   
 10   5   9  1   
 11   5  26  1   
 12   6  10  1   
 13   6  27  1   
 14   6  28  1   
 15   7  11  1   
 16   7  29  1   
 17   7  30  1   
 18   8  10  1   
 19   8  31  1   
 20   8  32  1   
 21   9  11  1   
 22   9  33  1   
 23   9  34  1   
 24  11  12  1   
 25  11  35  1   
 26  12  13  1   
 27  12  36  1   
 28  12  37  1   
 29  13  14  ar  
 30  13  15  ar  
 31  14  16  ar  
 32  14  17  1   
 33  15  18  ar  
 34  15  38  1   
 35  16  19  ar  
 36  16  39  1   
 37  17  40  1   
 38  17  41  1   
 39  17  42  1   
 40  18  19  ar  
 41  18  20  1   
 42  19  21  1   
 43  20  22  1   
 44  21  23  1   
 45  22  23  1   
 46  22  43  1   
 47  22  44  1   
 48  23  45  1   
 49  23  46  1   
@<TRIPOS>SUBSTRUCTURE
  1 ****  13 GROUP 4 **** **** 0

# MOE 2024.06 (io_trps.svl 2023.06)
