@<TRIPOS>MOLECULE
NONAME
53 56 1 0 0 
SMALL
USER_CHARGES


@<TRIPOS>ATOM
  1 O       -1.8310     1.6130     2.8190 O.2   1 <1>  -0.5700 
  2 C       -2.3620     1.6410     1.7240 C.2   1 <1>   0.5440 
  3 N       -3.4290     0.8040     1.4730 N.am  1 <1>  -0.6600 
  4 C       -1.8620     2.5600     0.7210 C.ar  1 <1>   0.0860 
  5 C       -4.4460     1.0370     0.4130 C.3   1 <1>   0.1400 
  6 C       -3.7050    -0.3940     2.3100 C.3   1 <1>   0.1400 
  7 C       -1.5200     2.1230    -0.5580 C.ar  1 <1>  -0.1500 
  8 C       -1.6970     3.9160     1.0070 C.ar  1 <1>  -0.1500 
  9 C       -4.4930    -0.1730    -0.5210 C.3   1 <1>  -0.1600 
 10 C       -3.7320    -1.6320     1.4090 C.3   1 <1>  -0.1600 
 11 C       -1.0600     3.0110    -1.5090 C.ar  1 <1>   0.0830 
 12 C       -1.2330     4.8110     0.0570 C.ar  1 <1>  -0.1500 
 13 C       -4.7330    -1.4890     0.2480 C.3   1 <1>   0.4240 
 14 O       -0.7480     2.5650    -2.7370 O.3   1 <1>  -0.5320 
 15 C       -0.9110     4.3650    -1.2210 C.ar  1 <1>   0.0830 
 16 O       -5.9800    -1.3530     0.8970 O.3   1 <1>  -0.5600 
 17 C       -4.7010    -2.7370    -0.6820 C.ar  1 <1>  -0.1430 
 18 O       -0.4530     5.1740    -2.2140 O.3   1 <1>  -0.3630 
 19 C       -7.1280    -1.6640     0.1780 C.3   1 <1>   0.1200 
 20 C       -3.5520    -3.1030    -1.3980 C.ar  1 <1>   0.0830 
 21 C       -5.8420    -3.5260    -0.8260 C.ar  1 <1>  -0.1440 
 22 C       -0.2430     6.5520    -1.9970 C.3   1 <1>   0.0400 
 23 C       -7.1200    -3.1590    -0.1010 C.3   1 <1>  -0.0170 
 24 O       -2.4360    -2.3340    -1.2920 O.3   1 <1>  -0.3620 
 25 C       -3.5620    -4.2380    -2.2070 C.ar  1 <1>  -0.1500 
 26 C       -5.8390    -4.6510    -1.6330 C.ar  1 <1>  -0.1500 
 27 C       -1.2990    -2.5160    -2.1060 C.3   1 <1>   0.0400 
 28 C       -4.6990    -5.0090    -2.3230 C.ar  1 <1>  -0.1500 
 29 H       -4.2220     1.9280    -0.1480 H     1 <1>   0.0800 
 30 H       -5.4070     1.1740     0.8790 H     1 <1>   0.0800 
 31 H       -4.6530    -0.2700     2.8050 H     1 <1>   0.0800 
 32 H       -2.9460    -0.5140     3.0640 H     1 <1>   0.0800 
 33 H       -1.6110     1.0820    -0.8070 H     1 <1>   0.1500 
 34 H       -1.9400     4.2620     1.9970 H     1 <1>   0.1500 
 35 H       -3.5620    -0.2140    -1.0460 H     1 <1>   0.0800 
 36 H       -5.2560    -0.0360    -1.2630 H     1 <1>   0.0800 
 37 H       -3.9900    -2.4980     1.9890 H     1 <1>   0.0800 
 38 H       -2.7370    -1.7830     1.0410 H     1 <1>   0.0800 
 39 H       -1.1280     5.8440     0.3320 H     1 <1>   0.1500 
 40 H       -0.4340     3.3160    -3.2810 H     1 <1>   0.4500 
 41 H       -7.1440    -1.0960    -0.7360 H     1 <1>   0.0800 
 42 H       -7.9780    -1.3950     0.7790 H     1 <1>   0.0800 
 43 H        0.1280     6.9830    -2.9100 H     1 <1>   0.0800 
 44 H        0.4840     6.6770    -1.2140 H     1 <1>   0.0800 
 45 H       -1.1790     7.0110    -1.7310 H     1 <1>   0.0800 
 46 H       -7.9760    -3.4100    -0.7000 H     1 <1>   0.0800 
 47 H       -7.1820    -3.6990     0.8270 H     1 <1>   0.0800 
 48 H       -2.6910    -4.5420    -2.7550 H     1 <1>   0.1500 
 49 H       -6.7250    -5.2550    -1.7290 H     1 <1>   0.1500 
 50 H       -0.5990    -1.7310    -1.8810 H     1 <1>   0.0800 
 51 H       -1.5940    -2.4550    -3.1390 H     1 <1>   0.0800 
 52 H       -0.8590    -3.4720    -1.8830 H     1 <1>   0.0800 
 53 H       -4.7000    -5.8850    -2.9470 H     1 <1>   0.1500 
@<TRIPOS>BOND
  1   1   2  2   
  2   2   3  am  
  3   2   4  1   
  4   3   5  1   
  5   3   6  1   
  6   4   7  ar  
  7   4   8  ar  
  8   5   9  1   
  9   5  29  1   
 10   5  30  1   
 11   6  10  1   
 12   6  31  1   
 13   6  32  1   
 14   7  11  ar  
 15   7  33  1   
 16   8  12  ar  
 17   8  34  1   
 18   9  13  1   
 19   9  35  1   
 20   9  36  1   
 21  10  13  1   
 22  10  37  1   
 23  10  38  1   
 24  11  14  1   
 25  11  15  ar  
 26  12  15  ar  
 27  12  39  1   
 28  13  16  1   
 29  13  17  1   
 30  14  40  1   
 31  15  18  1   
 32  16  19  1   
 33  17  20  ar  
 34  17  21  ar  
 35  18  22  1   
 36  19  23  1   
 37  19  41  1   
 38  19  42  1   
 39  20  24  1   
 40  20  25  ar  
 41  21  23  1   
 42  21  26  ar  
 43  22  43  1   
 44  22  44  1   
 45  22  45  1   
 46  23  46  1   
 47  23  47  1   
 48  24  27  1   
 49  25  28  ar  
 50  25  48  1   
 51  26  28  ar  
 52  26  49  1   
 53  27  50  1   
 54  27  51  1   
 55  27  52  1   
 56  28  53  1   
@<TRIPOS>SUBSTRUCTURE
  1 ****   9 GROUP 4 **** **** 0

# MOE 2024.06 (io_trps.svl 2023.06)
