@<TRIPOS>MOLECULE
NONAME
53 57 1 0 0 
SMALL
USER_CHARGES


@<TRIPOS>ATOM
  1 S        0.7280     1.2430    -3.0700 S.3   1 <1>  -0.0800 
  2 C        0.4230     2.4480    -1.8370 C.2   1 <1>  -0.1400 
  3 C        2.4600     1.4980    -2.9170 C.2   1 <1>  -0.1100 
  4 C        1.5580     2.9740    -1.3590 C.2   1 <1>  -0.1810 
  5 C       -0.9660     2.8240    -1.3960 C.3   1 <1>   0.0200 
  6 C        2.7310     2.4320    -1.9840 C.2   1 <1>  -0.1500 
  7 C        1.5300     4.0380    -0.2600 C.3   1 <1>   0.4610 
  8 C       -0.8610     4.1760    -0.6720 C.3   1 <1>   0.1200 
  9 O        0.2130     4.1860     0.2400 O.3   1 <1>  -0.5600 
 10 C        2.3860     3.5970     0.9320 C.3   1 <1>  -0.1600 
 11 C        2.0170     5.3940    -0.7880 C.3   1 <1>  -0.1600 
 12 C        2.4400     4.6750     2.0160 C.3   1 <1>   0.1400 
 13 C        2.0690     6.4440     0.3240 C.3   1 <1>   0.1400 
 14 N        2.9470     5.9490     1.4240 N.am  1 <1>  -0.6600 
 15 C        4.1130     6.5200     1.8950 C.2   1 <1>   0.5690 
 16 O        4.7950     5.9440     2.7100 O.2   1 <1>  -0.5700 
 17 C        4.6300     7.8860     1.4510 C.3   1 <1>  -0.0190 
 18 C        3.6330     9.0090     1.7520 C.3   1 <1>   0.1200 
 19 C        5.1270     7.8990    -0.0020 C.3   1 <1>  -0.0170 
 20 O        4.1880    10.2540     1.3940 O.3   1 <1>  -0.3630 
 21 C        5.2120     9.3120    -0.5570 C.ar  1 <1>  -0.1430 
 22 C        4.7420    10.4110     0.1600 C.ar  1 <1>   0.0830 
 23 C        5.7750     9.5060    -1.8090 C.ar  1 <1>  -0.1500 
 24 C        4.8410    11.6980    -0.3740 C.ar  1 <1>   0.0830 
 25 C        5.8730    10.7780    -2.3440 C.ar  1 <1>  -0.1500 
 26 O        4.3650    12.7400     0.3680 O.3   1 <1>  -0.3630 
 27 C        5.4090    11.8710    -1.6320 C.ar  1 <1>  -0.1500 
 28 C        4.4960    14.0750    -0.0620 C.3   1 <1>   0.0400 
 29 H        3.1010     0.9120    -3.5500 H     1 <1>   0.1500 
 30 H       -1.3560     2.0730    -0.7340 H     1 <1>   0.0800 
 31 H       -1.6190     2.9140    -2.2450 H     1 <1>   0.0800 
 32 H        3.7170     2.7630    -1.7080 H     1 <1>   0.1500 
 33 H       -1.7640     4.3700    -0.1200 H     1 <1>   0.0800 
 34 H       -0.7150     4.9690    -1.3820 H     1 <1>   0.0800 
 35 H        3.3900     3.3920     0.6100 H     1 <1>   0.0800 
 36 H        1.9830     2.6880     1.3390 H     1 <1>   0.0800 
 37 H        1.3820     5.7290    -1.5850 H     1 <1>   0.0800 
 38 H        3.0030     5.2780    -1.1970 H     1 <1>   0.0800 
 39 H        3.0710     4.3400     2.8220 H     1 <1>   0.0800 
 40 H        1.4550     4.8400     2.4190 H     1 <1>   0.0800 
 41 H        1.0790     6.6120     0.7140 H     1 <1>   0.0800 
 42 H        2.4200     7.3680    -0.0890 H     1 <1>   0.0800 
 43 H        5.4860     8.1010     2.0670 H     1 <1>   0.0800 
 44 H        3.4140     9.0430     2.8050 H     1 <1>   0.0800 
 45 H        2.7120     8.9060     1.2120 H     1 <1>   0.0800 
 46 H        4.4840     7.3240    -0.6390 H     1 <1>   0.0800 
 47 H        6.1000     7.4410    -0.0370 H     1 <1>   0.0800 
 48 H        6.1420     8.6670    -2.3730 H     1 <1>   0.1500 
 49 H        6.3120    10.9190    -3.3160 H     1 <1>   0.1500 
 50 H        5.4990    12.8430    -2.0760 H     1 <1>   0.1500 
 51 H        4.0810    14.7110     0.6990 H     1 <1>   0.0800 
 52 H        3.9520    14.2010    -0.9800 H     1 <1>   0.0800 
 53 H        5.5400    14.2970    -0.1950 H     1 <1>   0.0800 
@<TRIPOS>BOND
  1   1   2  1   
  2   1   3  1   
  3   2   4  2   
  4   2   5  1   
  5   3   6  2   
  6   3  29  1   
  7   4   6  1   
  8   4   7  1   
  9   5   8  1   
 10   5  30  1   
 11   5  31  1   
 12   6  32  1   
 13   7   9  1   
 14   7  10  1   
 15   7  11  1   
 16   8   9  1   
 17   8  33  1   
 18   8  34  1   
 19  10  12  1   
 20  10  35  1   
 21  10  36  1   
 22  11  13  1   
 23  11  37  1   
 24  11  38  1   
 25  12  14  1   
 26  12  39  1   
 27  12  40  1   
 28  13  14  1   
 29  13  41  1   
 30  13  42  1   
 31  14  15  am  
 32  15  16  2   
 33  15  17  1   
 34  17  18  1   
 35  17  19  1   
 36  17  43  1   
 37  18  20  1   
 38  18  44  1   
 39  18  45  1   
 40  19  21  1   
 41  19  46  1   
 42  19  47  1   
 43  20  22  1   
 44  21  22  ar  
 45  21  23  ar  
 46  22  24  ar  
 47  23  25  ar  
 48  23  48  1   
 49  24  26  1   
 50  24  27  ar  
 51  25  27  ar  
 52  25  49  1   
 53  26  28  1   
 54  27  50  1   
 55  28  51  1   
 56  28  52  1   
 57  28  53  1   
@<TRIPOS>SUBSTRUCTURE
  1 ****  13 GROUP 4 **** **** 0

# MOE 2024.06 (io_trps.svl 2023.06)
