@<TRIPOS>MOLECULE
NONAME
54 57 1 0 0 
SMALL
USER_CHARGES


@<TRIPOS>ATOM
  1 S        0.9020     0.2790    -1.7950 S.3   1 <1>  -0.0800 
  2 C        1.6730    -0.4610    -0.4100 C.2   1 <1>  -0.1400 
  3 C        0.3260    -1.2810    -2.3390 C.2   1 <1>  -0.1100 
  4 C        1.4900    -1.7890    -0.4040 C.2   1 <1>  -0.1810 
  5 C        2.4430     0.3780     0.5860 C.3   1 <1>   0.0200 
  6 C        0.6940    -2.2820    -1.5010 C.2   1 <1>  -0.0860 
  7 C        2.0960    -2.6690     0.6780 C.3   1 <1>   0.0210 
  8 C        2.7520    -0.4760     1.8300 C.3   1 <1>  -0.1600 
  9 C        0.3440    -3.6770    -1.6560 C.2   1 <1>   0.7160 
 10 C        3.1880    -1.9080     1.4560 C.3   1 <1>  -0.1600 
 11 O        0.8860    -4.3360    -2.5220 O.2   1 <1>  -0.5700 
 12 N       -0.6040    -4.2720    -0.8470 N.am  1 <1>  -0.6600 
 13 C       -0.9220    -5.7310    -0.9560 C.3   1 <1>   0.1400 
 14 C       -1.5360    -3.4840     0.0120 C.3   1 <1>   0.1400 
 15 C       -0.9670    -6.4140     0.4290 C.3   1 <1>   0.0000 
 16 C       -1.6780    -4.1310     1.3910 C.3   1 <1>  -0.1600 
 17 C       -2.0050    -5.6200     1.2680 C.3   1 <1>   0.2000 
 18 C       -1.4830    -7.8550     0.1940 C.3   1 <1>   0.1200 
 19 C        0.4460    -6.4060     1.0960 C.3   1 <1>  -0.0170 
 20 O       -2.1000    -6.1370     2.5440 O.3   1 <1>  -0.6800 
 21 O       -1.5280    -8.5810     1.3780 O.3   1 <1>  -0.6800 
 22 C        1.4420    -7.4150     0.5300 C.ar  1 <1>  -0.1430 
 23 C        2.1170    -7.1630    -0.6550 C.ar  1 <1>  -0.1500 
 24 C        1.7000    -8.5960     1.2120 C.ar  1 <1>  -0.1500 
 25 C        3.0070    -8.0890    -1.1690 C.ar  1 <1>  -0.1500 
 26 C        2.5900    -9.5240     0.7000 C.ar  1 <1>  -0.1500 
 27 C        3.2410    -9.2730    -0.4940 C.ar  1 <1>  -0.1500 
 28 H       -0.2480    -1.3080    -3.2470 H     1 <1>   0.1500 
 29 H        3.3580     0.7070     0.1260 H     1 <1>   0.0800 
 30 H        1.8680     1.2420     0.8660 H     1 <1>   0.0800 
 31 H        1.3190    -2.9730     1.3540 H     1 <1>   0.0800 
 32 H        2.5260    -3.5510     0.2350 H     1 <1>   0.0800 
 33 H        3.5220     0.0040     2.4100 H     1 <1>   0.0800 
 34 H        1.8670    -0.5330     2.4400 H     1 <1>   0.0800 
 35 H        3.4400    -2.4580     2.3460 H     1 <1>   0.0800 
 36 H        4.0720    -1.8520     0.8440 H     1 <1>   0.0800 
 37 H       -1.8810    -5.8250    -1.4350 H     1 <1>   0.0800 
 38 H       -0.2090    -6.2320    -1.5860 H     1 <1>   0.0800 
 39 H       -1.1940    -2.4700     0.1310 H     1 <1>   0.0800 
 40 H       -2.4990    -3.4510    -0.4690 H     1 <1>   0.0800 
 41 H       -2.4690    -3.6370     1.9260 H     1 <1>   0.0800 
 42 H       -0.7690    -3.9930     1.9460 H     1 <1>   0.0800 
 43 H       -2.9780    -5.7260     0.8170 H     1 <1>   0.0800 
 44 H       -0.8500    -8.3870    -0.4970 H     1 <1>   0.0800 
 45 H       -2.4820    -7.8340    -0.2080 H     1 <1>   0.0800 
 46 H        0.8830    -5.4280     1.0210 H     1 <1>   0.0800 
 47 H        0.3450    -6.6020     2.1480 H     1 <1>   0.0800 
 48 H       -2.1160    -7.1230     2.4670 H     1 <1>   0.4000 
 49 H       -0.6330    -8.9320     1.5690 H     1 <1>   0.4000 
 50 H        1.9620    -6.2420    -1.1890 H     1 <1>   0.1500 
 51 H        1.2200    -8.8000     2.1530 H     1 <1>   0.1500 
 52 H        3.5180    -7.8830    -2.0930 H     1 <1>   0.1500 
 53 H        2.7810   -10.4400     1.2320 H     1 <1>   0.1500 
 54 H        3.9330    -9.9940    -0.8950 H     1 <1>   0.1500 
@<TRIPOS>BOND
  1   1   2  1   
  2   1   3  1   
  3   2   4  2   
  4   2   5  1   
  5   3   6  2   
  6   3  28  1   
  7   4   6  1   
  8   4   7  1   
  9   5   8  1   
 10   5  29  1   
 11   5  30  1   
 12   6   9  1   
 13   7  10  1   
 14   7  31  1   
 15   7  32  1   
 16   8  10  1   
 17   8  33  1   
 18   8  34  1   
 19   9  11  2   
 20   9  12  am  
 21  10  35  1   
 22  10  36  1   
 23  12  13  1   
 24  12  14  1   
 25  13  15  1   
 26  13  37  1   
 27  13  38  1   
 28  14  16  1   
 29  14  39  1   
 30  14  40  1   
 31  15  17  1   
 32  15  18  1   
 33  15  19  1   
 34  16  17  1   
 35  16  41  1   
 36  16  42  1   
 37  17  20  1   
 38  17  43  1   
 39  18  21  1   
 40  18  44  1   
 41  18  45  1   
 42  19  22  1   
 43  19  46  1   
 44  19  47  1   
 45  20  48  1   
 46  21  49  1   
 47  22  23  ar  
 48  22  24  ar  
 49  23  25  ar  
 50  23  50  1   
 51  24  26  ar  
 52  24  51  1   
 53  25  27  ar  
 54  25  52  1   
 55  26  27  ar  
 56  26  53  1   
 57  27  54  1   
@<TRIPOS>SUBSTRUCTURE
  1 ****  12 GROUP 4 **** **** 0

# MOE 2024.06 (io_trps.svl 2023.06)
