@<TRIPOS>MOLECULE
NONAME
64 67 1 0 0 
SMALL
USER_CHARGES


@<TRIPOS>ATOM
  1 O        1.2990    -2.4760    -2.5670 O.3   1 <1>  -0.6800 
  2 C        0.5530    -2.2030    -1.4320 C.3   1 <1>   0.1200 
  3 C        1.4240    -1.6700    -0.2550 C.3   1 <1>   0.0000 
  4 C        2.7570    -2.4470    -0.0220 C.3   1 <1>   0.4230 
  5 C        1.7450    -0.1680    -0.4920 C.3   1 <1>  -0.1600 
  6 C        0.5760    -1.7780     1.0460 C.3   1 <1>  -0.1600 
  7 N        2.5580    -3.9330     0.2610 N.4   1 <1>  -0.9590 
  8 C        3.8810    -2.1190    -1.0440 C.3   1 <1>   0.2090 
  9 C        2.8250     0.0820    -1.5500 C.3   1 <1>   0.2090 
 10 C        0.8530    -3.0550     1.8680 C.3   1 <1>  -0.1600 
 11 C        1.2920    -4.2390     1.0030 C.3   1 <1>   0.3430 
 12 C        2.6380    -4.8010    -0.9600 C.3   1 <1>   0.2630 
 13 N        4.0660    -0.6430    -1.1520 N.pl3 1 <1>  -0.8380 
 14 C        5.1960     0.0180    -0.7960 C.ar  1 <1>   0.4100 
 15 N        5.0540     1.1440    -0.1280 N.ar  1 <1>  -0.6200 
 16 C        6.4660    -0.4820    -1.1350 C.ar  1 <1>  -0.1500 
 17 C        6.1420     1.8130     0.2280 C.ar  1 <1>   0.7710 
 18 C        7.5690     0.2140    -0.7710 C.ar  1 <1>   0.2170 
 19 N        7.3700     1.3650    -0.0870 N.ar  1 <1>  -0.1790 
 20 N        6.0220     2.9760     0.9230 N.pl3 1 <1>  -0.8380 
 21 C        8.9920    -0.2200    -1.0960 C.3   1 <1>  -0.0170 
 22 C        7.1240     3.7850     1.5330 C.3   1 <1>   0.2090 
 23 C        4.6910     3.6360     1.1340 C.3   1 <1>   0.2090 
 24 C        9.8060    -0.5250     0.1690 C.3   1 <1>  -0.2400 
 25 C        7.1910     5.1460     0.8350 C.3   1 <1>  -0.1600 
 26 C        4.6970     5.0040     0.4440 C.3   1 <1>  -0.1600 
 27 C        5.8510     5.8900     0.9360 C.3   1 <1>  -0.1600 
 28 H        0.7220    -2.5050    -3.3620 H     1 <1>   0.4000 
 29 H       -0.1960    -1.4750    -1.6960 H     1 <1>   0.0800 
 30 H        0.0450    -3.1120    -1.1620 H     1 <1>   0.0800 
 31 H        3.1330    -2.0300     0.8970 H     1 <1>   0.0800 
 32 H        2.1030     0.2850     0.4170 H     1 <1>   0.0800 
 33 H        0.8540     0.3640    -0.7740 H     1 <1>   0.0800 
 34 H        0.7650    -0.9400     1.6970 H     1 <1>   0.0800 
 35 H       -0.4730    -1.7290     0.8030 H     1 <1>   0.0800 
 36 H        3.3310    -4.2050     0.8830 H     1 <1>   0.4500 
 37 H        3.6520    -2.5060    -2.0190 H     1 <1>   0.0800 
 38 H        4.7950    -2.5720    -0.7040 H     1 <1>   0.0800 
 39 H        3.0150     1.1400    -1.6310 H     1 <1>   0.0800 
 40 H        2.5010    -0.2600    -2.5180 H     1 <1>   0.0800 
 41 H       -0.0380    -3.3250     2.4090 H     1 <1>   0.0800 
 42 H        1.6160    -2.8610     2.6020 H     1 <1>   0.0800 
 43 H        0.5050    -4.4580     0.3010 H     1 <1>   0.0800 
 44 H        1.4320    -5.1110     1.6220 H     1 <1>   0.0800 
 45 H        1.8470    -4.5550    -1.6490 H     1 <1>   0.0800 
 46 H        2.5420    -5.8400    -0.6880 H     1 <1>   0.0800 
 47 H        3.5820    -4.6680    -1.4620 H     1 <1>   0.0800 
 48 H        6.5280    -1.3960    -1.6940 H     1 <1>   0.1500 
 49 H        8.1360     1.9570     0.2010 H     1 <1>   0.4570 
 50 H        8.9650    -1.1050    -1.7100 H     1 <1>   0.0800 
 51 H        9.4840     0.5480    -1.6680 H     1 <1>   0.0800 
 52 H        6.9120     3.9330     2.5800 H     1 <1>   0.0800 
 53 H        8.0770     3.2930     1.4650 H     1 <1>   0.0800 
 54 H        3.8770     3.0510     0.7420 H     1 <1>   0.0800 
 55 H        4.5190     3.7630     2.1900 H     1 <1>   0.0800 
 56 H        9.3280    -1.2960     0.7490 H     1 <1>   0.0800 
 57 H        9.9260     0.3490     0.7830 H     1 <1>   0.0800 
 58 H       10.7870    -0.8760    -0.1060 H     1 <1>   0.0800 
 59 H        7.9620     5.7440     1.2890 H     1 <1>   0.0800 
 60 H        7.4500     5.0080    -0.2000 H     1 <1>   0.0800 
 61 H        4.7770     4.8560    -0.6190 H     1 <1>   0.0800 
 62 H        3.7600     5.5000     0.6320 H     1 <1>   0.0800 
 63 H        5.8890     6.7950     0.3540 H     1 <1>   0.0800 
 64 H        5.6730     6.1650     1.9620 H     1 <1>   0.0800 
@<TRIPOS>BOND
  1   1   2  1   
  2   1  28  1   
  3   2   3  1   
  4   2  29  1   
  5   2  30  1   
  6   3   4  1   
  7   3   5  1   
  8   3   6  1   
  9   4   7  1   
 10   4   8  1   
 11   4  31  1   
 12   5   9  1   
 13   5  32  1   
 14   5  33  1   
 15   6  10  1   
 16   6  34  1   
 17   6  35  1   
 18   7  11  1   
 19   7  12  1   
 20   7  36  1   
 21   8  13  1   
 22   8  37  1   
 23   8  38  1   
 24   9  13  1   
 25   9  39  1   
 26   9  40  1   
 27  10  11  1   
 28  10  41  1   
 29  10  42  1   
 30  11  43  1   
 31  11  44  1   
 32  12  45  1   
 33  12  46  1   
 34  12  47  1   
 35  13  14  1   
 36  14  15  ar  
 37  14  16  ar  
 38  15  17  ar  
 39  16  18  ar  
 40  16  48  1   
 41  17  19  ar  
 42  17  20  1   
 43  18  19  ar  
 44  18  21  1   
 45  19  49  1   
 46  20  22  1   
 47  20  23  1   
 48  21  24  1   
 49  21  50  1   
 50  21  51  1   
 51  22  25  1   
 52  22  52  1   
 53  22  53  1   
 54  23  26  1   
 55  23  54  1   
 56  23  55  1   
 57  24  56  1   
 58  24  57  1   
 59  24  58  1   
 60  25  27  1   
 61  25  59  1   
 62  25  60  1   
 63  26  27  1   
 64  26  61  1   
 65  26  62  1   
 66  27  63  1   
 67  27  64  1   
@<TRIPOS>SUBSTRUCTURE
  1 ****  14 GROUP 4 **** **** 0

# MOE 2024.06 (io_trps.svl 2023.06)
