@<TRIPOS>MOLECULE
NONAME
51 53 1 0 0 
SMALL
USER_CHARGES


@<TRIPOS>ATOM
  1 CL       3.1280     2.1490    -2.9520 Cl    1 <1>  -0.1770 
  2 C        2.1740     3.2620    -1.9970 C.ar  1 <1>   0.1770 
  3 C        1.9860     3.0800    -0.6290 C.ar  1 <1>  -0.1440 
  4 C        1.6230     4.3410    -2.6640 C.ar  1 <1>  -0.1500 
  5 C        1.2360     4.0270     0.0570 C.ar  1 <1>  -0.1500 
  6 C        2.5680     1.9050     0.1570 C.3   1 <1>   0.3640 
  7 C        0.8720     5.2700    -1.9660 C.ar  1 <1>  -0.1500 
  8 C        0.6830     5.1110    -0.6050 C.ar  1 <1>  -0.1500 
  9 N        2.0840     0.6310    -0.4240 N.am  1 <1>  -0.7300 
 10 C        4.1170     1.9680     0.2370 C.3   1 <1>   0.2610 
 11 C        2.8720    -0.4540    -0.5880 C.2   1 <1>   0.5690 
 12 O        4.6640     0.7170     0.6240 O.3   1 <1>  -0.5600 
 13 C        4.5820     3.0990     1.1710 C.2   1 <1>   0.5690 
 14 O        2.4170    -1.4870    -1.0080 O.2   1 <1>  -0.5700 
 15 C        4.3640    -0.3490    -0.2540 C.3   1 <1>   0.1810 
 16 O        3.8200     3.4920     2.0300 O.2   1 <1>  -0.5700 
 17 N        5.8200     3.6790     1.0080 N.am  1 <1>  -0.6600 
 18 C        6.8970     3.1660     0.1200 C.3   1 <1>   0.1400 
 19 C        6.1890     4.9380     1.7090 C.3   1 <1>   0.1400 
 20 C        7.1870     4.2120    -0.9610 C.3   1 <1>  -0.1600 
 21 C        6.4900     6.0190     0.6670 C.3   1 <1>  -0.1600 
 22 C        7.5680     5.5690    -0.3400 C.3   1 <1>  -0.0800 
 23 C        7.7890     6.6180    -1.4380 C.3   1 <1>   0.1200 
 24 O        8.2060     7.8070    -0.8480 O.3   1 <1>  -0.5600 
 25 C        8.4060     8.8450    -1.7450 C.3   1 <1>   0.1200 
 26 C        8.8500    10.0620    -0.9440 C.3   1 <1>  -0.2400 
 27 H        1.7810     4.4520    -3.7220 H     1 <1>   0.1500 
 28 H        1.0810     3.9330     1.1200 H     1 <1>   0.1500 
 29 H        2.1860     1.9430     1.1630 H     1 <1>   0.0800 
 30 H        0.4400     6.1130    -2.4770 H     1 <1>   0.1500 
 31 H        0.1050     5.8350    -0.0550 H     1 <1>   0.1500 
 32 H        1.0940     0.5600    -0.6590 H     1 <1>   0.3700 
 33 H        4.4970     2.1890    -0.7390 H     1 <1>   0.0800 
 34 H        4.9220    -0.2090    -1.1610 H     1 <1>   0.0800 
 35 H        4.6870    -1.2600     0.2160 H     1 <1>   0.0800 
 36 H        7.7820     2.9980     0.7100 H     1 <1>   0.0800 
 37 H        6.6260     2.2290    -0.3310 H     1 <1>   0.0800 
 38 H        5.3910     5.2700     2.3520 H     1 <1>   0.0800 
 39 H        7.0580     4.7620     2.3200 H     1 <1>   0.0800 
 40 H        7.9930     3.8590    -1.5810 H     1 <1>   0.0800 
 41 H        6.3150     4.3210    -1.5810 H     1 <1>   0.0800 
 42 H        5.5790     6.2590     0.1470 H     1 <1>   0.0800 
 43 H        6.8180     6.9090     1.1740 H     1 <1>   0.0800 
 44 H        8.4990     5.4460     0.1880 H     1 <1>   0.0800 
 45 H        6.8740     6.8010    -1.9740 H     1 <1>   0.0800 
 46 H        8.5540     6.2920    -2.1220 H     1 <1>   0.0800 
 47 H        9.1670     8.5550    -2.4500 H     1 <1>   0.0800 
 48 H        7.4810     9.0460    -2.2590 H     1 <1>   0.0800 
 49 H        9.7660     9.8470    -0.4250 H     1 <1>   0.0800 
 50 H        8.0900    10.3310    -0.2330 H     1 <1>   0.0800 
 51 H        9.0140    10.8940    -1.6040 H     1 <1>   0.0800 
@<TRIPOS>BOND
  1   1   2  1   
  2   2   3  ar  
  3   2   4  ar  
  4   3   5  ar  
  5   3   6  1   
  6   4   7  ar  
  7   4  27  1   
  8   5   8  ar  
  9   5  28  1   
 10   6   9  1   
 11   6  10  1   
 12   6  29  1   
 13   7   8  ar  
 14   7  30  1   
 15   8  31  1   
 16   9  11  am  
 17   9  32  1   
 18  10  12  1   
 19  10  13  1   
 20  10  33  1   
 21  11  14  2   
 22  11  15  1   
 23  12  15  1   
 24  13  16  2   
 25  13  17  am  
 26  15  34  1   
 27  15  35  1   
 28  17  18  1   
 29  17  19  1   
 30  18  20  1   
 31  18  36  1   
 32  18  37  1   
 33  19  21  1   
 34  19  38  1   
 35  19  39  1   
 36  20  22  1   
 37  20  40  1   
 38  20  41  1   
 39  21  22  1   
 40  21  42  1   
 41  21  43  1   
 42  22  23  1   
 43  22  44  1   
 44  23  24  1   
 45  23  45  1   
 46  23  46  1   
 47  24  25  1   
 48  25  26  1   
 49  25  47  1   
 50  25  48  1   
 51  26  49  1   
 52  26  50  1   
 53  26  51  1   
@<TRIPOS>SUBSTRUCTURE
  1 ****  13 GROUP 4 **** **** 0

# MOE 2024.06 (io_trps.svl 2023.06)
