@<TRIPOS>MOLECULE
NONAME
52 54 1 0 0 
SMALL
USER_CHARGES


@<TRIPOS>ATOM
  1 S       -0.2550    -0.4730     0.7030 S.o2  1 <1>   1.5010 
  2 O        0.2360    -1.6400     1.4000 O.2   1 <1>  -0.6500 
  3 O       -1.4890     0.1400     1.1390 O.2   1 <1>  -0.6500 
  4 N       -0.6110    -0.9130    -0.8790 N.am  1 <1>  -0.9140 
  5 C        1.0470     0.7630     0.4850 C.2   1 <1>  -0.0630 
  6 C       -1.0880    -2.2700    -1.1680 C.3   1 <1>   0.2760 
  7 C        2.4090     0.4730     0.4310 C.2   1 <1>   0.1080 
  8 C        0.9980     2.1130     0.2990 C.2   1 <1>  -0.3320 
  9 C       -2.1980    -2.8110    -0.2550 C.3   1 <1>  -0.0800 
 10 C       -0.0050    -3.3530    -1.1280 C.3   1 <1>   0.1200 
 11 N        3.1380     1.5240     0.2440 N.2   1 <1>  -0.7070 
 12 C        3.0490    -0.8930     0.5630 C.3   1 <1>  -0.0590 
 13 N        2.2730     2.5500     0.1650 N.pl3 1 <1>   0.3140 
 14 C       -0.2160     3.0330     0.2390 C.3   1 <1>  -0.0600 
 15 C       -1.6140    -4.1380     0.2390 C.3   1 <1>   0.1200 
 16 C       -3.5160    -3.0060    -1.0260 C.3   1 <1>  -0.0170 
 17 O       -0.6670    -4.5020    -0.7100 O.3   1 <1>  -0.5600 
 18 C        2.7390     3.9550    -0.0540 C.3   1 <1>   0.1760 
 19 C       -4.6230    -3.5160    -0.1160 C.ar  1 <1>  -0.1430 
 20 C        3.4050     4.0940    -1.4300 C.3   1 <1>  -0.2400 
 21 C        3.6980     4.3920     1.0630 C.3   1 <1>  -0.2400 
 22 C       -5.1900    -2.7160     0.8560 C.ar  1 <1>  -0.1500 
 23 C       -5.1190    -4.8000    -0.2130 C.ar  1 <1>  -0.1500 
 24 C       -6.1940    -3.2250     1.6620 C.ar  1 <1>   0.1600 
 25 C       -6.1270    -5.2120     0.6430 C.ar  1 <1>   0.1600 
 26 N       -6.6770    -4.4550     1.5790 N.ar  1 <1>  -0.6200 
 27 H       -1.3610    -0.2690    -1.1180 H     1 <1>   0.4200 
 28 H       -1.4490    -2.2630    -2.1820 H     1 <1>   0.0800 
 29 H       -2.3920    -2.1880     0.5960 H     1 <1>   0.0800 
 30 H        0.7700    -3.1400    -0.4150 H     1 <1>   0.0800 
 31 H        0.4220    -3.5330    -2.0980 H     1 <1>   0.0800 
 32 H        2.6230    -1.5720    -0.1510 H     1 <1>   0.0800 
 33 H        2.8980    -1.2760     1.5550 H     1 <1>   0.0800 
 34 H        4.1060    -0.8210     0.3800 H     1 <1>   0.0800 
 35 H       -1.1330     2.4820     0.3220 H     1 <1>   0.0800 
 36 H       -0.2310     3.5660    -0.6950 H     1 <1>   0.0800 
 37 H       -0.1800     3.7430     1.0460 H     1 <1>   0.0800 
 38 H       -2.3420    -4.9240     0.3340 H     1 <1>   0.0800 
 39 H       -1.1040    -4.0030     1.1790 H     1 <1>   0.0800 
 40 H       -3.3640    -3.6970    -1.8370 H     1 <1>   0.0800 
 41 H       -3.8270    -2.0670    -1.4490 H     1 <1>   0.0800 
 42 H        1.8810     4.6000    -0.0280 H     1 <1>   0.0800 
 43 H        4.2800     3.4690    -1.4850 H     1 <1>   0.0800 
 44 H        3.6990     5.1130    -1.6000 H     1 <1>   0.0800 
 45 H        2.7180     3.8010    -2.2040 H     1 <1>   0.0800 
 46 H        4.5830     3.7810     1.0550 H     1 <1>   0.0800 
 47 H        3.2160     4.2990     2.0200 H     1 <1>   0.0800 
 48 H        3.9880     5.4180     0.9240 H     1 <1>   0.0800 
 49 H       -4.8600    -1.7020     0.9970 H     1 <1>   0.1500 
 50 H       -4.7310    -5.4870    -0.9430 H     1 <1>   0.1500 
 51 H       -6.6230    -2.5870     2.4160 H     1 <1>   0.1500 
 52 H       -6.5010    -6.2170     0.5530 H     1 <1>   0.1500 
@<TRIPOS>BOND
  1   1   2  2   
  2   1   3  2   
  3   1   4  am  
  4   1   5  1   
  5   4   6  1   
  6   4  27  1   
  7   5   7  1   
  8   5   8  2   
  9   6   9  1   
 10   6  10  1   
 11   6  28  1   
 12   7  11  2   
 13   7  12  1   
 14   8  13  1   
 15   8  14  1   
 16   9  15  1   
 17   9  16  1   
 18   9  29  1   
 19  10  17  1   
 20  10  30  1   
 21  10  31  1   
 22  11  13  1   
 23  12  32  1   
 24  12  33  1   
 25  12  34  1   
 26  13  18  1   
 27  14  35  1   
 28  14  36  1   
 29  14  37  1   
 30  15  17  1   
 31  15  38  1   
 32  15  39  1   
 33  16  19  1   
 34  16  40  1   
 35  16  41  1   
 36  18  20  1   
 37  18  21  1   
 38  18  42  1   
 39  19  22  ar  
 40  19  23  ar  
 41  20  43  1   
 42  20  44  1   
 43  20  45  1   
 44  21  46  1   
 45  21  47  1   
 46  21  48  1   
 47  22  24  ar  
 48  22  49  1   
 49  23  25  ar  
 50  23  50  1   
 51  24  26  ar  
 52  24  51  1   
 53  25  26  ar  
 54  25  52  1   
@<TRIPOS>SUBSTRUCTURE
  1 ****   1 GROUP 4 **** **** 0

# MOE 2024.06 (io_trps.svl 2023.06)
