@<TRIPOS>MOLECULE
NONAME
53 55 1 0 0 
SMALL
USER_CHARGES


@<TRIPOS>ATOM
  1 O        0.5310     0.1730     0.2490 O.2   1 <1>  -0.5700 
  2 C        1.4990    -0.5100    -0.0310 C.2   1 <1>   0.5440 
  3 N        1.3200    -1.8470    -0.3260 N.am  1 <1>  -0.6600 
  4 C        2.8110     0.1080    -0.0360 C.ar  1 <1>   0.0860 
  5 C       -0.0380    -2.4440    -0.4680 C.3   1 <1>   0.1400 
  6 C        2.4300    -2.8410    -0.3760 C.3   1 <1>   0.1400 
  7 C        3.3220     0.7110     1.1110 C.ar  1 <1>  -0.1500 
  8 C        3.6020     0.1280    -1.1840 C.ar  1 <1>  -0.1500 
  9 C       -0.2590    -3.4930     0.6270 C.3   1 <1>  -0.1600 
 10 C        2.2280    -3.8960     0.7170 C.3   1 <1>  -0.1600 
 11 C        4.5760     1.2930     1.1190 C.ar  1 <1>  -0.1500 
 12 C        4.8570     0.7100    -1.1820 C.ar  1 <1>  -0.1500 
 13 C        0.8460    -4.5580     0.6210 C.3   1 <1>  -0.1600 
 14 C        5.3540     1.2930    -0.0280 C.ar  1 <1>  -0.1430 
 15 C        6.7270     1.9410    -0.0200 C.3   1 <1>   0.3530 
 16 N        6.5430     3.3800    -0.2790 N.pl3 1 <1>  -0.8690 
 17 C        7.5350     4.3130    -0.0700 C.ar  1 <1>   0.4100 
 18 N        8.7480     3.8040     0.1220 N.ar  1 <1>  -0.6200 
 19 C        7.2580     5.6940    -0.0500 C.ar  1 <1>   0.0860 
 20 C        9.7280     4.6470     0.3740 C.ar  1 <1>   0.1670 
 21 C        5.9440     6.2320    -0.3180 C.2   1 <1>   0.5440 
 22 C        8.3090     6.5510     0.2370 C.ar  1 <1>  -0.1500 
 23 C        9.5650     6.0270     0.4550 C.ar  1 <1>  -0.1430 
 24 C       11.0880     4.0070     0.5870 C.3   1 <1>  -0.0970 
 25 O        5.5260     7.2070     0.2710 O.2   1 <1>  -0.5700 
 26 N        5.1160     5.7120    -1.2560 N.am  1 <1>  -0.8000 
 27 C       10.7170     6.9710     0.7720 C.3   1 <1>  -0.0970 
 28 H       -0.1170    -2.9050    -1.4370 H     1 <1>   0.0800 
 29 H       -0.8000    -1.6860    -0.4000 H     1 <1>   0.0800 
 30 H        3.3840    -2.3670    -0.2330 H     1 <1>   0.0800 
 31 H        2.4310    -3.3140    -1.3440 H     1 <1>   0.0800 
 32 H        2.7170     0.7200     2.0010 H     1 <1>   0.1500 
 33 H        3.2190    -0.3180    -2.0850 H     1 <1>   0.1500 
 34 H       -1.2160    -3.9620     0.4810 H     1 <1>   0.0800 
 35 H       -0.2810    -2.9940     1.5810 H     1 <1>   0.0800 
 36 H        2.3370    -3.4230     1.6770 H     1 <1>   0.0800 
 37 H        2.9940    -4.6460     0.6330 H     1 <1>   0.0800 
 38 H        4.9430     1.7520     2.0220 H     1 <1>   0.1500 
 39 H        5.4450     0.7140    -2.0840 H     1 <1>   0.1500 
 40 H        0.7860    -5.1300    -0.2890 H     1 <1>   0.0800 
 41 H        0.7070    -5.2320     1.4490 H     1 <1>   0.0800 
 42 H        7.3570     1.5160    -0.7830 H     1 <1>   0.0800 
 43 H        7.2020     1.7980     0.9360 H     1 <1>   0.0800 
 44 H        5.5800     3.6820    -0.1000 H     1 <1>   0.4000 
 45 H        8.1290     7.6110     0.2840 H     1 <1>   0.1500 
 46 H       11.0810     2.9910     0.2340 H     1 <1>   0.0800 
 47 H       11.3250     4.0030     1.6350 H     1 <1>   0.0800 
 48 H       11.8480     4.5420     0.0500 H     1 <1>   0.0800 
 49 H        4.2150     6.1570    -1.4370 H     1 <1>   0.3700 
 50 H        5.3870     4.9280    -1.8530 H     1 <1>   0.3700 
 51 H       11.2220     6.6560     1.6670 H     1 <1>   0.0800 
 52 H       10.3610     7.9740     0.9260 H     1 <1>   0.0800 
 53 H       11.4190     6.9830    -0.0420 H     1 <1>   0.0800 
@<TRIPOS>BOND
  1   1   2  2   
  2   2   3  am  
  3   2   4  1   
  4   3   5  1   
  5   3   6  1   
  6   4   7  ar  
  7   4   8  ar  
  8   5   9  1   
  9   5  28  1   
 10   5  29  1   
 11   6  10  1   
 12   6  30  1   
 13   6  31  1   
 14   7  11  ar  
 15   7  32  1   
 16   8  12  ar  
 17   8  33  1   
 18   9  13  1   
 19   9  34  1   
 20   9  35  1   
 21  10  13  1   
 22  10  36  1   
 23  10  37  1   
 24  11  14  ar  
 25  11  38  1   
 26  12  14  ar  
 27  12  39  1   
 28  13  40  1   
 29  13  41  1   
 30  14  15  1   
 31  15  16  1   
 32  15  42  1   
 33  15  43  1   
 34  16  17  1   
 35  16  44  1   
 36  17  18  ar  
 37  17  19  ar  
 38  18  20  ar  
 39  19  21  1   
 40  19  22  ar  
 41  20  23  ar  
 42  20  24  1   
 43  21  25  2   
 44  21  26  am  
 45  22  23  ar  
 46  22  45  1   
 47  23  27  1   
 48  24  46  1   
 49  24  47  1   
 50  24  48  1   
 51  26  49  1   
 52  26  50  1   
 53  27  51  1   
 54  27  52  1   
 55  27  53  1   
@<TRIPOS>SUBSTRUCTURE
  1 ****  14 GROUP 4 **** **** 0

# MOE 2024.06 (io_trps.svl 2023.06)
