@<TRIPOS>MOLECULE
STOCK7S-73420
27 28 1 0 0 
SMALL
USER_CHARGES


@<TRIPOS>ATOM
  1 N       -7.6950    -3.2600     0.0300 N.ar  1 <1>  -0.5670 
  2 C       -6.6130    -2.4670     0.0040 C.ar  1 <1>   0.1050 
  3 C       -8.8380    -2.6220     0.0950 C.ar  1 <1>   0.1600 
  4 N       -5.3130    -2.8870    -0.0620 N.pl3 1 <1>   0.0480 
  5 C       -6.6290    -1.0740     0.0390 C.ar  1 <1>   0.0000 
  6 C       -8.9750    -1.2280     0.1350 C.ar  1 <1>  -0.1500 
  7 C       -4.5090    -1.7770    -0.0680 C.2   1 <1>  -0.3020 
  8 C       -4.8860    -4.2970    -0.1150 C.3   1 <1>   0.0160 
  9 C       -5.2790    -0.6570    -0.0080 C.2   1 <1>  -0.1810 
 10 C       -7.8620    -0.4260     0.1080 C.ar  1 <1>  -0.1500 
 11 C       -4.8960     0.8060     0.0130 C.3   1 <1>   0.5240 
 12 N       -3.4240     0.8860    -0.0480 N.4   1 <1>  -0.9060 
 13 C       -2.8950     2.2790    -0.0350 C.3   1 <1>   0.2630 
 14 H       -9.7350    -3.2170     0.1180 H     1 <1>   0.1500 
 15 H       -9.9620    -0.8040     0.1880 H     1 <1>   0.1500 
 16 H       -3.4400    -1.8890    -0.1170 H     1 <1>   0.1500 
 17 H       -5.3140    -4.7610    -0.9850 H     1 <1>   0.0800 
 18 H       -5.2390    -4.8050     0.7640 H     1 <1>   0.0800 
 19 H       -3.8150    -4.3570    -0.1630 H     1 <1>   0.0800 
 20 H       -7.9390     0.6450     0.1380 H     1 <1>   0.1500 
 21 H       -5.2620     1.2630     0.9180 H     1 <1>   0.0800 
 22 H       -5.3360     1.3060    -0.8350 H     1 <1>   0.0800 
 23 H       -3.1360     0.3800    -0.8950 H     1 <1>   0.4500 
 24 H       -3.0660     0.3390     0.7460 H     1 <1>   0.4500 
 25 H       -3.2680     2.8320    -0.8830 H     1 <1>   0.0800 
 26 H       -1.8170     2.2690    -0.0810 H     1 <1>   0.0800 
 27 H       -3.1930     2.7880     0.8680 H     1 <1>   0.0800 
@<TRIPOS>BOND
  1   1   2  ar  
  2   1   3  ar  
  3   2   4  1   
  4   2   5  ar  
  5   3   6  ar  
  6   3  14  1   
  7   4   7  1   
  8   4   8  1   
  9   5   9  1   
 10   5  10  ar  
 11   6  10  ar  
 12   6  15  1   
 13   7   9  2   
 14   7  16  1   
 15   8  17  1   
 16   8  18  1   
 17   8  19  1   
 18   9  11  1   
 19  10  20  1   
 20  11  12  1   
 21  11  21  1   
 22  11  22  1   
 23  12  13  1   
 24  12  23  1   
 25  12  24  1   
 26  13  25  1   
 27  13  26  1   
 28  13  27  1   
@<TRIPOS>SUBSTRUCTURE
  1 ****   5 GROUP 4 **** **** 0

# MOE 2024.06 (io_trps.svl 2023.06)
