@<TRIPOS>MOLECULE
NONAME
58 61 1 0 0 
SMALL
USER_CHARGES


@<TRIPOS>ATOM
  1 O       -0.4990     0.4750    -0.4710 O.2   1 <1>  -0.5700 
  2 C       -1.5490     1.0790    -0.6090 C.2   1 <1>   0.7150 
  3 N       -2.6990     0.3520    -0.8400 N.am  1 <1>  -0.6600 
  4 C       -1.5510     2.5270    -0.5220 C.2   1 <1>   0.0550 
  5 C       -4.0730     0.8310    -0.5400 C.3   1 <1>   0.1400 
  6 C       -2.7020    -1.1270    -0.9650 C.3   1 <1>   0.1400 
  7 O       -0.6030     3.1440     0.1760 O.3   1 <1>  -0.2800 
  8 C       -2.3610     3.4850    -1.0570 C.2   1 <1>  -0.1500 
  9 C       -4.9100    -0.4300    -0.3110 C.3   1 <1>   0.2000 
 10 C       -3.9150    -1.5810    -0.1550 C.3   1 <1>  -0.0800 
 11 C       -0.7670     4.4430     0.0950 C.2   1 <1>  -0.0400 
 12 C       -1.8550     4.7220    -0.6550 C.2   1 <1>  -0.1500 
 13 O       -5.6840    -0.3190     0.8310 O.3   1 <1>  -0.6800 
 14 C       -4.4950    -2.9290    -0.6100 C.3   1 <1>   0.0200 
 15 C        0.2290     5.3500     0.7960 C.3   1 <1>   0.5230 
 16 C       -3.5270    -4.0870    -0.4350 C.2   1 <1>  -0.0400 
 17 N        1.5870     5.1470     0.2110 N.4   1 <1>  -0.9590 
 18 O       -3.8120    -5.2320    -0.9950 O.3   1 <1>  -0.0190 
 19 C       -2.3570    -4.2290     0.2100 C.2   1 <1>  -0.1500 
 20 C        2.2320     3.8990     0.7260 C.3   1 <1>   0.3430 
 21 C        2.4540     6.3420     0.3970 C.3   1 <1>   0.3430 
 22 N       -2.8970    -6.1290    -0.7650 N.2   1 <1>  -0.4100 
 23 C       -2.0070    -5.5520    -0.0410 C.2   1 <1>   0.1080 
 24 C        3.5510     3.6610    -0.0090 C.3   1 <1>  -0.1600 
 25 C        3.7740     6.1440    -0.3490 C.3   1 <1>  -0.1600 
 26 C       -0.7530    -6.2280     0.4650 C.3   1 <1>  -0.0590 
 27 C        4.4950     4.8670     0.1060 C.3   1 <1>  -0.0800 
 28 C        5.7640     4.6390    -0.7210 C.3   1 <1>  -0.2400 
 29 H       -4.0650     1.4560     0.3370 H     1 <1>   0.0800 
 30 H       -4.4620     1.3780    -1.3810 H     1 <1>   0.0800 
 31 H       -2.8140    -1.3890    -2.0040 H     1 <1>   0.0800 
 32 H       -1.7920    -1.5640    -0.5890 H     1 <1>   0.0800 
 33 H       -3.2230     3.3480    -1.6870 H     1 <1>   0.1500 
 34 H       -5.5680    -0.5860    -1.1490 H     1 <1>   0.0800 
 35 H       -3.6080    -1.6520     0.8740 H     1 <1>   0.0800 
 36 H       -2.2770     5.6770    -0.9220 H     1 <1>   0.1500 
 37 H       -5.1210    -0.2540     1.6270 H     1 <1>   0.4000 
 38 H       -4.7720    -2.8690    -1.6490 H     1 <1>   0.0800 
 39 H       -5.3870    -3.1450    -0.0470 H     1 <1>   0.0800 
 40 H        0.2400     5.1370     1.8520 H     1 <1>   0.0800 
 41 H       -0.0820     6.3720     0.6550 H     1 <1>   0.0800 
 42 H        1.4450     4.9990    -0.7970 H     1 <1>   0.4500 
 43 H       -1.7900    -3.5270     0.7920 H     1 <1>   0.1500 
 44 H        2.4220     3.9930     1.7830 H     1 <1>   0.0800 
 45 H        1.5900     3.0470     0.5730 H     1 <1>   0.0800 
 46 H        1.9600     7.2230     0.0180 H     1 <1>   0.0800 
 47 H        2.6550     6.4880     1.4460 H     1 <1>   0.0800 
 48 H        4.0270     2.7910     0.4100 H     1 <1>   0.0800 
 49 H        3.3430     3.4440    -1.0430 H     1 <1>   0.0800 
 50 H        3.5810     6.1050    -1.4080 H     1 <1>   0.0800 
 51 H        4.4070     6.9950    -0.1680 H     1 <1>   0.0800 
 52 H        0.1140    -5.6910     0.1250 H     1 <1>   0.0800 
 53 H       -0.7050    -7.2370     0.0950 H     1 <1>   0.0800 
 54 H       -0.7580    -6.2510     1.5390 H     1 <1>   0.0800 
 55 H        4.7830     4.9810     1.1390 H     1 <1>   0.0800 
 56 H        5.5290     4.5150    -1.7640 H     1 <1>   0.0800 
 57 H        6.2790     3.7570    -0.3820 H     1 <1>   0.0800 
 58 H        6.4340     5.4750    -0.6200 H     1 <1>   0.0800 
@<TRIPOS>BOND
  1   1   2  2   
  2   2   3  am  
  3   2   4  1   
  4   3   5  1   
  5   3   6  1   
  6   4   7  1   
  7   4   8  2   
  8   5   9  1   
  9   5  29  1   
 10   5  30  1   
 11   6  10  1   
 12   6  31  1   
 13   6  32  1   
 14   7  11  1   
 15   8  12  1   
 16   8  33  1   
 17   9  10  1   
 18   9  13  1   
 19   9  34  1   
 20  10  14  1   
 21  10  35  1   
 22  11  12  2   
 23  11  15  1   
 24  12  36  1   
 25  13  37  1   
 26  14  16  1   
 27  14  38  1   
 28  14  39  1   
 29  15  17  1   
 30  15  40  1   
 31  15  41  1   
 32  16  18  1   
 33  16  19  2   
 34  17  20  1   
 35  17  21  1   
 36  17  42  1   
 37  18  22  1   
 38  19  23  1   
 39  19  43  1   
 40  20  24  1   
 41  20  44  1   
 42  20  45  1   
 43  21  25  1   
 44  21  46  1   
 45  21  47  1   
 46  22  23  2   
 47  23  26  1   
 48  24  27  1   
 49  24  48  1   
 50  24  49  1   
 51  25  27  1   
 52  25  50  1   
 53  25  51  1   
 54  26  52  1   
 55  26  53  1   
 56  26  54  1   
 57  27  28  1   
 58  27  55  1   
 59  28  56  1   
 60  28  57  1   
 61  28  58  1   
@<TRIPOS>SUBSTRUCTURE
  1 ****   1 GROUP 4 **** **** 0

# MOE 2024.06 (io_trps.svl 2023.06)
