@<TRIPOS>MOLECULE
NONAME
57 59 1 0 0 
SMALL
USER_CHARGES


@<TRIPOS>ATOM
  1 O       -0.4010     0.1790     0.3640 O.2   1 <1>  -0.5700 
  2 C       -1.4220     0.6880    -0.0360 C.2   1 <1>   0.5690 
  3 N       -2.5090    -0.0650    -0.3770 N.am  1 <1>  -0.6600 
  4 C       -1.5000     2.2020    -0.1620 C.3   1 <1>  -0.0990 
  5 C       -3.8250     0.4470    -0.8330 C.3   1 <1>   0.1400 
  6 C       -2.5320    -1.5420    -0.2630 C.3   1 <1>   0.1400 
  7 C       -0.2020     2.9310     0.2420 C.3   1 <1>  -0.0990 
  8 C       -4.7000    -0.7970    -1.0000 C.3   1 <1>   0.2000 
  9 C       -4.0160    -1.9040    -0.1990 C.3   1 <1>  -0.0800 
 10 C       -0.2730     4.4450     0.0890 C.2   1 <1>   0.5690 
 11 O       -5.9810    -0.5880    -0.5130 O.3   1 <1>  -0.6800 
 12 C       -4.3480    -3.3090    -0.7320 C.3   1 <1>  -0.0160 
 13 O       -1.3550     4.9420    -0.1240 O.2   1 <1>  -0.5700 
 14 N        0.8710     5.2000     0.1940 N.am  1 <1>  -0.6600 
 15 C       -3.6840    -4.3990     0.0940 C.ar  1 <1>   0.1670 
 16 C        0.8170     6.6750    -0.0580 C.3   1 <1>   0.2200 
 17 C        2.2010     4.6170     0.5540 C.3   1 <1>   0.0600 
 18 N       -2.4240    -4.6760    -0.1990 N.ar  1 <1>  -0.6200 
 19 C       -4.4010    -5.0470     1.0990 C.ar  1 <1>   0.1600 
 20 C        1.8880     7.1200    -1.0670 C.3   1 <1>  -0.1600 
 21 C        0.9290     7.4520     1.2610 C.3   1 <1>  -0.1600 
 22 C       -1.9310    -5.6290     0.5760 C.ar  1 <1>   0.1600 
 23 N       -3.9110    -6.0000     1.8740 N.ar  1 <1>  -0.6200 
 24 C        1.8080     8.6340    -1.3150 C.3   1 <1>  -0.1600 
 25 C        0.8580     8.9660     1.0150 C.3   1 <1>  -0.1600 
 26 C       -2.6510    -6.2690     1.5780 C.ar  1 <1>   0.1600 
 27 C        1.9200     9.4170     0.0020 C.3   1 <1>  -0.1600 
 28 H       -1.7320     2.4470    -1.1820 H     1 <1>   0.0800 
 29 H       -2.3020     2.5530     0.4600 H     1 <1>   0.0800 
 30 H       -4.2310     1.1090    -0.0880 H     1 <1>   0.0800 
 31 H       -3.7180     0.9630    -1.7720 H     1 <1>   0.0800 
 32 H       -2.0660    -1.9680    -1.1350 H     1 <1>   0.0800 
 33 H       -2.0040    -1.8730     0.6170 H     1 <1>   0.0800 
 34 H        0.6010     2.5600    -0.3680 H     1 <1>   0.0800 
 35 H        0.0190     2.7040     1.2690 H     1 <1>   0.0800 
 36 H       -4.7720    -1.0530    -2.0440 H     1 <1>   0.0800 
 37 H       -4.3120    -1.8350     0.8330 H     1 <1>   0.0800 
 38 H       -5.9480    -0.3310     0.4290 H     1 <1>   0.4000 
 39 H       -4.0250    -3.4010    -1.7550 H     1 <1>   0.0800 
 40 H       -5.4150    -3.4480    -0.7180 H     1 <1>   0.0800 
 41 H       -0.1380     6.9200    -0.4920 H     1 <1>   0.0800 
 42 H        2.8020     5.3380     1.0760 H     1 <1>   0.0800 
 43 H        2.7170     4.3180    -0.3420 H     1 <1>   0.0800 
 44 H        2.0850     3.7620     1.1960 H     1 <1>   0.0800 
 45 H       -5.4240    -4.7630     1.2710 H     1 <1>   0.1500 
 46 H        2.8710     6.8910    -0.6970 H     1 <1>   0.0800 
 47 H        1.7380     6.5990    -1.9950 H     1 <1>   0.0800 
 48 H        0.1210     7.1600     1.9090 H     1 <1>   0.0800 
 49 H        1.8580     7.2240     1.7500 H     1 <1>   0.0800 
 50 H       -0.9090    -5.9170     0.4090 H     1 <1>   0.1500 
 51 H        2.5980     8.9340    -1.9820 H     1 <1>   0.0800 
 52 H        0.8700     8.8690    -1.7890 H     1 <1>   0.0800 
 53 H       -0.1200     9.2190     0.6400 H     1 <1>   0.0800 
 54 H        0.9990     9.4900     1.9440 H     1 <1>   0.0800 
 55 H       -2.1620    -7.0330     2.1560 H     1 <1>   0.1500 
 56 H        1.8060    10.4690    -0.1950 H     1 <1>   0.0800 
 57 H        2.9000     9.2670     0.4230 H     1 <1>   0.0800 
@<TRIPOS>BOND
  1   1   2  2   
  2   2   3  am  
  3   2   4  1   
  4   3   5  1   
  5   3   6  1   
  6   4   7  1   
  7   4  28  1   
  8   4  29  1   
  9   5   8  1   
 10   5  30  1   
 11   5  31  1   
 12   6   9  1   
 13   6  32  1   
 14   6  33  1   
 15   7  10  1   
 16   7  34  1   
 17   7  35  1   
 18   8   9  1   
 19   8  11  1   
 20   8  36  1   
 21   9  12  1   
 22   9  37  1   
 23  10  13  2   
 24  10  14  am  
 25  11  38  1   
 26  12  15  1   
 27  12  39  1   
 28  12  40  1   
 29  14  16  1   
 30  14  17  1   
 31  15  18  ar  
 32  15  19  ar  
 33  16  20  1   
 34  16  21  1   
 35  16  41  1   
 36  17  42  1   
 37  17  43  1   
 38  17  44  1   
 39  18  22  ar  
 40  19  23  ar  
 41  19  45  1   
 42  20  24  1   
 43  20  46  1   
 44  20  47  1   
 45  21  25  1   
 46  21  48  1   
 47  21  49  1   
 48  22  26  ar  
 49  22  50  1   
 50  23  26  ar  
 51  24  27  1   
 52  24  51  1   
 53  24  52  1   
 54  25  27  1   
 55  25  53  1   
 56  25  54  1   
 57  26  55  1   
 58  27  56  1   
 59  27  57  1   
@<TRIPOS>SUBSTRUCTURE
  1 ****   2 GROUP 4 **** **** 0

# MOE 2024.06 (io_trps.svl 2023.06)
