@<TRIPOS>MOLECULE
NONAME
49 52 1 0 0 
SMALL
USER_CHARGES


@<TRIPOS>ATOM
  1 O        3.1020    -1.2050     2.2420 O.2   1 <1>  -0.5700 
  2 C        2.3760    -1.6390     1.3610 C.2   1 <1>   0.5440 
  3 N        1.8240    -0.7130     0.4920 N.am  1 <1>  -0.6600 
  4 C        2.1690    -3.0880     1.2700 C.ar  1 <1>   0.3960 
  5 C        1.0000    -1.0160    -0.7010 C.3   1 <1>   0.1400 
  6 C        2.1400     0.7320     0.5570 C.3   1 <1>   0.1400 
  7 N        1.0290    -3.6030     0.7790 N.ar  1 <1>  -0.6200 
  8 C        3.2010    -3.9170     1.7230 C.ar  1 <1>   0.1600 
  9 C        0.7050     0.3380    -1.3400 C.3   1 <1>  -0.1600 
 10 C        1.8070     1.2620    -0.8310 C.3   1 <1>  -0.1600 
 11 C        0.9960    -4.9240     0.7660 C.ar  1 <1>   0.4100 
 12 N        3.1940    -5.2440     1.7120 N.ar  1 <1>  -0.6200 
 13 N       -0.1660    -5.5110     0.2940 N.pl3 1 <1>  -0.8380 
 14 C        2.0660    -5.7110     1.2190 C.ar  1 <1>   0.1600 
 15 C       -0.8920    -4.8550    -0.8250 C.3   1 <1>   0.2090 
 16 C       -1.0400    -6.1740     1.2940 C.3   1 <1>   0.2090 
 17 C       -1.7620    -5.8870    -1.5410 C.3   1 <1>  -0.1600 
 18 C       -1.9130    -7.2160     0.5960 C.3   1 <1>  -0.1600 
 19 C       -2.7030    -6.5750    -0.5510 C.3   1 <1>   0.2000 
 20 O       -3.4010    -7.5790    -1.2550 O.3   1 <1>  -0.3630 
 21 C       -4.5600    -8.1220    -0.8210 C.ar  1 <1>   0.0830 
 22 C       -5.2680    -7.7180     0.2990 C.ar  1 <1>  -0.1500 
 23 C       -5.0940    -9.1650    -1.5470 C.ar  1 <1>  -0.1500 
 24 C       -6.4440    -8.3710     0.6220 C.ar  1 <1>   0.1600 
 25 C       -6.2780    -9.7470    -1.1340 C.ar  1 <1>   0.1600 
 26 N       -6.9660    -9.3750    -0.0660 N.ar  1 <1>  -0.6200 
 27 H        0.0870    -1.5120    -0.4200 H     1 <1>   0.0800 
 28 H        1.5640    -1.6400    -1.3740 H     1 <1>   0.0800 
 29 H        3.1750     0.8940     0.8060 H     1 <1>   0.0800 
 30 H        1.5130     1.1920     1.3010 H     1 <1>   0.0800 
 31 H        4.0870    -3.4490     2.1170 H     1 <1>   0.1500 
 32 H       -0.2510     0.6860    -0.9890 H     1 <1>   0.0800 
 33 H        0.6830     0.2770    -2.4130 H     1 <1>   0.0800 
 34 H        2.6780     1.1730    -1.4560 H     1 <1>   0.0800 
 35 H        1.5000     2.2930    -0.8020 H     1 <1>   0.0800 
 36 H        1.9520    -6.7770     1.1540 H     1 <1>   0.1500 
 37 H       -0.1840    -4.4330    -1.5190 H     1 <1>   0.0800 
 38 H       -1.5010    -4.0560    -0.4360 H     1 <1>   0.0800 
 39 H       -1.6580    -5.4310     1.7700 H     1 <1>   0.0800 
 40 H       -0.4410    -6.6500     2.0530 H     1 <1>   0.0800 
 41 H       -1.1210    -6.6160    -2.0050 H     1 <1>   0.0800 
 42 H       -2.3370    -5.3970    -2.3050 H     1 <1>   0.0800 
 43 H       -2.5830    -7.6490     1.3150 H     1 <1>   0.0800 
 44 H       -1.2790    -7.9940     0.2090 H     1 <1>   0.0800 
 45 H       -3.4090    -5.8520    -0.1820 H     1 <1>   0.0800 
 46 H       -4.9340    -6.9150     0.9240 H     1 <1>   0.1500 
 47 H       -4.5880    -9.5180    -2.4260 H     1 <1>   0.1500 
 48 H       -6.9900    -8.0510     1.4930 H     1 <1>   0.1500 
 49 H       -6.6810   -10.5610    -1.7110 H     1 <1>   0.1500 
@<TRIPOS>BOND
  1   1   2  2   
  2   2   3  am  
  3   2   4  1   
  4   3   5  1   
  5   3   6  1   
  6   4   7  ar  
  7   4   8  ar  
  8   5   9  1   
  9   5  27  1   
 10   5  28  1   
 11   6  10  1   
 12   6  29  1   
 13   6  30  1   
 14   7  11  ar  
 15   8  12  ar  
 16   8  31  1   
 17   9  10  1   
 18   9  32  1   
 19   9  33  1   
 20  10  34  1   
 21  10  35  1   
 22  11  13  1   
 23  11  14  ar  
 24  12  14  ar  
 25  13  15  1   
 26  13  16  1   
 27  14  36  1   
 28  15  17  1   
 29  15  37  1   
 30  15  38  1   
 31  16  18  1   
 32  16  39  1   
 33  16  40  1   
 34  17  19  1   
 35  17  41  1   
 36  17  42  1   
 37  18  19  1   
 38  18  43  1   
 39  18  44  1   
 40  19  20  1   
 41  19  45  1   
 42  20  21  1   
 43  21  22  ar  
 44  21  23  ar  
 45  22  24  ar  
 46  22  46  1   
 47  23  25  ar  
 48  23  47  1   
 49  24  26  ar  
 50  24  48  1   
 51  25  26  ar  
 52  25  49  1   
@<TRIPOS>SUBSTRUCTURE
  1 ****  13 GROUP 4 **** **** 0

# MOE 2024.06 (io_trps.svl 2023.06)
