@<TRIPOS>MOLECULE
NONAME
53 56 1 0 0 
SMALL
USER_CHARGES


@<TRIPOS>ATOM
  1 O       -0.3920    -0.0100    -0.8850 O.2   1 <1>  -0.5700 
  2 C       -1.3170     0.4470    -0.2410 C.2   1 <1>   0.7160 
  3 N       -2.2640    -0.4060     0.2310 N.am  1 <1>  -0.7300 
  4 C       -1.4290     1.8510     0.0120 C.2   1 <1>  -0.0860 
  5 C       -2.4120    -1.8250    -0.1620 C.3   1 <1>   0.2200 
  6 C       -2.6210     2.5450     0.2580 C.2   1 <1>   0.3720 
  7 C       -0.4820     2.8280     0.0700 C.2   1 <1>   0.0870 
  8 C       -3.8290    -2.3420     0.1380 C.3   1 <1>   0.2000 
  9 C       -1.3850    -2.6860     0.5780 C.3   1 <1>  -0.1600 
 10 N       -2.3990     3.7980     0.4450 N.2   1 <1>  -0.4100 
 11 N       -3.9050     1.9760     0.2760 N.pl3 1 <1>  -0.8210 
 12 O       -1.1090     3.9480     0.3230 O.3   1 <1>  -0.0190 
 13 C        0.9540     2.8360    -0.0680 C.ar  1 <1>   0.0530 
 14 O       -4.7630    -1.6240    -0.6260 O.3   1 <1>  -0.5600 
 15 C       -3.9010    -3.8410    -0.1900 C.3   1 <1>   0.1200 
 16 C       -1.6000    -4.1650     0.2390 C.3   1 <1>   0.1200 
 17 C       -4.9180     2.6550     1.1520 C.3   1 <1>   0.2090 
 18 C       -4.4660     1.6920    -1.0860 C.3   1 <1>   0.2090 
 19 C        1.6040     3.9240    -0.6520 C.ar  1 <1>  -0.1500 
 20 C        1.7490     1.7820     0.3820 C.ar  1 <1>  -0.1500 
 21 C       -6.0640    -1.6340    -0.1250 C.3   1 <1>   0.0400 
 22 O       -2.9160    -4.5280     0.5320 O.3   1 <1>  -0.5600 
 23 C       -5.6460     3.8080     0.4300 C.3   1 <1>   0.1200 
 24 C       -5.1880     2.9160    -1.6770 C.3   1 <1>   0.1200 
 25 C        2.9800     3.9580    -0.7850 C.ar  1 <1>  -0.1500 
 26 C        3.1250     1.8080     0.2510 C.ar  1 <1>  -0.1500 
 27 O       -6.1700     3.3800    -0.7950 O.3   1 <1>  -0.5600 
 28 C        3.7440     2.8970    -0.3340 C.ar  1 <1>  -0.1500 
 29 H       -3.1460     0.0560     0.4970 H     1 <1>   0.3700 
 30 H       -2.2340    -1.9130    -1.2210 H     1 <1>   0.0800 
 31 H       -4.0460    -2.1950     1.1830 H     1 <1>   0.0800 
 32 H       -1.4820    -2.5520     1.6410 H     1 <1>   0.0800 
 33 H       -0.3910    -2.4010     0.2860 H     1 <1>   0.0800 
 34 H       -3.7380    -4.0140    -1.2400 H     1 <1>   0.0800 
 35 H       -4.8510    -4.2490     0.1000 H     1 <1>   0.0800 
 36 H       -0.9490    -4.7860     0.8290 H     1 <1>   0.0800 
 37 H       -1.4150    -4.3580    -0.8050 H     1 <1>   0.0800 
 38 H       -5.6460     1.9310     1.4700 H     1 <1>   0.0800 
 39 H       -4.4350     3.0390     2.0340 H     1 <1>   0.0800 
 40 H       -3.6780     1.3890    -1.7540 H     1 <1>   0.0800 
 41 H       -5.1650     0.8790    -1.0200 H     1 <1>   0.0800 
 42 H        1.0200     4.7540    -1.0080 H     1 <1>   0.1500 
 43 H        1.2850     0.9290     0.8430 H     1 <1>   0.1500 
 44 H       -6.6840    -1.0570    -0.7890 H     1 <1>   0.0800 
 45 H       -6.0720    -1.1860     0.8540 H     1 <1>   0.0800 
 46 H       -6.4300    -2.6440    -0.0820 H     1 <1>   0.0800 
 47 H       -4.9720     4.6270     0.2500 H     1 <1>   0.0800 
 48 H       -6.4630     4.1630     1.0310 H     1 <1>   0.0800 
 49 H       -5.6740     2.6500    -2.5990 H     1 <1>   0.0800 
 50 H       -4.4890     3.7110    -1.8690 H     1 <1>   0.0800 
 51 H        3.4570     4.8080    -1.2410 H     1 <1>   0.1500 
 52 H        3.7140     0.9790     0.6030 H     1 <1>   0.1500 
 53 H        4.8150     2.9190    -0.4380 H     1 <1>   0.1500 
@<TRIPOS>BOND
  1   1   2  2   
  2   2   3  am  
  3   2   4  1   
  4   3   5  1   
  5   3  29  1   
  6   4   6  1   
  7   4   7  2   
  8   5   8  1   
  9   5   9  1   
 10   5  30  1   
 11   6  10  2   
 12   6  11  1   
 13   7  12  1   
 14   7  13  1   
 15   8  14  1   
 16   8  15  1   
 17   8  31  1   
 18   9  16  1   
 19   9  32  1   
 20   9  33  1   
 21  10  12  1   
 22  11  17  1   
 23  11  18  1   
 24  13  19  ar  
 25  13  20  ar  
 26  14  21  1   
 27  15  22  1   
 28  15  34  1   
 29  15  35  1   
 30  16  22  1   
 31  16  36  1   
 32  16  37  1   
 33  17  23  1   
 34  17  38  1   
 35  17  39  1   
 36  18  24  1   
 37  18  40  1   
 38  18  41  1   
 39  19  25  ar  
 40  19  42  1   
 41  20  26  ar  
 42  20  43  1   
 43  21  44  1   
 44  21  45  1   
 45  21  46  1   
 46  23  27  1   
 47  23  47  1   
 48  23  48  1   
 49  24  27  1   
 50  24  49  1   
 51  24  50  1   
 52  25  28  ar  
 53  25  51  1   
 54  26  28  ar  
 55  26  52  1   
 56  28  53  1   
@<TRIPOS>SUBSTRUCTURE
  1 ****   2 GROUP 4 **** **** 0

# MOE 2024.06 (io_trps.svl 2023.06)
