@<TRIPOS>MOLECULE
NONAME
44 45 1 0 0 
SMALL
USER_CHARGES


@<TRIPOS>ATOM
  1 CL      -1.9470    -1.7370    -0.7430 Cl    1 <1>  -0.1770 
  2 C       -2.1890    -0.1760     0.0060 C.ar  1 <1>   0.1770 
  3 C       -3.1560    -0.0110     1.0030 C.ar  1 <1>   0.0860 
  4 C       -1.3850     0.8660    -0.4300 C.ar  1 <1>  -0.1500 
  5 C       -4.0080    -1.0920     1.4520 C.2   1 <1>   0.5440 
  6 C       -3.2720     1.2560     1.5760 C.ar  1 <1>  -0.1500 
  7 C       -1.5240     2.1210     0.1360 C.ar  1 <1>  -0.1500 
  8 O       -4.1100    -1.3240     2.6390 O.2   1 <1>  -0.5700 
  9 N       -4.7780    -1.8400     0.5970 N.am  1 <1>  -0.6600 
 10 C       -2.4680     2.2870     1.1320 C.ar  1 <1>   0.1900 
 11 C       -4.9920    -3.2890     0.9450 C.3   1 <1>   0.3210 
 12 C       -5.4100    -1.2510    -0.6300 C.3   1 <1>   0.1400 
 13 F       -2.6080     3.4660     1.6740 F     1 <1>  -0.1900 
 14 C       -5.7390    -4.0970    -0.1160 C.2   1 <1>   0.0460 
 15 C       -6.7470    -0.5310    -0.3350 C.3   1 <1>   0.3430 
 16 N       -7.0870    -4.0520    -0.2210 N.2   1 <1>  -0.5650 
 17 C       -5.2140    -4.9320    -1.0430 C.2   1 <1>  -0.3320 
 18 N       -7.6810    -1.3260     0.5260 N.4   1 <1>  -0.9590 
 19 C       -7.3490    -4.8720    -1.1880 C.2   1 <1>   0.0360 
 20 N       -6.2530    -5.4380    -1.7320 N.pl3 1 <1>   0.0330 
 21 C       -3.7720    -5.3120    -1.3450 C.3   1 <1>  -0.0600 
 22 C       -9.1060    -1.1400     0.1360 C.3   1 <1>   0.2630 
 23 C       -7.4820    -1.0690     1.9860 C.3   1 <1>   0.2630 
 24 H       -0.6550     0.6930    -1.2020 H     1 <1>   0.1500 
 25 H       -3.9790     1.4330     2.3670 H     1 <1>   0.1500 
 26 H       -0.9160     2.9520    -0.1790 H     1 <1>   0.1500 
 27 H       -5.5340    -3.3570     1.8710 H     1 <1>   0.0800 
 28 H       -4.0300    -3.7400     1.1120 H     1 <1>   0.0800 
 29 H       -5.5680    -2.0070    -1.3790 H     1 <1>   0.0800 
 30 H       -4.7380    -0.5380    -1.0730 H     1 <1>   0.0800 
 31 H       -7.2210    -0.3240    -1.2800 H     1 <1>   0.0800 
 32 H       -6.5420     0.4150     0.1360 H     1 <1>   0.0800 
 33 H       -7.4430    -2.3310     0.3530 H     1 <1>   0.4500 
 34 H       -8.3390    -5.1030    -1.5440 H     1 <1>   0.1500 
 35 H       -6.2220    -6.1190    -2.4980 H     1 <1>   0.2700 
 36 H       -3.0910    -4.7620    -0.7220 H     1 <1>   0.0800 
 37 H       -3.5370    -5.0950    -2.3720 H     1 <1>   0.0800 
 38 H       -3.6210    -6.3630    -1.1690 H     1 <1>   0.0800 
 39 H       -9.4070    -0.1160     0.2860 H     1 <1>   0.0800 
 40 H       -9.7380    -1.7790     0.7310 H     1 <1>   0.0800 
 41 H       -9.2440    -1.3970    -0.9010 H     1 <1>   0.0800 
 42 H       -7.7030    -0.0410     2.2220 H     1 <1>   0.0800 
 43 H       -6.4650    -1.2760     2.2730 H     1 <1>   0.0800 
 44 H       -8.1300    -1.7050     2.5660 H     1 <1>   0.0800 
@<TRIPOS>BOND
  1   1   2  1   
  2   2   3  ar  
  3   2   4  ar  
  4   3   5  1   
  5   3   6  ar  
  6   4   7  ar  
  7   4  24  1   
  8   5   8  2   
  9   5   9  am  
 10   6  10  ar  
 11   6  25  1   
 12   7  10  ar  
 13   7  26  1   
 14   9  11  1   
 15   9  12  1   
 16  10  13  1   
 17  11  14  1   
 18  11  27  1   
 19  11  28  1   
 20  12  15  1   
 21  12  29  1   
 22  12  30  1   
 23  14  16  1   
 24  14  17  2   
 25  15  18  1   
 26  15  31  1   
 27  15  32  1   
 28  16  19  2   
 29  17  20  1   
 30  17  21  1   
 31  18  22  1   
 32  18  23  1   
 33  18  33  1   
 34  19  20  1   
 35  19  34  1   
 36  20  35  1   
 37  21  36  1   
 38  21  37  1   
 39  21  38  1   
 40  22  39  1   
 41  22  40  1   
 42  22  41  1   
 43  23  42  1   
 44  23  43  1   
 45  23  44  1   
@<TRIPOS>SUBSTRUCTURE
  1 ****   9 GROUP 4 **** **** 0

# MOE 2024.06 (io_trps.svl 2023.06)
