@<TRIPOS>MOLECULE
NONAME
51 53 1 0 0 
SMALL
USER_CHARGES


@<TRIPOS>ATOM
  1 O        0.3030     1.8980    -1.9910 O.2   1 <1>  -0.5700 
  2 C       -0.2560     2.9530    -1.8050 C.2   1 <1>   0.5690 
  3 N       -0.6690     3.3930    -0.5730 N.am  1 <1>  -0.6600 
  4 C       -0.5180     3.8360    -3.0210 C.3   1 <1>   0.1810 
  5 C       -1.3750     4.7110    -0.4310 C.3   1 <1>   0.3640 
  6 C       -0.3860     2.7010     0.7160 C.3   1 <1>   0.2200 
  7 O       -0.4530     5.1980    -2.6910 O.3   1 <1>  -0.5600 
  8 C       -2.8080     4.4710     0.0480 C.ar  1 <1>  -0.1440 
  9 C       -1.3960     5.6000    -1.7080 C.3   1 <1>   0.2610 
 10 C        1.1200     2.6790     0.9780 C.3   1 <1>  -0.2400 
 11 C       -0.9940     1.2980     0.7440 C.3   1 <1>  -0.2400 
 12 C       -3.3340     5.2530     1.0680 C.ar  1 <1>  -0.1500 
 13 C       -3.6070     3.4880    -0.5240 C.ar  1 <1>  -0.1500 
 14 C       -1.1370     7.0530    -1.2980 C.2   1 <1>   0.5690 
 15 C       -4.6300     5.0540     1.5100 C.ar  1 <1>  -0.1500 
 16 C       -4.9030     3.2890    -0.0820 C.ar  1 <1>  -0.1500 
 17 O       -1.9170     7.6210    -0.5720 O.2   1 <1>  -0.5700 
 18 N       -0.0050     7.6670    -1.7220 N.am  1 <1>  -0.7300 
 19 C       -5.4160     4.0720     0.9360 C.ar  1 <1>  -0.1500 
 20 C        0.5160     8.9490    -1.1840 C.3   1 <1>   0.3200 
 21 C        1.6470     8.6970    -0.1990 C.2   1 <1>   0.2980 
 22 O        1.3720     8.0680     0.9170 O.3   1 <1>  -0.0190 
 23 N        2.8670     9.0310    -0.3540 N.2   1 <1>  -0.5650 
 24 N        2.5180     7.9920     1.5220 N.2   1 <1>  -0.4100 
 25 C        3.3800     8.5560     0.7720 C.2   1 <1>   0.3350 
 26 C        4.8660     8.7120     1.0620 C.3   1 <1>   0.0210 
 27 C        5.3240     8.0370     2.3640 C.3   1 <1>  -0.2400 
 28 H       -1.4880     3.6210    -3.4300 H     1 <1>   0.0800 
 29 H        0.2290     3.6430    -3.7680 H     1 <1>   0.0800 
 30 H       -0.8550     5.2610     0.3360 H     1 <1>   0.0800 
 31 H       -0.8450     3.2590     1.5150 H     1 <1>   0.0800 
 32 H       -2.3700     5.5540    -2.1610 H     1 <1>   0.0800 
 33 H        1.6270     2.0780     0.2450 H     1 <1>   0.0800 
 34 H        1.3140     2.2610     1.9480 H     1 <1>   0.0800 
 35 H        1.5150     3.6780     0.9520 H     1 <1>   0.0800 
 36 H       -0.5180     0.6510     0.0290 H     1 <1>   0.0800 
 37 H       -2.0470     1.3450     0.5370 H     1 <1>   0.0800 
 38 H       -0.8620     0.8670     1.7190 H     1 <1>   0.0800 
 39 H       -2.7410     6.0290     1.5210 H     1 <1>   0.1500 
 40 H       -3.2230     2.8660    -1.3130 H     1 <1>   0.1500 
 41 H       -5.0270     5.6680     2.3000 H     1 <1>   0.1500 
 42 H       -5.5120     2.5230    -0.5300 H     1 <1>   0.1500 
 43 H        0.6340     7.1210    -2.3110 H     1 <1>   0.3700 
 44 H       -6.4240     3.9180     1.2800 H     1 <1>   0.1500 
 45 H        0.8790     9.5530    -1.9960 H     1 <1>   0.0800 
 46 H       -0.2700     9.4890    -0.6850 H     1 <1>   0.0800 
 47 H        5.4140     8.2940     0.2370 H     1 <1>   0.0800 
 48 H        5.0910     9.7620     1.1080 H     1 <1>   0.0800 
 49 H        5.1190     6.9810     2.3270 H     1 <1>   0.0800 
 50 H        4.8010     8.4590     3.2050 H     1 <1>   0.0800 
 51 H        6.3800     8.1810     2.5060 H     1 <1>   0.0800 
@<TRIPOS>BOND
  1   1   2  2   
  2   2   3  am  
  3   2   4  1   
  4   3   5  1   
  5   3   6  1   
  6   4   7  1   
  7   4  28  1   
  8   4  29  1   
  9   5   8  1   
 10   5   9  1   
 11   5  30  1   
 12   6  10  1   
 13   6  11  1   
 14   6  31  1   
 15   7   9  1   
 16   8  12  ar  
 17   8  13  ar  
 18   9  14  1   
 19   9  32  1   
 20  10  33  1   
 21  10  34  1   
 22  10  35  1   
 23  11  36  1   
 24  11  37  1   
 25  11  38  1   
 26  12  15  ar  
 27  12  39  1   
 28  13  16  ar  
 29  13  40  1   
 30  14  17  2   
 31  14  18  am  
 32  15  19  ar  
 33  15  41  1   
 34  16  19  ar  
 35  16  42  1   
 36  18  20  1   
 37  18  43  1   
 38  19  44  1   
 39  20  21  1   
 40  20  45  1   
 41  20  46  1   
 42  21  22  1   
 43  21  23  2   
 44  22  24  1   
 45  23  25  1   
 46  24  25  2   
 47  25  26  1   
 48  26  27  1   
 49  26  47  1   
 50  26  48  1   
 51  27  49  1   
 52  27  50  1   
 53  27  51  1   
@<TRIPOS>SUBSTRUCTURE
  1 ****   5 GROUP 4 **** **** 0

# MOE 2024.06 (io_trps.svl 2023.06)
