@<TRIPOS>MOLECULE
NONAME
52 53 1 0 0 
SMALL
USER_CHARGES


@<TRIPOS>ATOM
  1 S        0.0950     0.5830    -0.8830 S.o2  1 <1>   1.3330 
  2 O       -0.6090    -0.5970    -1.3160 O.2   1 <1>  -0.6500 
  3 O        0.3330     1.6810    -1.7920 O.2   1 <1>  -0.6500 
  4 N        1.6000     0.1050    -0.2610 N.am  1 <1>  -0.8490 
  5 C       -0.7370     1.2740     0.5560 C.3   1 <1>  -0.0550 
  6 C        1.5410    -1.1790     0.4580 C.3   1 <1>   0.1160 
  7 C        2.6050    -0.0170    -1.3280 C.3   1 <1>   0.1160 
  8 C       -0.3560     2.7260     0.9420 C.3   1 <1>  -0.0800 
  9 C       -0.8740     3.7760    -0.0600 C.3   1 <1>   0.2000 
 10 C        1.1590     2.9840     1.0660 C.3   1 <1>   0.3430 
 11 O       -1.5850     4.7350     0.6530 O.3   1 <1>  -0.6800 
 12 C        0.3870     4.4320    -0.6350 C.3   1 <1>   0.3430 
 13 N        1.4220     4.3030     0.4340 N.4   1 <1>  -0.9590 
 14 C        1.3320     5.4300     1.4000 C.3   1 <1>   0.5240 
 15 C        1.7520     6.6830     0.6730 C.2   1 <1>  -0.1810 
 16 C        2.9780     7.1230     0.3030 C.2   1 <1>  -0.3320 
 17 C        0.8690     7.6540     0.2190 C.2   1 <1>   0.1390 
 18 N        2.7850     8.3000    -0.3430 N.pl3 1 <1>   0.3140 
 19 C        4.3460     6.4970     0.5340 C.3   1 <1>  -0.0600 
 20 N        1.4780     8.6130    -0.3980 N.2   1 <1>  -0.7070 
 21 C        3.8030     9.1930    -0.9390 C.3   1 <1>   0.0960 
 22 C        4.3120    10.2120     0.0900 C.3   1 <1>  -0.1600 
 23 C        5.3810    11.1290    -0.5140 C.3   1 <1>  -0.2400 
 24 H       -1.7950     1.2500     0.3730 H     1 <1>   0.0800 
 25 H       -0.5610     0.6330     1.3980 H     1 <1>   0.0800 
 26 H        2.5040    -1.4120     0.8810 H     1 <1>   0.0800 
 27 H        1.2570    -1.9760    -0.2100 H     1 <1>   0.0800 
 28 H        0.8250    -1.1340     1.2590 H     1 <1>   0.0800 
 29 H        3.5540    -0.3180    -0.9180 H     1 <1>   0.0800 
 30 H        2.7390     0.9280    -1.8270 H     1 <1>   0.0800 
 31 H        2.2910    -0.7470    -2.0570 H     1 <1>   0.0800 
 32 H       -0.7960     2.9120     1.9070 H     1 <1>   0.0800 
 33 H       -1.5060     3.3840    -0.8400 H     1 <1>   0.0800 
 34 H        1.7110     2.2340     0.5300 H     1 <1>   0.0800 
 35 H        1.4770     2.9700     2.0960 H     1 <1>   0.0800 
 36 H       -2.5270     4.4780     0.7540 H     1 <1>   0.4000 
 37 H        0.2050     5.4550    -0.9170 H     1 <1>   0.0800 
 38 H        0.7060     3.8850    -1.5070 H     1 <1>   0.0800 
 39 H        2.3520     4.3570     0.0030 H     1 <1>   0.4500 
 40 H        0.3280     5.5360     1.7770 H     1 <1>   0.0800 
 41 H        1.9990     5.2640     2.2300 H     1 <1>   0.0800 
 42 H       -0.2020     7.6300     0.3480 H     1 <1>   0.1500 
 43 H        4.2660     5.5910     1.1050 H     1 <1>   0.0800 
 44 H        4.9780     7.1790     1.0760 H     1 <1>   0.0800 
 45 H        4.8160     6.2700    -0.4080 H     1 <1>   0.0800 
 46 H        4.6140     8.5960    -1.3110 H     1 <1>   0.0800 
 47 H        3.3500     9.7070    -1.7680 H     1 <1>   0.0800 
 48 H        3.4840    10.8120     0.4290 H     1 <1>   0.0800 
 49 H        4.7270     9.6970     0.9380 H     1 <1>   0.0800 
 50 H        4.9810    11.6740    -1.3520 H     1 <1>   0.0800 
 51 H        6.2300    10.5570    -0.8460 H     1 <1>   0.0800 
 52 H        5.7150    11.8380     0.2230 H     1 <1>   0.0800 
@<TRIPOS>BOND
  1   1   2  2   
  2   1   3  2   
  3   1   4  am  
  4   1   5  1   
  5   4   6  1   
  6   4   7  1   
  7   5   8  1   
  8   5  24  1   
  9   5  25  1   
 10   6  26  1   
 11   6  27  1   
 12   6  28  1   
 13   7  29  1   
 14   7  30  1   
 15   7  31  1   
 16   8   9  1   
 17   8  10  1   
 18   8  32  1   
 19   9  11  1   
 20   9  12  1   
 21   9  33  1   
 22  10  13  1   
 23  10  34  1   
 24  10  35  1   
 25  11  36  1   
 26  12  13  1   
 27  12  37  1   
 28  12  38  1   
 29  13  14  1   
 30  13  39  1   
 31  14  15  1   
 32  14  40  1   
 33  14  41  1   
 34  15  16  2   
 35  15  17  1   
 36  16  18  1   
 37  16  19  1   
 38  17  20  2   
 39  17  42  1   
 40  18  20  1   
 41  18  21  1   
 42  19  43  1   
 43  19  44  1   
 44  19  45  1   
 45  21  22  1   
 46  21  46  1   
 47  21  47  1   
 48  22  23  1   
 49  22  48  1   
 50  22  49  1   
 51  23  50  1   
 52  23  51  1   
 53  23  52  1   
@<TRIPOS>SUBSTRUCTURE
  1 ****  13 GROUP 4 **** **** 0

# MOE 2024.06 (io_trps.svl 2023.06)
