@<TRIPOS>MOLECULE
NONAME
46 48 1 0 0 
SMALL
USER_CHARGES


@<TRIPOS>ATOM
  1 O       -0.4830     0.3100     0.4470 O.2   1 <1>  -0.5700 
  2 C       -1.5000     0.8580     0.0930 C.2   1 <1>   0.5690 
  3 N       -2.6160     0.1360    -0.2240 N.am  1 <1>  -0.6600 
  4 C       -1.5410     2.3800     0.0150 C.3   1 <1>  -0.0990 
  5 C       -3.9790     0.6600    -0.4980 C.3   1 <1>   0.1400 
  6 C       -2.6440    -1.3490    -0.1790 C.3   1 <1>   0.1400 
  7 C       -0.1540     3.0480     0.0670 C.3   1 <1>  -0.1600 
  8 C       -4.9040    -0.4740    -0.0640 C.3   1 <1>   0.2000 
  9 C       -4.1100    -1.7330    -0.4200 C.3   1 <1>  -0.0800 
 10 C       -0.2430     4.5770    -0.0420 C.3   1 <1>   0.0210 
 11 O       -5.0570    -0.3940     1.3120 O.3   1 <1>  -0.6800 
 12 C       -4.5410    -3.0210     0.3040 C.3   1 <1>   0.0210 
 13 C        1.1250     5.2370     0.0100 C.2   1 <1>  -0.1810 
 14 C       -3.6890    -4.1950    -0.1350 C.2   1 <1>   0.1080 
 15 C        1.3670     6.6050    -0.0970 C.2   1 <1>   0.1390 
 16 C        2.3510     4.6900     0.1620 C.2   1 <1>  -0.3020 
 17 N       -3.6770    -4.6390    -1.3530 N.2   1 <1>  -0.7070 
 18 C       -2.8310    -4.9100     0.6940 C.2   1 <1>  -0.1500 
 19 N        2.6300     6.8930    -0.0190 N.2   1 <1>  -0.7070 
 20 N        3.2390     5.7030     0.1420 N.pl3 1 <1>   0.3000 
 21 N       -2.8010    -5.6610    -1.3340 N.pl3 1 <1>   0.3000 
 22 C       -2.2740    -5.8450    -0.1050 C.2   1 <1>  -0.3320 
 23 C       -1.2560    -6.9160     0.2360 C.3   1 <1>  -0.0600 
 24 H       -2.0240     2.6570    -0.9040 H     1 <1>   0.0800 
 25 H       -2.1380     2.7380     0.8340 H     1 <1>   0.0800 
 26 H       -4.1870     1.5680     0.0410 H     1 <1>   0.0800 
 27 H       -4.0810     0.8320    -1.5550 H     1 <1>   0.0800 
 28 H       -2.0020    -1.7660    -0.9370 H     1 <1>   0.0800 
 29 H       -2.3090    -1.6800     0.7890 H     1 <1>   0.0800 
 30 H        0.3290     2.7870     0.9940 H     1 <1>   0.0800 
 31 H        0.4510     2.6680    -0.7380 H     1 <1>   0.0800 
 32 H       -5.8770    -0.4340    -0.5240 H     1 <1>   0.0800 
 33 H       -4.2210    -1.9000    -1.4780 H     1 <1>   0.0800 
 34 H       -0.8410     4.9610     0.7660 H     1 <1>   0.0800 
 35 H       -0.7190     4.8440    -0.9690 H     1 <1>   0.0800 
 36 H       -4.1690    -0.3250     1.7170 H     1 <1>   0.4000 
 37 H       -5.5690    -3.2360     0.0730 H     1 <1>   0.0800 
 38 H       -4.4570    -2.9050     1.3700 H     1 <1>   0.0800 
 39 H        0.6000     7.3500    -0.2290 H     1 <1>   0.1500 
 40 H        2.6390     3.6610     0.2810 H     1 <1>   0.1500 
 41 H       -2.6660    -4.7330     1.7420 H     1 <1>   0.1500 
 42 H        4.2580     5.6170     0.2340 H     1 <1>   0.2700 
 43 H       -2.5860    -6.2120    -2.1730 H     1 <1>   0.2700 
 44 H       -0.9910    -6.8570     1.2770 H     1 <1>   0.0800 
 45 H       -0.3640    -6.7830    -0.3510 H     1 <1>   0.0800 
 46 H       -1.6630    -7.8920     0.0410 H     1 <1>   0.0800 
@<TRIPOS>BOND
  1   1   2  2   
  2   2   3  am  
  3   2   4  1   
  4   3   5  1   
  5   3   6  1   
  6   4   7  1   
  7   4  24  1   
  8   4  25  1   
  9   5   8  1   
 10   5  26  1   
 11   5  27  1   
 12   6   9  1   
 13   6  28  1   
 14   6  29  1   
 15   7  10  1   
 16   7  30  1   
 17   7  31  1   
 18   8   9  1   
 19   8  11  1   
 20   8  32  1   
 21   9  12  1   
 22   9  33  1   
 23  10  13  1   
 24  10  34  1   
 25  10  35  1   
 26  11  36  1   
 27  12  14  1   
 28  12  37  1   
 29  12  38  1   
 30  13  15  1   
 31  13  16  2   
 32  14  17  2   
 33  14  18  1   
 34  15  19  2   
 35  15  39  1   
 36  16  20  1   
 37  16  40  1   
 38  17  21  1   
 39  18  22  2   
 40  18  41  1   
 41  19  20  1   
 42  20  42  1   
 43  21  22  1   
 44  21  43  1   
 45  22  23  1   
 46  23  44  1   
 47  23  45  1   
 48  23  46  1   
@<TRIPOS>SUBSTRUCTURE
  1 ****   2 GROUP 4 **** **** 0

# MOE 2024.06 (io_trps.svl 2023.06)
