@<TRIPOS>MOLECULE
NONAME
46 50 1 0 0 
SMALL
USER_CHARGES


@<TRIPOS>ATOM
  1 S       -3.0790     0.8570    -3.3400 S.3   1 <1>  -0.0800 
  2 C       -3.3330     0.5960    -1.6270 C.ar  1 <1>   0.0400 
  3 C       -1.8860     2.0910    -2.9530 C.2   1 <1>   0.2280 
  4 C       -2.4990     1.4550    -0.9360 C.ar  1 <1>   0.2270 
  5 C       -4.1950    -0.2900    -1.0120 C.ar  1 <1>  -0.1500 
  6 N       -1.6970     2.2860    -1.7110 N.2   1 <1>  -0.5650 
  7 C       -2.5310     1.4150     0.4490 C.ar  1 <1>  -0.1500 
  8 C       -4.2450    -0.3230     0.3820 C.ar  1 <1>   0.0860 
  9 C       -3.3900     0.5360     1.0890 C.ar  1 <1>  -0.1500 
 10 C       -5.1450    -1.2150     1.0900 C.2   1 <1>   0.5440 
 11 O       -4.7190    -1.8740     2.0200 O.2   1 <1>  -0.5700 
 12 N       -6.4780    -1.3260     0.7560 N.am  1 <1>  -0.6600 
 13 C       -7.2040    -0.2740    -0.0340 C.3   1 <1>   0.1400 
 14 C       -7.3120    -2.4020     1.3720 C.3   1 <1>   0.1400 
 15 C       -8.6280    -0.0300     0.4990 C.3   1 <1>   0.1440 
 16 C       -8.6060    -2.6200     0.5790 C.3   1 <1>  -0.1600 
 17 C       -9.2460     1.0950    -0.3150 C.ar  1 <1>   0.1670 
 18 C       -9.4560    -1.3410     0.4280 C.3   1 <1>  -0.1600 
 19 C       -8.5960     0.5770     1.9330 C.3   1 <1>  -0.1600 
 20 N       -9.6380     1.0040    -1.5670 N.ar  1 <1>  -0.6200 
 21 C       -9.3290     2.2520     0.3990 C.ar  1 <1>  -0.1430 
 22 C       -8.7790     2.0980     1.7940 C.3   1 <1>  -0.0170 
 23 C      -10.1400     2.1230    -2.0700 C.ar  1 <1>   0.4770 
 24 C       -9.8620     3.3540    -0.2210 C.ar  1 <1>   0.1600 
 25 N      -10.2770     3.2980    -1.4700 N.ar  1 <1>  -0.6200 
 26 C      -10.6050     2.0470    -3.5030 C.3   1 <1>  -0.0970 
 27 H       -1.4130     2.5810    -3.7860 H     1 <1>   0.1500 
 28 H       -4.8140    -0.9440    -1.6000 H     1 <1>   0.1500 
 29 H       -1.8830     2.0690     1.0040 H     1 <1>   0.1500 
 30 H       -3.4090     0.5010     2.1650 H     1 <1>   0.1500 
 31 H       -7.2680    -0.5930    -1.0610 H     1 <1>   0.0800 
 32 H       -6.6590     0.6530    -0.0070 H     1 <1>   0.0800 
 33 H       -7.5430    -2.1290     2.3870 H     1 <1>   0.0800 
 34 H       -6.7460    -3.3190     1.3970 H     1 <1>   0.0800 
 35 H       -9.1910    -3.3880     1.0520 H     1 <1>   0.0800 
 36 H       -8.3350    -2.9820    -0.3980 H     1 <1>   0.0800 
 37 H       -9.9530    -1.3990    -0.5250 H     1 <1>   0.0800 
 38 H      -10.2330    -1.3300     1.1710 H     1 <1>   0.0800 
 39 H       -7.6860     0.3480     2.4600 H     1 <1>   0.0800 
 40 H       -9.4170     0.1990     2.5140 H     1 <1>   0.0800 
 41 H       -7.8320     2.6040     1.8680 H     1 <1>   0.0800 
 42 H       -9.4590     2.4840     2.5330 H     1 <1>   0.0800 
 43 H       -9.9490     4.2900     0.3040 H     1 <1>   0.1500 
 44 H      -11.1630     1.1420    -3.6560 H     1 <1>   0.0800 
 45 H       -9.7520     2.0510    -4.1530 H     1 <1>   0.0800 
 46 H      -11.2320     2.8870    -3.7390 H     1 <1>   0.0800 
@<TRIPOS>BOND
  1   1   2  1   
  2   1   3  1   
  3   2   4  ar  
  4   2   5  ar  
  5   3   6  2   
  6   3  27  1   
  7   4   6  1   
  8   4   7  ar  
  9   5   8  ar  
 10   5  28  1   
 11   7   9  ar  
 12   7  29  1   
 13   8   9  ar  
 14   8  10  1   
 15   9  30  1   
 16  10  11  2   
 17  10  12  am  
 18  12  13  1   
 19  12  14  1   
 20  13  15  1   
 21  13  31  1   
 22  13  32  1   
 23  14  16  1   
 24  14  33  1   
 25  14  34  1   
 26  15  17  1   
 27  15  18  1   
 28  15  19  1   
 29  16  18  1   
 30  16  35  1   
 31  16  36  1   
 32  17  20  ar  
 33  17  21  ar  
 34  18  37  1   
 35  18  38  1   
 36  19  22  1   
 37  19  39  1   
 38  19  40  1   
 39  20  23  ar  
 40  21  22  1   
 41  21  24  ar  
 42  22  41  1   
 43  22  42  1   
 44  23  25  ar  
 45  23  26  1   
 46  24  25  ar  
 47  24  43  1   
 48  26  44  1   
 49  26  45  1   
 50  26  46  1   
@<TRIPOS>SUBSTRUCTURE
  1 ****  13 GROUP 4 **** **** 0

# MOE 2024.06 (io_trps.svl 2023.06)
