@<TRIPOS>MOLECULE
NONAME
51 52 1 0 0 
SMALL
USER_CHARGES


@<TRIPOS>ATOM
  1 O       -0.7070     0.3240    -1.4210 O.2   1 <1>  -0.5700 
  2 C       -1.5300     0.8580    -0.7140 C.2   1 <1>   0.5690 
  3 N       -2.4710     0.1010    -0.0570 N.am  1 <1>  -0.6600 
  4 C       -1.4650     2.3910    -0.6130 C.3   1 <1>  -0.0190 
  5 C       -3.5760     0.5560     0.8270 C.3   1 <1>   0.1400 
  6 C       -2.4940    -1.3780    -0.1860 C.3   1 <1>   0.1400 
  7 C       -1.4320     2.8930     0.8530 C.3   1 <1>  -0.1600 
  8 C       -2.5700     3.0300    -1.4890 C.3   1 <1>  -0.1600 
  9 C       -4.4520    -0.6790     1.0260 C.3   1 <1>   0.2000 
 10 C       -3.5110    -1.8650     0.8460 C.3   1 <1>  -0.0800 
 11 C       -0.4480     4.0520     1.0840 C.3   1 <1>  -0.1600 
 12 C       -2.4920     4.5590    -1.6060 C.3   1 <1>  -0.1600 
 13 O       -5.0240    -0.7020     2.2870 O.3   1 <1>  -0.6800 
 14 C       -4.2330    -3.1570     0.4360 C.3   1 <1>   0.0210 
 15 C       -0.4690     4.5030     2.5470 C.3   1 <1>  -0.2400 
 16 C       -3.5190     5.0850    -2.6110 C.3   1 <1>  -0.2400 
 17 C       -3.2400    -4.2730     0.1800 C.2   1 <1>   0.1080 
 18 N       -2.4570    -4.7410     1.1020 N.2   1 <1>  -0.7070 
 19 C       -3.0460    -4.9030    -1.0450 C.2   1 <1>  -0.1500 
 20 N       -1.7350    -5.6940     0.4830 N.pl3 1 <1>   0.3000 
 21 C       -2.0720    -5.8090    -0.8190 C.2   1 <1>  -0.3320 
 22 C       -1.4330    -6.7920    -1.7820 C.3   1 <1>  -0.0600 
 23 H       -0.5230     2.6600    -1.0600 H     1 <1>   0.0800 
 24 H       -3.1670     0.8760     1.7690 H     1 <1>   0.0800 
 25 H       -4.1420     1.3470     0.3750 H     1 <1>   0.0800 
 26 H       -2.8010    -1.6350    -1.1860 H     1 <1>   0.0800 
 27 H       -1.5180    -1.7960     0.0000 H     1 <1>   0.0800 
 28 H       -2.4210     3.1860     1.1620 H     1 <1>   0.0800 
 29 H       -1.1190     2.0820     1.4880 H     1 <1>   0.0800 
 30 H       -2.4860     2.6090    -2.4770 H     1 <1>   0.0800 
 31 H       -3.5400     2.7640    -1.1140 H     1 <1>   0.0800 
 32 H       -5.2400    -0.6850     0.2930 H     1 <1>   0.0800 
 33 H       -2.9700    -2.0400     1.7600 H     1 <1>   0.0800 
 34 H        0.5490     3.7300     0.8310 H     1 <1>   0.0800 
 35 H       -0.6900     4.8910     0.4590 H     1 <1>   0.0800 
 36 H       -2.6880     5.0100    -0.6490 H     1 <1>   0.0800 
 37 H       -1.5050     4.8490    -1.9250 H     1 <1>   0.0800 
 38 H       -4.3440    -0.8900     2.9630 H     1 <1>   0.4000 
 39 H       -4.8190    -2.9900    -0.4500 H     1 <1>   0.0800 
 40 H       -4.8980    -3.4620     1.2250 H     1 <1>   0.0800 
 41 H       -0.1960     3.6890     3.1970 H     1 <1>   0.0800 
 42 H       -1.4490     4.8520     2.8200 H     1 <1>   0.0800 
 43 H        0.2320     5.3050     2.6940 H     1 <1>   0.0800 
 44 H       -4.5160     4.8190    -2.3060 H     1 <1>   0.0800 
 45 H       -3.3350     4.6740    -3.5890 H     1 <1>   0.0800 
 46 H       -3.4560     6.1570    -2.6750 H     1 <1>   0.0800 
 47 H       -3.5710    -4.6920    -1.9590 H     1 <1>   0.1500 
 48 H       -1.0210    -6.2440     0.9740 H     1 <1>   0.2700 
 49 H       -1.8710    -6.6910    -2.7590 H     1 <1>   0.0800 
 50 H       -1.5850    -7.8010    -1.4400 H     1 <1>   0.0800 
 51 H       -0.3770    -6.6030    -1.8600 H     1 <1>   0.0800 
@<TRIPOS>BOND
  1   1   2  2   
  2   2   3  am  
  3   2   4  1   
  4   3   5  1   
  5   3   6  1   
  6   4   7  1   
  7   4   8  1   
  8   4  23  1   
  9   5   9  1   
 10   5  24  1   
 11   5  25  1   
 12   6  10  1   
 13   6  26  1   
 14   6  27  1   
 15   7  11  1   
 16   7  28  1   
 17   7  29  1   
 18   8  12  1   
 19   8  30  1   
 20   8  31  1   
 21   9  10  1   
 22   9  13  1   
 23   9  32  1   
 24  10  14  1   
 25  10  33  1   
 26  11  15  1   
 27  11  34  1   
 28  11  35  1   
 29  12  16  1   
 30  12  36  1   
 31  12  37  1   
 32  13  38  1   
 33  14  17  1   
 34  14  39  1   
 35  14  40  1   
 36  15  41  1   
 37  15  42  1   
 38  15  43  1   
 39  16  44  1   
 40  16  45  1   
 41  16  46  1   
 42  17  18  2   
 43  17  19  1   
 44  18  20  1   
 45  19  21  2   
 46  19  47  1   
 47  20  21  1   
 48  20  48  1   
 49  21  22  1   
 50  22  49  1   
 51  22  50  1   
 52  22  51  1   
@<TRIPOS>SUBSTRUCTURE
  1 ****   3 GROUP 4 **** **** 0

# MOE 2024.06 (io_trps.svl 2023.06)
