@<TRIPOS>MOLECULE
NONAME
43 45 1 0 0 
SMALL
USER_CHARGES


@<TRIPOS>ATOM
  1 O        1.4140     2.8140    -1.5250 O.3   1 <1>  -0.0190 
  2 N        2.6730     2.7400    -1.8230 N.2   1 <1>  -0.4100 
  3 C        1.0910     1.9830    -0.5720 C.2   1 <1>  -0.0400 
  4 C        3.1620     1.8000    -1.0960 C.2   1 <1>   0.1080 
  5 C        2.1840     1.2740    -0.2560 C.2   1 <1>  -0.1500 
  6 C       -0.3200     1.9790    -0.0110 C.3   1 <1>   0.0200 
  7 C        4.6020     1.3380    -1.1510 C.3   1 <1>  -0.0590 
  8 C       -0.7380     3.3270     0.6250 C.3   1 <1>  -0.0800 
  9 C       -1.1250     4.3890    -0.4120 C.3   1 <1>   0.2000 
 10 C        0.3930     3.9910     1.4200 C.3   1 <1>   0.3430 
 11 O       -2.2020     5.1190     0.0760 O.3   1 <1>  -0.6800 
 12 C        0.0840     5.3250    -0.5590 C.3   1 <1>   0.3430 
 13 N        1.0920     4.8900     0.4620 N.4   1 <1>  -0.9590 
 14 C        1.8600     6.0020     1.0840 C.3   1 <1>   0.5240 
 15 C        2.4150     6.8910    -0.0020 C.2   1 <1>  -0.1810 
 16 C        3.4150     6.6770    -0.8730 C.2   1 <1>  -0.0400 
 17 C        1.9670     8.1710    -0.3310 C.2   1 <1>   0.1080 
 18 O        3.5090     7.7310    -1.6350 O.3   1 <1>  -0.0190 
 19 C        4.3720     5.5250    -1.1070 C.3   1 <1>  -0.0600 
 20 N        2.6370     8.6400    -1.3180 N.2   1 <1>  -0.4100 
 21 C        0.8590     8.9530     0.3480 C.3   1 <1>  -0.0590 
 22 H        2.3220     0.4870     0.4650 H     1 <1>   0.1500 
 23 H       -1.0130     1.7050    -0.7890 H     1 <1>   0.0800 
 24 H       -0.3730     1.2100     0.7400 H     1 <1>   0.0800 
 25 H        5.0670     1.4520    -0.1900 H     1 <1>   0.0800 
 26 H        5.1490     1.9150    -1.8750 H     1 <1>   0.0800 
 27 H        4.6400     0.3030    -1.4390 H     1 <1>   0.0800 
 28 H       -1.5720     3.1190     1.2740 H     1 <1>   0.0800 
 29 H       -1.4180     3.9740    -1.3620 H     1 <1>   0.0800 
 30 H        1.0660     3.2590     1.8390 H     1 <1>   0.0800 
 31 H       -0.0340     4.5760     2.2190 H     1 <1>   0.0800 
 32 H       -2.1520     5.3000     1.0340 H     1 <1>   0.4000 
 33 H       -0.2240     6.3440    -0.4020 H     1 <1>   0.0800 
 34 H        0.5070     5.2360    -1.5480 H     1 <1>   0.0800 
 35 H        1.7690     4.3170    -0.0750 H     1 <1>   0.4500 
 36 H        1.2200     6.5810     1.7300 H     1 <1>   0.0800 
 37 H        2.6720     5.6060     1.6720 H     1 <1>   0.0800 
 38 H        4.2120     4.7380    -0.3950 H     1 <1>   0.0800 
 39 H        5.3850     5.8740    -1.0170 H     1 <1>   0.0800 
 40 H        4.2330     5.1350    -2.1000 H     1 <1>   0.0800 
 41 H       -0.0910     8.4770     0.1900 H     1 <1>   0.0800 
 42 H        0.8120     9.9450    -0.0660 H     1 <1>   0.0800 
 43 H        1.0530     9.0360     1.4010 H     1 <1>   0.0800 
@<TRIPOS>BOND
  1   1   2  1   
  2   1   3  1   
  3   2   4  2   
  4   3   5  2   
  5   3   6  1   
  6   4   5  1   
  7   4   7  1   
  8   5  22  1   
  9   6   8  1   
 10   6  23  1   
 11   6  24  1   
 12   7  25  1   
 13   7  26  1   
 14   7  27  1   
 15   8   9  1   
 16   8  10  1   
 17   8  28  1   
 18   9  11  1   
 19   9  12  1   
 20   9  29  1   
 21  10  13  1   
 22  10  30  1   
 23  10  31  1   
 24  11  32  1   
 25  12  13  1   
 26  12  33  1   
 27  12  34  1   
 28  13  14  1   
 29  13  35  1   
 30  14  15  1   
 31  14  36  1   
 32  14  37  1   
 33  15  16  2   
 34  15  17  1   
 35  16  18  1   
 36  16  19  1   
 37  17  20  2   
 38  17  21  1   
 39  18  20  1   
 40  19  38  1   
 41  19  39  1   
 42  19  40  1   
 43  21  41  1   
 44  21  42  1   
 45  21  43  1   
@<TRIPOS>SUBSTRUCTURE
  1 ****  13 GROUP 4 **** **** 0

# MOE 2024.06 (io_trps.svl 2023.06)
