@<TRIPOS>MOLECULE
NONAME
49 52 1 0 0 
SMALL
USER_CHARGES


@<TRIPOS>ATOM
  1 O       -0.5700    -3.8890     1.8250 O.2   1 <1>  -0.5700 
  2 C        0.3710    -3.3920     1.2540 C.2   1 <1>   0.5690 
  3 N        0.3340    -2.8430     0.0210 N.am  1 <1>  -0.6600 
  4 C        1.7630    -3.3500     1.8170 C.3   1 <1>  -0.0990 
  5 C        1.6590    -2.4280    -0.4660 C.3   1 <1>   0.1400 
  6 C       -0.8770    -2.7690    -0.8570 C.3   1 <1>   0.2010 
  7 C        2.6280    -2.9400     0.6100 C.3   1 <1>  -0.1600 
  8 C       -1.2920    -4.1250    -1.4320 C.2   1 <1>   0.5690 
  9 O       -1.4200    -4.2500    -2.6270 O.2   1 <1>  -0.5700 
 10 N       -1.5040    -5.1560    -0.5760 N.am  1 <1>  -0.7300 
 11 C       -1.8200    -6.5490    -0.9510 C.3   1 <1>   0.2200 
 12 C       -2.9890    -7.0380    -0.1120 C.3   1 <1>  -0.0800 
 13 C       -0.6810    -7.4770    -0.5190 C.3   1 <1>   0.1200 
 14 C       -2.2670    -7.5250     1.1430 C.3   1 <1>   0.1200 
 15 C       -3.7460    -8.1770    -0.8250 C.3   1 <1>  -0.0170 
 16 O       -1.0590    -8.0590     0.6980 O.3   1 <1>  -0.5600 
 17 C       -4.9310    -8.6810    -0.0050 C.ar  1 <1>  -0.1440 
 18 C       -6.1570    -7.9780     0.0740 C.ar  1 <1>   0.0000 
 19 C       -4.8310    -9.8540     0.6840 C.ar  1 <1>  -0.1500 
 20 C       -7.1860    -8.5400     0.8690 C.ar  1 <1>   0.3100 
 21 C       -6.4230    -6.7570    -0.5870 C.ar  1 <1>  -0.1500 
 22 C       -5.9120   -10.3220     1.4400 C.ar  1 <1>   0.1600 
 23 N       -7.0480    -9.7100     1.5440 N.ar  1 <1>  -0.6200 
 24 C       -8.4130    -7.8650     0.9680 C.ar  1 <1>  -0.1500 
 25 C       -7.6310    -6.1240    -0.4690 C.ar  1 <1>  -0.1500 
 26 C       -8.6410    -6.6830     0.3180 C.ar  1 <1>  -0.1500 
 27 H        1.8030    -2.6110     2.5950 H     1 <1>   0.0800 
 28 H        2.0440    -4.3120     2.2050 H     1 <1>   0.0800 
 29 H        1.8680    -2.8710    -1.4250 H     1 <1>   0.0800 
 30 H        1.6950    -1.3540    -0.5400 H     1 <1>   0.0800 
 31 H       -1.6990    -2.3850    -0.2810 H     1 <1>   0.0800 
 32 H       -0.6920    -2.0890    -1.6680 H     1 <1>   0.0800 
 33 H        3.1490    -3.8010     0.2280 H     1 <1>   0.0800 
 34 H        3.3530    -2.1900     0.8730 H     1 <1>   0.0800 
 35 H       -1.3000    -4.9910     0.4230 H     1 <1>   0.3700 
 36 H       -2.0060    -6.6120    -2.0100 H     1 <1>   0.0800 
 37 H       -3.6710    -6.2410     0.1210 H     1 <1>   0.0800 
 38 H        0.2460    -6.9470    -0.3860 H     1 <1>   0.0800 
 39 H       -0.5490    -8.2730    -1.2290 H     1 <1>   0.0800 
 40 H       -2.8100    -8.2740     1.6900 H     1 <1>   0.0800 
 41 H       -2.0380    -6.6990     1.7960 H     1 <1>   0.0800 
 42 H       -3.0710    -8.9950    -1.0110 H     1 <1>   0.0800 
 43 H       -4.0970    -7.8420    -1.7850 H     1 <1>   0.0800 
 44 H       -3.9300   -10.4410     0.6690 H     1 <1>   0.1500 
 45 H       -5.6630    -6.3100    -1.2000 H     1 <1>   0.1500 
 46 H       -5.7880   -11.2520     1.9700 H     1 <1>   0.1500 
 47 H       -9.1750    -8.3140     1.5790 H     1 <1>   0.1500 
 48 H       -7.8190    -5.1950    -0.9790 H     1 <1>   0.1500 
 49 H       -9.5870    -6.1770     0.4040 H     1 <1>   0.1500 
@<TRIPOS>BOND
  1   1   2  2   
  2   2   3  am  
  3   2   4  1   
  4   3   5  1   
  5   3   6  1   
  6   4   7  1   
  7   4  27  1   
  8   4  28  1   
  9   5   7  1   
 10   5  29  1   
 11   5  30  1   
 12   6   8  1   
 13   6  31  1   
 14   6  32  1   
 15   7  33  1   
 16   7  34  1   
 17   8   9  2   
 18   8  10  am  
 19  10  11  1   
 20  10  35  1   
 21  11  12  1   
 22  11  13  1   
 23  11  36  1   
 24  12  14  1   
 25  12  15  1   
 26  12  37  1   
 27  13  16  1   
 28  13  38  1   
 29  13  39  1   
 30  14  16  1   
 31  14  40  1   
 32  14  41  1   
 33  15  17  1   
 34  15  42  1   
 35  15  43  1   
 36  17  18  ar  
 37  17  19  ar  
 38  18  20  ar  
 39  18  21  ar  
 40  19  22  ar  
 41  19  44  1   
 42  20  23  ar  
 43  20  24  ar  
 44  21  25  ar  
 45  21  45  1   
 46  22  23  ar  
 47  22  46  1   
 48  24  26  ar  
 49  24  47  1   
 50  25  26  ar  
 51  25  48  1   
 52  26  49  1   
@<TRIPOS>SUBSTRUCTURE
  1 ****  12 GROUP 4 **** **** 0

# MOE 2024.06 (io_trps.svl 2023.06)
