@<TRIPOS>MOLECULE
NONAME
44 46 1 0 0 
SMALL
USER_CHARGES


@<TRIPOS>ATOM
  1 F        0.3060     1.8360     1.0000 F     1 <1>  -0.1900 
  2 C        1.4510     1.6950     0.3800 C.ar  1 <1>   0.1900 
  3 C        2.2020     2.8080    -0.0170 C.ar  1 <1>   0.0820 
  4 C        1.8680     0.3980     0.1720 C.ar  1 <1>  -0.1500 
  5 O        1.7730     4.0890     0.1610 O.3   1 <1>  -0.3630 
  6 C        3.4550     2.5960    -0.6230 C.ar  1 <1>   0.0860 
  7 C        3.0840     0.1850    -0.4470 C.ar  1 <1>  -0.1500 
  8 C        0.4100     4.4540     0.0730 C.3   1 <1>   0.0400 
  9 C        4.3570     3.6630    -1.0460 C.2   1 <1>   0.5440 
 10 C        3.8530     1.2670    -0.8310 C.ar  1 <1>  -0.1500 
 11 O        5.2960     3.4350    -1.7900 O.2   1 <1>  -0.5700 
 12 N        4.3130     4.9450    -0.5650 N.am  1 <1>  -0.6600 
 13 C        4.7120     5.1600     0.8660 C.3   1 <1>   0.2200 
 14 C        4.3900     6.0870    -1.5260 C.3   1 <1>   0.1400 
 15 C        4.1410     6.4550     1.4620 C.3   1 <1>   0.1200 
 16 C        6.2570     5.1170     1.0020 C.3   1 <1>   0.3430 
 17 C        5.4120     7.1770    -1.1490 C.3   1 <1>  -0.0800 
 18 O        4.9950     7.5320     1.2080 O.3   1 <1>  -0.5600 
 19 N        6.9580     5.3000    -0.3190 N.4   1 <1>  -0.9590 
 20 C        4.8800     8.1090    -0.0490 C.3   1 <1>   0.1200 
 21 C        6.8500     6.6880    -0.8690 C.3   1 <1>   0.3430 
 22 C        8.3670     4.8240    -0.2760 C.3   1 <1>   0.2630 
 23 H        1.2550    -0.4270     0.4890 H     1 <1>   0.1500 
 24 H        3.4290    -0.8200    -0.6270 H     1 <1>   0.1500 
 25 H        0.3560     5.5070    -0.1350 H     1 <1>   0.0800 
 26 H       -0.0720     4.2480     1.0130 H     1 <1>   0.0800 
 27 H       -0.0560     3.9000    -0.7240 H     1 <1>   0.0800 
 28 H        4.7980     1.0710    -1.3110 H     1 <1>   0.1500 
 29 H        4.3020     4.3530     1.4480 H     1 <1>   0.0800 
 30 H        4.6350     5.7080    -2.5050 H     1 <1>   0.0800 
 31 H        3.4100     6.5280    -1.6040 H     1 <1>   0.0800 
 32 H        4.0860     6.3560     2.5320 H     1 <1>   0.0800 
 33 H        3.1510     6.6630     1.0930 H     1 <1>   0.0800 
 34 H        6.5220     4.1550     1.4080 H     1 <1>   0.0800 
 35 H        6.5810     5.8660     1.7050 H     1 <1>   0.0800 
 36 H        5.4840     7.8090    -2.0160 H     1 <1>   0.0800 
 37 H        6.4190     4.6890    -0.9770 H     1 <1>   0.4500 
 38 H        3.8510     8.3800    -0.2170 H     1 <1>   0.0800 
 39 H        5.4620     9.0160    -0.0270 H     1 <1>   0.0800 
 40 H        7.3280     7.3800    -0.1940 H     1 <1>   0.0800 
 41 H        7.3920     6.7190    -1.8000 H     1 <1>   0.0800 
 42 H        8.9450     5.4230     0.4080 H     1 <1>   0.0800 
 43 H        8.8110     4.8880    -1.2560 H     1 <1>   0.0800 
 44 H        8.4020     3.7960     0.0460 H     1 <1>   0.0800 
@<TRIPOS>BOND
  1   1   2  1   
  2   2   3  ar  
  3   2   4  ar  
  4   3   5  1   
  5   3   6  ar  
  6   4   7  ar  
  7   4  23  1   
  8   5   8  1   
  9   6   9  1   
 10   6  10  ar  
 11   7  10  ar  
 12   7  24  1   
 13   8  25  1   
 14   8  26  1   
 15   8  27  1   
 16   9  11  2   
 17   9  12  am  
 18  10  28  1   
 19  12  13  1   
 20  12  14  1   
 21  13  15  1   
 22  13  16  1   
 23  13  29  1   
 24  14  17  1   
 25  14  30  1   
 26  14  31  1   
 27  15  18  1   
 28  15  32  1   
 29  15  33  1   
 30  16  19  1   
 31  16  34  1   
 32  16  35  1   
 33  17  20  1   
 34  17  21  1   
 35  17  36  1   
 36  18  20  1   
 37  19  21  1   
 38  19  22  1   
 39  19  37  1   
 40  20  38  1   
 41  20  39  1   
 42  21  40  1   
 43  21  41  1   
 44  22  42  1   
 45  22  43  1   
 46  22  44  1   
@<TRIPOS>SUBSTRUCTURE
  1 ****  12 GROUP 4 **** **** 0

# MOE 2024.06 (io_trps.svl 2023.06)
