@<TRIPOS>MOLECULE
NONAME
48 51 1 0 0 
SMALL
USER_CHARGES


@<TRIPOS>ATOM
  1 F        0.4500    -2.2740     1.2730 F     1 <1>  -0.1900 
  2 C       -0.7660    -2.0780     0.8340 C.ar  1 <1>   0.1900 
  3 C       -1.3740    -2.9450    -0.0810 C.ar  1 <1>   0.0830 
  4 C       -1.4250    -0.9670     1.3260 C.ar  1 <1>  -0.1500 
  5 O       -0.8320    -4.0650    -0.6370 O.3   1 <1>  -0.3630 
  6 C       -2.6680    -2.6560    -0.4800 C.ar  1 <1>  -0.1500 
  7 C       -2.7190    -0.7100     0.9090 C.ar  1 <1>  -0.1500 
  8 C        0.5100    -4.4510    -0.4350 C.3   1 <1>   0.0400 
  9 C       -3.3710    -1.5520     0.0070 C.ar  1 <1>   0.0860 
 10 C       -4.7320    -1.2740    -0.4150 C.2   1 <1>   0.5440 
 11 O       -5.0310    -0.1400    -0.7390 O.2   1 <1>  -0.5700 
 12 N       -5.7040    -2.2530    -0.4480 N.am  1 <1>  -0.6600 
 13 C       -6.9890    -2.0570    -1.1930 C.3   1 <1>   0.1400 
 14 C       -5.6600    -3.4990     0.3680 C.3   1 <1>   0.1400 
 15 C       -8.1970    -2.0540    -0.2370 C.3   1 <1>   0.1430 
 16 C       -6.8430    -3.5260     1.3440 C.3   1 <1>  -0.1600 
 17 C       -9.4610    -1.9170    -1.0660 C.ar  1 <1>   0.1670 
 18 C       -8.1880    -3.3380     0.6210 C.3   1 <1>  -0.1600 
 19 C       -8.2330    -0.7680     0.6330 C.3   1 <1>  -0.1600 
 20 N      -10.0050    -2.8660    -1.7960 N.ar  1 <1>  -0.6200 
 21 C       -9.9790    -0.6590    -0.9830 C.ar  1 <1>  -0.1430 
 22 C       -9.1490     0.2320    -0.0930 C.3   1 <1>  -0.0170 
 23 C      -11.1070    -2.5010    -2.4350 C.ar  1 <1>   0.4770 
 24 C      -11.1230    -0.3900    -1.6910 C.ar  1 <1>   0.1600 
 25 N      -11.7020    -1.3160    -2.4280 N.ar  1 <1>  -0.6200 
 26 C      -11.7630    -3.5630    -3.2830 C.3   1 <1>  -0.0970 
 27 H       -0.9300    -0.3140     2.0230 H     1 <1>   0.1500 
 28 H       -3.1440    -3.3050    -1.1930 H     1 <1>   0.1500 
 29 H       -3.2410     0.1570     1.2790 H     1 <1>   0.1500 
 30 H        0.6990    -5.3270    -1.0280 H     1 <1>   0.0800 
 31 H        0.6560    -4.6790     0.6060 H     1 <1>   0.0800 
 32 H        1.1570    -3.6510    -0.7490 H     1 <1>   0.0800 
 33 H       -7.1030    -2.8600    -1.9000 H     1 <1>   0.0800 
 34 H       -6.9680    -1.1370    -1.7530 H     1 <1>   0.0800 
 35 H       -4.7430    -3.5610     0.9280 H     1 <1>   0.0800 
 36 H       -5.7110    -4.3500    -0.2910 H     1 <1>   0.0800 
 37 H       -6.7070    -2.7500     2.0760 H     1 <1>   0.0800 
 38 H       -6.8470    -4.4670     1.8660 H     1 <1>   0.0800 
 39 H       -8.3550    -4.1850    -0.0230 H     1 <1>   0.0800 
 40 H       -8.9940    -3.3130     1.3320 H     1 <1>   0.0800 
 41 H       -7.2550    -0.3550     0.8040 H     1 <1>   0.0800 
 42 H       -8.6760    -0.9930     1.5870 H     1 <1>   0.0800 
 43 H       -8.5650     0.9060    -0.6970 H     1 <1>   0.0800 
 44 H       -9.7560     0.7890     0.5990 H     1 <1>   0.0800 
 45 H      -11.5690     0.5890    -1.6560 H     1 <1>   0.1500 
 46 H      -11.5240    -4.5400    -2.9060 H     1 <1>   0.0800 
 47 H      -11.4100    -3.4770    -4.2930 H     1 <1>   0.0800 
 48 H      -12.8290    -3.4360    -3.2700 H     1 <1>   0.0800 
@<TRIPOS>BOND
  1   1   2  1   
  2   2   3  ar  
  3   2   4  ar  
  4   3   5  1   
  5   3   6  ar  
  6   4   7  ar  
  7   4  27  1   
  8   5   8  1   
  9   6   9  ar  
 10   6  28  1   
 11   7   9  ar  
 12   7  29  1   
 13   8  30  1   
 14   8  31  1   
 15   8  32  1   
 16   9  10  1   
 17  10  11  2   
 18  10  12  am  
 19  12  13  1   
 20  12  14  1   
 21  13  15  1   
 22  13  33  1   
 23  13  34  1   
 24  14  16  1   
 25  14  35  1   
 26  14  36  1   
 27  15  17  1   
 28  15  18  1   
 29  15  19  1   
 30  16  18  1   
 31  16  37  1   
 32  16  38  1   
 33  17  20  ar  
 34  17  21  ar  
 35  18  39  1   
 36  18  40  1   
 37  19  22  1   
 38  19  41  1   
 39  19  42  1   
 40  20  23  ar  
 41  21  22  1   
 42  21  24  ar  
 43  22  43  1   
 44  22  44  1   
 45  23  25  ar  
 46  23  26  1   
 47  24  25  ar  
 48  24  45  1   
 49  26  46  1   
 50  26  47  1   
 51  26  48  1   
@<TRIPOS>SUBSTRUCTURE
  1 ****  12 GROUP 4 **** **** 0

# MOE 2024.06 (io_trps.svl 2023.06)
