@<TRIPOS>MOLECULE
NONAME
48 52 1 0 0 
SMALL
USER_CHARGES


@<TRIPOS>ATOM
  1 O        0.4700    -0.5360     1.1910 O.3   1 <1>  -0.5600 
  2 C        0.4630    -1.3690     0.0620 C.3   1 <1>   0.1200 
  3 C        1.5670     0.3290     1.2840 C.3   1 <1>   0.1200 
  4 C        1.7330    -2.2550     0.0250 C.3   1 <1>   0.5180 
  5 C        2.8910    -0.4680     1.2930 C.3   1 <1>   0.4230 
  6 N        2.9680    -1.4150     0.1160 N.4   1 <1>  -0.9590 
  7 C        1.8310    -3.1840    -1.2030 C.3   1 <1>  -0.1950 
  8 C        4.1180     0.4810     1.3440 C.3   1 <1>   0.1100 
  9 C        3.3440    -0.6810    -1.1420 C.3   1 <1>   0.3430 
 10 C        1.3890    -2.8200    -2.5910 C.3   1 <1>  -0.2000 
 11 C        0.6390    -3.8610    -1.8090 C.3   1 <1>  -0.2000 
 12 N        5.1900     0.0570     0.4120 N.3   1 <1>  -0.8100 
 13 C        4.6920     0.0630    -0.9860 C.3   1 <1>   0.1100 
 14 C        6.4390     0.8430     0.5770 C.3   1 <1>   0.2900 
 15 C        6.3060     2.2970     0.1380 C.2   1 <1>  -0.0400 
 16 O        5.5730     3.1340     0.8700 O.3   1 <1>  -0.2800 
 17 C        6.8430     2.9290    -0.9240 C.2   1 <1>  -0.1500 
 18 C        5.6260     4.3300     0.2820 C.ar  1 <1>   0.1400 
 19 C        6.4080     4.2680    -0.8580 C.ar  1 <1>   0.0000 
 20 C        5.0150     5.5070     0.6900 C.ar  1 <1>  -0.1500 
 21 C        6.5920     5.4170    -1.6270 C.ar  1 <1>  -0.1500 
 22 C        5.2010     6.6410    -0.0760 C.ar  1 <1>  -0.1500 
 23 C        5.9870     6.5940    -1.2310 C.ar  1 <1>  -0.1500 
 24 H       -0.4150    -1.9860     0.1280 H     1 <1>   0.0800 
 25 H        0.3850    -0.7550    -0.8170 H     1 <1>   0.0800 
 26 H        1.5310     1.0200     0.4600 H     1 <1>   0.0800 
 27 H        1.4640     0.8860     2.1990 H     1 <1>   0.0800 
 28 H        1.6890    -2.8880     0.8970 H     1 <1>   0.0800 
 29 H        2.9000    -1.0490     2.2000 H     1 <1>   0.0800 
 30 H        3.7790    -2.0130     0.3170 H     1 <1>   0.4500 
 31 H        2.6980    -3.8180    -1.1190 H     1 <1>   0.1000 
 32 H        4.4980     0.5030     2.3520 H     1 <1>   0.0800 
 33 H        3.8020     1.4800     1.1010 H     1 <1>   0.0800 
 34 H        3.4270    -1.3690    -1.9670 H     1 <1>   0.0800 
 35 H        2.5760     0.0330    -1.3900 H     1 <1>   0.0800 
 36 H        0.8720    -1.8990    -2.8000 H     1 <1>   0.1000 
 37 H        1.9730    -3.1530    -3.4340 H     1 <1>   0.1000 
 38 H        0.7270    -4.8900    -2.1180 H     1 <1>   0.1000 
 39 H       -0.3640    -3.6260    -1.4970 H     1 <1>   0.1000 
 40 H        4.5610     1.0740    -1.3340 H     1 <1>   0.0800 
 41 H        5.4250    -0.4030    -1.6220 H     1 <1>   0.0800 
 42 H        6.7510     0.8140     1.6070 H     1 <1>   0.0800 
 43 H        7.2160     0.3780    -0.0050 H     1 <1>   0.0800 
 44 H        7.4830     2.5440    -1.6960 H     1 <1>   0.1500 
 45 H        4.4190     5.5200     1.5840 H     1 <1>   0.1500 
 46 H        7.2000     5.3750    -2.5130 H     1 <1>   0.1500 
 47 H        4.7420     7.5710     0.2130 H     1 <1>   0.1500 
 48 H        6.1190     7.4900    -1.8130 H     1 <1>   0.1500 
@<TRIPOS>BOND
  1   1   2  1   
  2   1   3  1   
  3   2   4  1   
  4   2  24  1   
  5   2  25  1   
  6   3   5  1   
  7   3  26  1   
  8   3  27  1   
  9   4   6  1   
 10   4   7  1   
 11   4  28  1   
 12   5   6  1   
 13   5   8  1   
 14   5  29  1   
 15   6   9  1   
 16   6  30  1   
 17   7  10  1   
 18   7  11  1   
 19   7  31  1   
 20   8  12  1   
 21   8  32  1   
 22   8  33  1   
 23   9  13  1   
 24   9  34  1   
 25   9  35  1   
 26  10  11  1   
 27  10  36  1   
 28  10  37  1   
 29  11  38  1   
 30  11  39  1   
 31  12  13  1   
 32  12  14  1   
 33  13  40  1   
 34  13  41  1   
 35  14  15  1   
 36  14  42  1   
 37  14  43  1   
 38  15  16  1   
 39  15  17  2   
 40  16  18  1   
 41  17  19  1   
 42  17  44  1   
 43  18  19  ar  
 44  18  20  ar  
 45  19  21  ar  
 46  20  22  ar  
 47  20  45  1   
 48  21  23  ar  
 49  21  46  1   
 50  22  23  ar  
 51  22  47  1   
 52  23  48  1   
@<TRIPOS>SUBSTRUCTURE
  1 ****  13 GROUP 4 **** **** 0

# MOE 2024.06 (io_trps.svl 2023.06)
