@<TRIPOS>MOLECULE
NONAME
58 60 1 0 0 
SMALL
USER_CHARGES


@<TRIPOS>ATOM
  1 O       -0.9500    -1.2580     0.9460 O.2   1 <1>  -0.5700 
  2 C        0.2000    -1.5510     1.1950 C.2   1 <1>   0.5440 
  3 N        0.6630    -1.1410     2.4000 N.am  1 <1>  -0.8000 
  4 C        1.0490    -2.2670     0.2710 C.ar  1 <1>   0.0860 
  5 C        0.6310    -3.4300    -0.4020 C.ar  1 <1>   0.4100 
  6 C        2.3380    -1.8250     0.0160 C.ar  1 <1>  -0.1500 
  7 N        1.3840    -4.1300    -1.2460 N.ar  1 <1>  -0.6200 
  8 N       -0.6260    -3.9680    -0.2600 N.pl3 1 <1>  -0.8380 
  9 C        3.1280    -2.5320    -0.8640 C.ar  1 <1>  -0.1430 
 10 C        2.6010    -3.6690    -1.4700 C.ar  1 <1>   0.1670 
 11 C       -0.9080    -5.1420     0.6300 C.3   1 <1>   0.2090 
 12 C       -1.7520    -3.4000    -1.0450 C.3   1 <1>   0.2090 
 13 C        4.5430    -2.0370    -1.1450 C.3   1 <1>  -0.0970 
 14 C        3.4320    -4.4670    -2.4600 C.3   1 <1>  -0.0970 
 15 C       -0.6580    -6.5120    -0.0930 C.3   1 <1>   0.5030 
 16 C       -1.9360    -4.2110    -2.3310 C.3   1 <1>  -0.1600 
 17 N       -0.7190    -6.2300    -1.5820 N.4   1 <1>  -0.9590 
 18 C       -1.7190    -7.5360     0.3580 C.3   1 <1>  -0.1600 
 19 C        0.7360    -7.0370     0.3300 C.3   1 <1>  -0.1600 
 20 C       -2.0290    -5.7200    -2.1010 C.3   1 <1>   0.3430 
 21 C       -0.0120    -7.0620    -2.5980 C.3   1 <1>   0.2630 
 22 C       -1.4100    -8.9640    -0.0810 C.3   1 <1>   0.3430 
 23 C        1.0230    -8.5020    -0.0030 C.3   1 <1>   0.3430 
 24 N       -0.0880    -9.3760     0.4680 N.4   1 <1>  -0.9590 
 25 C        0.1970   -10.8130     0.1450 C.3   1 <1>   0.2630 
 26 H        0.0430    -0.5950     3.0020 H     1 <1>   0.3700 
 27 H        1.6080    -1.3060     2.7440 H     1 <1>   0.3700 
 28 H        2.7040    -0.9340     0.4970 H     1 <1>   0.1500 
 29 H       -1.9320    -5.0800     0.9570 H     1 <1>   0.0800 
 30 H       -0.3040    -5.0600     1.5180 H     1 <1>   0.0800 
 31 H       -1.5390    -2.3730    -1.2970 H     1 <1>   0.0800 
 32 H       -2.6510    -3.4060    -0.4500 H     1 <1>   0.0800 
 33 H        4.8020    -1.2150    -0.5000 H     1 <1>   0.0800 
 34 H        4.6220    -1.7000    -2.1630 H     1 <1>   0.0800 
 35 H        5.2560    -2.8250    -0.9800 H     1 <1>   0.0800 
 36 H        2.8240    -5.1850    -2.9770 H     1 <1>   0.0800 
 37 H        4.2180    -4.9850    -1.9430 H     1 <1>   0.0800 
 38 H        3.8660    -3.8130    -3.1940 H     1 <1>   0.0800 
 39 H       -1.1310    -3.9910    -3.0100 H     1 <1>   0.0800 
 40 H       -2.8420    -3.8780    -2.8050 H     1 <1>   0.0800 
 41 H       -0.1700    -5.3270    -1.5590 H     1 <1>   0.4500 
 42 H       -2.6980    -7.2650     0.0100 H     1 <1>   0.0800 
 43 H       -1.7760    -7.5310     1.4320 H     1 <1>   0.0800 
 44 H        0.8350    -6.9430     1.3970 H     1 <1>   0.0800 
 45 H        1.5100    -6.4250    -0.0920 H     1 <1>   0.0800 
 46 H       -2.2690    -6.2040    -3.0350 H     1 <1>   0.0800 
 47 H       -2.8260    -5.9160    -1.4070 H     1 <1>   0.0800 
 48 H       -0.4490    -8.0440    -2.6600 H     1 <1>   0.0800 
 49 H        1.0330    -7.1440    -2.3520 H     1 <1>   0.0800 
 50 H       -0.0840    -6.5930    -3.5670 H     1 <1>   0.0800 
 51 H       -1.4000    -9.0250    -1.1570 H     1 <1>   0.0800 
 52 H       -2.1790    -9.6260     0.2860 H     1 <1>   0.0800 
 53 H        1.9460    -8.7990     0.4720 H     1 <1>   0.0800 
 54 H        1.1510    -8.6230    -1.0650 H     1 <1>   0.0800 
 55 H       -0.1320    -9.3110     1.4980 H     1 <1>   0.4500 
 56 H        0.2570   -10.9590    -0.9220 H     1 <1>   0.0800 
 57 H       -0.5840   -11.4480     0.5340 H     1 <1>   0.0800 
 58 H        1.1320   -11.1200     0.5870 H     1 <1>   0.0800 
@<TRIPOS>BOND
  1   1   2  2   
  2   2   3  am  
  3   2   4  1   
  4   3  26  1   
  5   3  27  1   
  6   4   5  ar  
  7   4   6  ar  
  8   5   7  ar  
  9   5   8  1   
 10   6   9  ar  
 11   6  28  1   
 12   7  10  ar  
 13   8  11  1   
 14   8  12  1   
 15   9  10  ar  
 16   9  13  1   
 17  10  14  1   
 18  11  15  1   
 19  11  29  1   
 20  11  30  1   
 21  12  16  1   
 22  12  31  1   
 23  12  32  1   
 24  13  33  1   
 25  13  34  1   
 26  13  35  1   
 27  14  36  1   
 28  14  37  1   
 29  14  38  1   
 30  15  17  1   
 31  15  18  1   
 32  15  19  1   
 33  16  20  1   
 34  16  39  1   
 35  16  40  1   
 36  17  20  1   
 37  17  21  1   
 38  17  41  1   
 39  18  22  1   
 40  18  42  1   
 41  18  43  1   
 42  19  23  1   
 43  19  44  1   
 44  19  45  1   
 45  20  46  1   
 46  20  47  1   
 47  21  48  1   
 48  21  49  1   
 49  21  50  1   
 50  22  24  1   
 51  22  51  1   
 52  22  52  1   
 53  23  24  1   
 54  23  53  1   
 55  23  54  1   
 56  24  25  1   
 57  24  55  1   
 58  25  56  1   
 59  25  57  1   
 60  25  58  1   
@<TRIPOS>SUBSTRUCTURE
  1 ****   8 GROUP 4 **** **** 0

# MOE 2024.06 (io_trps.svl 2023.06)
