@<TRIPOS>MOLECULE
NONAME
37 39 1 0 0 
SMALL
USER_CHARGES


@<TRIPOS>ATOM
  1 F       -2.0220    -0.4010     1.5950 F     1 <1>  -0.1900 
  2 C       -2.5020     0.3640     0.6500 C.ar  1 <1>   0.1900 
  3 C       -3.0110    -0.2130    -0.5060 C.ar  1 <1>  -0.1440 
  4 C       -2.4820     1.7310     0.8530 C.ar  1 <1>  -0.1500 
  5 C       -3.5160     0.6340    -1.4830 C.ar  1 <1>  -0.1500 
  6 C       -3.0320    -1.7220    -0.7180 C.3   1 <1>  -0.0160 
  7 C       -2.9890     2.5590    -0.1330 C.ar  1 <1>  -0.1500 
  8 C       -3.5040     2.0090    -1.2970 C.ar  1 <1>  -0.1500 
  9 C       -4.3020    -2.3340    -0.1100 C.3   1 <1>  -0.0990 
 10 C       -4.4150    -3.8380    -0.3100 C.2   1 <1>   0.5690 
 11 O       -3.6430    -4.3870    -1.0650 O.2   1 <1>  -0.5700 
 12 N       -5.3830    -4.5210     0.3590 N.am  1 <1>  -0.6600 
 13 C       -6.4480    -3.9340     1.2210 C.3   1 <1>   0.2350 
 14 C       -5.6270    -5.9810     0.1880 C.3   1 <1>   0.2350 
 15 C       -7.6120    -4.9020     1.1380 C.3   1 <1>  -0.2420 
 16 C       -7.1000    -6.1770     0.5110 C.3   1 <1>  -0.2420 
 17 C       -8.6090    -4.6240     2.2660 C.2   1 <1>   0.9470 
 18 C       -8.1460    -5.3560    -0.1970 C.3   1 <1>  -0.2000 
 19 C       -7.3940    -7.6420     0.8390 C.2   1 <1>   0.9470 
 20 O       -9.7850    -4.3520     1.9880 O.co2 1 <1>  -0.9000 
 21 O       -8.1810    -4.4940     3.4210 O.co2 1 <1>  -0.9000 
 22 O       -8.2060    -8.2710     0.1450 O.co2 1 <1>  -0.9000 
 23 O       -6.7020    -8.2170     1.6900 O.co2 1 <1>  -0.9000 
 24 H       -2.0780     2.1330     1.7640 H     1 <1>   0.1500 
 25 H       -3.9210     0.2270    -2.3930 H     1 <1>   0.1500 
 26 H       -2.9980    -1.9390    -1.7720 H     1 <1>   0.0800 
 27 H       -2.1640    -2.1730    -0.2700 H     1 <1>   0.0800 
 28 H       -2.9840     3.6270     0.0020 H     1 <1>   0.1500 
 29 H       -3.8980     2.6540    -2.0640 H     1 <1>   0.1500 
 30 H       -5.1640    -1.8730    -0.5540 H     1 <1>   0.0800 
 31 H       -4.3140    -2.1290     0.9450 H     1 <1>   0.0800 
 32 H       -6.0900    -3.8740     2.2350 H     1 <1>   0.0800 
 33 H       -6.7510    -2.9610     0.8820 H     1 <1>   0.0800 
 34 H       -5.4080    -6.3000    -0.8160 H     1 <1>   0.0800 
 35 H       -5.0160    -6.5270     0.8850 H     1 <1>   0.0800 
 36 H       -7.8830    -4.8170    -1.0870 H     1 <1>   0.1000 
 37 H       -9.1490    -5.7480    -0.2320 H     1 <1>   0.1000 
@<TRIPOS>BOND
  1   1   2  1   
  2   2   3  ar  
  3   2   4  ar  
  4   3   5  ar  
  5   3   6  1   
  6   4   7  ar  
  7   4  24  1   
  8   5   8  ar  
  9   5  25  1   
 10   6   9  1   
 11   6  26  1   
 12   6  27  1   
 13   7   8  ar  
 14   7  28  1   
 15   8  29  1   
 16   9  10  1   
 17   9  30  1   
 18   9  31  1   
 19  10  11  2   
 20  10  12  am  
 21  12  13  1   
 22  12  14  1   
 23  13  15  1   
 24  13  32  1   
 25  13  33  1   
 26  14  16  1   
 27  14  34  1   
 28  14  35  1   
 29  15  16  1   
 30  15  17  1   
 31  15  18  1   
 32  16  18  1   
 33  16  19  1   
 34  17  20  ar  
 35  17  21  ar  
 36  18  36  1   
 37  18  37  1   
 38  19  22  ar  
 39  19  23  ar  
@<TRIPOS>SUBSTRUCTURE
  1 ****  12 GROUP 4 **** **** 0

# MOE 2024.06 (io_trps.svl 2023.06)
