@<TRIPOS>MOLECULE
NONAME
51 54 1 0 0 
SMALL
USER_CHARGES


@<TRIPOS>ATOM
  1 S       -1.6220     0.5960    -1.8280 S.3   1 <1>  -0.0800 
  2 C       -1.6470     1.8020    -0.5510 C.2   1 <1>  -0.1400 
  3 C       -3.3530     0.3350    -1.6560 C.2   1 <1>  -0.1100 
  4 C       -2.8880     1.9680    -0.0780 C.2   1 <1>  -0.1810 
  5 C       -0.3980     2.5340    -0.0860 C.3   1 <1>   0.4600 
  6 C       -3.8670     1.1290    -0.6970 C.2   1 <1>  -0.1500 
  7 C       -3.1430     2.9810     1.0140 C.3   1 <1>   0.0210 
  8 O       -0.7230     3.3460     1.0300 O.3   1 <1>  -0.5600 
  9 C        0.6720     1.5480     0.4060 C.3   1 <1>  -0.1600 
 10 C        0.1930     3.4260    -1.1820 C.3   1 <1>  -0.1600 
 11 C       -1.9800     3.9930     1.0350 C.3   1 <1>   0.1200 
 12 C        2.0650     2.1700     0.5500 C.3   1 <1>   0.3430 
 13 C        1.4200     4.2100    -0.7060 C.3   1 <1>   0.3430 
 14 N        1.9640     3.6510     0.5700 N.4   1 <1>  -0.9590 
 15 C        3.2070     4.3270     1.0230 C.3   1 <1>   0.4860 
 16 C        2.9130     5.8030     1.2080 C.ar  1 <1>  -0.1440 
 17 C        3.3670     6.7220     0.2750 C.ar  1 <1>  -0.1500 
 18 C        2.1820     6.2470     2.3010 C.ar  1 <1>  -0.1500 
 19 C        3.0910     8.0710     0.4190 C.ar  1 <1>   0.0820 
 20 C        1.9050     7.5950     2.4520 C.ar  1 <1>  -0.1500 
 21 O        3.5710     8.8920    -0.5460 O.3   1 <1>  -0.3620 
 22 C        2.3550     8.5080     1.5150 C.ar  1 <1>  -0.1500 
 23 C        3.4710    10.2960    -0.4300 C.3   1 <1>   0.1200 
 24 C        4.2010    10.9330    -1.6120 C.3   1 <1>   0.1200 
 25 O        4.0640    12.3120    -1.5470 O.3   1 <1>  -0.6800 
 26 H       -3.8090    -0.3970    -2.3000 H     1 <1>   0.1500 
 27 H       -4.9010     1.1590    -0.3990 H     1 <1>   0.1500 
 28 H       -3.2200     2.4850     1.9640 H     1 <1>   0.0800 
 29 H       -4.0650     3.5020     0.8270 H     1 <1>   0.0800 
 30 H        0.7570     0.7290    -0.2830 H     1 <1>   0.0800 
 31 H        0.3550     1.1280     1.3440 H     1 <1>   0.0800 
 32 H       -0.5540     4.1040    -1.5550 H     1 <1>   0.0800 
 33 H        0.4830     2.8070    -2.0120 H     1 <1>   0.0800 
 34 H       -2.0370     4.6010     1.9210 H     1 <1>   0.0800 
 35 H       -2.0360     4.6370     0.1740 H     1 <1>   0.0800 
 36 H        2.6820     1.8650    -0.2790 H     1 <1>   0.0800 
 37 H        2.5200     1.8130     1.4600 H     1 <1>   0.0800 
 38 H        1.1340     5.2380    -0.5420 H     1 <1>   0.0800 
 39 H        2.1770     4.1950    -1.4740 H     1 <1>   0.0800 
 40 H        1.2260     3.8660     1.2660 H     1 <1>   0.4500 
 41 H        3.9900     4.1970     0.2950 H     1 <1>   0.0800 
 42 H        3.5360     3.9100     1.9610 H     1 <1>   0.0800 
 43 H        3.9450     6.4150    -0.5780 H     1 <1>   0.1500 
 44 H        1.8230     5.5570     3.0470 H     1 <1>   0.1500 
 45 H        1.3390     7.9370     3.3030 H     1 <1>   0.1500 
 46 H        2.1240     9.5480     1.6580 H     1 <1>   0.1500 
 47 H        3.9340    10.5940     0.4940 H     1 <1>   0.0800 
 48 H        2.4290    10.5600    -0.4410 H     1 <1>   0.0800 
 49 H        3.7930    10.5950    -2.5490 H     1 <1>   0.0800 
 50 H        5.2520    10.7050    -1.5660 H     1 <1>   0.0800 
 51 H        3.1570    12.5890    -1.7830 H     1 <1>   0.4000 
@<TRIPOS>BOND
  1   1   2  1   
  2   1   3  1   
  3   2   4  2   
  4   2   5  1   
  5   3   6  2   
  6   3  26  1   
  7   4   6  1   
  8   4   7  1   
  9   5   8  1   
 10   5   9  1   
 11   5  10  1   
 12   6  27  1   
 13   7  11  1   
 14   7  28  1   
 15   7  29  1   
 16   8  11  1   
 17   9  12  1   
 18   9  30  1   
 19   9  31  1   
 20  10  13  1   
 21  10  32  1   
 22  10  33  1   
 23  11  34  1   
 24  11  35  1   
 25  12  14  1   
 26  12  36  1   
 27  12  37  1   
 28  13  14  1   
 29  13  38  1   
 30  13  39  1   
 31  14  15  1   
 32  14  40  1   
 33  15  16  1   
 34  15  41  1   
 35  15  42  1   
 36  16  17  ar  
 37  16  18  ar  
 38  17  19  ar  
 39  17  43  1   
 40  18  20  ar  
 41  18  44  1   
 42  19  21  1   
 43  19  22  ar  
 44  20  22  ar  
 45  20  45  1   
 46  21  23  1   
 47  22  46  1   
 48  23  24  1   
 49  23  47  1   
 50  23  48  1   
 51  24  25  1   
 52  24  49  1   
 53  24  50  1   
 54  25  51  1   
@<TRIPOS>SUBSTRUCTURE
  1 ****  13 GROUP 4 **** **** 0

# MOE 2024.06 (io_trps.svl 2023.06)
