@<TRIPOS>MOLECULE
NONAME
52 55 1 0 0 
SMALL
USER_CHARGES


@<TRIPOS>ATOM
  1 CL      -1.0860     0.5010     2.4350 Cl    1 <1>  -0.1230 
  2 C       -1.6590     1.8890     1.5230 C.2   1 <1>   0.1230 
  3 C       -2.6890     1.8820     0.5800 C.2   1 <1>   0.2030 
  4 C       -1.2000     3.1490     1.6210 C.2   1 <1>  -0.3320 
  5 N       -2.8560     3.1170     0.1200 N.2   1 <1>  -0.7070 
  6 C       -3.4210     0.6810     0.2040 C.2   1 <1>   0.7160 
  7 N       -1.9440     3.8700     0.7540 N.pl3 1 <1>   0.3140 
  8 C       -0.0880     3.7070     2.4970 C.3   1 <1>  -0.0600 
  9 O       -2.8060    -0.3350    -0.0820 O.2   1 <1>  -0.5700 
 10 N       -4.8060     0.6200     0.1610 N.am  1 <1>  -0.6600 
 11 C       -1.8260     5.3100     0.4860 C.3   1 <1>   0.0160 
 12 C       -5.7030     1.7430     0.5690 C.3   1 <1>   0.1400 
 13 C       -5.5000    -0.6210    -0.3010 C.3   1 <1>   0.1400 
 14 C       -6.6370     2.1520    -0.5900 C.3   1 <1>   0.1430 
 15 C       -7.0020    -0.3930    -0.5460 C.3   1 <1>  -0.1600 
 16 C       -7.6810     3.0830     0.0020 C.ar  1 <1>   0.1670 
 17 C       -7.2480     0.9190    -1.3120 C.3   1 <1>  -0.1600 
 18 C       -5.9150     3.0880    -1.5960 C.3   1 <1>  -0.1600 
 19 N       -8.7080     2.7120     0.7250 N.ar  1 <1>  -0.6200 
 20 C       -7.4070     4.3860    -0.2840 C.ar  1 <1>  -0.1430 
 21 C       -6.1530     4.5260    -1.1110 C.3   1 <1>  -0.0170 
 22 C       -9.4870     3.7060     1.1600 C.ar  1 <1>   0.7200 
 23 C       -8.2630     5.3400     0.2040 C.ar  1 <1>   0.1600 
 24 N       -9.3070     5.0100     0.9270 N.ar  1 <1>  -0.6200 
 25 N      -10.5780     3.3500     1.9290 N.pl3 1 <1>  -0.8380 
 26 C      -11.0680     1.9460     2.0030 C.3   1 <1>   0.1290 
 27 C      -11.3500     4.3500     2.7160 C.3   1 <1>   0.1290 
 28 H        0.3460     2.9240     3.0930 H     1 <1>   0.0800 
 29 H       -0.4760     4.4610     3.1580 H     1 <1>   0.0800 
 30 H        0.6870     4.1370     1.8880 H     1 <1>   0.0800 
 31 H       -0.8370     5.5220     0.1280 H     1 <1>   0.0800 
 32 H       -2.0160     5.8540     1.3910 H     1 <1>   0.0800 
 33 H       -2.5460     5.5900    -0.2610 H     1 <1>   0.0800 
 34 H       -5.1510     2.5960     0.9140 H     1 <1>   0.0800 
 35 H       -6.3030     1.4080     1.3990 H     1 <1>   0.0800 
 36 H       -5.3610    -1.3980     0.4310 H     1 <1>   0.0800 
 37 H       -5.0390    -0.9460    -1.2190 H     1 <1>   0.0800 
 38 H       -7.5200    -0.3650     0.3970 H     1 <1>   0.0800 
 39 H       -7.3990    -1.2220    -1.1050 H     1 <1>   0.0800 
 40 H       -6.8030     0.8080    -2.2840 H     1 <1>   0.0800 
 41 H       -8.3050     1.0630    -1.4570 H     1 <1>   0.0800 
 42 H       -6.3710     2.9950    -2.5660 H     1 <1>   0.0800 
 43 H       -4.8690     2.8580    -1.6920 H     1 <1>   0.0800 
 44 H       -6.2840     5.2070    -1.9340 H     1 <1>   0.0800 
 45 H       -5.3390     4.8520    -0.4860 H     1 <1>   0.0800 
 46 H       -8.0910     6.3820     0.0010 H     1 <1>   0.1500 
 47 H      -10.8440     1.4200     1.0920 H     1 <1>   0.0800 
 48 H      -12.1340     1.9330     2.1480 H     1 <1>   0.0800 
 49 H      -10.5900     1.4430     2.8250 H     1 <1>   0.0800 
 50 H      -10.7150     5.1670     3.0150 H     1 <1>   0.0800 
 51 H      -11.7510     3.8930     3.6030 H     1 <1>   0.0800 
 52 H      -12.1550     4.7350     2.1160 H     1 <1>   0.0800 
@<TRIPOS>BOND
  1   1   2  1   
  2   2   3  1   
  3   2   4  2   
  4   3   5  2   
  5   3   6  1   
  6   4   7  1   
  7   4   8  1   
  8   5   7  1   
  9   6   9  2   
 10   6  10  am  
 11   7  11  1   
 12   8  28  1   
 13   8  29  1   
 14   8  30  1   
 15  10  12  1   
 16  10  13  1   
 17  11  31  1   
 18  11  32  1   
 19  11  33  1   
 20  12  14  1   
 21  12  34  1   
 22  12  35  1   
 23  13  15  1   
 24  13  36  1   
 25  13  37  1   
 26  14  16  1   
 27  14  17  1   
 28  14  18  1   
 29  15  17  1   
 30  15  38  1   
 31  15  39  1   
 32  16  19  ar  
 33  16  20  ar  
 34  17  40  1   
 35  17  41  1   
 36  18  21  1   
 37  18  42  1   
 38  18  43  1   
 39  19  22  ar  
 40  20  21  1   
 41  20  23  ar  
 42  21  44  1   
 43  21  45  1   
 44  22  24  ar  
 45  22  25  1   
 46  23  24  ar  
 47  23  46  1   
 48  25  26  1   
 49  25  27  1   
 50  26  47  1   
 51  26  48  1   
 52  26  49  1   
 53  27  50  1   
 54  27  51  1   
 55  27  52  1   
@<TRIPOS>SUBSTRUCTURE
  1 ****  12 GROUP 4 **** **** 0

# MOE 2024.06 (io_trps.svl 2023.06)
