@<TRIPOS>MOLECULE
Untitled Document
60 64 1 0 0 
SMALL
USER_CHARGES


@<TRIPOS>ATOM
  1 O       -0.1620     1.0770     2.6000 O.2   1 <1>  -0.5700 
  2 C       -0.8590     1.4610     1.6910 C.2   1 <1>   0.5690 
  3 N       -0.2930     2.0670     0.5880 N.am  1 <1>  -0.6600 
  4 C       -2.3680     1.2710     1.8480 C.3   1 <1>   0.1810 
  5 C       -1.0690     2.7120    -0.5200 C.3   1 <1>   0.1400 
  6 C        1.1890     2.0120     0.3730 C.3   1 <1>   0.1400 
  7 O       -2.9540     0.7480     0.6640 O.3   1 <1>  -0.3620 
  8 C       -0.4520     4.0630    -0.9370 C.3   1 <1>   0.3430 
  9 C        1.7520     3.3850    -0.0300 C.3   1 <1>   0.3430 
 10 C       -4.2950     0.5750     0.5660 C.ar  1 <1>   0.0820 
 11 N        1.0250     3.9630    -1.2150 N.4   1 <1>  -0.9590 
 12 C       -4.7790     0.1090    -0.6420 C.ar  1 <1>  -0.1500 
 13 C       -5.1910     0.8400     1.5950 C.ar  1 <1>  -0.1500 
 14 C        1.5940     5.2910    -1.5990 C.3   1 <1>   0.2630 
 15 C       -6.1360    -0.0840    -0.8320 C.ar  1 <1>  -0.1500 
 16 C       -6.5460     0.6440     1.3980 C.ar  1 <1>  -0.1500 
 17 C       -7.0490     0.1820     0.1860 C.ar  1 <1>  -0.1430 
 18 C       -8.5740    -0.0200     0.0230 C.3   1 <1>   0.1430 
 19 C       -8.9750    -0.5370    -1.3830 C.3   1 <1>  -0.1600 
 20 C       -9.0830    -1.0490     1.0600 C.3   1 <1>  -0.1600 
 21 C       -9.3100     1.3230     0.2520 C.3   1 <1>  -0.1600 
 22 C      -10.4990    -0.7240    -1.5040 C.3   1 <1>  -0.0800 
 23 C      -10.6090    -1.2350     0.9590 C.3   1 <1>  -0.0800 
 24 C      -10.8380     1.1460     0.1490 C.3   1 <1>  -0.0800 
 25 C      -10.9670    -1.7410    -0.4490 C.3   1 <1>  -0.1600 
 26 C      -11.1940     0.6260    -1.2550 C.3   1 <1>  -0.1600 
 27 C      -11.3000     0.1210     1.2010 C.3   1 <1>  -0.1600 
 28 H       -2.8260     2.2160     2.0700 H     1 <1>   0.0800 
 29 H       -2.5580     0.5770     2.6470 H     1 <1>   0.0800 
 30 H       -2.0850     2.8910    -0.2150 H     1 <1>   0.0800 
 31 H       -1.0960     2.0450    -1.3650 H     1 <1>   0.0800 
 32 H        1.4060     1.2900    -0.3940 H     1 <1>   0.0800 
 33 H        1.6910     1.6860     1.2690 H     1 <1>   0.0800 
 34 H       -0.6190     4.7700    -0.1420 H     1 <1>   0.0800 
 35 H       -0.9660     4.4260    -1.8120 H     1 <1>   0.0800 
 36 H        2.8010     3.2800    -0.2570 H     1 <1>   0.0800 
 37 H        1.6620     4.0500     0.8140 H     1 <1>   0.0800 
 38 H        1.1490     3.3090    -2.0020 H     1 <1>   0.4500 
 39 H       -4.0900    -0.1070    -1.4370 H     1 <1>   0.1500 
 40 H       -4.8620     1.1930     2.5540 H     1 <1>   0.1500 
 41 H        1.4800     5.9960    -0.7910 H     1 <1>   0.0800 
 42 H        1.0890     5.6790    -2.4690 H     1 <1>   0.0800 
 43 H        2.6440     5.1970    -1.8270 H     1 <1>   0.0800 
 44 H       -6.4530    -0.4470    -1.7910 H     1 <1>   0.1500 
 45 H       -7.2130     0.8580     2.2130 H     1 <1>   0.1500 
 46 H       -8.4940    -1.4800    -1.5740 H     1 <1>   0.0800 
 47 H       -8.6510     0.1620    -2.1340 H     1 <1>   0.0800 
 48 H       -8.8410    -0.7290     2.0560 H     1 <1>   0.0800 
 49 H       -8.5910    -1.9920     0.8980 H     1 <1>   0.0800 
 50 H       -8.9780     2.0410    -0.4760 H     1 <1>   0.0800 
 51 H       -9.0750     1.7170     1.2230 H     1 <1>   0.0800 
 52 H      -10.7450    -1.0830    -2.4890 H     1 <1>   0.0800 
 53 H      -10.9380    -1.9480     1.6960 H     1 <1>   0.0800 
 54 H      -11.3250     2.0900     0.3210 H     1 <1>   0.0800 
 55 H      -10.4960    -2.6930    -0.6250 H     1 <1>   0.0800 
 56 H      -12.0310    -1.8840    -0.5260 H     1 <1>   0.0800 
 57 H      -12.2600     0.5090    -1.3410 H     1 <1>   0.0800 
 58 H      -10.8820     1.3400    -1.9980 H     1 <1>   0.0800 
 59 H      -11.0650     0.4790     2.1880 H     1 <1>   0.0800 
 60 H      -12.3680    -0.0010     1.1450 H     1 <1>   0.0800 
@<TRIPOS>BOND
  1   1   2  2   
  2   2   3  am  
  3   2   4  1   
  4   3   5  1   
  5   3   6  1   
  6   4   7  1   
  7   4  28  1   
  8   4  29  1   
  9   5   8  1   
 10   5  30  1   
 11   5  31  1   
 12   6   9  1   
 13   6  32  1   
 14   6  33  1   
 15   7  10  1   
 16   8  11  1   
 17   8  34  1   
 18   8  35  1   
 19   9  11  1   
 20   9  36  1   
 21   9  37  1   
 22  10  12  ar  
 23  10  13  ar  
 24  11  14  1   
 25  11  38  1   
 26  12  15  ar  
 27  12  39  1   
 28  13  16  ar  
 29  13  40  1   
 30  14  41  1   
 31  14  42  1   
 32  14  43  1   
 33  15  17  ar  
 34  15  44  1   
 35  16  17  ar  
 36  16  45  1   
 37  17  18  1   
 38  18  19  1   
 39  18  20  1   
 40  18  21  1   
 41  19  22  1   
 42  19  46  1   
 43  19  47  1   
 44  20  23  1   
 45  20  48  1   
 46  20  49  1   
 47  21  24  1   
 48  21  50  1   
 49  21  51  1   
 50  22  25  1   
 51  22  26  1   
 52  22  52  1   
 53  23  25  1   
 54  23  27  1   
 55  23  53  1   
 56  24  26  1   
 57  24  27  1   
 58  24  54  1   
 59  25  55  1   
 60  25  56  1   
 61  26  57  1   
 62  26  58  1   
 63  27  59  1   
 64  27  60  1   
@<TRIPOS>SUBSTRUCTURE
  1 ****  10 GROUP 4 **** **** 0

# MOE 2024.06 (io_trps.svl 2023.06)
