@<TRIPOS>MOLECULE
NONAME
45 47 1 0 0 
SMALL
USER_CHARGES


@<TRIPOS>ATOM
  1 CL      -0.0410    -0.1570    -1.5250 Cl    1 <1>  -0.1770 
  2 C        1.2710    -1.0060    -0.7450 C.ar  1 <1>   0.1770 
  3 C        1.0390    -1.8740     0.3120 C.ar  1 <1>  -0.0090 
  4 C        2.5420    -0.7680    -1.2360 C.ar  1 <1>  -0.1500 
  5 S       -0.6260    -2.1800     0.9500 S.o2  1 <1>   1.4470 
  6 C        2.1500    -2.5040     0.8670 C.ar  1 <1>  -0.1500 
  7 C        3.6450    -1.3990    -0.6770 C.ar  1 <1>   0.0730 
  8 O       -1.2440    -0.9170     1.2870 O.2   1 <1>  -0.6500 
  9 O       -0.5440    -3.1990     1.9770 O.2   1 <1>  -0.6500 
 10 N       -1.4440    -2.8550    -0.3780 N.am  1 <1>  -0.8490 
 11 C        3.4270    -2.2720     0.3820 C.ar  1 <1>  -0.1500 
 12 C        4.9690    -1.1580    -1.1780 C.1   1 <1>   0.4840 
 13 C       -2.8970    -2.7190    -0.2910 C.3   1 <1>   0.1960 
 14 C       -1.2160    -4.2890    -0.5500 C.3   1 <1>   0.1960 
 15 N        6.0200    -0.9690    -1.5760 N.1   1 <1>  -0.5570 
 16 C       -3.3680    -3.9140     0.5400 C.3   1 <1>  -0.0800 
 17 C       -2.3840    -5.0240     0.1270 C.3   1 <1>  -0.0800 
 18 C       -4.8760    -4.2800     0.4510 C.3   1 <1>   0.2800 
 19 C       -3.0190    -6.0620    -0.8130 C.3   1 <1>  -0.1600 
 20 O       -5.3440    -4.0500    -0.8290 O.3   1 <1>  -0.6800 
 21 C       -5.0550    -5.7820     0.7420 C.3   1 <1>  -0.1600 
 22 C       -5.7650    -3.4640     1.4170 C.3   1 <1>  -0.1600 
 23 C       -4.2690    -6.7160    -0.2030 C.3   1 <1>  -0.1600 
 24 C       -5.7560    -1.9370     1.2330 C.3   1 <1>  -0.2400 
 25 H        2.6670    -0.0840    -2.0580 H     1 <1>   0.1500 
 26 H        2.0150    -3.1840     1.6930 H     1 <1>   0.1500 
 27 H        4.2660    -2.7750     0.8370 H     1 <1>   0.1500 
 28 H       -3.1910    -1.7730     0.1260 H     1 <1>   0.0800 
 29 H       -3.2980    -2.7810    -1.2890 H     1 <1>   0.0800 
 30 H       -1.2150    -4.5020    -1.6060 H     1 <1>   0.0800 
 31 H       -0.2670    -4.5990    -0.1450 H     1 <1>   0.0800 
 32 H       -3.1610    -3.6870     1.5700 H     1 <1>   0.0800 
 33 H       -2.0250    -5.5270     1.0090 H     1 <1>   0.0800 
 34 H       -3.3070    -5.5680    -1.7270 H     1 <1>   0.0800 
 35 H       -2.3020    -6.8230    -1.0690 H     1 <1>   0.0800 
 36 H       -6.2760    -4.3260    -0.8840 H     1 <1>   0.4000 
 37 H       -4.7050    -5.9610     1.7440 H     1 <1>   0.0800 
 38 H       -6.0960    -6.0490     0.7260 H     1 <1>   0.0800 
 39 H       -6.7800    -3.8090     1.3230 H     1 <1>   0.0800 
 40 H       -5.4620    -3.6780     2.4270 H     1 <1>   0.0800 
 41 H       -3.9830    -7.5980     0.3450 H     1 <1>   0.0800 
 42 H       -4.9110    -7.0310    -1.0070 H     1 <1>   0.0800 
 43 H       -5.9320    -1.6710     0.2050 H     1 <1>   0.0800 
 44 H       -4.8170    -1.5210     1.5500 H     1 <1>   0.0800 
 45 H       -6.5290    -1.4940     1.8340 H     1 <1>   0.0800 
@<TRIPOS>BOND
  1   1   2  1   
  2   2   3  ar  
  3   2   4  ar  
  4   3   5  1   
  5   3   6  ar  
  6   4   7  ar  
  7   4  25  1   
  8   5   8  2   
  9   5   9  2   
 10   5  10  am  
 11   6  11  ar  
 12   6  26  1   
 13   7  11  ar  
 14   7  12  1   
 15  10  13  1   
 16  10  14  1   
 17  11  27  1   
 18  12  15  3   
 19  13  16  1   
 20  13  28  1   
 21  13  29  1   
 22  14  17  1   
 23  14  30  1   
 24  14  31  1   
 25  16  17  1   
 26  16  18  1   
 27  16  32  1   
 28  17  19  1   
 29  17  33  1   
 30  18  20  1   
 31  18  21  1   
 32  18  22  1   
 33  19  23  1   
 34  19  34  1   
 35  19  35  1   
 36  20  36  1   
 37  21  23  1   
 38  21  37  1   
 39  21  38  1   
 40  22  24  1   
 41  22  39  1   
 42  22  40  1   
 43  23  41  1   
 44  23  42  1   
 45  24  43  1   
 46  24  44  1   
 47  24  45  1   
@<TRIPOS>SUBSTRUCTURE
  1 ****  10 GROUP 4 **** **** 0

# MOE 2024.06 (io_trps.svl 2023.06)
