@<TRIPOS>MOLECULE
NONAME
40 40 1 0 0 
SMALL
USER_CHARGES


@<TRIPOS>ATOM
  1 O        0.7330    -0.2930     0.8280 O.2   1 <1>  -0.5700 
  2 C        1.6070     0.4250     0.3780 C.2   1 <1>   0.7800 
  3 O        2.7130    -0.0990    -0.1570 O.3   1 <1>  -0.4300 
  4 N        1.5050     1.7900     0.3900 N.am  1 <1>  -0.6600 
  5 C        3.0540    -1.4620    -0.2740 C.3   1 <1>   0.2800 
  6 C        0.2830     2.4680     0.9170 C.3   1 <1>   0.1400 
  7 C        2.6020     2.6650    -0.1420 C.3   1 <1>   0.1400 
  8 C        4.4240    -1.4700    -0.9530 C.3   1 <1>  -0.2400 
  9 C        2.0420    -2.1890    -1.1680 C.3   1 <1>  -0.2400 
 10 C        3.1740    -2.0990     1.1150 C.3   1 <1>  -0.2400 
 11 C       -0.0040     3.7470     0.1190 C.3   1 <1>  -0.0190 
 12 C        2.5320     4.0680     0.4650 C.3   1 <1>  -0.1860 
 13 C       -1.3230     4.3780     0.5350 C.2   1 <1>   0.6590 
 14 C        1.1650     4.7510     0.2190 C.3   1 <1>  -0.1600 
 15 C        3.6840     4.9000    -0.0650 C.2   1 <1>   0.9060 
 16 O       -1.8320     4.1750     1.6090 O.2   1 <1>  -0.5700 
 17 O       -1.8900     5.1750    -0.3650 O.3   1 <1>  -0.4300 
 18 O        4.3980     5.5020     0.7410 O.co2 1 <1>  -0.9000 
 19 O        3.8700     4.9470    -1.2860 O.co2 1 <1>  -0.9000 
 20 C       -3.1080     5.8400    -0.1060 C.3   1 <1>   0.0400 
 21 H       -0.5630     1.8050     0.8500 H     1 <1>   0.0800 
 22 H        0.4360     2.7120     1.9540 H     1 <1>   0.0800 
 23 H        3.5620     2.2330     0.0840 H     1 <1>   0.0800 
 24 H        2.5120     2.7330    -1.2140 H     1 <1>   0.0800 
 25 H        4.7710    -2.4780    -1.0870 H     1 <1>   0.0800 
 26 H        5.1400    -0.9400    -0.3510 H     1 <1>   0.0800 
 27 H        4.3630    -0.9990    -1.9170 H     1 <1>   0.0800 
 28 H        2.3800    -3.1890    -1.3680 H     1 <1>   0.0800 
 29 H        1.9320    -1.6700    -2.1030 H     1 <1>   0.0800 
 30 H        1.0830    -2.2590    -0.6880 H     1 <1>   0.0800 
 31 H        3.5710    -3.0940     1.0300 H     1 <1>   0.0800 
 32 H        2.2140    -2.1700     1.5930 H     1 <1>   0.0800 
 33 H        3.8340    -1.5180     1.7350 H     1 <1>   0.0800 
 34 H       -0.1100     3.4530    -0.9100 H     1 <1>   0.0800 
 35 H        2.6880     3.9700     1.5230 H     1 <1>   0.0800 
 36 H        1.2070     5.3180    -0.6960 H     1 <1>   0.0800 
 37 H        0.9950     5.4490     1.0210 H     1 <1>   0.0800 
 38 H       -3.3680     6.4240    -0.9710 H     1 <1>   0.0800 
 39 H       -2.9770     6.4800     0.7500 H     1 <1>   0.0800 
 40 H       -3.8700     5.1060     0.0920 H     1 <1>   0.0800 
@<TRIPOS>BOND
  1   1   2  2   
  2   2   3  1   
  3   2   4  am  
  4   3   5  1   
  5   4   6  1   
  6   4   7  1   
  7   5   8  1   
  8   5   9  1   
  9   5  10  1   
 10   6  11  1   
 11   6  21  1   
 12   6  22  1   
 13   7  12  1   
 14   7  23  1   
 15   7  24  1   
 16   8  25  1   
 17   8  26  1   
 18   8  27  1   
 19   9  28  1   
 20   9  29  1   
 21   9  30  1   
 22  10  31  1   
 23  10  32  1   
 24  10  33  1   
 25  11  13  1   
 26  11  14  1   
 27  11  34  1   
 28  12  14  1   
 29  12  15  1   
 30  12  35  1   
 31  13  16  2   
 32  13  17  1   
 33  14  36  1   
 34  14  37  1   
 35  15  18  ar  
 36  15  19  ar  
 37  17  20  1   
 38  20  38  1   
 39  20  39  1   
 40  20  40  1   
@<TRIPOS>SUBSTRUCTURE
  1 ****   4 GROUP 4 **** **** 0

# MOE 2024.06 (io_trps.svl 2023.06)
