@<TRIPOS>MOLECULE
NONAME
54 56 1 0 0 
SMALL
USER_CHARGES


@<TRIPOS>ATOM
  1 S        0.4420    -0.1290     0.7140 S.o2  1 <1>   1.3330 
  2 O        1.0570    -0.7300     1.8760 O.2   1 <1>  -0.6500 
  3 O       -0.5360     0.9210     0.8890 O.2   1 <1>  -0.6500 
  4 N       -0.2680    -1.3730    -0.1970 N.am  1 <1>  -0.8490 
  5 C        1.7100     0.4880    -0.3940 C.3   1 <1>  -0.0550 
  6 C        0.4430    -2.6520    -0.0910 C.3   1 <1>   0.1160 
  7 C       -1.6850    -1.5630     0.1290 C.3   1 <1>   0.1160 
  8 C        2.4750     1.7070     0.1610 C.3   1 <1>  -0.0800 
  9 C        3.3630     2.3270    -0.9050 C.3   1 <1>   0.2200 
 10 C        3.4940     1.3080     1.2350 C.3   1 <1>   0.1200 
 11 N        3.6300     3.7390    -0.5560 N.am  1 <1>  -0.7300 
 12 C        4.6430     1.5140    -0.7560 C.3   1 <1>   0.1200 
 13 O        4.7280     1.1670     0.5940 O.3   1 <1>  -0.5600 
 14 C        3.3530     4.7990    -1.3510 C.2   1 <1>   0.5690 
 15 O        2.8290     4.6710    -2.4290 O.2   1 <1>  -0.5700 
 16 C        3.7200     6.1860    -0.8630 C.3   1 <1>  -0.0990 
 17 C        5.2420     6.3870    -0.7730 C.3   1 <1>  -0.1600 
 18 C        5.6010     7.8000    -0.2960 C.3   1 <1>   0.0210 
 19 C        7.1000     8.0000    -0.1530 C.2   1 <1>  -0.1810 
 20 C        7.6740     9.2010     0.3230 C.ar  1 <1>   0.0000 
 21 C        8.1170     7.1460    -0.4270 C.2   1 <1>  -0.3020 
 22 C        9.0520     9.0120     0.3170 C.ar  1 <1>  -0.1520 
 23 C        7.1510    10.4240     0.7570 C.ar  1 <1>  -0.1500 
 24 N        9.3100     7.7480    -0.1460 N.pl3 1 <1>   0.0330 
 25 C        9.9200    10.0220     0.7380 C.ar  1 <1>  -0.1500 
 26 C        8.0050    11.4200     1.1720 C.ar  1 <1>  -0.1500 
 27 C        9.3910    11.2190     1.1620 C.ar  1 <1>  -0.1500 
 28 H        2.4010    -0.2990    -0.6210 H     1 <1>   0.0800 
 29 H        1.2300     0.7760    -1.3100 H     1 <1>   0.0800 
 30 H        0.0060    -3.3750    -0.7590 H     1 <1>   0.0800 
 31 H        0.3900    -3.0300     0.9180 H     1 <1>   0.0800 
 32 H        1.4780    -2.5250    -0.3570 H     1 <1>   0.0800 
 33 H       -2.1070    -2.3470    -0.4760 H     1 <1>   0.0800 
 34 H       -2.2330    -0.6560    -0.0670 H     1 <1>   0.0800 
 35 H       -1.7990    -1.8160     1.1710 H     1 <1>   0.0800 
 36 H        1.7630     2.4230     0.5370 H     1 <1>   0.0800 
 37 H        2.9510     2.2560    -1.8980 H     1 <1>   0.0800 
 38 H        3.2580     0.3840     1.7340 H     1 <1>   0.0800 
 39 H        3.5980     2.0880     1.9690 H     1 <1>   0.0800 
 40 H        4.1370     3.8720     0.3210 H     1 <1>   0.3700 
 41 H        5.5200     2.0670    -1.0450 H     1 <1>   0.0800 
 42 H        4.5840     0.6030    -1.3240 H     1 <1>   0.0800 
 43 H        3.3010     6.9060    -1.5430 H     1 <1>   0.0800 
 44 H        3.2680     6.3390     0.1000 H     1 <1>   0.0800 
 45 H        5.6630     5.6700    -0.0890 H     1 <1>   0.0800 
 46 H        5.6790     6.2210    -1.7430 H     1 <1>   0.0800 
 47 H        5.1410     7.9850     0.6590 H     1 <1>   0.0800 
 48 H        5.2220     8.5240    -0.9960 H     1 <1>   0.0800 
 49 H        8.0720     6.1410    -0.8080 H     1 <1>   0.1500 
 50 H        6.0870    10.5690     0.7590 H     1 <1>   0.1500 
 51 H       10.2420     7.3380    -0.2570 H     1 <1>   0.2700 
 52 H       10.9830     9.8590     0.7270 H     1 <1>   0.1500 
 53 H        7.6170    12.3650     1.5070 H     1 <1>   0.1500 
 54 H       10.0380    12.0130     1.4920 H     1 <1>   0.1500 
@<TRIPOS>BOND
  1   1   2  2   
  2   1   3  2   
  3   1   4  am  
  4   1   5  1   
  5   4   6  1   
  6   4   7  1   
  7   5   8  1   
  8   5  28  1   
  9   5  29  1   
 10   6  30  1   
 11   6  31  1   
 12   6  32  1   
 13   7  33  1   
 14   7  34  1   
 15   7  35  1   
 16   8   9  1   
 17   8  10  1   
 18   8  36  1   
 19   9  11  1   
 20   9  12  1   
 21   9  37  1   
 22  10  13  1   
 23  10  38  1   
 24  10  39  1   
 25  11  14  am  
 26  11  40  1   
 27  12  13  1   
 28  12  41  1   
 29  12  42  1   
 30  14  15  2   
 31  14  16  1   
 32  16  17  1   
 33  16  43  1   
 34  16  44  1   
 35  17  18  1   
 36  17  45  1   
 37  17  46  1   
 38  18  19  1   
 39  18  47  1   
 40  18  48  1   
 41  19  20  1   
 42  19  21  2   
 43  20  22  ar  
 44  20  23  ar  
 45  21  24  1   
 46  21  49  1   
 47  22  24  1   
 48  22  25  ar  
 49  23  26  ar  
 50  23  50  1   
 51  24  51  1   
 52  25  27  ar  
 53  25  52  1   
 54  26  27  ar  
 55  26  53  1   
 56  27  54  1   
@<TRIPOS>SUBSTRUCTURE
  1 ****  11 GROUP 4 **** **** 0

# MOE 2024.06 (io_trps.svl 2023.06)
