@<TRIPOS>MOLECULE
NONAME
46 49 1 0 0 
SMALL
USER_CHARGES


@<TRIPOS>ATOM
  1 O       -1.5450     1.6560     2.3070 O.2   1 <1>  -0.5700 
  2 C       -2.2260     1.6140     1.2860 C.2   1 <1>   0.5440 
  3 N       -3.4280     0.9160     1.3870 N.am  1 <1>  -0.6600 
  4 C       -1.7560     2.2790     0.0850 C.ar  1 <1>   0.3960 
  5 C       -4.5960     1.1240     0.4950 C.3   1 <1>   0.1400 
  6 C       -3.5780    -0.2580     2.2850 C.3   1 <1>   0.1400 
  7 N       -2.1450     1.8650    -1.1540 N.ar  1 <1>  -0.6200 
  8 C       -0.8710     3.3620     0.2210 C.ar  1 <1>   0.1600 
  9 C       -4.7540    -0.1000    -0.4080 C.3   1 <1>  -0.1600 
 10 C       -3.7000    -1.5170     1.4230 C.3   1 <1>  -0.1600 
 11 C       -1.6370     2.5710    -2.1250 C.ar  1 <1>   0.1600 
 12 N       -0.3570     4.0790    -0.7490 N.ar  1 <1>  -0.6200 
 13 C       -4.8420    -1.4160     0.3920 C.3   1 <1>   0.4240 
 14 C       -0.7590     3.6680    -1.9630 C.ar  1 <1>   0.1390 
 15 O       -6.0060    -1.3330     1.1880 O.3   1 <1>  -0.5600 
 16 C       -4.8770    -2.6510    -0.5510 C.ar  1 <1>  -0.1430 
 17 O       -0.3380     4.2790    -2.9580 O.3   1 <1>  -0.8290 
 18 C       -7.2230    -1.6670     0.6030 C.3   1 <1>   0.1200 
 19 C       -3.8040    -2.9760    -1.3900 C.ar  1 <1>   0.0830 
 20 C       -6.0080    -3.4640    -0.6000 C.ar  1 <1>  -0.1430 
 21 C       -7.2050    -3.1520     0.2740 C.3   1 <1>  -0.0170 
 22 O       -2.6760    -2.2280    -1.3840 O.3   1 <1>  -0.3630 
 23 C       -3.8660    -4.0790    -2.2320 C.ar  1 <1>  -0.1500 
 24 C       -6.0640    -4.5620    -1.4440 C.ar  1 <1>  -0.1500 
 25 C       -2.1740    -1.7230    -2.6020 C.3   1 <1>   0.0400 
 26 C       -4.9950    -4.8720    -2.2610 C.ar  1 <1>  -0.1500 
 27 H       -4.4710     2.0140    -0.0970 H     1 <1>   0.0800 
 28 H       -5.4780     1.2500     1.0990 H     1 <1>   0.0800 
 29 H       -4.4590    -0.1320     2.8910 H     1 <1>   0.0800 
 30 H       -2.7290    -0.3480     2.9400 H     1 <1>   0.0800 
 31 H       -0.5830     3.6390     1.2160 H     1 <1>   0.1500 
 32 H       -3.9050    -0.1260    -1.0580 H     1 <1>   0.0800 
 33 H       -5.6140     0.0150    -1.0370 H     1 <1>   0.0800 
 34 H       -3.8670    -2.3740     2.0480 H     1 <1>   0.0800 
 35 H       -2.7560    -1.6590     0.9380 H     1 <1>   0.0800 
 36 H       -1.8830     2.3300    -3.1410 H     1 <1>   0.1500 
 37 H       -7.3710    -1.0730    -0.2810 H     1 <1>   0.0800 
 38 H       -8.0010    -1.4470     1.3120 H     1 <1>   0.0800 
 39 H       -8.1170    -3.4120    -0.2330 H     1 <1>   0.0800 
 40 H       -7.1480    -3.7210     1.1840 H     1 <1>   0.0800 
 41 H       -3.0290    -4.3280    -2.8560 H     1 <1>   0.1500 
 42 H       -6.9430    -5.1830    -1.4680 H     1 <1>   0.1500 
 43 H       -1.4810    -0.9320    -2.3720 H     1 <1>   0.0800 
 44 H       -2.9900    -1.3330    -3.1830 H     1 <1>   0.0800 
 45 H       -1.6690    -2.5110    -3.1300 H     1 <1>   0.0800 
 46 H       -5.0410    -5.7270    -2.9120 H     1 <1>   0.1500 
@<TRIPOS>BOND
  1   1   2  2   
  2   2   3  am  
  3   2   4  1   
  4   3   5  1   
  5   3   6  1   
  6   4   7  ar  
  7   4   8  ar  
  8   5   9  1   
  9   5  27  1   
 10   5  28  1   
 11   6  10  1   
 12   6  29  1   
 13   6  30  1   
 14   7  11  ar  
 15   8  12  ar  
 16   8  31  1   
 17   9  13  1   
 18   9  32  1   
 19   9  33  1   
 20  10  13  1   
 21  10  34  1   
 22  10  35  1   
 23  11  14  ar  
 24  11  36  1   
 25  12  14  ar  
 26  13  15  1   
 27  13  16  1   
 28  14  17  1   
 29  15  18  1   
 30  16  19  ar  
 31  16  20  ar  
 32  18  21  1   
 33  18  37  1   
 34  18  38  1   
 35  19  22  1   
 36  19  23  ar  
 37  20  21  1   
 38  20  24  ar  
 39  21  39  1   
 40  21  40  1   
 41  22  25  1   
 42  23  26  ar  
 43  23  41  1   
 44  24  26  ar  
 45  24  42  1   
 46  25  43  1   
 47  25  44  1   
 48  25  45  1   
 49  26  46  1   
@<TRIPOS>SUBSTRUCTURE
  1 ****   9 GROUP 4 **** **** 0

# MOE 2024.06 (io_trps.svl 2023.06)
