@<TRIPOS>MOLECULE
NONAME
53 55 1 0 0 
SMALL
USER_CHARGES


@<TRIPOS>ATOM
  1 O       -1.1030     0.1550    -1.1230 O.2   1 <1>  -0.5700 
  2 C       -1.9820     0.9700    -1.2730 C.2   1 <1>   0.5690 
  3 N       -3.2270     0.5770    -1.6980 N.am  1 <1>  -0.6600 
  4 C       -1.6980     2.4330    -0.9460 C.3   1 <1>  -0.0190 
  5 C       -3.3980    -0.7770    -2.2990 C.3   1 <1>   0.3200 
  6 C       -4.5020     1.2900    -1.3660 C.3   1 <1>   0.1400 
  7 C       -1.6250     3.2620    -2.2310 C.3   1 <1>   0.1200 
  8 C       -0.3950     2.6600    -0.1640 C.3   1 <1>  -0.0170 
  9 C       -3.9940    -1.6530    -1.2250 C.2   1 <1>  -0.3320 
 10 C       -4.8400     1.1150     0.1320 C.3   1 <1>   0.3430 
 11 O       -1.5860     4.6350    -1.8960 O.3   1 <1>  -0.3630 
 12 C       -0.1320     4.1520    -0.0390 C.ar  1 <1>  -0.1440 
 13 N       -3.2960    -2.0480    -0.1440 N.pl3 1 <1>   0.0330 
 14 C       -5.2380    -2.1580    -1.0910 C.2   1 <1>   0.0770 
 15 N       -6.2840     1.3600     0.4620 N.4   1 <1>  -0.9590 
 16 C       -0.7420     5.0500    -0.9140 C.ar  1 <1>   0.0830 
 17 C        0.7170     4.6310     0.9460 C.ar  1 <1>  -0.1500 
 18 C       -4.1850    -2.7310     0.6080 C.2   1 <1>   0.0360 
 19 N       -5.3680    -2.7970     0.0850 N.2   1 <1>  -0.5650 
 20 C       -6.4370     1.6090     1.9290 C.3   1 <1>   0.2630 
 21 C       -7.1270     0.1800     0.0770 C.3   1 <1>   0.2630 
 22 C       -0.5090     6.4100    -0.7930 C.ar  1 <1>  -0.1500 
 23 C        0.9550     5.9990     1.0670 C.ar  1 <1>   0.0830 
 24 C        0.3370     6.8800     0.1950 C.ar  1 <1>  -0.1500 
 25 O        1.7720     6.5450     2.0050 O.3   1 <1>  -0.3620 
 26 C        2.4950     5.7340     2.9040 C.3   1 <1>   0.0400 
 27 H       -2.5030     2.8120    -0.3480 H     1 <1>   0.0800 
 28 H       -2.4550    -1.1790    -2.6330 H     1 <1>   0.0800 
 29 H       -4.0550    -0.7190    -3.1500 H     1 <1>   0.0800 
 30 H       -5.2930     0.8810    -1.9700 H     1 <1>   0.0800 
 31 H       -4.4100     2.3360    -1.6030 H     1 <1>   0.0800 
 32 H       -2.4860     3.1050    -2.8550 H     1 <1>   0.0800 
 33 H       -0.7360     3.0300    -2.7920 H     1 <1>   0.0800 
 34 H        0.4340     2.2100    -0.6830 H     1 <1>   0.0800 
 35 H       -0.4670     2.2090     0.8100 H     1 <1>   0.0800 
 36 H       -4.2230     1.7930     0.6980 H     1 <1>   0.0800 
 37 H       -4.5860     0.1120     0.4310 H     1 <1>   0.0800 
 38 H       -2.3020    -1.8660     0.0480 H     1 <1>   0.2700 
 39 H       -6.0650    -2.0860    -1.7790 H     1 <1>   0.1500 
 40 H       -6.6180     2.1950    -0.0430 H     1 <1>   0.4500 
 41 H        1.1870     3.9320     1.6110 H     1 <1>   0.1500 
 42 H       -3.9130    -3.1740     1.5520 H     1 <1>   0.1500 
 43 H       -6.1070     0.7500     2.4910 H     1 <1>   0.0800 
 44 H       -7.4710     1.7990     2.1700 H     1 <1>   0.0800 
 45 H       -5.8540     2.4650     2.2290 H     1 <1>   0.0800 
 46 H       -6.7890    -0.7070     0.5910 H     1 <1>   0.0800 
 47 H       -7.0670     0.0020    -0.9830 H     1 <1>   0.0800 
 48 H       -8.1590     0.3540     0.3370 H     1 <1>   0.0800 
 49 H       -0.9880     7.0910    -1.4720 H     1 <1>   0.1500 
 50 H        0.5240     7.9340     0.2950 H     1 <1>   0.1500 
 51 H        3.0880     6.3770     3.5300 H     1 <1>   0.0800 
 52 H        3.1350     5.0760     2.3440 H     1 <1>   0.0800 
 53 H        1.8000     5.1770     3.5080 H     1 <1>   0.0800 
@<TRIPOS>BOND
  1   1   2  2   
  2   2   3  am  
  3   2   4  1   
  4   3   5  1   
  5   3   6  1   
  6   4   7  1   
  7   4   8  1   
  8   4  27  1   
  9   5   9  1   
 10   5  28  1   
 11   5  29  1   
 12   6  10  1   
 13   6  30  1   
 14   6  31  1   
 15   7  11  1   
 16   7  32  1   
 17   7  33  1   
 18   8  12  1   
 19   8  34  1   
 20   8  35  1   
 21   9  13  1   
 22   9  14  2   
 23  10  15  1   
 24  10  36  1   
 25  10  37  1   
 26  11  16  1   
 27  12  16  ar  
 28  12  17  ar  
 29  13  18  1   
 30  13  38  1   
 31  14  19  1   
 32  14  39  1   
 33  15  20  1   
 34  15  21  1   
 35  15  40  1   
 36  16  22  ar  
 37  17  23  ar  
 38  17  41  1   
 39  18  19  2   
 40  18  42  1   
 41  20  43  1   
 42  20  44  1   
 43  20  45  1   
 44  21  46  1   
 45  21  47  1   
 46  21  48  1   
 47  22  24  ar  
 48  22  49  1   
 49  23  24  ar  
 50  23  25  1   
 51  24  50  1   
 52  25  26  1   
 53  26  51  1   
 54  26  52  1   
 55  26  53  1   
@<TRIPOS>SUBSTRUCTURE
  1 ****   4 GROUP 4 **** **** 0

# MOE 2024.06 (io_trps.svl 2023.06)
