@<TRIPOS>MOLECULE
NONAME
45 48 1 0 0 
SMALL
USER_CHARGES


@<TRIPOS>ATOM
  1 O       -0.6260    -2.0260    -0.8030 O.2   1 <1>  -0.5700 
  2 C        0.4620    -2.5390    -0.8540 C.2   1 <1>   0.5690 
  3 N        0.9620    -3.0220    -2.0100 N.am  1 <1>  -0.7300 
  4 C        1.3130    -2.6770     0.3880 C.3   1 <1>  -0.0990 
  5 C        2.2830    -3.6770    -2.1080 C.3   1 <1>   0.1400 
  6 C        2.7800    -2.3200     0.0800 C.3   1 <1>  -0.0800 
  7 C        3.3130    -2.9150    -1.2490 C.3   1 <1>  -0.0800 
  8 C        3.7500    -2.7640     1.1840 C.3   1 <1>  -0.1600 
  9 C        4.5230    -3.7780    -0.8680 C.3   1 <1>  -0.1600 
 10 C        5.0170    -3.1720     0.4430 C.3   1 <1>   0.2200 
 11 N        5.8890    -4.0850     1.2420 N.am  1 <1>  -0.6600 
 12 C        7.1580    -3.7170     1.6590 C.2   1 <1>   0.5440 
 13 C        5.4050    -5.4740     1.5120 C.3   1 <1>   0.0600 
 14 O        7.8030    -4.5040     2.3300 O.2   1 <1>  -0.5700 
 15 C        7.7240    -2.4090     1.4130 C.ar  1 <1>   0.0860 
 16 C        8.1640    -2.0260     0.1190 C.ar  1 <1>   0.3100 
 17 C        7.8470    -1.5220     2.4630 C.ar  1 <1>  -0.1500 
 18 N        8.0470    -2.8890    -0.9290 N.ar  1 <1>  -0.6200 
 19 C        8.7100    -0.7310    -0.0550 C.ar  1 <1>   0.0000 
 20 C        8.3820    -0.2470     2.2850 C.ar  1 <1>  -0.1500 
 21 C        8.4670    -2.5050    -2.0960 C.ar  1 <1>   0.1600 
 22 C        9.1450    -0.3510    -1.3370 C.ar  1 <1>  -0.1500 
 23 C        8.8050     0.1410     1.0450 C.ar  1 <1>  -0.1500 
 24 C        9.0220    -1.2470    -2.3540 C.ar  1 <1>  -0.1500 
 25 H        0.3720    -2.9620    -2.8440 H     1 <1>   0.3700 
 26 H        0.9300    -2.0360     1.1610 H     1 <1>   0.0800 
 27 H        1.2350    -3.6940     0.7230 H     1 <1>   0.0800 
 28 H        2.1820    -4.6900    -1.7580 H     1 <1>   0.0800 
 29 H        2.6060    -3.7010    -3.1350 H     1 <1>   0.0800 
 30 H        2.8390    -1.2470    -0.0100 H     1 <1>   0.0800 
 31 H        3.6780    -2.0920    -1.8410 H     1 <1>   0.0800 
 32 H        3.3430    -3.6010     1.7200 H     1 <1>   0.0800 
 33 H        3.9480    -1.9660     1.8780 H     1 <1>   0.0800 
 34 H        5.2900    -3.7460    -1.6210 H     1 <1>   0.0800 
 35 H        4.2080    -4.7940    -0.7200 H     1 <1>   0.0800 
 36 H        5.5450    -2.2690     0.1940 H     1 <1>   0.0800 
 37 H        4.3330    -5.5300     1.4780 H     1 <1>   0.0800 
 38 H        5.7300    -5.7960     2.4870 H     1 <1>   0.0800 
 39 H        5.8180    -6.1420     0.7760 H     1 <1>   0.0800 
 40 H        7.5260    -1.8210     3.4470 H     1 <1>   0.1500 
 41 H        8.4590     0.4160     3.1300 H     1 <1>   0.1500 
 42 H        8.3830    -3.1960    -2.9170 H     1 <1>   0.1500 
 43 H        9.5670     0.6260    -1.4910 H     1 <1>   0.1500 
 44 H        9.2220     1.1210     0.8960 H     1 <1>   0.1500 
 45 H        9.3420    -1.0120    -3.3530 H     1 <1>   0.1500 
@<TRIPOS>BOND
  1   1   2  2   
  2   2   3  am  
  3   2   4  1   
  4   3   5  1   
  5   3  25  1   
  6   4   6  1   
  7   4  26  1   
  8   4  27  1   
  9   5   7  1   
 10   5  28  1   
 11   5  29  1   
 12   6   7  1   
 13   6   8  1   
 14   6  30  1   
 15   7   9  1   
 16   7  31  1   
 17   8  10  1   
 18   8  32  1   
 19   8  33  1   
 20   9  10  1   
 21   9  34  1   
 22   9  35  1   
 23  10  11  1   
 24  10  36  1   
 25  11  12  am  
 26  11  13  1   
 27  12  14  2   
 28  12  15  1   
 29  13  37  1   
 30  13  38  1   
 31  13  39  1   
 32  15  16  ar  
 33  15  17  ar  
 34  16  18  ar  
 35  16  19  ar  
 36  17  20  ar  
 37  17  40  1   
 38  18  21  ar  
 39  19  22  ar  
 40  19  23  ar  
 41  20  23  ar  
 42  20  41  1   
 43  21  24  ar  
 44  21  42  1   
 45  22  24  ar  
 46  22  43  1   
 47  23  44  1   
 48  24  45  1   
@<TRIPOS>SUBSTRUCTURE
  1 ****  10 GROUP 4 **** **** 0

# MOE 2024.06 (io_trps.svl 2023.06)
