@<TRIPOS>MOLECULE
NONAME
56 58 1 0 0 
SMALL
USER_CHARGES


@<TRIPOS>ATOM
  1 O       -0.6600     0.9030     0.9130 O.2   1 <1>  -0.5700 
  2 C       -1.5920     1.5630     0.5150 C.2   1 <1>   0.5690 
  3 N       -2.8900     1.1180     0.6260 N.am  1 <1>  -0.6600 
  4 C       -1.2860     2.9170    -0.1150 C.3   1 <1>  -0.0990 
  5 C       -4.0570     1.8530     0.0460 C.3   1 <1>   0.2200 
  6 C       -3.1600    -0.1610     1.3570 C.3   1 <1>   0.0600 
  7 C        0.1790     3.3710     0.0500 C.3   1 <1>  -0.0990 
  8 C       -4.8610     2.5920     1.1120 C.3   1 <1>  -0.1600 
  9 C       -5.0850     0.9740    -0.6680 C.3   1 <1>  -0.1600 
 10 C        0.4750     4.7420    -0.5530 C.2   1 <1>   0.4230 
 11 C       -6.2250     2.8430     0.4540 C.3   1 <1>  -0.0800 
 12 C       -6.3600     1.8280    -0.6870 C.3   1 <1>  -0.0800 
 13 O       -0.4450     5.3500    -1.0420 O.2   1 <1>  -0.5700 
 14 C        1.8290     5.2650    -0.5180 C.ar  1 <1>   0.0860 
 15 C       -7.4440     2.6180     1.3610 C.3   1 <1>  -0.1600 
 16 C       -7.6680     1.0670    -0.4200 C.3   1 <1>  -0.1600 
 17 C        2.1190     6.5020    -1.1010 C.ar  1 <1>  -0.1500 
 18 C        2.8990     4.5890     0.0820 C.ar  1 <1>  -0.1500 
 19 C       -8.5140     1.9980     0.4560 C.3   1 <1>   0.4230 
 20 C        3.3940     7.0360    -1.0910 C.ar  1 <1>  -0.1500 
 21 C        4.1770     5.1170     0.0950 C.ar  1 <1>  -0.1500 
 22 N       -9.1850     3.0490    -0.3770 N.4   1 <1>  -0.9590 
 23 C        4.4280     6.3430    -0.4910 C.ar  1 <1>  -0.1500 
 24 C       -9.9120     4.0670     0.4500 C.3   1 <1>   0.2630 
 25 C      -10.1500     2.4730    -1.3690 C.3   1 <1>   0.2630 
 26 H       -1.5140     2.8630    -1.1630 H     1 <1>   0.0800 
 27 H       -1.9220     3.6550     0.3380 H     1 <1>   0.0800 
 28 H       -3.7190     2.5770    -0.6740 H     1 <1>   0.0800 
 29 H       -4.0680    -0.0900     1.9260 H     1 <1>   0.0800 
 30 H       -2.3570    -0.3840     2.0390 H     1 <1>   0.0800 
 31 H       -3.2400    -0.9690     0.6520 H     1 <1>   0.0800 
 32 H        0.8180     2.6450    -0.4200 H     1 <1>   0.0800 
 33 H        0.4140     3.4000     1.0990 H     1 <1>   0.0800 
 34 H       -4.9630     1.9740     1.9850 H     1 <1>   0.0800 
 35 H       -4.3810     3.5150     1.3880 H     1 <1>   0.0800 
 36 H       -4.7580     0.7280    -1.6640 H     1 <1>   0.0800 
 37 H       -5.2600     0.0670    -0.1210 H     1 <1>   0.0800 
 38 H       -6.2460     3.8380     0.0400 H     1 <1>   0.0800 
 39 H       -6.4210     2.3610    -1.6220 H     1 <1>   0.0800 
 40 H       -7.7430     3.5110     1.8750 H     1 <1>   0.0800 
 41 H       -7.2000     1.8860     2.1110 H     1 <1>   0.0800 
 42 H       -7.4590     0.1880     0.1660 H     1 <1>   0.0800 
 43 H       -8.1420     0.7380    -1.3250 H     1 <1>   0.0800 
 44 H        1.3230     7.0550    -1.5720 H     1 <1>   0.1500 
 45 H        2.7470     3.6330     0.5500 H     1 <1>   0.1500 
 46 H       -9.2450     1.4470     1.0280 H     1 <1>   0.0800 
 47 H        3.5810     7.9920    -1.5500 H     1 <1>   0.1500 
 48 H        4.9800     4.5740     0.5640 H     1 <1>   0.1500 
 49 H       -8.4320     3.5260    -0.8930 H     1 <1>   0.4500 
 50 H        5.4230     6.7560    -0.4820 H     1 <1>   0.1500 
 51 H      -10.6460     3.5860     1.0760 H     1 <1>   0.0800 
 52 H      -10.4150     4.7750    -0.1880 H     1 <1>   0.0800 
 53 H       -9.2260     4.6110     1.0770 H     1 <1>   0.0800 
 54 H      -10.9020     1.8880    -0.8640 H     1 <1>   0.0800 
 55 H       -9.6410     1.8430    -2.0790 H     1 <1>   0.0800 
 56 H      -10.6400     3.2630    -1.9150 H     1 <1>   0.0800 
@<TRIPOS>BOND
  1   1   2  2   
  2   2   3  am  
  3   2   4  1   
  4   3   5  1   
  5   3   6  1   
  6   4   7  1   
  7   4  26  1   
  8   4  27  1   
  9   5   8  1   
 10   5   9  1   
 11   5  28  1   
 12   6  29  1   
 13   6  30  1   
 14   6  31  1   
 15   7  10  1   
 16   7  32  1   
 17   7  33  1   
 18   8  11  1   
 19   8  34  1   
 20   8  35  1   
 21   9  12  1   
 22   9  36  1   
 23   9  37  1   
 24  10  13  2   
 25  10  14  1   
 26  11  12  1   
 27  11  15  1   
 28  11  38  1   
 29  12  16  1   
 30  12  39  1   
 31  14  17  ar  
 32  14  18  ar  
 33  15  19  1   
 34  15  40  1   
 35  15  41  1   
 36  16  19  1   
 37  16  42  1   
 38  16  43  1   
 39  17  20  ar  
 40  17  44  1   
 41  18  21  ar  
 42  18  45  1   
 43  19  22  1   
 44  19  46  1   
 45  20  23  ar  
 46  20  47  1   
 47  21  23  ar  
 48  21  48  1   
 49  22  24  1   
 50  22  25  1   
 51  22  49  1   
 52  23  50  1   
 53  24  51  1   
 54  24  52  1   
 55  24  53  1   
 56  25  54  1   
 57  25  55  1   
 58  25  56  1   
@<TRIPOS>SUBSTRUCTURE
  1 ****   4 GROUP 4 **** **** 0

# MOE 2024.06 (io_trps.svl 2023.06)
