@<TRIPOS>MOLECULE
NONAME
54 57 1 0 0 
SMALL
USER_CHARGES


@<TRIPOS>ATOM
  1 O        0.0810     1.4920     1.8020 O.2   1 <1>  -0.5700 
  2 C        0.0530     2.5660     1.2220 C.2   1 <1>   0.5440 
  3 N       -1.1770     3.1960     1.0940 N.am  1 <1>  -0.6600 
  4 C        1.3050     3.0950     0.6690 C.ar  1 <1>   0.3960 
  5 C       -1.4570     4.3270     0.1720 C.3   1 <1>   0.1400 
  6 C       -2.3730     2.7740     1.8710 C.3   1 <1>   0.1400 
  7 N        1.6170     4.3740     0.7610 N.ar  1 <1>  -0.6200 
  8 C        2.1720     2.1810     0.0420 C.ar  1 <1>  -0.1500 
  9 C       -2.5620     3.9220    -0.8070 C.3   1 <1>  -0.1600 
 10 C       -3.4800     2.3460     0.9060 C.3   1 <1>  -0.1600 
 11 C        2.7860     4.8000     0.2330 C.ar  1 <1>   0.3100 
 12 C        3.3600     2.5820    -0.5030 C.ar  1 <1>   0.0820 
 13 C       -3.8570     3.4490    -0.1040 C.3   1 <1>   0.2800 
 14 C        3.7000     3.9460    -0.4200 C.ar  1 <1>   0.0000 
 15 C        3.1020     6.1650     0.3370 C.ar  1 <1>  -0.1500 
 16 O        4.2270     1.7470    -1.1170 O.3   1 <1>  -0.3630 
 17 O       -4.3370     4.5310     0.6650 O.3   1 <1>  -0.5600 
 18 C       -4.9480     2.9170    -1.1070 C.3   1 <1>   0.2000 
 19 C        4.8880     4.4970    -0.9430 C.ar  1 <1>  -0.1500 
 20 C        4.2620     6.6790    -0.1780 C.ar  1 <1>  -0.1500 
 21 C        4.0070     0.3560    -1.1950 C.3   1 <1>   0.0400 
 22 C       -5.2460     5.4020     0.0740 C.3   1 <1>   0.1200 
 23 O       -4.7860     3.4820    -2.3860 O.3   1 <1>  -0.6800 
 24 C       -6.3960     3.1940    -0.6080 C.3   1 <1>   0.2800 
 25 C        5.1660     5.8330    -0.8270 C.ar  1 <1>  -0.1500 
 26 C       -6.5690     4.6780    -0.2250 C.3   1 <1>  -0.1600 
 27 O       -6.6350     2.4360     0.5220 O.3   1 <1>  -0.6800 
 28 C       -7.4750     2.7460    -1.6030 C.3   1 <1>  -0.2400 
 29 H       -1.7690     5.1810     0.7500 H     1 <1>   0.0800 
 30 H       -0.5830     4.6010    -0.3880 H     1 <1>   0.0800 
 31 H       -2.1340     1.9610     2.5340 H     1 <1>   0.0800 
 32 H       -2.7110     3.6010     2.4720 H     1 <1>   0.0800 
 33 H        1.8570     1.1560     0.0140 H     1 <1>   0.1500 
 34 H       -2.1890     3.1270    -1.4270 H     1 <1>   0.0800 
 35 H       -2.7680     4.7570    -1.4490 H     1 <1>   0.0800 
 36 H       -4.3400     2.0630     1.4820 H     1 <1>   0.0800 
 37 H       -3.1450     1.4710     0.3790 H     1 <1>   0.0800 
 38 H        2.3960     6.8000     0.8410 H     1 <1>   0.1500 
 39 H       -4.8220     1.8580    -1.2440 H     1 <1>   0.0800 
 40 H        5.5820     3.8430    -1.4410 H     1 <1>   0.1500 
 41 H        4.4920     7.7270    -0.0900 H     1 <1>   0.1500 
 42 H        4.8430    -0.0870    -1.7060 H     1 <1>   0.0800 
 43 H        3.1030     0.1750    -1.7490 H     1 <1>   0.0800 
 44 H        3.9350    -0.0440    -0.1980 H     1 <1>   0.0800 
 45 H       -5.4110     6.2160     0.7570 H     1 <1>   0.0800 
 46 H       -4.8020     5.7960    -0.8230 H     1 <1>   0.0800 
 47 H       -4.8740     4.4510    -2.3300 H     1 <1>   0.4000 
 48 H        6.0750     6.2440    -1.2300 H     1 <1>   0.1500 
 49 H       -7.0360     5.2080    -1.0350 H     1 <1>   0.0800 
 50 H       -7.2240     4.7730     0.6230 H     1 <1>   0.0800 
 51 H       -7.5280     2.6240     0.8610 H     1 <1>   0.4000 
 52 H       -7.3910     3.2960    -2.5230 H     1 <1>   0.0800 
 53 H       -8.4590     2.9130    -1.2040 H     1 <1>   0.0800 
 54 H       -7.3540     1.7020    -1.8310 H     1 <1>   0.0800 
@<TRIPOS>BOND
  1   1   2  2   
  2   2   3  am  
  3   2   4  1   
  4   3   5  1   
  5   3   6  1   
  6   4   7  ar  
  7   4   8  ar  
  8   5   9  1   
  9   5  29  1   
 10   5  30  1   
 11   6  10  1   
 12   6  31  1   
 13   6  32  1   
 14   7  11  ar  
 15   8  12  ar  
 16   8  33  1   
 17   9  13  1   
 18   9  34  1   
 19   9  35  1   
 20  10  13  1   
 21  10  36  1   
 22  10  37  1   
 23  11  14  ar  
 24  11  15  ar  
 25  12  14  ar  
 26  12  16  1   
 27  13  17  1   
 28  13  18  1   
 29  14  19  ar  
 30  15  20  ar  
 31  15  38  1   
 32  16  21  1   
 33  17  22  1   
 34  18  23  1   
 35  18  24  1   
 36  18  39  1   
 37  19  25  ar  
 38  19  40  1   
 39  20  25  ar  
 40  20  41  1   
 41  21  42  1   
 42  21  43  1   
 43  21  44  1   
 44  22  26  1   
 45  22  45  1   
 46  22  46  1   
 47  23  47  1   
 48  24  26  1   
 49  24  27  1   
 50  24  28  1   
 51  25  48  1   
 52  26  49  1   
 53  26  50  1   
 54  27  51  1   
 55  28  52  1   
 56  28  53  1   
 57  28  54  1   
@<TRIPOS>SUBSTRUCTURE
  1 ****   5 GROUP 4 **** **** 0

# MOE 2024.06 (io_trps.svl 2023.06)
