@<TRIPOS>MOLECULE
NONAME
53 56 1 0 0 
SMALL
USER_CHARGES


@<TRIPOS>ATOM
  1 F       -1.3340    -0.4670    -0.9800 F     1 <1>  -0.1900 
  2 C       -2.5460    -0.0250    -0.7880 C.ar  1 <1>   0.1900 
  3 C       -3.3670     0.1690    -1.8810 C.ar  1 <1>  -0.1500 
  4 C       -2.9660     0.2340     0.5030 C.ar  1 <1>  -0.1500 
  5 C       -4.6540     0.6330    -1.6690 C.ar  1 <1>  -0.1500 
  6 C       -4.2550     0.6980     0.6980 C.ar  1 <1>  -0.1500 
  7 C       -5.1160     0.8980    -0.3800 C.ar  1 <1>   0.0530 
  8 C       -6.4590     1.3590    -0.1660 C.2   1 <1>  -0.2050 
  9 N       -6.9290     2.5620    -0.5750 N.pl3 1 <1>   0.3000 
 10 C       -7.5090     0.7500     0.4450 C.2   1 <1>  -0.1810 
 11 N       -8.2250     2.7340    -0.2650 N.2   1 <1>  -0.7070 
 12 C       -8.5680     1.6440     0.3500 C.2   1 <1>   0.1390 
 13 C       -7.5350    -0.6230     1.0760 C.3   1 <1>   0.5240 
 14 N       -8.5500    -1.4620     0.3960 N.4   1 <1>  -0.9590 
 15 C       -8.7670    -2.8280     1.0030 C.3   1 <1>   0.3430 
 16 C       -8.4860    -1.4670    -1.0890 C.3   1 <1>   0.3430 
 17 C       -9.7280    -3.7520     0.1690 C.3   1 <1>   0.4230 
 18 C       -9.7940    -2.0480    -1.6660 C.3   1 <1>  -0.1600 
 19 N      -10.5270    -4.7260     1.0000 N.4   1 <1>  -0.9590 
 20 C      -10.6760    -2.8680    -0.6660 C.3   1 <1>  -0.1060 
 21 C      -11.3720    -5.6290     0.1710 C.3   1 <1>   0.3430 
 22 C       -9.7900    -5.4830     2.0530 C.3   1 <1>   0.2630 
 23 C      -11.3740    -1.9620     0.3700 C.2   1 <1>   0.9060 
 24 C      -11.6800    -3.7210    -1.4850 C.3   1 <1>  -0.1600 
 25 C      -12.3690    -4.8020    -0.6400 C.3   1 <1>  -0.1600 
 26 O      -11.1200    -0.7550     0.3670 O.co2 1 <1>  -0.9000 
 27 O      -11.8920    -2.4950     1.3550 O.co2 1 <1>  -0.9000 
 28 H       -3.0000    -0.0390    -2.8710 H     1 <1>   0.1500 
 29 H       -2.2920     0.0790     1.3270 H     1 <1>   0.1500 
 30 H       -5.3060     0.7900    -2.5100 H     1 <1>   0.1500 
 31 H       -4.5950     0.9180     1.6960 H     1 <1>   0.1500 
 32 H       -6.3820     3.2830    -1.0610 H     1 <1>   0.2700 
 33 H       -9.5690     1.4730     0.7250 H     1 <1>   0.1500 
 34 H       -7.7780    -0.5270     2.1220 H     1 <1>   0.0800 
 35 H       -6.5600    -1.0740     0.9860 H     1 <1>   0.0800 
 36 H       -9.4530    -0.9370     0.5610 H     1 <1>   0.4500 
 37 H       -7.8200    -3.3270     1.1180 H     1 <1>   0.0800 
 38 H       -9.2050    -2.6890     1.9790 H     1 <1>   0.0800 
 39 H       -8.3600    -0.4630    -1.4640 H     1 <1>   0.0800 
 40 H       -7.6430    -2.0550    -1.4150 H     1 <1>   0.0800 
 41 H       -9.1200    -4.3200    -0.5140 H     1 <1>   0.0800 
 42 H      -10.3810    -1.2310    -2.0540 H     1 <1>   0.0800 
 43 H       -9.5250    -2.6490    -2.5170 H     1 <1>   0.0800 
 44 H      -11.2280    -4.0850     1.4690 H     1 <1>   0.4500 
 45 H      -10.7510    -6.2070    -0.4940 H     1 <1>   0.0800 
 46 H      -11.9170    -6.3080     0.8060 H     1 <1>   0.0800 
 47 H       -9.0430    -6.1190     1.6070 H     1 <1>   0.0800 
 48 H      -10.4770    -6.0980     2.6110 H     1 <1>   0.0800 
 49 H       -9.3140    -4.8060     2.7420 H     1 <1>   0.0800 
 50 H      -12.4290    -3.0770    -1.9170 H     1 <1>   0.0800 
 51 H      -11.1700    -4.2110    -2.2970 H     1 <1>   0.0800 
 52 H      -12.9280    -5.4570    -1.2850 H     1 <1>   0.0800 
 53 H      -13.0790    -4.3470     0.0310 H     1 <1>   0.0800 
@<TRIPOS>BOND
  1   1   2  1   
  2   2   3  ar  
  3   2   4  ar  
  4   3   5  ar  
  5   3  28  1   
  6   4   6  ar  
  7   4  29  1   
  8   5   7  ar  
  9   5  30  1   
 10   6   7  ar  
 11   6  31  1   
 12   7   8  1   
 13   8   9  1   
 14   8  10  2   
 15   9  11  1   
 16   9  32  1   
 17  10  12  1   
 18  10  13  1   
 19  11  12  2   
 20  12  33  1   
 21  13  14  1   
 22  13  34  1   
 23  13  35  1   
 24  14  15  1   
 25  14  16  1   
 26  14  36  1   
 27  15  17  1   
 28  15  37  1   
 29  15  38  1   
 30  16  18  1   
 31  16  39  1   
 32  16  40  1   
 33  17  19  1   
 34  17  20  1   
 35  17  41  1   
 36  18  20  1   
 37  18  42  1   
 38  18  43  1   
 39  19  21  1   
 40  19  22  1   
 41  19  44  1   
 42  20  23  1   
 43  20  24  1   
 44  21  25  1   
 45  21  45  1   
 46  21  46  1   
 47  22  47  1   
 48  22  48  1   
 49  22  49  1   
 50  23  26  ar  
 51  23  27  ar  
 52  24  25  1   
 53  24  50  1   
 54  24  51  1   
 55  25  52  1   
 56  25  53  1   
@<TRIPOS>SUBSTRUCTURE
  1 ****  14 GROUP 4 **** **** 0

# MOE 2024.06 (io_trps.svl 2023.06)
