@<TRIPOS>MOLECULE
NONAME
50 53 1 0 0 
SMALL
USER_CHARGES


@<TRIPOS>ATOM
  1 O       -2.1320     0.3750     2.5050 O.2   1 <1>  -0.5700 
  2 C       -2.5220     0.8200     1.4420 C.2   1 <1>   0.5440 
  3 N       -3.4510     0.0980     0.7310 N.am  1 <1>  -0.6600 
  4 C       -2.0500     2.1030     0.9860 C.ar  1 <1>   0.0860 
  5 C       -4.0630     0.5070    -0.5600 C.3   1 <1>   0.1400 
  6 C       -3.8250    -1.2980     1.0660 C.3   1 <1>   0.1400 
  7 C       -1.2250     2.2280    -0.1440 C.ar  1 <1>   0.3920 
  8 C       -2.4060     3.2620     1.6640 C.ar  1 <1>  -0.1500 
  9 C       -5.0650    -0.6040    -0.8800 C.3   1 <1>   0.2000 
 10 C       -4.4800    -1.8480    -0.2070 C.3   1 <1>  -0.0800 
 11 O       -0.8540     1.0960    -0.7810 O.3   1 <1>  -0.3630 
 12 N       -0.7770     3.3840    -0.6410 N.ar  1 <1>  -0.6200 
 13 C       -1.9380     4.4510     1.1590 C.ar  1 <1>  -0.1430 
 14 O       -6.2660    -0.2990    -0.2580 O.3   1 <1>  -0.6800 
 15 C       -3.4410    -2.5280    -1.1200 C.3   1 <1>   0.0210 
 16 C        0.0420     1.1140    -1.8750 C.3   1 <1>   0.0400 
 17 C       -1.1530     4.4510     0.0340 C.ar  1 <1>   0.1670 
 18 C       -2.1600     5.8480     1.6850 C.3   1 <1>  -0.0170 
 19 C       -2.8810    -3.7850    -0.4850 C.2   1 <1>   0.1080 
 20 C       -0.7530     5.8520    -0.3500 C.3   1 <1>  -0.0170 
 21 C       -1.6210     6.7470     0.5560 C.3   1 <1>  -0.1600 
 22 N       -3.5540    -4.8910    -0.4060 N.2   1 <1>  -0.7070 
 23 C       -1.6140    -3.8980     0.0770 C.2   1 <1>  -0.1500 
 24 N       -2.7240    -5.7490     0.2160 N.pl3 1 <1>   0.3000 
 25 C       -1.5430    -5.1710     0.5200 C.2   1 <1>  -0.3320 
 26 C       -0.4020    -5.8780     1.2280 C.3   1 <1>  -0.0600 
 27 H       -4.5400     1.4690    -0.4890 H     1 <1>   0.0800 
 28 H       -3.3030     0.5360    -1.3200 H     1 <1>   0.0800 
 29 H       -2.9620    -1.8640     1.3730 H     1 <1>   0.0800 
 30 H       -4.5340    -1.2840     1.8760 H     1 <1>   0.0800 
 31 H       -3.0200     3.2160     2.5470 H     1 <1>   0.1500 
 32 H       -5.2500    -0.7210    -1.9340 H     1 <1>   0.0800 
 33 H       -5.2470    -2.5660     0.0270 H     1 <1>   0.0800 
 34 H       -6.0920    -0.1140     0.6860 H     1 <1>   0.4000 
 35 H       -2.6310    -1.8550    -1.3390 H     1 <1>   0.0800 
 36 H       -3.9060    -2.8050    -2.0490 H     1 <1>   0.0800 
 37 H        0.2030     0.1010    -2.1980 H     1 <1>   0.0800 
 38 H        0.9710     1.5530    -1.5550 H     1 <1>   0.0800 
 39 H       -0.3900     1.6940    -2.6710 H     1 <1>   0.0800 
 40 H       -3.2010     6.0380     1.8780 H     1 <1>   0.0800 
 41 H       -1.5890     5.9880     2.5870 H     1 <1>   0.0800 
 42 H        0.2930     5.9890    -0.1440 H     1 <1>   0.0800 
 43 H       -0.9470     6.0350    -1.3920 H     1 <1>   0.0800 
 44 H       -1.0610     7.5800     0.9440 H     1 <1>   0.0800 
 45 H       -2.4510     7.1210    -0.0180 H     1 <1>   0.0800 
 46 H       -0.8750    -3.1180     0.1360 H     1 <1>   0.1500 
 47 H       -2.9940    -6.7190     0.4190 H     1 <1>   0.2700 
 48 H        0.4250    -5.2020     1.3600 H     1 <1>   0.0800 
 49 H       -0.0680    -6.7200     0.6490 H     1 <1>   0.0800 
 50 H       -0.7210    -6.2210     2.1970 H     1 <1>   0.0800 
@<TRIPOS>BOND
  1   1   2  2   
  2   2   3  am  
  3   2   4  1   
  4   3   5  1   
  5   3   6  1   
  6   4   7  ar  
  7   4   8  ar  
  8   5   9  1   
  9   5  27  1   
 10   5  28  1   
 11   6  10  1   
 12   6  29  1   
 13   6  30  1   
 14   7  11  1   
 15   7  12  ar  
 16   8  13  ar  
 17   8  31  1   
 18   9  10  1   
 19   9  14  1   
 20   9  32  1   
 21  10  15  1   
 22  10  33  1   
 23  11  16  1   
 24  12  17  ar  
 25  13  17  ar  
 26  13  18  1   
 27  14  34  1   
 28  15  19  1   
 29  15  35  1   
 30  15  36  1   
 31  16  37  1   
 32  16  38  1   
 33  16  39  1   
 34  17  20  1   
 35  18  21  1   
 36  18  40  1   
 37  18  41  1   
 38  19  22  2   
 39  19  23  1   
 40  20  21  1   
 41  20  42  1   
 42  20  43  1   
 43  21  44  1   
 44  21  45  1   
 45  22  24  1   
 46  23  25  2   
 47  23  46  1   
 48  24  25  1   
 49  24  47  1   
 50  25  26  1   
 51  26  48  1   
 52  26  49  1   
 53  26  50  1   
@<TRIPOS>SUBSTRUCTURE
  1 ****   3 GROUP 4 **** **** 0

# MOE 2024.06 (io_trps.svl 2023.06)
