@<TRIPOS>MOLECULE
NONAME
55 58 1 0 0 
SMALL
USER_CHARGES


@<TRIPOS>ATOM
  1 O       -0.3600     0.7790    -1.0930 O.3   1 <1>  -0.3630 
  2 C       -0.1880     1.9740    -0.4880 C.ar  1 <1>   0.0830 
  3 C       -0.8570    -0.3300    -0.3680 C.3   1 <1>   0.0400 
  4 C       -1.0870     2.5420     0.4380 C.ar  1 <1>   0.0830 
  5 C        0.9580     2.6600    -0.8160 C.ar  1 <1>  -0.1500 
  6 O       -2.2580     1.9520     0.7630 O.3   1 <1>  -0.3630 
  7 C       -0.7890     3.7440     1.0390 C.ar  1 <1>  -0.1500 
  8 C        1.2500     3.8840    -0.2180 C.ar  1 <1>   0.3610 
  9 C       -3.3140     2.1380    -0.1550 C.3   1 <1>   0.0400 
 10 C        0.3870     4.4420     0.7250 C.ar  1 <1>   0.0000 
 11 N        2.3860     4.5930    -0.5180 N.ar  1 <1>  -0.1790 
 12 C        0.7840     5.6940     1.2880 C.ar  1 <1>   0.4100 
 13 C        2.6900     5.7600     0.0560 C.ar  1 <1>   0.7710 
 14 N        1.8820     6.3150     0.9570 N.ar  1 <1>  -0.6200 
 15 N        0.0400     6.3170     2.2060 N.pl3 1 <1>  -0.9000 
 16 N        3.8370     6.3890    -0.2850 N.pl3 1 <1>  -0.8380 
 17 C        5.0010     5.8360    -1.0750 C.3   1 <1>   0.2090 
 18 C        4.1600     7.7910     0.1850 C.3   1 <1>   0.2090 
 19 C        6.3090     5.8530    -0.2530 C.3   1 <1>   0.2090 
 20 C        5.4470     7.8290     1.0310 C.3   1 <1>   0.2090 
 21 N        6.5940     7.2060     0.3060 N.pl3 1 <1>  -0.8380 
 22 C        7.4520     8.0430    -0.3760 C.ar  1 <1>   0.4100 
 23 N        7.2770     8.1120    -1.6800 N.ar  1 <1>  -0.6200 
 24 C        8.4330     8.7900     0.2720 C.ar  1 <1>  -0.1430 
 25 C        8.0800     8.9420    -2.3140 C.ar  1 <1>   0.4700 
 26 C        9.1940     9.6320    -0.5090 C.ar  1 <1>   0.1670 
 27 C        8.6520     8.6620     1.7820 C.3   1 <1>  -0.0970 
 28 N        9.0260     9.7120    -1.8130 N.ar  1 <1>  -0.6200 
 29 C       10.2820    10.5290     0.0520 C.3   1 <1>  -0.0970 
 30 H       -0.5330    -1.2270    -0.8640 H     1 <1>   0.0800 
 31 H       -1.9300    -0.2930    -0.3570 H     1 <1>   0.0800 
 32 H       -0.4680    -0.3030     0.6350 H     1 <1>   0.0800 
 33 H        1.6240     2.2230    -1.5370 H     1 <1>   0.1500 
 34 H       -1.4820     4.1470     1.7550 H     1 <1>   0.1500 
 35 H       -4.1710     1.5960     0.2030 H     1 <1>   0.0800 
 36 H       -3.0150     1.7620    -1.1170 H     1 <1>   0.0800 
 37 H       -3.5420     3.1870    -0.2170 H     1 <1>   0.0800 
 38 H        3.0190     4.2610    -1.2300 H     1 <1>   0.4570 
 39 H        0.3470     7.2130     2.5940 H     1 <1>   0.4000 
 40 H       -0.8430     5.9710     2.5890 H     1 <1>   0.4000 
 41 H        5.1480     6.4420    -1.9540 H     1 <1>   0.0800 
 42 H        4.8210     4.8300    -1.4000 H     1 <1>   0.0800 
 43 H        3.3570     8.2190     0.7590 H     1 <1>   0.0800 
 44 H        4.3040     8.4240    -0.6750 H     1 <1>   0.0800 
 45 H        7.1290     5.5470    -0.8810 H     1 <1>   0.0800 
 46 H        6.2380     5.1490     0.5570 H     1 <1>   0.0800 
 47 H        5.2840     7.3070     1.9570 H     1 <1>   0.0800 
 48 H        5.6810     8.8540     1.2650 H     1 <1>   0.0800 
 49 H        7.9460     9.0040    -3.3810 H     1 <1>   0.1500 
 50 H        8.3420     7.6950     2.1350 H     1 <1>   0.0800 
 51 H        8.0870     9.4150     2.2990 H     1 <1>   0.0800 
 52 H        9.6920     8.7700     2.0310 H     1 <1>   0.0800 
 53 H       10.0140    10.9030     1.0220 H     1 <1>   0.0800 
 54 H       10.4350    11.3730    -0.5970 H     1 <1>   0.0800 
 55 H       11.2020     9.9780     0.1210 H     1 <1>   0.0800 
@<TRIPOS>BOND
  1   1   2  1   
  2   1   3  1   
  3   2   4  ar  
  4   2   5  ar  
  5   3  30  1   
  6   3  31  1   
  7   3  32  1   
  8   4   6  1   
  9   4   7  ar  
 10   5   8  ar  
 11   5  33  1   
 12   6   9  1   
 13   7  10  ar  
 14   7  34  1   
 15   8  10  ar  
 16   8  11  ar  
 17   9  35  1   
 18   9  36  1   
 19   9  37  1   
 20  10  12  ar  
 21  11  13  ar  
 22  11  38  1   
 23  12  14  ar  
 24  12  15  1   
 25  13  14  ar  
 26  13  16  1   
 27  15  39  1   
 28  15  40  1   
 29  16  17  1   
 30  16  18  1   
 31  17  19  1   
 32  17  41  1   
 33  17  42  1   
 34  18  20  1   
 35  18  43  1   
 36  18  44  1   
 37  19  21  1   
 38  19  45  1   
 39  19  46  1   
 40  20  21  1   
 41  20  47  1   
 42  20  48  1   
 43  21  22  1   
 44  22  23  ar  
 45  22  24  ar  
 46  23  25  ar  
 47  24  26  ar  
 48  24  27  1   
 49  25  28  ar  
 50  25  49  1   
 51  26  28  ar  
 52  26  29  1   
 53  27  50  1   
 54  27  51  1   
 55  27  52  1   
 56  29  53  1   
 57  29  54  1   
 58  29  55  1   
@<TRIPOS>SUBSTRUCTURE
  1 ****  16 GROUP 4 **** **** 0

# MOE 2024.06 (io_trps.svl 2023.06)
