@<TRIPOS>MOLECULE
NONAME
58 60 1 0 0 
SMALL
USER_CHARGES


@<TRIPOS>ATOM
  1 N       -2.9290    -1.2730     2.4740 N.2   1 <1>  -0.7070 
  2 N       -3.2670    -0.3200     1.5600 N.pl3 1 <1>   0.5930 
  3 C       -3.0090    -0.7100     3.6330 C.2   1 <1>   0.1080 
  4 C       -3.4070    -0.6520     0.1710 C.ar  1 <1>  -0.0230 
  5 C       -3.6230     0.8230     2.2250 C.2   1 <1>  -0.3320 
  6 C       -3.4480     0.6010     3.5440 C.2   1 <1>  -0.1500 
  7 C       -2.6590    -1.4270     4.9170 C.3   1 <1>  -0.0590 
  8 C       -3.6950    -1.9640    -0.1990 C.ar  1 <1>  -0.1500 
  9 C       -3.2800     0.2890    -0.8500 C.ar  1 <1>  -0.1500 
 10 C       -4.1400     2.1200     1.6180 C.3   1 <1>  -0.0600 
 11 C       -3.9330    -2.3220    -1.5150 C.ar  1 <1>  -0.1430 
 12 C       -3.5020    -0.0580    -2.1710 C.ar  1 <1>  -0.1500 
 13 C       -3.8390    -1.3580    -2.5040 C.ar  1 <1>  -0.1500 
 14 C       -4.2830    -3.7640    -1.8540 C.3   1 <1>   0.2530 
 15 N       -5.4030    -4.2450    -1.0150 N.3   1 <1>  -0.8100 
 16 C       -5.6000    -5.6900    -1.1960 C.3   1 <1>   0.2900 
 17 C       -6.6550    -3.4710    -1.2630 C.3   1 <1>   0.1100 
 18 C       -6.2250    -6.2030     0.0800 C.2   1 <1>  -0.3320 
 19 C       -6.9140    -2.4580    -0.1310 C.3   1 <1>   0.3430 
 20 N       -5.5260    -6.3050     1.2270 N.pl3 1 <1>   0.0330 
 21 C       -7.4750    -6.6390     0.3560 C.2   1 <1>   0.0460 
 22 N       -6.7760    -3.1600     1.1750 N.4   1 <1>  -0.9590 
 23 C       -6.4080    -6.7650     2.1370 C.2   1 <1>   0.0360 
 24 N       -7.5930    -6.9560     1.6570 N.2   1 <1>  -0.5650 
 25 C       -8.6670    -6.8030    -0.5620 C.3   1 <1>  -0.0590 
 26 C       -8.0540    -3.7680     1.6480 C.3   1 <1>   0.2630 
 27 C       -6.1450    -2.3090     2.2250 C.3   1 <1>   0.2630 
 28 H       -3.6080     1.2710     4.3720 H     1 <1>   0.1500 
 29 H       -3.2670    -2.3060     5.0220 H     1 <1>   0.0800 
 30 H       -2.8190    -0.7840     5.7630 H     1 <1>   0.0800 
 31 H       -1.6250    -1.7200     4.8910 H     1 <1>   0.0800 
 32 H       -3.7380    -2.7300     0.5550 H     1 <1>   0.1500 
 33 H       -2.9980     1.3000    -0.6300 H     1 <1>   0.1500 
 34 H       -4.9250     1.9250     0.9100 H     1 <1>   0.0800 
 35 H       -3.3410     2.6510     1.1320 H     1 <1>   0.0800 
 36 H       -4.5350     2.7570     2.3900 H     1 <1>   0.0800 
 37 H       -3.4060     0.6850    -2.9450 H     1 <1>   0.1500 
 38 H       -4.0120    -1.6110    -3.5360 H     1 <1>   0.1500 
 39 H       -3.4090    -4.3680    -1.6720 H     1 <1>   0.0800 
 40 H       -4.5370    -3.8530    -2.8970 H     1 <1>   0.0800 
 41 H       -4.6570    -6.1900    -1.3440 H     1 <1>   0.0800 
 42 H       -6.2230    -5.8880    -2.0520 H     1 <1>   0.0800 
 43 H       -7.5020    -4.1340    -1.3120 H     1 <1>   0.0800 
 44 H       -6.6040    -2.9510    -2.2050 H     1 <1>   0.0800 
 45 H       -7.8930    -2.0180    -0.2290 H     1 <1>   0.0800 
 46 H       -6.1810    -1.6720    -0.2060 H     1 <1>   0.0800 
 47 H       -4.5310    -6.1010     1.3740 H     1 <1>   0.2700 
 48 H       -6.1300    -3.9390     0.9210 H     1 <1>   0.4500 
 49 H       -6.1310    -6.9530     3.1600 H     1 <1>   0.1500 
 50 H       -8.4270    -6.5070    -1.5650 H     1 <1>   0.0800 
 51 H       -9.4900    -6.2130    -0.2050 H     1 <1>   0.0800 
 52 H       -8.9660    -7.8360    -0.5700 H     1 <1>   0.0800 
 53 H       -8.7600    -3.0020     1.9200 H     1 <1>   0.0800 
 54 H       -7.8720    -4.3970     2.5050 H     1 <1>   0.0800 
 55 H       -8.4840    -4.3810     0.8740 H     1 <1>   0.0800 
 56 H       -6.7820    -1.4760     2.4680 H     1 <1>   0.0800 
 57 H       -5.2000    -1.9300     1.8800 H     1 <1>   0.0800 
 58 H       -5.9710    -2.8860     3.1180 H     1 <1>   0.0800 
@<TRIPOS>BOND
  1   1   2  1   
  2   1   3  2   
  3   2   4  1   
  4   2   5  1   
  5   3   6  1   
  6   3   7  1   
  7   4   8  ar  
  8   4   9  ar  
  9   5   6  2   
 10   5  10  1   
 11   6  28  1   
 12   7  29  1   
 13   7  30  1   
 14   7  31  1   
 15   8  11  ar  
 16   8  32  1   
 17   9  12  ar  
 18   9  33  1   
 19  10  34  1   
 20  10  35  1   
 21  10  36  1   
 22  11  13  ar  
 23  11  14  1   
 24  12  13  ar  
 25  12  37  1   
 26  13  38  1   
 27  14  15  1   
 28  14  39  1   
 29  14  40  1   
 30  15  16  1   
 31  15  17  1   
 32  16  18  1   
 33  16  41  1   
 34  16  42  1   
 35  17  19  1   
 36  17  43  1   
 37  17  44  1   
 38  18  20  1   
 39  18  21  2   
 40  19  22  1   
 41  19  45  1   
 42  19  46  1   
 43  20  23  1   
 44  20  47  1   
 45  21  24  1   
 46  21  25  1   
 47  22  26  1   
 48  22  27  1   
 49  22  48  1   
 50  23  24  2   
 51  23  49  1   
 52  25  50  1   
 53  25  51  1   
 54  25  52  1   
 55  26  53  1   
 56  26  54  1   
 57  26  55  1   
 58  27  56  1   
 59  27  57  1   
 60  27  58  1   
@<TRIPOS>SUBSTRUCTURE
  1 ****   8 GROUP 4 **** **** 0

# MOE 2024.06 (io_trps.svl 2023.06)
