@<TRIPOS>MOLECULE
NONAME
49 51 1 0 0 
SMALL
USER_CHARGES


@<TRIPOS>ATOM
  1 S        0.0840     0.2320     1.5650 S.o2  1 <1>   1.4470 
  2 O       -0.7400     1.2010     2.2590 O.2   1 <1>  -0.6500 
  3 O        0.9260    -0.6570     2.3380 O.2   1 <1>  -0.6500 
  4 N       -0.9720    -0.7210     0.6380 N.am  1 <1>  -0.8490 
  5 C        1.1060     1.1060     0.3420 C.ar  1 <1>  -0.0090 
  6 C       -0.2970    -1.7430    -0.1810 C.3   1 <1>   0.1960 
  7 C       -1.9230     0.0680    -0.1630 C.3   1 <1>   0.1960 
  8 C        2.1360     0.4590    -0.3300 C.ar  1 <1>  -0.1500 
  9 C        0.8680     2.4400     0.0280 C.ar  1 <1>  -0.1500 
 10 C       -1.2730    -2.8310    -0.6970 C.3   1 <1>  -0.1060 
 11 C       -2.7200    -0.7970    -1.1570 C.3   1 <1>  -0.1600 
 12 C        2.8910     1.1030    -1.2940 C.ar  1 <1>  -0.1440 
 13 C        1.6210     3.1070    -0.9240 C.ar  1 <1>  -0.1430 
 14 C       -0.7960    -3.1430    -2.1200 C.2   1 <1>   0.9060 
 15 C       -2.7280    -2.2780    -0.7700 C.3   1 <1>   0.2000 
 16 C       -1.1720    -4.1630     0.1100 C.3   1 <1>  -0.0650 
 17 C        2.6310     2.4310    -1.5870 C.ar  1 <1>  -0.1500 
 18 C        3.9840     0.3390    -2.0200 C.3   1 <1>  -0.0970 
 19 C        1.3390     4.5630    -1.2450 C.3   1 <1>  -0.0960 
 20 O        0.4180    -3.2880    -2.3150 O.co2 1 <1>  -0.9000 
 21 O       -1.6030    -3.2250    -3.0530 O.co2 1 <1>  -0.9000 
 22 O       -3.3420    -2.3380     0.4680 O.3   1 <1>  -0.6800 
 23 C       -1.0400    -4.0490     1.6420 C.3   1 <1>  -0.1950 
 24 C        0.3000    -4.0050     2.3060 C.3   1 <1>  -0.2000 
 25 C       -0.5670    -5.2240     2.4370 C.3   1 <1>  -0.2000 
 26 H        0.1580    -1.2420    -1.0210 H     1 <1>   0.0800 
 27 H        0.5000    -2.2100     0.3670 H     1 <1>   0.0800 
 28 H       -2.6130     0.5490     0.5120 H     1 <1>   0.0800 
 29 H       -1.4060     0.8360    -0.7120 H     1 <1>   0.0800 
 30 H        2.3470    -0.5720    -0.1000 H     1 <1>   0.1500 
 31 H        0.0780     2.9620     0.5410 H     1 <1>   0.1500 
 32 H       -2.2780    -0.7050    -2.1330 H     1 <1>   0.0800 
 33 H       -3.7290    -0.4350    -1.2390 H     1 <1>   0.0800 
 34 H       -3.3340    -2.8540    -1.4510 H     1 <1>   0.0800 
 35 H       -2.0350    -4.7630    -0.1200 H     1 <1>   0.0800 
 36 H       -0.3170    -4.7140    -0.2450 H     1 <1>   0.0800 
 37 H        3.2140     2.9390    -2.3340 H     1 <1>   0.1500 
 38 H        4.3960     0.9240    -2.8220 H     1 <1>   0.0800 
 39 H        3.5790    -0.5690    -2.4330 H     1 <1>   0.0800 
 40 H        4.7720     0.0870    -1.3330 H     1 <1>   0.0800 
 41 H        2.2510     5.0740    -1.5000 H     1 <1>   0.0800 
 42 H        0.8990     5.0590    -0.3990 H     1 <1>   0.0800 
 43 H        0.6610     4.6270    -2.0770 H     1 <1>   0.0800 
 44 H       -2.7040    -1.9250     1.0920 H     1 <1>   0.4000 
 45 H       -1.8260    -3.4710     2.0940 H     1 <1>   0.1000 
 46 H        1.1850    -4.0620     1.6970 H     1 <1>   0.1000 
 47 H        0.4200    -3.3370     3.1420 H     1 <1>   0.1000 
 48 H       -1.0370    -5.4270     3.3830 H     1 <1>   0.1000 
 49 H       -0.2760    -6.1200     1.9170 H     1 <1>   0.1000 
@<TRIPOS>BOND
  1   1   2  2   
  2   1   3  2   
  3   1   4  am  
  4   1   5  1   
  5   4   6  1   
  6   4   7  1   
  7   5   8  ar  
  8   5   9  ar  
  9   6  10  1   
 10   6  26  1   
 11   6  27  1   
 12   7  11  1   
 13   7  28  1   
 14   7  29  1   
 15   8  12  ar  
 16   8  30  1   
 17   9  13  ar  
 18   9  31  1   
 19  10  14  1   
 20  10  15  1   
 21  10  16  1   
 22  11  15  1   
 23  11  32  1   
 24  11  33  1   
 25  12  17  ar  
 26  12  18  1   
 27  13  17  ar  
 28  13  19  1   
 29  14  20  ar  
 30  14  21  ar  
 31  15  22  1   
 32  15  34  1   
 33  16  23  1   
 34  16  35  1   
 35  16  36  1   
 36  17  37  1   
 37  18  38  1   
 38  18  39  1   
 39  18  40  1   
 40  19  41  1   
 41  19  42  1   
 42  19  43  1   
 43  22  44  1   
 44  23  24  1   
 45  23  25  1   
 46  23  45  1   
 47  24  25  1   
 48  24  46  1   
 49  24  47  1   
 50  25  48  1   
 51  25  49  1   
@<TRIPOS>SUBSTRUCTURE
  1 ****   6 GROUP 4 **** **** 0

# MOE 2024.06 (io_trps.svl 2023.06)
