@<TRIPOS>MOLECULE
NONAME
51 54 1 0 0 
SMALL
USER_CHARGES


@<TRIPOS>ATOM
  1 O       -0.8490     0.8060     1.6320 O.2   1 <1>  -0.5700 
  2 C       -1.8660     1.2990     1.1700 C.2   1 <1>   0.5440 
  3 N       -3.0440     0.5770     1.2960 N.am  1 <1>  -0.6600 
  4 C       -1.7720     2.5920     0.4840 C.ar  1 <1>   0.3960 
  5 C       -4.2830     0.8480     0.5170 C.3   1 <1>   0.1400 
  6 C       -3.1710    -0.5760     2.2320 C.3   1 <1>   0.1400 
  7 N       -2.7000     3.5480     0.6900 N.ar  1 <1>  -0.6200 
  8 C       -0.6980     2.8080    -0.3760 C.ar  1 <1>  -0.1500 
  9 C       -4.6490    -0.3980    -0.2920 C.3   1 <1>  -0.1600 
 10 C       -3.5260    -1.8360     1.4410 C.3   1 <1>  -0.1600 
 11 C       -2.5430     4.6900     0.0470 C.ar  1 <1>   0.1600 
 12 C       -0.5500     3.9990    -1.0480 C.ar  1 <1>   0.0830 
 13 C       -4.7960    -1.6440     0.5990 C.3   1 <1>   0.4240 
 14 C       -1.5080     4.9700    -0.8230 C.ar  1 <1>  -0.1500 
 15 O        0.5090     4.1400    -1.8740 O.3   1 <1>  -0.3630 
 16 O       -5.8250    -1.3980     1.5290 O.3   1 <1>  -0.5600 
 17 C       -5.0790    -2.9060    -0.2470 C.ar  1 <1>  -0.1430 
 18 C        0.7500     5.3420    -2.5700 C.3   1 <1>   0.0400 
 19 C       -7.1360    -1.6230     1.1160 C.3   1 <1>   0.1200 
 20 C       -6.2760    -3.6040    -0.1200 C.ar  1 <1>  -0.1430 
 21 C       -4.1380    -3.3660    -1.1620 C.ar  1 <1>  -0.1500 
 22 C       -7.3220    -3.1160     0.8620 C.3   1 <1>  -0.0170 
 23 C       -6.5200    -4.7370    -0.8810 C.ar  1 <1>  -0.1500 
 24 C       -4.3810    -4.4950    -1.9240 C.ar  1 <1>  -0.1500 
 25 C       -5.5690    -5.1900    -1.7890 C.ar  1 <1>   0.0830 
 26 O       -5.7290    -6.2870    -2.5710 O.3   1 <1>  -0.3620 
 27 C       -6.8930    -7.0780    -2.4950 C.3   1 <1>   0.0400 
 28 H       -4.1450     1.6720    -0.1590 H     1 <1>   0.0800 
 29 H       -5.0790     1.0990     1.1970 H     1 <1>   0.0800 
 30 H       -3.9450    -0.3610     2.9490 H     1 <1>   0.0800 
 31 H       -2.2550    -0.7340     2.7750 H     1 <1>   0.0800 
 32 H        0.0310     2.0310    -0.5140 H     1 <1>   0.1500 
 33 H       -3.8720    -0.5650    -1.0150 H     1 <1>   0.0800 
 34 H       -5.5550    -0.2280    -0.8410 H     1 <1>   0.0800 
 35 H       -3.6710    -2.6600     2.1130 H     1 <1>   0.0800 
 36 H       -2.6910    -2.0750     0.8100 H     1 <1>   0.0800 
 37 H       -3.2860     5.4500     0.2230 H     1 <1>   0.1500 
 38 H       -1.4670     5.9280    -1.3020 H     1 <1>   0.1500 
 39 H        1.6490     5.2180    -3.1470 H     1 <1>   0.0800 
 40 H        0.8800     6.1380    -1.8580 H     1 <1>   0.0800 
 41 H       -0.0800     5.5400    -3.2240 H     1 <1>   0.0800 
 42 H       -7.3320    -1.0510     0.2270 H     1 <1>   0.0800 
 43 H       -7.7910    -1.2900     1.9010 H     1 <1>   0.0800 
 44 H       -3.2040    -2.8500    -1.2930 H     1 <1>   0.1500 
 45 H       -8.3090    -3.2870     0.4720 H     1 <1>   0.0800 
 46 H       -7.2260    -3.6500     1.7900 H     1 <1>   0.0800 
 47 H       -7.4500    -5.2560    -0.7560 H     1 <1>   0.1500 
 48 H       -3.6490    -4.8450    -2.6280 H     1 <1>   0.1500 
 49 H       -6.7910    -7.8900    -3.1930 H     1 <1>   0.0800 
 50 H       -7.7430    -6.4740    -2.7590 H     1 <1>   0.0800 
 51 H       -6.9890    -7.4640    -1.4960 H     1 <1>   0.0800 
@<TRIPOS>BOND
  1   1   2  2   
  2   2   3  am  
  3   2   4  1   
  4   3   5  1   
  5   3   6  1   
  6   4   7  ar  
  7   4   8  ar  
  8   5   9  1   
  9   5  28  1   
 10   5  29  1   
 11   6  10  1   
 12   6  30  1   
 13   6  31  1   
 14   7  11  ar  
 15   8  12  ar  
 16   8  32  1   
 17   9  13  1   
 18   9  33  1   
 19   9  34  1   
 20  10  13  1   
 21  10  35  1   
 22  10  36  1   
 23  11  14  ar  
 24  11  37  1   
 25  12  14  ar  
 26  12  15  1   
 27  13  16  1   
 28  13  17  1   
 29  14  38  1   
 30  15  18  1   
 31  16  19  1   
 32  17  20  ar  
 33  17  21  ar  
 34  18  39  1   
 35  18  40  1   
 36  18  41  1   
 37  19  22  1   
 38  19  42  1   
 39  19  43  1   
 40  20  22  1   
 41  20  23  ar  
 42  21  24  ar  
 43  21  44  1   
 44  22  45  1   
 45  22  46  1   
 46  23  25  ar  
 47  23  47  1   
 48  24  25  ar  
 49  24  48  1   
 50  25  26  1   
 51  26  27  1   
 52  27  49  1   
 53  27  50  1   
 54  27  51  1   
@<TRIPOS>SUBSTRUCTURE
  1 ****   9 GROUP 4 **** **** 0

# MOE 2024.06 (io_trps.svl 2023.06)
