@<TRIPOS>MOLECULE
NONAME
47 48 1 0 0 
SMALL
USER_CHARGES


@<TRIPOS>ATOM
  1 S        0.3830    -0.3030     0.5280 S.o2  1 <1>   1.3330 
  2 O        0.9450    -1.1440     1.5600 O.2   1 <1>  -0.6500 
  3 O       -0.4950     0.7840     0.8960 O.2   1 <1>  -0.6500 
  4 N       -0.4420    -1.3070    -0.5640 N.am  1 <1>  -0.8490 
  5 C        1.6960     0.3780    -0.4870 C.3   1 <1>  -0.0550 
  6 C       -1.8680    -1.4250    -0.2430 C.3   1 <1>   0.1160 
  7 C        0.1520    -2.6420    -0.6910 C.3   1 <1>   0.1160 
  8 C        2.5740     1.4110     0.2480 C.3   1 <1>  -0.0800 
  9 C        3.5090     2.1180    -0.7180 C.3   1 <1>   0.2200 
 10 C        3.5630     0.7440     1.2100 C.3   1 <1>   0.1200 
 11 N        3.9160     3.4170    -0.1390 N.am  1 <1>  -0.7300 
 12 C        4.7050     1.1730    -0.7510 C.3   1 <1>   0.1200 
 13 O        4.7460     0.5420     0.4950 O.3   1 <1>  -0.5600 
 14 C        3.6340     4.6260    -0.6820 C.2   1 <1>   0.5690 
 15 O        2.9990     4.7370    -1.7010 O.2   1 <1>  -0.5700 
 16 C        4.1370     5.8710     0.0190 C.3   1 <1>  -0.0990 
 17 C        5.6560     6.0470    -0.1370 C.3   1 <1>  -0.1600 
 18 C        6.1530     7.3270     0.5460 C.3   1 <1>   0.0200 
 19 C        7.6520     7.4810     0.3830 C.2   1 <1>  -0.1400 
 20 S        8.6880     6.3680     1.2670 S.3   1 <1>  -0.0800 
 21 C        8.3940     8.3440    -0.3340 C.2   1 <1>  -0.1500 
 22 C       10.1310     7.1250     0.6160 C.2   1 <1>  -0.1100 
 23 C        9.8050     8.1420    -0.2030 C.2   1 <1>  -0.1500 
 24 H        2.3110    -0.4190    -0.8590 H     1 <1>   0.0800 
 25 H        1.2390     0.8590    -1.3310 H     1 <1>   0.0800 
 26 H       -2.3630    -2.0550    -0.9620 H     1 <1>   0.0800 
 27 H       -2.3340    -0.4540    -0.2720 H     1 <1>   0.0800 
 28 H       -1.9970    -1.8410     0.7430 H     1 <1>   0.0800 
 29 H       -0.3520    -3.2000    -1.4620 H     1 <1>   0.0800 
 30 H        0.0730    -3.1800     0.2400 H     1 <1>   0.0800 
 31 H        1.1930    -2.5630    -0.9550 H     1 <1>   0.0800 
 32 H        1.9360     2.1130     0.7570 H     1 <1>   0.0800 
 33 H        3.0810     2.2620    -1.6960 H     1 <1>   0.0800 
 34 H        3.2250    -0.2020     1.5960 H     1 <1>   0.0800 
 35 H        3.7900     1.3990     2.0330 H     1 <1>   0.0800 
 36 H        4.4980     3.3500     0.6980 H     1 <1>   0.3700 
 37 H        5.6340     1.6870    -0.9280 H     1 <1>   0.0800 
 38 H        4.5650     0.4100    -1.4960 H     1 <1>   0.0800 
 39 H        3.6290     6.7220    -0.4000 H     1 <1>   0.0800 
 40 H        3.8750     5.8090     1.0600 H     1 <1>   0.0800 
 41 H        5.9040     6.0890    -1.1840 H     1 <1>   0.0800 
 42 H        6.1620     5.1970     0.2870 H     1 <1>   0.0800 
 43 H        5.9140     7.3080     1.5950 H     1 <1>   0.0800 
 44 H        5.6650     8.1800     0.1070 H     1 <1>   0.0800 
 45 H        8.0090     9.1290    -0.9620 H     1 <1>   0.1500 
 46 H       11.0810     6.7230     0.9200 H     1 <1>   0.1500 
 47 H       10.5030     8.7680    -0.7300 H     1 <1>   0.1500 
@<TRIPOS>BOND
  1   1   2  2   
  2   1   3  2   
  3   1   4  am  
  4   1   5  1   
  5   4   6  1   
  6   4   7  1   
  7   5   8  1   
  8   5  24  1   
  9   5  25  1   
 10   6  26  1   
 11   6  27  1   
 12   6  28  1   
 13   7  29  1   
 14   7  30  1   
 15   7  31  1   
 16   8   9  1   
 17   8  10  1   
 18   8  32  1   
 19   9  11  1   
 20   9  12  1   
 21   9  33  1   
 22  10  13  1   
 23  10  34  1   
 24  10  35  1   
 25  11  14  am  
 26  11  36  1   
 27  12  13  1   
 28  12  37  1   
 29  12  38  1   
 30  14  15  2   
 31  14  16  1   
 32  16  17  1   
 33  16  39  1   
 34  16  40  1   
 35  17  18  1   
 36  17  41  1   
 37  17  42  1   
 38  18  19  1   
 39  18  43  1   
 40  18  44  1   
 41  19  20  1   
 42  19  21  2   
 43  20  22  1   
 44  21  23  1   
 45  21  45  1   
 46  22  23  2   
 47  22  46  1   
 48  23  47  1   
@<TRIPOS>SUBSTRUCTURE
  1 ****  11 GROUP 4 **** **** 0

# MOE 2024.06 (io_trps.svl 2023.06)
