@<TRIPOS>MOLECULE
NONAME
52 54 1 0 0 
SMALL
USER_CHARGES


@<TRIPOS>ATOM
  1 S        2.1760     2.2620    -1.2220 S.o2  1 <1>   1.0900 
  2 O        3.3460     1.5930    -0.7050 O.2   1 <1>  -0.6500 
  3 O        1.1990     1.5760    -2.0350 O.2   1 <1>  -0.6500 
  4 C        1.3200     3.0820     0.0950 C.3   1 <1>  -0.0550 
  5 C        2.6410     3.7650    -2.0610 C.3   1 <1>  -0.0550 
  6 C        0.8290     4.4110    -0.4820 C.3   1 <1>   0.1900 
  7 C        2.0090     4.9490    -1.3130 C.3   1 <1>  -0.1600 
  8 N        0.4590     5.3700     0.5800 N.3   1 <1>  -0.8100 
  9 C       -0.1340     6.6400     0.0350 C.3   1 <1>   0.1710 
 10 C       -0.4770     4.7980     1.5710 C.3   1 <1>   0.0300 
 11 C        0.1060     7.8710     0.9160 C.2   1 <1>   0.5690 
 12 O       -0.3840     8.9300     0.6060 O.2   1 <1>  -0.5700 
 13 N        0.9100     7.7460     1.9980 N.am  1 <1>  -0.7300 
 14 C        1.3550     8.8300     2.8970 C.3   1 <1>   0.3200 
 15 C        2.8640     8.9660     2.8150 C.2   1 <1>   0.0070 
 16 N        3.6650     8.6590     3.7780 N.2   1 <1>  -0.3380 
 17 N        3.5320     9.4060     1.7400 N.pl3 1 <1>   0.0480 
 18 N        4.9040     8.8920     3.3470 N.2   1 <1>  -0.3380 
 19 C        4.8030     9.3300     2.1410 C.2   1 <1>   0.0360 
 20 C        3.0070     9.8260     0.4160 C.3   1 <1>   0.1760 
 21 C        3.2520     8.7200    -0.6230 C.3   1 <1>  -0.1600 
 22 C        3.6240    11.1580    -0.0420 C.3   1 <1>  -0.1600 
 23 C        2.6910     9.1250    -1.9930 C.3   1 <1>  -0.1600 
 24 C        3.0690    11.5680    -1.4140 C.3   1 <1>  -0.1600 
 25 C        3.2850    10.4620    -2.4570 C.3   1 <1>  -0.1600 
 26 H        2.0060     3.2800     0.8970 H     1 <1>   0.0800 
 27 H        0.5080     2.4790     0.4510 H     1 <1>   0.0800 
 28 H        2.2730     3.7350    -3.0690 H     1 <1>   0.0800 
 29 H        3.7090     3.8710    -2.0910 H     1 <1>   0.0800 
 30 H       -0.0170     4.2230    -1.1250 H     1 <1>   0.0800 
 31 H        1.7030     5.7010    -2.0180 H     1 <1>   0.0800 
 32 H        2.7450     5.3650    -0.6460 H     1 <1>   0.0800 
 33 H       -1.1940     6.5220    -0.1090 H     1 <1>   0.0800 
 34 H        0.2870     6.8760    -0.9220 H     1 <1>   0.0800 
 35 H        0.0000     4.0180     2.1390 H     1 <1>   0.0800 
 36 H       -1.3480     4.3960     1.0800 H     1 <1>   0.0800 
 37 H       -0.7950     5.5550     2.2680 H     1 <1>   0.0800 
 38 H        1.3330     6.8250     2.1560 H     1 <1>   0.3700 
 39 H        1.0720     8.5900     3.9070 H     1 <1>   0.0800 
 40 H        0.8850     9.7600     2.6270 H     1 <1>   0.0800 
 41 H        5.6350     9.6030     1.5200 H     1 <1>   0.1500 
 42 H        1.9470     9.9760     0.5090 H     1 <1>   0.0800 
 43 H        2.7780     7.8110    -0.2990 H     1 <1>   0.0800 
 44 H        4.3080     8.5360    -0.7150 H     1 <1>   0.0800 
 45 H        4.6930    11.0640    -0.1160 H     1 <1>   0.0800 
 46 H        3.3970    11.9260     0.6760 H     1 <1>   0.0800 
 47 H        1.6190     9.2170    -1.9280 H     1 <1>   0.0800 
 48 H        2.9140     8.3610    -2.7180 H     1 <1>   0.0800 
 49 H        3.5500    12.4730    -1.7430 H     1 <1>   0.0800 
 50 H        2.0140    11.7710    -1.3260 H     1 <1>   0.0800 
 51 H        2.8300    10.7550    -3.3880 H     1 <1>   0.0800 
 52 H        4.3410    10.3420    -2.6340 H     1 <1>   0.0800 
@<TRIPOS>BOND
  1   1   2  2   
  2   1   3  2   
  3   1   4  1   
  4   1   5  1   
  5   4   6  1   
  6   4  26  1   
  7   4  27  1   
  8   5   7  1   
  9   5  28  1   
 10   5  29  1   
 11   6   7  1   
 12   6   8  1   
 13   6  30  1   
 14   7  31  1   
 15   7  32  1   
 16   8   9  1   
 17   8  10  1   
 18   9  11  1   
 19   9  33  1   
 20   9  34  1   
 21  10  35  1   
 22  10  36  1   
 23  10  37  1   
 24  11  12  2   
 25  11  13  am  
 26  13  14  1   
 27  13  38  1   
 28  14  15  1   
 29  14  39  1   
 30  14  40  1   
 31  15  16  2   
 32  15  17  1   
 33  16  18  1   
 34  17  19  1   
 35  17  20  1   
 36  18  19  2   
 37  19  41  1   
 38  20  21  1   
 39  20  22  1   
 40  20  42  1   
 41  21  23  1   
 42  21  43  1   
 43  21  44  1   
 44  22  24  1   
 45  22  45  1   
 46  22  46  1   
 47  23  25  1   
 48  23  47  1   
 49  23  48  1   
 50  24  25  1   
 51  24  49  1   
 52  24  50  1   
 53  25  51  1   
 54  25  52  1   
@<TRIPOS>SUBSTRUCTURE
  1 ****  21 GROUP 4 **** **** 0

# MOE 2024.06 (io_trps.svl 2023.06)
