@<TRIPOS>MOLECULE
NONAME
48 51 1 0 0 
SMALL
USER_CHARGES


@<TRIPOS>ATOM
  1 O       -0.4760     0.1930    -0.5780 O.2   1 <1>  -0.5700 
  2 C       -1.5390     0.7680    -0.6230 C.2   1 <1>   0.5690 
  3 N       -2.7030     0.0830    -0.8790 N.am  1 <1>  -0.6600 
  4 C       -1.5750     2.2800    -0.3970 C.3   1 <1>   0.0440 
  5 C       -4.0810     0.6650    -0.9480 C.3   1 <1>   0.1400 
  6 C       -2.7030    -1.4020    -1.0740 C.3   1 <1>   0.1400 
  7 C       -0.2300     2.9420    -0.1000 C.ar  1 <1>  -0.1440 
  8 C       -5.0310    -0.0560     0.0280 C.3   1 <1>   0.1900 
  9 C       -3.6920    -2.0830    -0.1140 C.3   1 <1>   0.1100 
 10 C        0.0300     3.5700     1.1020 C.ar  1 <1>  -0.1500 
 11 C        0.7940     2.9570    -1.0250 C.ar  1 <1>  -0.1500 
 12 N       -5.0530    -1.5140    -0.2430 N.3   1 <1>  -0.8100 
 13 C       -6.4530     0.5310    -0.0690 C.3   1 <1>   0.1200 
 14 C        1.2610     4.1700     1.3100 C.ar  1 <1>   0.1600 
 15 C        1.9900     3.5840    -0.7160 C.ar  1 <1>   0.1600 
 16 C       -6.0190    -2.1820     0.6630 C.3   1 <1>   0.3340 
 17 O       -7.3100    -0.1210     0.8220 O.3   1 <1>  -0.5600 
 18 N        2.2470     4.1970     0.4280 N.ar  1 <1>  -0.6200 
 19 C       -6.1660    -3.6630     0.3160 C.ar  1 <1>  -0.1440 
 20 C       -7.4030    -1.5020     0.5880 C.3   1 <1>   0.1200 
 21 C       -6.3520    -4.0720    -0.9980 C.ar  1 <1>  -0.1500 
 22 C       -6.1190    -4.6210     1.3190 C.ar  1 <1>  -0.1500 
 23 C       -6.4910    -5.4140    -1.3050 C.ar  1 <1>  -0.1500 
 24 C       -6.2570    -5.9640     1.0140 C.ar  1 <1>  -0.1500 
 25 C       -6.4440    -6.3620    -0.2980 C.ar  1 <1>  -0.1500 
 26 H       -1.9840     2.7380    -1.2770 H     1 <1>   0.0800 
 27 H       -2.2420     2.4750     0.4200 H     1 <1>   0.0800 
 28 H       -4.0710     1.7140    -0.7180 H     1 <1>   0.0800 
 29 H       -4.4560     0.5500    -1.9500 H     1 <1>   0.0800 
 30 H       -2.9870    -1.6250    -2.0880 H     1 <1>   0.0800 
 31 H       -1.7210    -1.8100    -0.9110 H     1 <1>   0.0800 
 32 H       -4.6720     0.1170     1.0290 H     1 <1>   0.0800 
 33 H       -3.3370    -1.9700     0.8960 H     1 <1>   0.0800 
 34 H       -3.7130    -3.1340    -0.3430 H     1 <1>   0.0800 
 35 H       -0.7080     3.6010     1.8820 H     1 <1>   0.1500 
 36 H        0.6760     2.4770    -1.9790 H     1 <1>   0.1500 
 37 H       -6.8430     0.4210    -1.0660 H     1 <1>   0.0800 
 38 H       -6.4480     1.5740     0.1920 H     1 <1>   0.0800 
 39 H        1.4460     4.6540     2.2540 H     1 <1>   0.1500 
 40 H        2.7770     3.5790    -1.4500 H     1 <1>   0.1500 
 41 H       -5.6650    -2.0950     1.6760 H     1 <1>   0.0800 
 42 H       -8.0580    -1.9190     1.3310 H     1 <1>   0.0800 
 43 H       -7.8420    -1.6560    -0.3820 H     1 <1>   0.0800 
 44 H       -6.3840    -3.3380    -1.7850 H     1 <1>   0.1500 
 45 H       -5.9750    -4.3280     2.3440 H     1 <1>   0.1500 
 46 H       -6.6340    -5.7200    -2.3260 H     1 <1>   0.1500 
 47 H       -6.2200    -6.7010     1.7980 H     1 <1>   0.1500 
 48 H       -6.5510    -7.4060    -0.5350 H     1 <1>   0.1500 
@<TRIPOS>BOND
  1   1   2  2   
  2   2   3  am  
  3   2   4  1   
  4   3   5  1   
  5   3   6  1   
  6   4   7  1   
  7   4  26  1   
  8   4  27  1   
  9   5   8  1   
 10   5  28  1   
 11   5  29  1   
 12   6   9  1   
 13   6  30  1   
 14   6  31  1   
 15   7  10  ar  
 16   7  11  ar  
 17   8  12  1   
 18   8  13  1   
 19   8  32  1   
 20   9  12  1   
 21   9  33  1   
 22   9  34  1   
 23  10  14  ar  
 24  10  35  1   
 25  11  15  ar  
 26  11  36  1   
 27  12  16  1   
 28  13  17  1   
 29  13  37  1   
 30  13  38  1   
 31  14  18  ar  
 32  14  39  1   
 33  15  18  ar  
 34  15  40  1   
 35  16  19  1   
 36  16  20  1   
 37  16  41  1   
 38  17  20  1   
 39  19  21  ar  
 40  19  22  ar  
 41  20  42  1   
 42  20  43  1   
 43  21  23  ar  
 44  21  44  1   
 45  22  24  ar  
 46  22  45  1   
 47  23  25  ar  
 48  23  46  1   
 49  24  25  ar  
 50  24  47  1   
 51  25  48  1   
@<TRIPOS>SUBSTRUCTURE
  1 ****   3 GROUP 4 **** **** 0

# MOE 2024.06 (io_trps.svl 2023.06)
