@<TRIPOS>MOLECULE
NONAME
50 52 1 0 0 
SMALL
USER_CHARGES


@<TRIPOS>ATOM
  1 O       -1.7100    -0.0680    -0.0940 O.2   1 <1>  -0.5700 
  2 C       -1.9140     1.0670     0.3030 C.2   1 <1>   0.7150 
  3 N       -2.9290     1.2570     1.2260 N.am  1 <1>  -0.6600 
  4 C       -1.1040     2.1510    -0.2130 C.2   1 <1>   0.0550 
  5 C       -3.5450     0.0780     1.9090 C.3   1 <1>   0.1400 
  6 C       -3.5100     2.5990     1.5260 C.3   1 <1>   0.1400 
  7 O       -0.7530     3.1750     0.5560 O.3   1 <1>  -0.2800 
  8 C       -0.5710     2.3360    -1.4390 C.2   1 <1>   0.0460 
  9 C       -4.6970    -0.5140     1.0810 C.3   1 <1>   0.1400 
 10 C       -5.0420     2.6080     1.6090 C.3   1 <1>  -0.1600 
 11 C       -0.0320     3.9100    -0.2660 C.2   1 <1>   0.2980 
 12 N        0.1110     3.4740    -1.4640 N.2   1 <1>  -0.5650 
 13 C       -0.6480     1.4820    -2.6880 C.3   1 <1>  -0.0590 
 14 N       -5.9210     0.3520     1.1070 N.am  1 <1>  -0.6600 
 15 C       -5.7300     1.7260     0.5620 C.3   1 <1>   0.1400 
 16 C        0.5540     5.1970     0.2960 C.3   1 <1>   0.0200 
 17 C       -7.1700    -0.0540     1.5240 C.2   1 <1>   0.5690 
 18 C        1.3680     6.0090    -0.7240 C.3   1 <1>  -0.2400 
 19 O       -8.0940     0.7250     1.5880 O.2   1 <1>  -0.5700 
 20 C       -7.4710    -1.4830     1.9540 C.3   1 <1>   0.0810 
 21 C       -7.6190    -2.4200     0.7680 C.2   1 <1>  -0.0400 
 22 O       -6.5680    -2.8190     0.1040 O.3   1 <1>  -0.0190 
 23 C       -8.6990    -2.9820     0.2040 C.2   1 <1>  -0.1500 
 24 N       -6.8840    -3.6170    -0.8730 N.2   1 <1>  -0.4100 
 25 C       -8.1630    -3.7320    -0.8390 C.2   1 <1>   0.1080 
 26 C       -8.9680    -4.5710    -1.8060 C.3   1 <1>  -0.0590 
 27 H       -3.8950     0.3520     2.8880 H     1 <1>   0.0800 
 28 H       -2.7920    -0.6810     2.0370 H     1 <1>   0.0800 
 29 H       -3.2290     3.2860     0.7470 H     1 <1>   0.0800 
 30 H       -3.0950     2.9650     2.4490 H     1 <1>   0.0800 
 31 H       -4.9130    -1.4860     1.4770 H     1 <1>   0.0800 
 32 H       -4.3750    -0.6520     0.0630 H     1 <1>   0.0800 
 33 H       -5.3650     3.6230     1.4600 H     1 <1>   0.0800 
 34 H       -5.3670     2.3260     2.5950 H     1 <1>   0.0800 
 35 H       -1.2750     0.6230    -2.5340 H     1 <1>   0.0800 
 36 H        0.3380     1.1480    -2.9550 H     1 <1>   0.0800 
 37 H       -1.0480     2.0630    -3.4980 H     1 <1>   0.0800 
 38 H       -5.1520     1.6860    -0.3460 H     1 <1>   0.0800 
 39 H       -6.6860     2.1560     0.3140 H     1 <1>   0.0800 
 40 H        1.1850     4.9430     1.1280 H     1 <1>   0.0800 
 41 H       -0.2530     5.8020     0.6650 H     1 <1>   0.0800 
 42 H        2.1920     5.4220    -1.0900 H     1 <1>   0.0800 
 43 H        1.7530     6.9020    -0.2670 H     1 <1>   0.0800 
 44 H        0.7460     6.2840    -1.5580 H     1 <1>   0.0800 
 45 H       -8.3970    -1.4780     2.4980 H     1 <1>   0.0800 
 46 H       -6.7150    -1.8420     2.6230 H     1 <1>   0.0800 
 47 H       -9.7370    -2.8940     0.4640 H     1 <1>   0.1500 
 48 H       -9.5070    -5.3300    -1.2710 H     1 <1>   0.0800 
 49 H       -8.3130    -5.0420    -2.5160 H     1 <1>   0.0800 
 50 H       -9.6640    -3.9470    -2.3370 H     1 <1>   0.0800 
@<TRIPOS>BOND
  1   1   2  2   
  2   2   3  am  
  3   2   4  1   
  4   3   5  1   
  5   3   6  1   
  6   4   7  1   
  7   4   8  2   
  8   5   9  1   
  9   5  27  1   
 10   5  28  1   
 11   6  10  1   
 12   6  29  1   
 13   6  30  1   
 14   7  11  1   
 15   8  12  1   
 16   8  13  1   
 17   9  14  1   
 18   9  31  1   
 19   9  32  1   
 20  10  15  1   
 21  10  33  1   
 22  10  34  1   
 23  11  12  2   
 24  11  16  1   
 25  13  35  1   
 26  13  36  1   
 27  13  37  1   
 28  14  15  1   
 29  14  17  am  
 30  15  38  1   
 31  15  39  1   
 32  16  18  1   
 33  16  40  1   
 34  16  41  1   
 35  17  19  2   
 36  17  20  1   
 37  18  42  1   
 38  18  43  1   
 39  18  44  1   
 40  20  21  1   
 41  20  45  1   
 42  20  46  1   
 43  21  22  1   
 44  21  23  2   
 45  22  24  1   
 46  23  25  1   
 47  23  47  1   
 48  24  25  2   
 49  25  26  1   
 50  26  48  1   
 51  26  49  1   
 52  26  50  1   
@<TRIPOS>SUBSTRUCTURE
  1 ****   9 GROUP 4 **** **** 0

# MOE 2024.06 (io_trps.svl 2023.06)
