@<TRIPOS>MOLECULE
NONAME
42 43 1 0 0 
SMALL
USER_CHARGES


@<TRIPOS>ATOM
  1 S        0.0780    -0.1310     0.9030 S.o2  1 <1>   1.5760 
  2 O       -0.3380    -1.4230     1.4030 O.2   1 <1>  -0.6500 
  3 O        0.5080     0.9030     1.8190 O.2   1 <1>  -0.6500 
  4 N       -1.1470     0.5040    -0.0660 N.am  1 <1>  -0.8490 
  5 N        1.2870    -0.3830    -0.2530 N.am  1 <1>  -0.8490 
  6 C       -2.4230     0.5260     0.6620 C.3   1 <1>   0.1960 
  7 C       -0.8060     1.8380    -0.5620 C.3   1 <1>   0.1960 
  8 C        2.5720    -0.6860     0.3750 C.3   1 <1>   0.1160 
  9 C        0.9290    -1.4340    -1.2100 C.3   1 <1>   0.1160 
 10 C       -3.6040     0.9750    -0.2320 C.3   1 <1>   0.0000 
 11 C       -1.8870     2.3360    -1.5240 C.3   1 <1>  -0.1600 
 12 C       -4.8930     0.9860     0.6140 C.3   1 <1>   0.2000 
 13 C       -3.2680     2.3500    -0.8540 C.3   1 <1>  -0.1600 
 14 C       -3.9070    -0.0920    -1.3000 C.3   1 <1>  -0.1600 
 15 O       -5.8710     1.7550    -0.0270 O.3   1 <1>  -0.5600 
 16 C       -5.3640    -0.4740     0.6400 C.3   1 <1>  -0.1600 
 17 C       -4.7880    -1.1420    -0.6160 C.3   1 <1>  -0.1600 
 18 C       -6.8590     2.2720     0.8080 C.3   1 <1>   0.0400 
 19 H       -2.6250    -0.4600     1.0440 H     1 <1>   0.0800 
 20 H       -2.3360     1.1920     1.5060 H     1 <1>   0.0800 
 21 H       -0.7060     2.5250     0.2630 H     1 <1>   0.0800 
 22 H        0.1370     1.8010    -1.0830 H     1 <1>   0.0800 
 23 H        3.3330    -0.8060    -0.3770 H     1 <1>   0.0800 
 24 H        2.5020    -1.5890     0.9580 H     1 <1>   0.0800 
 25 H        2.8620     0.1250     1.0230 H     1 <1>   0.0800 
 26 H        1.6940    -1.5260    -1.9610 H     1 <1>   0.0800 
 27 H        0.0030    -1.1860    -1.7000 H     1 <1>   0.0800 
 28 H        0.8110    -2.3800    -0.7070 H     1 <1>   0.0800 
 29 H       -1.6370     3.3280    -1.8550 H     1 <1>   0.0800 
 30 H       -1.9030     1.6970    -2.3900 H     1 <1>   0.0800 
 31 H       -4.7190     1.3860     1.5990 H     1 <1>   0.0800 
 32 H       -4.0160     2.6290    -1.5770 H     1 <1>   0.0800 
 33 H       -3.2740     3.0960    -0.0790 H     1 <1>   0.0800 
 34 H       -4.4730     0.3580    -2.0980 H     1 <1>   0.0800 
 35 H       -3.0150    -0.5260    -1.7180 H     1 <1>   0.0800 
 36 H       -4.9600    -0.9590     1.5100 H     1 <1>   0.0800 
 37 H       -6.4360    -0.5520     0.6710 H     1 <1>   0.0800 
 38 H       -4.1970    -1.9990    -0.3390 H     1 <1>   0.0800 
 39 H       -5.5740    -1.4600    -1.2800 H     1 <1>   0.0800 
 40 H       -7.5610     2.8110     0.1980 H     1 <1>   0.0800 
 41 H       -6.4060     2.9420     1.5180 H     1 <1>   0.0800 
 42 H       -7.3620     1.4670     1.3140 H     1 <1>   0.0800 
@<TRIPOS>BOND
  1   1   2  2   
  2   1   3  2   
  3   1   4  am  
  4   1   5  am  
  5   4   6  1   
  6   4   7  1   
  7   5   8  1   
  8   5   9  1   
  9   6  10  1   
 10   6  19  1   
 11   6  20  1   
 12   7  11  1   
 13   7  21  1   
 14   7  22  1   
 15   8  23  1   
 16   8  24  1   
 17   8  25  1   
 18   9  26  1   
 19   9  27  1   
 20   9  28  1   
 21  10  12  1   
 22  10  13  1   
 23  10  14  1   
 24  11  13  1   
 25  11  29  1   
 26  11  30  1   
 27  12  15  1   
 28  12  16  1   
 29  12  31  1   
 30  13  32  1   
 31  13  33  1   
 32  14  17  1   
 33  14  34  1   
 34  14  35  1   
 35  15  18  1   
 36  16  17  1   
 37  16  36  1   
 38  16  37  1   
 39  17  38  1   
 40  17  39  1   
 41  18  40  1   
 42  18  41  1   
 43  18  42  1   
@<TRIPOS>SUBSTRUCTURE
  1 ****   6 GROUP 4 **** **** 0

# MOE 2024.06 (io_trps.svl 2023.06)
