@<TRIPOS>MOLECULE
NONAME
50 51 1 0 0 
SMALL
USER_CHARGES


@<TRIPOS>ATOM
  1 F       -0.3000     0.4490    -0.7570 F     1 <1>  -0.1900 
  2 C       -1.0290     1.2060     0.0360 C.ar  1 <1>   0.1900 
  3 C       -1.2680     2.5460    -0.2840 C.ar  1 <1>   0.4100 
  4 C       -1.5400     0.6810     1.1980 C.ar  1 <1>   0.1660 
  5 N       -1.9600     3.2950     0.5610 N.ar  1 <1>  -0.6200 
  6 N       -0.8030     3.1700    -1.4430 N.pl3 1 <1>  -0.8380 
  7 N       -2.2500     1.4350     2.0220 N.ar  1 <1>  -0.6200 
  8 C       -1.3250    -0.7710     1.6110 C.3   1 <1>  -0.0170 
  9 C       -2.4170     2.6920     1.6460 C.ar  1 <1>   0.4700 
 10 C       -0.5810     4.6440    -1.5130 C.3   1 <1>   0.2090 
 11 C       -0.9140     2.4800    -2.7620 C.3   1 <1>   0.1290 
 12 C       -2.5380    -1.6390     1.2540 C.3   1 <1>  -0.2400 
 13 C        0.9010     4.9730    -1.2510 C.3   1 <1>  -0.0800 
 14 C        1.3720     4.4750     0.1290 C.3   1 <1>  -0.1600 
 15 C        1.1430     6.4870    -1.3660 C.3   1 <1>  -0.1600 
 16 C        2.8030     4.9030     0.4420 C.3   1 <1>   0.3430 
 17 C        2.5840     6.8640    -1.0230 C.3   1 <1>   0.3430 
 18 N        2.9150     6.3860     0.3520 N.4   1 <1>  -0.9590 
 19 C        4.2820     6.8190     0.7920 C.3   1 <1>   0.3430 
 20 C        4.3950     8.3340     1.0040 C.3   1 <1>   0.1200 
 21 O        5.6870     8.5900     1.4350 O.3   1 <1>  -0.5600 
 22 C        5.9560     9.9330     1.6960 C.3   1 <1>   0.0400 
 23 H       -1.1610    -0.8090     2.6740 H     1 <1>   0.0800 
 24 H       -0.4480    -1.1710     1.1360 H     1 <1>   0.0800 
 25 H       -2.9990     3.3060     2.3140 H     1 <1>   0.1500 
 26 H       -1.1980     5.1560    -0.7950 H     1 <1>   0.0800 
 27 H       -0.8670     5.0060    -2.4850 H     1 <1>   0.0800 
 28 H       -1.4830     1.5710    -2.6690 H     1 <1>   0.0800 
 29 H        0.0680     2.2400    -3.1310 H     1 <1>   0.0800 
 30 H       -1.4160     3.1110    -3.4750 H     1 <1>   0.0800 
 31 H       -3.4170    -1.2650     1.7480 H     1 <1>   0.0800 
 32 H       -2.3710    -2.6540     1.5650 H     1 <1>   0.0800 
 33 H       -2.7060    -1.6240     0.1910 H     1 <1>   0.0800 
 34 H        1.4820     4.4780    -2.0120 H     1 <1>   0.0800 
 35 H        1.3370     3.4000     0.1530 H     1 <1>   0.0800 
 36 H        0.7100     4.8310     0.8990 H     1 <1>   0.0800 
 37 H        0.4730     7.0210    -0.7140 H     1 <1>   0.0800 
 38 H        0.9330     6.8070    -2.3730 H     1 <1>   0.0800 
 39 H        3.4770     4.4400    -0.2610 H     1 <1>   0.0800 
 40 H        3.0650     4.5690     1.4340 H     1 <1>   0.0800 
 41 H        2.6950     7.9350    -1.0840 H     1 <1>   0.0800 
 42 H        3.2550     6.4130    -1.7370 H     1 <1>   0.0800 
 43 H        2.2190     6.7750     1.0020 H     1 <1>   0.4500 
 44 H        5.0120     6.5170     0.0590 H     1 <1>   0.0800 
 45 H        4.5250     6.3390     1.7260 H     1 <1>   0.0800 
 46 H        3.7110     8.6670     1.7660 H     1 <1>   0.0800 
 47 H        4.2350     8.8720     0.0860 H     1 <1>   0.0800 
 48 H        6.9790    10.0130     2.0200 H     1 <1>   0.0800 
 49 H        5.3040    10.2850     2.4770 H     1 <1>   0.0800 
 50 H        5.8190    10.5090     0.7970 H     1 <1>   0.0800 
@<TRIPOS>BOND
  1   1   2  1   
  2   2   3  ar  
  3   2   4  ar  
  4   3   5  ar  
  5   3   6  1   
  6   4   7  ar  
  7   4   8  1   
  8   5   9  ar  
  9   6  10  1   
 10   6  11  1   
 11   7   9  ar  
 12   8  12  1   
 13   8  23  1   
 14   8  24  1   
 15   9  25  1   
 16  10  13  1   
 17  10  26  1   
 18  10  27  1   
 19  11  28  1   
 20  11  29  1   
 21  11  30  1   
 22  12  31  1   
 23  12  32  1   
 24  12  33  1   
 25  13  14  1   
 26  13  15  1   
 27  13  34  1   
 28  14  16  1   
 29  14  35  1   
 30  14  36  1   
 31  15  17  1   
 32  15  37  1   
 33  15  38  1   
 34  16  18  1   
 35  16  39  1   
 36  16  40  1   
 37  17  18  1   
 38  17  41  1   
 39  17  42  1   
 40  18  19  1   
 41  18  43  1   
 42  19  20  1   
 43  19  44  1   
 44  19  45  1   
 45  20  21  1   
 46  20  46  1   
 47  20  47  1   
 48  21  22  1   
 49  22  48  1   
 50  22  49  1   
 51  22  50  1   
@<TRIPOS>SUBSTRUCTURE
  1 ****  14 GROUP 4 **** **** 0

# MOE 2024.06 (io_trps.svl 2023.06)
