@<TRIPOS>MOLECULE
NONAME
49 51 1 0 0 
SMALL
USER_CHARGES


@<TRIPOS>ATOM
  1 S        0.2630     0.8420    -0.9110 S.o2  1 <1>   1.4470 
  2 O        0.5440     0.7650    -2.3290 O.2   1 <1>  -0.6500 
  3 O        0.1310     2.1370    -0.2750 O.2   1 <1>  -0.6500 
  4 N        1.5150     0.0070    -0.1040 N.am  1 <1>  -0.8490 
  5 C       -1.2400    -0.1410    -0.5740 C.ar  1 <1>  -0.0090 
  6 C        1.8370     0.4830     1.2590 C.3   1 <1>   0.1960 
  7 C        2.6390    -0.4630    -0.9350 C.3   1 <1>   0.1960 
  8 C       -2.5290     0.3460    -0.8310 C.ar  1 <1>  -0.1440 
  9 C       -1.1210    -1.4300    -0.0610 C.ar  1 <1>  -0.1500 
 10 C        3.0590     1.4290     1.3730 C.3   1 <1>   0.2200 
 11 C        3.7210     0.5760    -1.3290 C.3   1 <1>  -0.0190 
 12 C       -3.6560    -0.4210    -0.5260 C.ar  1 <1>  -0.1440 
 13 C       -2.6730     1.7410    -1.4550 C.3   1 <1>  -0.0960 
 14 C       -2.2200    -2.2110     0.2380 C.ar  1 <1>  -0.1440 
 15 N        3.1050     2.3880     0.2350 N.am  1 <1>  -0.7300 
 16 C        4.3720     0.6110     1.5430 C.3   1 <1>   0.1200 
 17 C        3.3760     2.0240    -1.0360 C.2   1 <1>   0.5690 
 18 C        5.0950     0.2350    -0.7230 C.3   1 <1>   0.1200 
 19 C       -3.4890    -1.6900     0.0290 C.ar  1 <1>   0.0820 
 20 C       -5.0660     0.1080    -0.8020 C.3   1 <1>  -0.0960 
 21 C       -2.0140    -3.6200     0.7790 C.3   1 <1>  -0.0960 
 22 O        5.3180     0.8150     0.5310 O.3   1 <1>  -0.5600 
 23 O        3.3510     2.8320    -1.9300 O.2   1 <1>  -0.5700 
 24 O       -4.5620    -2.4430     0.3600 O.3   1 <1>  -0.3630 
 25 C       -5.0370    -2.2990     1.6800 C.3   1 <1>   0.0400 
 26 H        0.9800     0.9840     1.6760 H     1 <1>   0.0800 
 27 H        2.0030    -0.3750     1.8860 H     1 <1>   0.0800 
 28 H        3.1100    -1.2800    -0.4160 H     1 <1>   0.0800 
 29 H        2.2390    -0.8900    -1.8400 H     1 <1>   0.0800 
 30 H       -0.1450    -1.8430     0.1100 H     1 <1>   0.1500 
 31 H        2.9310     1.9960     2.2780 H     1 <1>   0.0800 
 32 H        3.8340     0.4900    -2.3940 H     1 <1>   0.0800 
 33 H       -3.6380     1.9130    -1.8890 H     1 <1>   0.0800 
 34 H       -1.9610     1.8800    -2.2480 H     1 <1>   0.0800 
 35 H       -2.5050     2.4940    -0.7050 H     1 <1>   0.0800 
 36 H        2.7090     3.3190     0.3640 H     1 <1>   0.3700 
 37 H        4.1810    -0.4450     1.6180 H     1 <1>   0.0800 
 38 H        4.8420     0.9150     2.4610 H     1 <1>   0.0800 
 39 H        5.8620     0.6260    -1.3690 H     1 <1>   0.0800 
 40 H        5.2430    -0.8270    -0.6400 H     1 <1>   0.0800 
 41 H       -5.2030     0.2370    -1.8600 H     1 <1>   0.0800 
 42 H       -5.2090     1.0510    -0.3080 H     1 <1>   0.0800 
 43 H       -5.8350    -0.5590    -0.4620 H     1 <1>   0.0800 
 44 H       -1.0270    -3.9790     0.5490 H     1 <1>   0.0800 
 45 H       -2.7250    -4.2940     0.3370 H     1 <1>   0.0800 
 46 H       -2.1450    -3.6270     1.8460 H     1 <1>   0.0800 
 47 H       -5.8980    -2.9300     1.7980 H     1 <1>   0.0800 
 48 H       -5.3050    -1.2700     1.8440 H     1 <1>   0.0800 
 49 H       -4.2630    -2.5940     2.3640 H     1 <1>   0.0800 
@<TRIPOS>BOND
  1   1   2  2   
  2   1   3  2   
  3   1   4  am  
  4   1   5  1   
  5   4   6  1   
  6   4   7  1   
  7   5   8  ar  
  8   5   9  ar  
  9   6  10  1   
 10   6  26  1   
 11   6  27  1   
 12   7  11  1   
 13   7  28  1   
 14   7  29  1   
 15   8  12  ar  
 16   8  13  1   
 17   9  14  ar  
 18   9  30  1   
 19  10  15  1   
 20  10  16  1   
 21  10  31  1   
 22  11  17  1   
 23  11  18  1   
 24  11  32  1   
 25  12  19  ar  
 26  12  20  1   
 27  13  33  1   
 28  13  34  1   
 29  13  35  1   
 30  14  19  ar  
 31  14  21  1   
 32  15  17  am  
 33  15  36  1   
 34  16  22  1   
 35  16  37  1   
 36  16  38  1   
 37  17  23  2   
 38  18  22  1   
 39  18  39  1   
 40  18  40  1   
 41  19  24  1   
 42  20  41  1   
 43  20  42  1   
 44  20  43  1   
 45  21  44  1   
 46  21  45  1   
 47  21  46  1   
 48  24  25  1   
 49  25  47  1   
 50  25  48  1   
 51  25  49  1   
@<TRIPOS>SUBSTRUCTURE
  1 ****   1 GROUP 4 **** **** 0

# MOE 2024.06 (io_trps.svl 2023.06)
