@<TRIPOS>MOLECULE
NONAME
38 39 1 0 0 
SMALL
USER_CHARGES


@<TRIPOS>ATOM
  1 F        1.8150     1.2440     1.3550 F     1 <1>  -0.1900 
  2 C        2.2380     0.2230     0.6540 C.ar  1 <1>   0.1900 
  3 C        3.3880     0.3430    -0.1280 C.ar  1 <1>   0.0830 
  4 C        1.5060    -0.9470     0.7130 C.ar  1 <1>  -0.1500 
  5 O        4.1150     1.4860    -0.1980 O.3   1 <1>  -0.3630 
  6 C        3.7990    -0.7430    -0.8910 C.ar  1 <1>  -0.1500 
  7 C        1.9540    -2.0090    -0.0510 C.ar  1 <1>   0.1900 
  8 C        4.7810     1.9370     0.9800 C.3   1 <1>   0.2610 
  9 C        3.0820    -1.9300    -0.8520 C.ar  1 <1>  -0.1500 
 10 F        1.2860    -3.1300    -0.0180 F     1 <1>  -0.1900 
 11 C        4.9830     3.4570     0.9210 C.2   1 <1>   0.5690 
 12 C        6.1110     1.1790     1.0850 C.3   1 <1>  -0.2400 
 13 O        5.3050     4.0360     1.9320 O.2   1 <1>  -0.5700 
 14 N        4.7770     4.0940    -0.2700 N.am  1 <1>  -0.4940 
 15 C        4.8800     5.4460    -0.6050 C.2   1 <1>   0.2040 
 16 O        3.9830     5.9480    -1.4190 O.3   1 <1>  -0.0190 
 17 C        5.7440     6.4380    -0.2940 C.2   1 <1>  -0.1810 
 18 N        4.1800     7.2180    -1.6480 N.2   1 <1>  -0.4100 
 19 C        5.2270     7.5390    -0.9790 C.2   1 <1>   0.1080 
 20 C        7.0010     6.4150     0.5660 C.3   1 <1>   0.0210 
 21 C        5.7860     8.9460    -0.9720 C.3   1 <1>  -0.0590 
 22 C        8.2610     6.5660    -0.2910 C.3   1 <1>  -0.2400 
 23 H        0.6250    -1.0300     1.3210 H     1 <1>   0.1500 
 24 H        4.6760    -0.6560    -1.5090 H     1 <1>   0.1500 
 25 H        4.1700     1.7180     1.8360 H     1 <1>   0.0800 
 26 H        3.3870    -2.7830    -1.4320 H     1 <1>   0.1500 
 27 H        6.7220     1.3740     0.2220 H     1 <1>   0.0800 
 28 H        5.9370     0.1230     1.1760 H     1 <1>   0.0800 
 29 H        6.6440     1.5090     1.9600 H     1 <1>   0.0800 
 30 H        4.3230     3.5120    -0.9760 H     1 <1>   0.3700 
 31 H        7.0710     5.4860     1.0960 H     1 <1>   0.0800 
 32 H        6.9520     7.2020     1.2970 H     1 <1>   0.0800 
 33 H        6.1970     9.1820    -0.0080 H     1 <1>   0.0800 
 34 H        5.0030     9.6490    -1.1930 H     1 <1>   0.0800 
 35 H        6.5520     9.0360    -1.7190 H     1 <1>   0.0800 
 36 H        8.3020     5.7810    -1.0250 H     1 <1>   0.0800 
 37 H        9.1360     6.5020     0.3300 H     1 <1>   0.0800 
 38 H        8.2690     7.5140    -0.7970 H     1 <1>   0.0800 
@<TRIPOS>BOND
  1   1   2  1   
  2   2   3  ar  
  3   2   4  ar  
  4   3   5  1   
  5   3   6  ar  
  6   4   7  ar  
  7   4  23  1   
  8   5   8  1   
  9   6   9  ar  
 10   6  24  1   
 11   7   9  ar  
 12   7  10  1   
 13   8  11  1   
 14   8  12  1   
 15   8  25  1   
 16   9  26  1   
 17  11  13  2   
 18  11  14  am  
 19  12  27  1   
 20  12  28  1   
 21  12  29  1   
 22  14  15  1   
 23  14  30  1   
 24  15  16  1   
 25  15  17  2   
 26  16  18  1   
 27  17  19  1   
 28  17  20  1   
 29  18  19  2   
 30  19  21  1   
 31  20  22  1   
 32  20  31  1   
 33  20  32  1   
 34  21  33  1   
 35  21  34  1   
 36  21  35  1   
 37  22  36  1   
 38  22  37  1   
 39  22  38  1   
@<TRIPOS>SUBSTRUCTURE
  1 ****  11 GROUP 4 **** **** 0

# MOE 2024.06 (io_trps.svl 2023.06)
