@<TRIPOS>MOLECULE
NONAME
52 54 1 0 0 
SMALL
USER_CHARGES


@<TRIPOS>ATOM
  1 F        0.6220    -0.3950     0.9070 F     1 <1>  -0.1900 
  2 C        0.3440    -1.5490     0.3640 C.ar  1 <1>   0.1900 
  3 C        0.7950    -2.6970     0.9820 C.ar  1 <1>  -0.1500 
  4 C       -0.3910    -1.5720    -0.8040 C.ar  1 <1>  -0.1500 
  5 C        0.4950    -3.9270     0.4030 C.ar  1 <1>   0.0820 
  6 C       -0.6870    -2.7970    -1.3770 C.ar  1 <1>  -0.1500 
  7 O        0.8940    -5.1090     0.9490 O.3   1 <1>  -0.3630 
  8 C       -0.2490    -3.9730    -0.7780 C.ar  1 <1>  -0.1440 
  9 C        1.8830    -5.1360     1.9630 C.3   1 <1>   0.0400 
 10 C       -0.5810    -5.3080    -1.4170 C.3   1 <1>   0.4870 
 11 N       -1.3430    -6.1180    -0.4290 N.4   1 <1>  -0.9590 
 12 C       -1.4140    -7.5690    -0.8210 C.3   1 <1>   0.3430 
 13 C       -2.6850    -5.5200    -0.1730 C.3   1 <1>   0.3430 
 14 C       -2.2100    -8.4450     0.1990 C.3   1 <1>   0.4230 
 15 C       -3.4070    -6.3290     0.9090 C.3   1 <1>  -0.1600 
 16 N       -2.2740    -9.9380    -0.1260 N.4   1 <1>  -0.9590 
 17 C       -3.5950    -7.8310     0.5590 C.3   1 <1>   0.0000 
 18 C       -3.3170   -10.6850     0.6590 C.3   1 <1>   0.3430 
 19 C       -2.4400   -10.2640    -1.5840 C.3   1 <1>   0.2630 
 20 C       -4.1390    -8.5570     1.8230 C.3   1 <1>  -0.1600 
 21 C       -4.6570    -7.9660    -0.5720 C.3   1 <1>   0.1200 
 22 C       -3.6070    -9.9960     1.9930 C.3   1 <1>  -0.1600 
 23 O       -4.1530    -7.5640    -1.8010 O.3   1 <1>  -0.6800 
 24 H        1.3590    -2.6000     1.8900 H     1 <1>   0.1500 
 25 H       -0.7170    -0.6490    -1.2500 H     1 <1>   0.1500 
 26 H       -1.2560    -2.8150    -2.2920 H     1 <1>   0.1500 
 27 H        2.1390    -6.1600     2.1650 H     1 <1>   0.0800 
 28 H        1.4900    -4.6780     2.8540 H     1 <1>   0.0800 
 29 H        2.7550    -4.6070     1.6180 H     1 <1>   0.0800 
 30 H        0.3410    -5.8040    -1.6740 H     1 <1>   0.0800 
 31 H       -1.1590    -5.1630    -2.3150 H     1 <1>   0.0800 
 32 H       -0.7760    -5.9970     0.4320 H     1 <1>   0.4500 
 33 H       -1.8860    -7.6410    -1.7850 H     1 <1>   0.0800 
 34 H       -0.4130    -7.9580    -0.9060 H     1 <1>   0.0800 
 35 H       -2.5760    -4.4980     0.1570 H     1 <1>   0.0800 
 36 H       -3.2680    -5.5170    -1.0800 H     1 <1>   0.0800 
 37 H       -1.6410    -8.3750     1.1110 H     1 <1>   0.0800 
 38 H       -2.8470    -6.2200     1.8220 H     1 <1>   0.0800 
 39 H       -4.3690    -5.8760     1.0840 H     1 <1>   0.0800 
 40 H       -1.3730   -10.3460     0.1700 H     1 <1>   0.4500 
 41 H       -4.2340   -10.7340     0.0940 H     1 <1>   0.0800 
 42 H       -2.9890   -11.6980     0.8350 H     1 <1>   0.0800 
 43 H       -3.3650    -9.8570    -1.9600 H     1 <1>   0.0800 
 44 H       -2.4570   -11.3330    -1.7280 H     1 <1>   0.0800 
 45 H       -1.6260    -9.8600    -2.1630 H     1 <1>   0.0800 
 46 H       -3.8810    -8.0180     2.7200 H     1 <1>   0.0800 
 47 H       -5.2170    -8.5800     1.7950 H     1 <1>   0.0800 
 48 H       -5.5190    -7.3570    -0.3500 H     1 <1>   0.0800 
 49 H       -4.9940    -8.9820    -0.6770 H     1 <1>   0.0800 
 50 H       -4.3330   -10.5760     2.5370 H     1 <1>   0.0800 
 51 H       -2.7080    -9.9920     2.5860 H     1 <1>   0.0800 
 52 H       -4.8830    -7.5000    -2.4610 H     1 <1>   0.4000 
@<TRIPOS>BOND
  1   1   2  1   
  2   2   3  ar  
  3   2   4  ar  
  4   3   5  ar  
  5   3  24  1   
  6   4   6  ar  
  7   4  25  1   
  8   5   7  1   
  9   5   8  ar  
 10   6   8  ar  
 11   6  26  1   
 12   7   9  1   
 13   8  10  1   
 14   9  27  1   
 15   9  28  1   
 16   9  29  1   
 17  10  11  1   
 18  10  30  1   
 19  10  31  1   
 20  11  12  1   
 21  11  13  1   
 22  11  32  1   
 23  12  14  1   
 24  12  33  1   
 25  12  34  1   
 26  13  15  1   
 27  13  35  1   
 28  13  36  1   
 29  14  16  1   
 30  14  17  1   
 31  14  37  1   
 32  15  17  1   
 33  15  38  1   
 34  15  39  1   
 35  16  18  1   
 36  16  19  1   
 37  16  40  1   
 38  17  20  1   
 39  17  21  1   
 40  18  22  1   
 41  18  41  1   
 42  18  42  1   
 43  19  43  1   
 44  19  44  1   
 45  19  45  1   
 46  20  22  1   
 47  20  46  1   
 48  20  47  1   
 49  21  23  1   
 50  21  48  1   
 51  21  49  1   
 52  22  50  1   
 53  22  51  1   
 54  23  52  1   
@<TRIPOS>SUBSTRUCTURE
  1 ****  11 GROUP 4 **** **** 0

# MOE 2024.06 (io_trps.svl 2023.06)
