@<TRIPOS>MOLECULE
NONAME
47 50 1 0 0 
SMALL
USER_CHARGES


@<TRIPOS>ATOM
  1 O       -0.1730     0.0660     0.1980 O.2   1 <1>  -0.5700 
  2 C       -1.1680     0.7480     0.3610 C.2   1 <1>   0.6160 
  3 N       -2.3930     0.1190     0.4040 N.am  1 <1>  -0.6600 
  4 C       -1.0440     2.1880     0.4860 C.2   1 <1>   0.0140 
  5 C       -3.6840     0.7820     0.0830 C.3   1 <1>   0.1400 
  6 C       -2.5250    -1.3560     0.2860 C.3   1 <1>   0.1400 
  7 C       -0.1960     2.8930    -0.3060 C.2   1 <1>  -0.1780 
  8 C       -1.8280     2.8380     1.5120 C.2   1 <1>  -0.1500 
  9 C       -4.5520    -0.3240    -0.5130 C.3   1 <1>   0.2000 
 10 C       -4.0200    -1.6180     0.0970 C.3   1 <1>  -0.0800 
 11 C        0.0740     4.3090    -0.3130 C.ar  1 <1>   0.0280 
 12 C       -2.2840     4.1020     1.5050 C.2   1 <1>  -0.0730 
 13 O       -5.8890    -0.1550    -0.1930 O.3   1 <1>  -0.6800 
 14 C       -4.3230    -2.8600    -0.7540 C.3   1 <1>   0.0210 
 15 C       -0.8480     5.2930     0.0820 C.ar  1 <1>   0.0830 
 16 C        1.3210     4.7460    -0.7530 C.ar  1 <1>  -0.1500 
 17 O       -2.1100     4.9870     0.4960 O.3   1 <1>  -0.1590 
 18 C       -3.6890    -4.0980    -0.1500 C.2   1 <1>   0.1080 
 19 C       -0.5240     6.6360     0.0300 C.ar  1 <1>  -0.1500 
 20 C        1.6480     6.0900    -0.8000 C.ar  1 <1>  -0.1500 
 21 N       -4.0040    -4.5460     1.0250 N.2   1 <1>  -0.7070 
 22 C       -2.7100    -4.8720    -0.7640 C.2   1 <1>  -0.1500 
 23 C        0.7260     7.0400    -0.4090 C.ar  1 <1>  -0.1500 
 24 N       -3.2270    -5.6330     1.1930 N.pl3 1 <1>   0.3000 
 25 C       -2.4330    -5.8500     0.1230 C.2   1 <1>  -0.3320 
 26 C       -1.4430    -6.9940     0.0140 C.3   1 <1>  -0.0600 
 27 H       -4.1210     1.1590     0.9910 H     1 <1>   0.0800 
 28 H       -3.5420     1.5810    -0.6230 H     1 <1>   0.0800 
 29 H       -1.9630    -1.6930    -0.5680 H     1 <1>   0.0800 
 30 H       -2.1510    -1.8450     1.1700 H     1 <1>   0.0800 
 31 H        0.3870     2.3400    -1.0230 H     1 <1>   0.1500 
 32 H       -2.0520     2.2040     2.3520 H     1 <1>   0.1500 
 33 H       -4.4540    -0.3230    -1.5850 H     1 <1>   0.0800 
 34 H       -4.4410    -1.7550     1.0780 H     1 <1>   0.0800 
 35 H       -2.8610     4.5240     2.3090 H     1 <1>   0.1500 
 36 H       -6.0360    -0.3330     0.7560 H     1 <1>   0.4000 
 37 H       -3.9550    -2.7230    -1.7550 H     1 <1>   0.0800 
 38 H       -5.3870    -3.0090    -0.8060 H     1 <1>   0.0800 
 39 H        2.0530     4.0210    -1.0620 H     1 <1>   0.1500 
 40 H       -1.2500     7.3690     0.3310 H     1 <1>   0.1500 
 41 H        2.6220     6.3940    -1.1430 H     1 <1>   0.1500 
 42 H       -2.2830    -4.7030    -1.7360 H     1 <1>   0.1500 
 43 H        0.9740     8.0870    -0.4450 H     1 <1>   0.1500 
 44 H       -3.2630    -6.2040     2.0460 H     1 <1>   0.2700 
 45 H       -0.9310    -6.9510    -0.9310 H     1 <1>   0.0800 
 46 H       -1.9550    -7.9380     0.0820 H     1 <1>   0.0800 
 47 H       -0.7130    -6.9320     0.8010 H     1 <1>   0.0800 
@<TRIPOS>BOND
  1   1   2  2   
  2   2   3  am  
  3   2   4  1   
  4   3   5  1   
  5   3   6  1   
  6   4   7  2   
  7   4   8  1   
  8   5   9  1   
  9   5  27  1   
 10   5  28  1   
 11   6  10  1   
 12   6  29  1   
 13   6  30  1   
 14   7  11  1   
 15   7  31  1   
 16   8  12  2   
 17   8  32  1   
 18   9  10  1   
 19   9  13  1   
 20   9  33  1   
 21  10  14  1   
 22  10  34  1   
 23  11  15  ar  
 24  11  16  ar  
 25  12  17  1   
 26  12  35  1   
 27  13  36  1   
 28  14  18  1   
 29  14  37  1   
 30  14  38  1   
 31  15  17  1   
 32  15  19  ar  
 33  16  20  ar  
 34  16  39  1   
 35  18  21  2   
 36  18  22  1   
 37  19  23  ar  
 38  19  40  1   
 39  20  23  ar  
 40  20  41  1   
 41  21  24  1   
 42  22  25  2   
 43  22  42  1   
 44  23  43  1   
 45  24  25  1   
 46  24  44  1   
 47  25  26  1   
 48  26  45  1   
 49  26  46  1   
 50  26  47  1   
@<TRIPOS>SUBSTRUCTURE
  1 ****   3 GROUP 4 **** **** 0

# MOE 2024.06 (io_trps.svl 2023.06)
