@<TRIPOS>MOLECULE
NONAME
46 48 1 0 0 
SMALL
USER_CHARGES


@<TRIPOS>ATOM
  1 F       -0.9400    -1.0860     1.4220 F     1 <1>  -0.1900 
  2 C       -0.8230    -2.2680     0.8760 C.ar  1 <1>   0.1900 
  3 C       -1.7000    -2.6490    -0.1350 C.ar  1 <1>  -0.1440 
  4 C        0.1870    -3.0900     1.3370 C.ar  1 <1>  -0.1500 
  5 C       -1.5500    -3.9120    -0.6970 C.ar  1 <1>  -0.1500 
  6 C       -2.8150    -1.7220    -0.6240 C.3   1 <1>   0.0450 
  7 C        0.3040    -4.3330     0.7490 C.ar  1 <1>   0.1900 
  8 C       -0.5440    -4.7600    -0.2570 C.ar  1 <1>  -0.1500 
  9 C       -4.1690    -1.9540     0.0410 C.2   1 <1>   0.5690 
 10 F        1.2490    -5.1350     1.1570 F     1 <1>  -0.1900 
 11 O       -4.3110    -2.9380     0.7300 O.2   1 <1>  -0.5700 
 12 N       -5.2050    -1.0750    -0.1720 N.am  1 <1>  -0.6600 
 13 C       -6.5340    -1.2720     0.4900 C.3   1 <1>   0.1400 
 14 C       -5.1890     0.0900    -1.0990 C.3   1 <1>   0.1400 
 15 C       -7.6450    -1.5100    -0.5640 C.3   1 <1>   0.0000 
 16 C       -6.2540    -0.1060    -2.1840 C.3   1 <1>  -0.1600 
 17 C       -9.0200    -1.6810     0.1030 C.3   1 <1>   0.2000 
 18 C       -7.6480    -0.3460    -1.5790 C.3   1 <1>  -0.1600 
 19 C       -7.4570    -2.8790    -1.2410 C.3   1 <1>  -0.1600 
 20 O       -9.1940    -0.7800     1.1560 O.3   1 <1>  -0.5600 
 21 C       -9.0670    -3.1330     0.5910 C.3   1 <1>  -0.1600 
 22 C       -8.0550    -3.9020    -0.2700 C.3   1 <1>  -0.1600 
 23 C      -10.5030    -0.6620     1.6180 C.3   1 <1>   0.0400 
 24 H        0.8520    -2.7750     2.1190 H     1 <1>   0.1500 
 25 H       -2.2220    -4.2420    -1.4700 H     1 <1>   0.1500 
 26 H       -2.9390    -1.8560    -1.6820 H     1 <1>   0.0800 
 27 H       -2.5230    -0.7020    -0.4590 H     1 <1>   0.0800 
 28 H       -0.4210    -5.7390    -0.6830 H     1 <1>   0.1500 
 29 H       -6.4970    -2.0950     1.1820 H     1 <1>   0.0800 
 30 H       -6.7610    -0.3880     1.0610 H     1 <1>   0.0800 
 31 H       -5.4060     0.9830    -0.5360 H     1 <1>   0.0800 
 32 H       -4.2290     0.2160    -1.5620 H     1 <1>   0.0800 
 33 H       -6.2830     0.7670    -2.8110 H     1 <1>   0.0800 
 34 H       -5.9750    -0.9410    -2.8020 H     1 <1>   0.0800 
 35 H       -9.7910    -1.5160    -0.6320 H     1 <1>   0.0800 
 36 H       -8.3560    -0.5380    -2.3660 H     1 <1>   0.0800 
 37 H       -7.9640     0.5500    -1.0710 H     1 <1>   0.0800 
 38 H       -8.0160    -2.9080    -2.1610 H     1 <1>   0.0800 
 39 H       -6.4280    -3.1010    -1.4610 H     1 <1>   0.0800 
 40 H       -8.7720    -3.1880     1.6250 H     1 <1>   0.0800 
 41 H      -10.0560    -3.5390     0.4740 H     1 <1>   0.0800 
 42 H       -7.2750    -4.2980     0.3600 H     1 <1>   0.0800 
 43 H       -8.5190    -4.7150    -0.8000 H     1 <1>   0.0800 
 44 H      -10.5120     0.0700     2.4060 H     1 <1>   0.0800 
 45 H      -10.8350    -1.6100     2.0040 H     1 <1>   0.0800 
 46 H      -11.1370    -0.3350     0.8130 H     1 <1>   0.0800 
@<TRIPOS>BOND
  1   1   2  1   
  2   2   3  ar  
  3   2   4  ar  
  4   3   5  ar  
  5   3   6  1   
  6   4   7  ar  
  7   4  24  1   
  8   5   8  ar  
  9   5  25  1   
 10   6   9  1   
 11   6  26  1   
 12   6  27  1   
 13   7   8  ar  
 14   7  10  1   
 15   8  28  1   
 16   9  11  2   
 17   9  12  am  
 18  12  13  1   
 19  12  14  1   
 20  13  15  1   
 21  13  29  1   
 22  13  30  1   
 23  14  16  1   
 24  14  31  1   
 25  14  32  1   
 26  15  17  1   
 27  15  18  1   
 28  15  19  1   
 29  16  18  1   
 30  16  33  1   
 31  16  34  1   
 32  17  20  1   
 33  17  21  1   
 34  17  35  1   
 35  18  36  1   
 36  18  37  1   
 37  19  22  1   
 38  19  38  1   
 39  19  39  1   
 40  20  23  1   
 41  21  22  1   
 42  21  40  1   
 43  21  41  1   
 44  22  42  1   
 45  22  43  1   
 46  23  44  1   
 47  23  45  1   
 48  23  46  1   
@<TRIPOS>SUBSTRUCTURE
  1 ****   9 GROUP 4 **** **** 0

# MOE 2024.06 (io_trps.svl 2023.06)
