@<TRIPOS>MOLECULE
NONAME
50 54 1 0 0 
SMALL
USER_CHARGES


@<TRIPOS>ATOM
  1 N       -1.1830     0.0270    -0.8640 N.ar  1 <1>  -0.6200 
  2 C       -1.5770    -1.2210    -0.6390 C.ar  1 <1>   0.4100 
  3 C        0.0690     0.1140    -1.2750 C.ar  1 <1>   0.1660 
  4 N       -2.8840    -1.3910    -0.1870 N.pl3 1 <1>  -0.8380 
  5 C       -0.7170    -2.3160    -0.8470 C.ar  1 <1>   0.1600 
  6 C        0.9010    -0.9850    -1.4600 C.ar  1 <1>   0.1600 
  7 C        0.5750     1.5160    -1.5430 C.3   1 <1>  -0.0960 
  8 C       -3.9810    -0.4440    -0.5770 C.3   1 <1>   0.2090 
  9 C       -3.2600    -2.4190     0.8210 C.3   1 <1>   0.2090 
 10 N        0.5360    -2.2410    -1.2530 N.ar  1 <1>  -0.6200 
 11 C       -4.6040     0.2460     0.6520 C.3   1 <1>   0.1430 
 12 C       -3.8830    -1.7500     2.0530 C.3   1 <1>  -0.1600 
 13 C       -5.7510     1.1180     0.1740 C.ar  1 <1>   0.1670 
 14 C       -5.0480    -0.8170     1.6800 C.3   1 <1>  -0.1600 
 15 C       -3.6440     1.2920     1.2810 C.3   1 <1>  -0.1600 
 16 N       -6.9290     0.6880    -0.2090 N.ar  1 <1>  -0.6200 
 17 C       -5.4070     2.4350     0.1700 C.ar  1 <1>  -0.1440 
 18 C       -3.9900     2.6460     0.6430 C.3   1 <1>  -0.0170 
 19 C       -7.7970     1.6310    -0.6010 C.ar  1 <1>   0.6200 
 20 C       -6.3490     3.3390    -0.2470 C.ar  1 <1>   0.1600 
 21 N       -7.5430     2.9480    -0.6310 N.ar  1 <1>  -0.6200 
 22 C       -9.1190     1.1900    -1.0270 C.ar  1 <1>   0.0000 
 23 C      -10.2420     2.0140    -0.9050 C.ar  1 <1>  -0.1500 
 24 C       -9.3270    -0.0770    -1.5800 C.ar  1 <1>  -0.1500 
 25 C      -11.4980     1.6000    -1.3080 C.ar  1 <1>  -0.1500 
 26 C      -10.5810    -0.4990    -1.9850 C.ar  1 <1>  -0.1500 
 27 C      -11.6710     0.3400    -1.8500 C.ar  1 <1>  -0.1500 
 28 H       -1.1120    -3.2960    -0.6700 H     1 <1>   0.1500 
 29 H        1.9110    -0.8270    -1.7950 H     1 <1>   0.1500 
 30 H       -0.0320     1.9770    -2.3000 H     1 <1>   0.0800 
 31 H        1.5970     1.5050    -1.8750 H     1 <1>   0.0800 
 32 H        0.5080     2.1000    -0.6430 H     1 <1>   0.0800 
 33 H       -4.7460    -1.0030    -1.0870 H     1 <1>   0.0800 
 34 H       -3.6180     0.2990    -1.2660 H     1 <1>   0.0800 
 35 H       -2.3960    -2.9820     1.1280 H     1 <1>   0.0800 
 36 H       -3.9690    -3.0980     0.3780 H     1 <1>   0.0800 
 37 H       -3.1170    -1.1960     2.5660 H     1 <1>   0.0800 
 38 H       -4.2350    -2.5120     2.7240 H     1 <1>   0.0800 
 39 H       -5.8420    -1.4050     1.2510 H     1 <1>   0.0800 
 40 H       -5.4410    -0.3400     2.5600 H     1 <1>   0.0800 
 41 H       -2.6080     1.0370     1.1450 H     1 <1>   0.0800 
 42 H       -3.8340     1.3630     2.3370 H     1 <1>   0.0800 
 43 H       -3.3490     2.8380    -0.2010 H     1 <1>   0.0800 
 44 H       -3.9160     3.4510     1.3540 H     1 <1>   0.0800 
 45 H       -6.1230     4.3910    -0.2670 H     1 <1>   0.1500 
 46 H      -10.1280     2.9980    -0.4840 H     1 <1>   0.1500 
 47 H       -8.4910    -0.7450    -1.6940 H     1 <1>   0.1500 
 48 H      -12.3420     2.2590    -1.2000 H     1 <1>   0.1500 
 49 H      -10.7070    -1.4810    -2.4060 H     1 <1>   0.1500 
 50 H      -12.6470     0.0150    -2.1650 H     1 <1>   0.1500 
@<TRIPOS>BOND
  1   1   2  ar  
  2   1   3  ar  
  3   2   4  1   
  4   2   5  ar  
  5   3   6  ar  
  6   3   7  1   
  7   4   8  1   
  8   4   9  1   
  9   5  10  ar  
 10   5  28  1   
 11   6  10  ar  
 12   6  29  1   
 13   7  30  1   
 14   7  31  1   
 15   7  32  1   
 16   8  11  1   
 17   8  33  1   
 18   8  34  1   
 19   9  12  1   
 20   9  35  1   
 21   9  36  1   
 22  11  13  1   
 23  11  14  1   
 24  11  15  1   
 25  12  14  1   
 26  12  37  1   
 27  12  38  1   
 28  13  16  ar  
 29  13  17  ar  
 30  14  39  1   
 31  14  40  1   
 32  15  18  1   
 33  15  41  1   
 34  15  42  1   
 35  16  19  ar  
 36  17  18  1   
 37  17  20  ar  
 38  18  43  1   
 39  18  44  1   
 40  19  21  ar  
 41  19  22  1   
 42  20  21  ar  
 43  20  45  1   
 44  22  23  ar  
 45  22  24  ar  
 46  23  25  ar  
 47  23  46  1   
 48  24  26  ar  
 49  24  47  1   
 50  25  27  ar  
 51  25  48  1   
 52  26  27  ar  
 53  26  49  1   
 54  27  50  1   
@<TRIPOS>SUBSTRUCTURE
  1 ****  11 GROUP 4 **** **** 0

# MOE 2024.06 (io_trps.svl 2023.06)
