@<TRIPOS>MOLECULE
NONAME
45 46 1 0 0 
SMALL
USER_CHARGES


@<TRIPOS>ATOM
  1 CL       0.9730     1.0350    -0.5900 Cl    1 <1>  -0.1770 
  2 C        1.7260    -0.4810    -0.1780 C.ar  1 <1>   0.1770 
  3 C        2.5690    -0.5460     0.9140 C.ar  1 <1>  -0.1500 
  4 C        1.4610    -1.5950    -0.9560 C.ar  1 <1>  -0.1500 
  5 C        3.1480    -1.7620     1.2160 C.ar  1 <1>   0.1770 
  6 C        2.0460    -2.8150    -0.6400 C.ar  1 <1>  -0.1440 
  7 CL       4.2150    -1.8850     2.5880 Cl    1 <1>  -0.1770 
  8 C        2.9000    -2.8910     0.4550 C.ar  1 <1>  -0.1500 
  9 C        1.7550    -4.0510    -1.4730 C.3   1 <1>   0.4870 
 10 N        0.9090    -4.9640    -0.6710 N.4   1 <1>  -0.9590 
 11 C        0.8110    -6.3380    -1.2320 C.3   1 <1>   0.3430 
 12 C       -0.4350    -4.4140    -0.3240 C.3   1 <1>   0.3430 
 13 C        0.4060    -7.3340    -0.1190 C.3   1 <1>   0.0000 
 14 C       -1.2920    -5.4800     0.3820 C.3   1 <1>  -0.1600 
 15 C       -0.4410    -6.6120     0.9820 C.3   1 <1>   0.2000 
 16 C       -0.5080    -8.4040    -0.7660 C.3   1 <1>   0.1200 
 17 C        1.6600    -8.0740     0.4540 C.3   1 <1>  -0.1600 
 18 O        0.3740    -6.0070     1.9290 O.3   1 <1>  -0.6800 
 19 O        0.0270    -8.8120    -1.9810 O.3   1 <1>  -0.6800 
 20 C        2.9350    -7.2380     0.6960 C.3   1 <1>  -0.1600 
 21 C        4.0470    -8.1140     1.2800 C.3   1 <1>  -0.2400 
 22 H        2.7680     0.3250     1.5110 H     1 <1>   0.1500 
 23 H        0.8000    -1.4860    -1.7990 H     1 <1>   0.1500 
 24 H        3.3820    -3.8130     0.7340 H     1 <1>   0.1500 
 25 H        2.6840    -4.5360    -1.7250 H     1 <1>   0.0800 
 26 H        1.2510    -3.7790    -2.3860 H     1 <1>   0.0800 
 27 H        1.3630    -5.0980     0.2520 H     1 <1>   0.4500 
 28 H        0.0710    -6.3520    -2.0160 H     1 <1>   0.0800 
 29 H        1.7480    -6.6520    -1.6620 H     1 <1>   0.0800 
 30 H       -0.3060    -3.5730     0.3390 H     1 <1>   0.0800 
 31 H       -0.9420    -4.0700    -1.2100 H     1 <1>   0.0800 
 32 H       -1.9850    -5.8890    -0.3310 H     1 <1>   0.0800 
 33 H       -1.8850    -5.0140     1.1480 H     1 <1>   0.0800 
 34 H       -1.0580    -7.3260     1.5040 H     1 <1>   0.0800 
 35 H       -1.4940    -8.0200    -0.9650 H     1 <1>   0.0800 
 36 H       -0.5960    -9.2670    -0.1260 H     1 <1>   0.0800 
 37 H        1.3820    -8.5580     1.3750 H     1 <1>   0.0800 
 38 H        1.9390    -8.8600    -0.2280 H     1 <1>   0.0800 
 39 H       -0.0590    -6.0030     2.8100 H     1 <1>   0.4000 
 40 H       -0.4360    -9.6080    -2.3220 H     1 <1>   0.4000 
 41 H        3.2960    -6.8190    -0.2260 H     1 <1>   0.0800 
 42 H        2.7510    -6.4350     1.3860 H     1 <1>   0.0800 
 43 H        4.2910    -8.9180     0.6080 H     1 <1>   0.0800 
 44 H        3.7410    -8.5330     2.2230 H     1 <1>   0.0800 
 45 H        4.9340    -7.5270     1.4440 H     1 <1>   0.0800 
@<TRIPOS>BOND
  1   1   2  1   
  2   2   3  ar  
  3   2   4  ar  
  4   3   5  ar  
  5   3  22  1   
  6   4   6  ar  
  7   4  23  1   
  8   5   7  1   
  9   5   8  ar  
 10   6   8  ar  
 11   6   9  1   
 12   8  24  1   
 13   9  10  1   
 14   9  25  1   
 15   9  26  1   
 16  10  11  1   
 17  10  12  1   
 18  10  27  1   
 19  11  13  1   
 20  11  28  1   
 21  11  29  1   
 22  12  14  1   
 23  12  30  1   
 24  12  31  1   
 25  13  15  1   
 26  13  16  1   
 27  13  17  1   
 28  14  15  1   
 29  14  32  1   
 30  14  33  1   
 31  15  18  1   
 32  15  34  1   
 33  16  19  1   
 34  16  35  1   
 35  16  36  1   
 36  17  20  1   
 37  17  37  1   
 38  17  38  1   
 39  18  39  1   
 40  19  40  1   
 41  20  21  1   
 42  20  41  1   
 43  20  42  1   
 44  21  43  1   
 45  21  44  1   
 46  21  45  1   
@<TRIPOS>SUBSTRUCTURE
  1 ****  10 GROUP 4 **** **** 0

# MOE 2024.06 (io_trps.svl 2023.06)
