@<TRIPOS>MOLECULE
NONAME
49 51 1 0 0 
SMALL
USER_CHARGES


@<TRIPOS>ATOM
  1 F        2.1800     0.0530    -1.9710 F     1 <1>  -0.1900 
  2 C        2.4680    -0.6230    -0.8890 C.ar  1 <1>   0.1900 
  3 C        3.3640    -0.0900     0.0240 C.ar  1 <1>  -0.1440 
  4 C        1.8540    -1.8460    -0.7090 C.ar  1 <1>  -0.1500 
  5 C        3.6390    -0.8330     1.1610 C.ar  1 <1>  -0.1500 
  6 C        4.0240     1.2620    -0.2060 C.3   1 <1>  -0.0960 
  7 C        2.1360    -2.5900     0.4320 C.ar  1 <1>   0.1170 
  8 C        3.0320    -2.0630     1.3590 C.ar  1 <1>  -0.1500 
  9 N        1.5440    -3.8360     0.7030 N.am  1 <1>  -0.5470 
 10 C        1.0180    -4.7590    -0.1660 C.2   1 <1>   0.5690 
 11 O        1.0350    -4.6360    -1.3690 O.2   1 <1>  -0.5700 
 12 C        0.3540    -6.0380     0.3730 C.3   1 <1>   0.4040 
 13 N       -0.3720    -6.7960    -0.7230 N.4   1 <1>  -0.9590 
 14 C       -1.8500    -6.6100    -0.8030 C.3   1 <1>   0.4230 
 15 C        0.0180    -8.2380    -0.7670 C.3   1 <1>   0.2630 
 16 C       -2.6100    -7.1040     0.4260 C.3   1 <1>  -0.1600 
 17 C       -2.2790    -5.1540    -0.9490 C.3   1 <1>  -0.1600 
 18 C       -3.9810    -6.4220     0.3180 C.3   1 <1>  -0.0800 
 19 C       -3.7570    -5.1490    -0.5390 C.3   1 <1>  -0.0800 
 20 C       -4.6650    -6.2030     1.6850 C.3   1 <1>   0.1400 
 21 C       -4.1940    -3.8350     0.1420 C.3   1 <1>  -0.0990 
 22 N       -5.6900    -5.1500     1.5630 N.am  1 <1>  -0.7300 
 23 C       -5.5180    -4.0170     0.8510 C.2   1 <1>   0.5690 
 24 O       -6.3740    -3.1760     0.7840 O.2   1 <1>  -0.5700 
 25 H        1.1670    -2.1940    -1.4550 H     1 <1>   0.1500 
 26 H        4.3300    -0.4570     1.8970 H     1 <1>   0.1500 
 27 H        4.6870     1.5120     0.6020 H     1 <1>   0.0800 
 28 H        3.2730     2.0280    -0.2830 H     1 <1>   0.0800 
 29 H        4.5900     1.2410    -1.1210 H     1 <1>   0.0800 
 30 H        3.2700    -2.6160     2.2500 H     1 <1>   0.1500 
 31 H        1.5740    -4.0790     1.6930 H     1 <1>   0.3700 
 32 H       -0.3290    -5.7730     1.1600 H     1 <1>   0.0800 
 33 H        1.1280    -6.6590     0.7900 H     1 <1>   0.0800 
 34 H        0.0040    -6.3420    -1.5830 H     1 <1>   0.4500 
 35 H       -2.2260    -7.1450    -1.6610 H     1 <1>   0.0800 
 36 H       -0.3150    -8.7460     0.1230 H     1 <1>   0.0800 
 37 H        1.0900    -8.3340    -0.8420 H     1 <1>   0.0800 
 38 H       -0.4250    -8.7180    -1.6250 H     1 <1>   0.0800 
 39 H       -2.7150    -8.1750     0.4260 H     1 <1>   0.0800 
 40 H       -2.1230    -6.7870     1.3290 H     1 <1>   0.0800 
 41 H       -1.7300    -4.5150    -0.2830 H     1 <1>   0.0800 
 42 H       -2.1550    -4.8040    -1.9590 H     1 <1>   0.0800 
 43 H       -4.6280    -7.0720    -0.2500 H     1 <1>   0.0800 
 44 H       -4.3580    -5.2580    -1.4280 H     1 <1>   0.0800 
 45 H       -3.9480    -5.8890     2.4240 H     1 <1>   0.0800 
 46 H       -5.1230    -7.1180     2.0220 H     1 <1>   0.0800 
 47 H       -4.2860    -3.0500    -0.5870 H     1 <1>   0.0800 
 48 H       -3.4770    -3.5260     0.8800 H     1 <1>   0.0800 
 49 H       -6.5720    -5.2530     2.0720 H     1 <1>   0.3700 
@<TRIPOS>BOND
  1   1   2  1   
  2   2   3  ar  
  3   2   4  ar  
  4   3   5  ar  
  5   3   6  1   
  6   4   7  ar  
  7   4  25  1   
  8   5   8  ar  
  9   5  26  1   
 10   6  27  1   
 11   6  28  1   
 12   6  29  1   
 13   7   8  ar  
 14   7   9  1   
 15   8  30  1   
 16   9  10  am  
 17   9  31  1   
 18  10  11  2   
 19  10  12  1   
 20  12  13  1   
 21  12  32  1   
 22  12  33  1   
 23  13  14  1   
 24  13  15  1   
 25  13  34  1   
 26  14  16  1   
 27  14  17  1   
 28  14  35  1   
 29  15  36  1   
 30  15  37  1   
 31  15  38  1   
 32  16  18  1   
 33  16  39  1   
 34  16  40  1   
 35  17  19  1   
 36  17  41  1   
 37  17  42  1   
 38  18  19  1   
 39  18  20  1   
 40  18  43  1   
 41  19  21  1   
 42  19  44  1   
 43  20  22  1   
 44  20  45  1   
 45  20  46  1   
 46  21  23  1   
 47  21  47  1   
 48  21  48  1   
 49  22  23  am  
 50  22  49  1   
 51  23  24  2   
@<TRIPOS>SUBSTRUCTURE
  1 ****  10 GROUP 4 **** **** 0

# MOE 2024.06 (io_trps.svl 2023.06)
