@<TRIPOS>MOLECULE
NONAME
53 55 1 0 0 
SMALL
USER_CHARGES


@<TRIPOS>ATOM
  1 O       -2.4580     4.6430    -1.1240 O.2   1 <1>  -0.5700 
  2 C       -1.6920     3.8940    -0.5610 C.2   1 <1>   0.6900 
  3 N       -1.8760     3.3890     0.6900 N.am  1 <1>  -0.4200 
  4 N       -0.5430     3.4540    -1.1060 N.am  1 <1>  -0.7300 
  5 C       -0.8080     2.6150     1.0290 C.2   1 <1>   0.5690 
  6 C       -3.0920     3.5860     1.5220 C.3   1 <1>   0.2010 
  7 C        0.1880     2.6140    -0.1490 C.3   1 <1>   0.3610 
  8 O       -0.6600     2.0280     2.0740 O.2   1 <1>  -0.5700 
  9 C       -3.8920     2.2970     1.7220 C.2   1 <1>   0.5690 
 10 C        0.3850     1.2280    -0.7650 C.3   1 <1>  -0.2400 
 11 C        1.5200     3.2870     0.1850 C.3   1 <1>  -0.2400 
 12 O       -4.1330     1.9680     2.8610 O.2   1 <1>  -0.5700 
 13 N       -4.3390     1.5380     0.6640 N.am  1 <1>  -0.6600 
 14 C       -4.8030     0.1430     0.9230 C.3   1 <1>   0.1400 
 15 C       -4.4380     2.0380    -0.7400 C.3   1 <1>   0.1400 
 16 C       -6.2940     0.1100     1.2890 C.3   1 <1>   0.1400 
 17 C       -5.7200     1.6030    -1.4640 C.3   1 <1>  -0.1600 
 18 N       -7.1750     0.3410     0.0980 N.am  1 <1>  -0.6600 
 19 C       -6.9780     1.6500    -0.5920 C.3   1 <1>   0.1400 
 20 C       -8.0880    -0.5630    -0.3960 C.2   1 <1>   0.5690 
 21 O       -8.5910    -0.4040    -1.4840 O.2   1 <1>  -0.5700 
 22 C       -8.4670    -1.8090     0.4050 C.3   1 <1>   0.0440 
 23 C       -9.7710    -2.4910    -0.0090 C.ar  1 <1>  -0.1430 
 24 C       -9.8860    -3.1200    -1.2420 C.ar  1 <1>   0.1600 
 25 C      -10.8580    -2.5120     0.8440 C.ar  1 <1>  -0.1500 
 26 N      -10.9580    -3.7690    -1.6710 N.ar  1 <1>  -0.6200 
 27 C      -11.9880    -3.1710     0.4090 C.ar  1 <1>  -0.1500 
 28 C      -11.9840    -3.7740    -0.8360 C.ar  1 <1>   0.1600 
 29 H       -0.1200     3.8740    -1.9330 H     1 <1>   0.3700 
 30 H       -3.7270     4.3280     1.0750 H     1 <1>   0.0800 
 31 H       -2.7880     3.9470     2.4880 H     1 <1>   0.0800 
 32 H       -0.5650     0.7950    -1.0240 H     1 <1>   0.0800 
 33 H        0.8660     0.5810    -0.0520 H     1 <1>   0.0800 
 34 H        1.0010     1.2870    -1.6440 H     1 <1>   0.0800 
 35 H        1.3550     4.2760     0.5750 H     1 <1>   0.0800 
 36 H        2.1450     3.3480    -0.6880 H     1 <1>   0.0800 
 37 H        2.0360     2.7130     0.9350 H     1 <1>   0.0800 
 38 H       -4.2400    -0.2580     1.7480 H     1 <1>   0.0800 
 39 H       -4.6130    -0.4830     0.0690 H     1 <1>   0.0800 
 40 H       -3.5800     1.7060    -1.2980 H     1 <1>   0.0800 
 41 H       -4.4290     3.1130    -0.7300 H     1 <1>   0.0800 
 42 H       -6.4940     0.8560     2.0390 H     1 <1>   0.0800 
 43 H       -6.4950    -0.8480     1.7280 H     1 <1>   0.0800 
 44 H       -5.6020     0.6200    -1.8840 H     1 <1>   0.0800 
 45 H       -5.8600     2.2740    -2.2930 H     1 <1>   0.0800 
 46 H       -7.8310     1.8570    -1.2170 H     1 <1>   0.0800 
 47 H       -6.9120     2.4430     0.1340 H     1 <1>   0.0800 
 48 H       -8.5480    -1.5340     1.4390 H     1 <1>   0.0800 
 49 H       -7.6660    -2.5180     0.3130 H     1 <1>   0.0800 
 50 H       -9.0460    -3.0870    -1.9160 H     1 <1>   0.1500 
 51 H      -10.8360    -2.0360     1.8090 H     1 <1>   0.1500 
 52 H      -12.8650    -3.2190     1.0270 H     1 <1>   0.1500 
 53 H      -12.8710    -4.2880    -1.1640 H     1 <1>   0.1500 
@<TRIPOS>BOND
  1   1   2  2   
  2   2   3  am  
  3   2   4  am  
  4   3   5  am  
  5   3   6  1   
  6   4   7  1   
  7   4  29  1   
  8   5   7  1   
  9   5   8  2   
 10   6   9  1   
 11   6  30  1   
 12   6  31  1   
 13   7  10  1   
 14   7  11  1   
 15   9  12  2   
 16   9  13  am  
 17  10  32  1   
 18  10  33  1   
 19  10  34  1   
 20  11  35  1   
 21  11  36  1   
 22  11  37  1   
 23  13  14  1   
 24  13  15  1   
 25  14  16  1   
 26  14  38  1   
 27  14  39  1   
 28  15  17  1   
 29  15  40  1   
 30  15  41  1   
 31  16  18  1   
 32  16  42  1   
 33  16  43  1   
 34  17  19  1   
 35  17  44  1   
 36  17  45  1   
 37  18  19  1   
 38  18  20  am  
 39  19  46  1   
 40  19  47  1   
 41  20  21  2   
 42  20  22  1   
 43  22  23  1   
 44  22  48  1   
 45  22  49  1   
 46  23  24  ar  
 47  23  25  ar  
 48  24  26  ar  
 49  24  50  1   
 50  25  27  ar  
 51  25  51  1   
 52  26  28  ar  
 53  27  28  ar  
 54  27  52  1   
 55  28  53  1   
@<TRIPOS>SUBSTRUCTURE
  1 ****  14 GROUP 4 **** **** 0

# MOE 2024.06 (io_trps.svl 2023.06)
