@<TRIPOS>MOLECULE
NONAME
46 49 1 0 0 
SMALL
USER_CHARGES


@<TRIPOS>ATOM
  1 O       -3.6670     3.3280    -0.4430 O.2   1 <1>  -0.5700 
  2 C       -3.0570     2.3400    -0.0700 C.2   1 <1>   0.5440 
  3 N       -3.7450     1.1510    -0.0050 N.am  1 <1>  -0.6600 
  4 C       -1.6770     2.4810     0.3430 C.ar  1 <1>   0.0860 
  5 C       -4.6970     0.8140    -1.0900 C.3   1 <1>   0.1400 
  6 C       -3.3090    -0.0940     0.6770 C.3   1 <1>   0.1400 
  7 C       -0.6180     1.7510    -0.2290 C.ar  1 <1>   0.0410 
  8 C       -1.3860     3.3970     1.3550 C.ar  1 <1>  -0.1500 
  9 C       -4.9710    -0.6900    -0.9830 C.3   1 <1>   0.2000 
 10 C       -3.7570    -1.2410    -0.2320 C.3   1 <1>  -0.0800 
 11 C       -0.8080     0.7830    -1.2840 C.2   1 <1>   0.6970 
 12 C        0.6740     1.9610     0.2630 C.ar  1 <1>  -0.1500 
 13 C       -0.1020     3.5910     1.8210 C.ar  1 <1>  -0.1500 
 14 O       -6.1320    -0.9260    -0.2270 O.3   1 <1>  -0.5600 
 15 C       -4.0120    -2.5550     0.5300 C.3   1 <1>   0.0200 
 16 N       -1.5480     0.9410    -2.3440 N.2   1 <1>  -0.6190 
 17 N       -0.2320    -0.3900    -1.2650 N.2   1 <1>  -0.6190 
 18 C        0.9370     2.8640     1.2720 C.ar  1 <1>  -0.1500 
 19 C       -7.3230    -0.8180    -0.9380 C.3   1 <1>   0.0400 
 20 C       -2.7440    -3.1450     1.1200 C.2   1 <1>  -0.0400 
 21 N       -1.4250    -0.1710    -2.9700 N.2   1 <1>  -0.2500 
 22 N       -0.6340    -0.9790    -2.3360 N.2   1 <1>  -0.2500 
 23 O       -2.8110    -3.9400     2.1560 O.3   1 <1>  -0.0190 
 24 C       -1.4520    -3.0260     0.7800 C.2   1 <1>  -0.1500 
 25 N       -1.6320    -4.3520     2.5310 N.2   1 <1>  -0.4100 
 26 C       -0.7950    -3.8150     1.7160 C.2   1 <1>   0.1080 
 27 C        0.7030    -4.0100     1.7620 C.3   1 <1>  -0.0590 
 28 H       -5.5910     1.4030    -1.0010 H     1 <1>   0.0800 
 29 H       -4.2230     1.0260    -2.0340 H     1 <1>   0.0800 
 30 H       -2.2460    -0.1230     0.8390 H     1 <1>   0.0800 
 31 H       -3.8140    -0.1540     1.6250 H     1 <1>   0.0800 
 32 H       -2.1970     3.9650     1.7770 H     1 <1>   0.1500 
 33 H       -5.0740    -1.1530    -1.9490 H     1 <1>   0.0800 
 34 H       -2.9820    -1.4020    -0.9600 H     1 <1>   0.0800 
 35 H        1.4820     1.3920    -0.1690 H     1 <1>   0.1500 
 36 H        0.0900     4.3040     2.6050 H     1 <1>   0.1500 
 37 H       -4.4500    -3.2780    -0.1330 H     1 <1>   0.0800 
 38 H       -4.7110    -2.3740     1.3280 H     1 <1>   0.0800 
 39 H        1.9440     3.0030     1.6260 H     1 <1>   0.1500 
 40 H       -8.1340    -1.0200    -0.2620 H     1 <1>   0.0800 
 41 H       -7.3260    -1.5400    -1.7360 H     1 <1>   0.0800 
 42 H       -7.4210     0.1800    -1.3300 H     1 <1>   0.0800 
 43 H       -0.9960    -2.4720    -0.0210 H     1 <1>   0.1500 
 44 H        1.1970    -3.0870     1.5170 H     1 <1>   0.0800 
 45 H        0.9880    -4.7610     1.0500 H     1 <1>   0.0800 
 46 H        1.0030    -4.3210     2.7450 H     1 <1>   0.0800 
@<TRIPOS>BOND
  1   1   2  2   
  2   2   3  am  
  3   2   4  1   
  4   3   5  1   
  5   3   6  1   
  6   4   7  ar  
  7   4   8  ar  
  8   5   9  1   
  9   5  28  1   
 10   5  29  1   
 11   6  10  1   
 12   6  30  1   
 13   6  31  1   
 14   7  11  1   
 15   7  12  ar  
 16   8  13  ar  
 17   8  32  1   
 18   9  10  1   
 19   9  14  1   
 20   9  33  1   
 21  10  15  1   
 22  10  34  1   
 23  11  16  2   
 24  11  17  1   
 25  12  18  ar  
 26  12  35  1   
 27  13  18  ar  
 28  13  36  1   
 29  14  19  1   
 30  15  20  1   
 31  15  37  1   
 32  15  38  1   
 33  16  21  1   
 34  17  22  2   
 35  18  39  1   
 36  19  40  1   
 37  19  41  1   
 38  19  42  1   
 39  20  23  1   
 40  20  24  2   
 41  21  22  1   
 42  23  25  1   
 43  24  26  1   
 44  24  43  1   
 45  25  26  2   
 46  26  27  1   
 47  27  44  1   
 48  27  45  1   
 49  27  46  1   
@<TRIPOS>SUBSTRUCTURE
  1 ****   6 GROUP 4 **** **** 0

# MOE 2024.06 (io_trps.svl 2023.06)
