@<TRIPOS>MOLECULE
NONAME
51 52 1 0 0 
SMALL
USER_CHARGES


@<TRIPOS>ATOM
  1 O       -1.0360    -1.2170     0.2990 O.2   1 <1>  -0.5700 
  2 C       -0.3660    -1.8970     1.0470 C.2   1 <1>   0.5440 
  3 N       -0.8090    -1.9800     2.3250 N.am  1 <1>  -0.8000 
  4 C        0.8620    -2.5390     0.6510 C.ar  1 <1>   0.0860 
  5 C        0.9020    -3.5810    -0.2930 C.ar  1 <1>   0.4100 
  6 C        2.0580    -2.1570     1.2390 C.ar  1 <1>  -0.1500 
  7 N        2.0140    -4.2430    -0.6070 N.ar  1 <1>  -0.6200 
  8 N       -0.2340    -4.0090    -0.9610 N.pl3 1 <1>  -0.8380 
  9 C        3.2150    -2.8220     0.8950 C.ar  1 <1>  -0.1430 
 10 C        3.1330    -3.8600    -0.0280 C.ar  1 <1>   0.1670 
 11 C       -0.4600    -5.4550    -1.2010 C.3   1 <1>   0.2090 
 12 C       -0.7710    -3.1080    -2.0210 C.3   1 <1>   0.1290 
 13 C        4.5340    -2.3990     1.5310 C.3   1 <1>  -0.0970 
 14 C        4.3720    -4.6330    -0.4420 C.3   1 <1>  -0.0970 
 15 C       -0.5630    -6.2170     0.1380 C.3   1 <1>  -0.0800 
 16 C       -0.9030    -7.7120    -0.0140 C.3   1 <1>   0.5030 
 17 C       -1.6980    -5.6680     1.0220 C.3   1 <1>  -0.1600 
 18 N       -2.3840    -7.7180    -0.0290 N.4   1 <1>  -0.9590 
 19 C       -0.3690    -8.4960     1.1970 C.3   1 <1>  -0.2400 
 20 C       -0.3910    -8.3710    -1.2990 C.3   1 <1>  -0.2400 
 21 C       -2.8360    -6.6760     0.9340 C.3   1 <1>   0.3430 
 22 C       -3.0610    -9.0350     0.1910 C.3   1 <1>   0.2630 
 23 H       -1.6270    -1.4290     2.5910 H     1 <1>   0.3700 
 24 H       -0.2790    -2.4160     3.0780 H     1 <1>   0.3700 
 25 H        2.0680    -1.3510     1.9510 H     1 <1>   0.1500 
 26 H        0.3580    -5.8350    -1.7920 H     1 <1>   0.0800 
 27 H       -1.3680    -5.5770    -1.7640 H     1 <1>   0.0800 
 28 H       -0.2530    -2.1630    -2.0080 H     1 <1>   0.0800 
 29 H       -1.8170    -2.9230    -1.8460 H     1 <1>   0.0800 
 30 H       -0.6390    -3.5510    -2.9920 H     1 <1>   0.0800 
 31 H        4.4040    -1.5270     2.1460 H     1 <1>   0.0800 
 32 H        5.2550    -2.1660     0.7690 H     1 <1>   0.0800 
 33 H        4.9180    -3.1930     2.1470 H     1 <1>   0.0800 
 34 H        4.1030    -5.4790    -1.0480 H     1 <1>   0.0800 
 35 H        4.8970    -4.9910     0.4240 H     1 <1>   0.0800 
 36 H        5.0200    -3.9970    -1.0160 H     1 <1>   0.0800 
 37 H        0.3850    -6.1140     0.6360 H     1 <1>   0.0800 
 38 H       -2.0380    -4.6920     0.7200 H     1 <1>   0.0800 
 39 H       -1.3700    -5.5930     2.0440 H     1 <1>   0.0800 
 40 H       -2.6400    -7.3790    -0.9630 H     1 <1>   0.4500 
 41 H       -0.7650    -8.1230     2.1240 H     1 <1>   0.0800 
 42 H        0.7020    -8.3990     1.2410 H     1 <1>   0.0800 
 43 H       -0.5840    -9.5460     1.1190 H     1 <1>   0.0800 
 44 H       -0.8330    -7.9390    -2.1780 H     1 <1>   0.0800 
 45 H       -0.5950    -9.4260    -1.2980 H     1 <1>   0.0800 
 46 H        0.6760    -8.2490    -1.3650 H     1 <1>   0.0800 
 47 H       -3.7460    -6.2050     0.5960 H     1 <1>   0.0800 
 48 H       -3.0020    -7.1120     1.9060 H     1 <1>   0.0800 
 49 H       -2.8460    -9.4080     1.1790 H     1 <1>   0.0800 
 50 H       -2.7180    -9.7570    -0.5320 H     1 <1>   0.0800 
 51 H       -4.1290    -8.9280     0.0890 H     1 <1>   0.0800 
@<TRIPOS>BOND
  1   1   2  2   
  2   2   3  am  
  3   2   4  1   
  4   3  23  1   
  5   3  24  1   
  6   4   5  ar  
  7   4   6  ar  
  8   5   7  ar  
  9   5   8  1   
 10   6   9  ar  
 11   6  25  1   
 12   7  10  ar  
 13   8  11  1   
 14   8  12  1   
 15   9  10  ar  
 16   9  13  1   
 17  10  14  1   
 18  11  15  1   
 19  11  26  1   
 20  11  27  1   
 21  12  28  1   
 22  12  29  1   
 23  12  30  1   
 24  13  31  1   
 25  13  32  1   
 26  13  33  1   
 27  14  34  1   
 28  14  35  1   
 29  14  36  1   
 30  15  16  1   
 31  15  17  1   
 32  15  37  1   
 33  16  18  1   
 34  16  19  1   
 35  16  20  1   
 36  17  21  1   
 37  17  38  1   
 38  17  39  1   
 39  18  21  1   
 40  18  22  1   
 41  18  40  1   
 42  19  41  1   
 43  19  42  1   
 44  19  43  1   
 45  20  44  1   
 46  20  45  1   
 47  20  46  1   
 48  21  47  1   
 49  21  48  1   
 50  22  49  1   
 51  22  50  1   
 52  22  51  1   
@<TRIPOS>SUBSTRUCTURE
  1 ****   5 GROUP 4 **** **** 0

# MOE 2024.06 (io_trps.svl 2023.06)
