@<TRIPOS>MOLECULE
NONAME
50 52 1 0 0 
SMALL
USER_CHARGES


@<TRIPOS>ATOM
  1 O       -1.1510    -2.5430     0.4880 O.2   1 <1>  -0.5700 
  2 C       -2.2230    -2.0800     0.1940 C.2   1 <1>   0.5690 
  3 N       -2.4300    -0.7520     0.3610 N.am  1 <1>  -0.7300 
  4 C       -3.2820    -3.0130    -0.3600 C.3   1 <1>  -0.0990 
  5 C       -3.6970     0.0340     0.3000 C.3   1 <1>   0.1400 
  6 C       -4.5520    -3.0620     0.4890 C.3   1 <1>   0.1400 
  7 C       -4.8390    -0.6640     1.0600 C.3   1 <1>   0.2200 
  8 N       -5.3460    -1.8240     0.2670 N.am  1 <1>  -0.6600 
  9 C       -5.9610     0.2950     1.4770 C.3   1 <1>  -0.2400 
 10 C       -6.2110    -1.6950    -0.8000 C.2   1 <1>   0.5690 
 11 O       -6.4800    -0.6170    -1.2780 O.2   1 <1>  -0.5700 
 12 C       -6.8510    -2.9080    -1.4690 C.3   1 <1>   0.0440 
 13 C       -7.9480    -3.5430    -0.6110 C.ar  1 <1>  -0.1440 
 14 C       -7.8800    -4.8620    -0.1660 C.ar  1 <1>   0.0820 
 15 C       -9.0510    -2.7720    -0.2750 C.ar  1 <1>  -0.1500 
 16 O       -6.7870    -5.5960    -0.4850 O.3   1 <1>  -0.3630 
 17 C       -8.9220    -5.3960     0.5860 C.ar  1 <1>  -0.1500 
 18 C      -10.0790    -3.3020     0.4850 C.ar  1 <1>  -0.1500 
 19 C       -6.3130    -6.6010     0.3870 C.3   1 <1>   0.2630 
 20 C      -10.0160    -4.6150     0.9130 C.ar  1 <1>  -0.1500 
 21 C       -4.7960    -6.6420     0.2830 C.ar  1 <1>  -0.1440 
 22 C       -4.1860    -6.9020    -0.9340 C.ar  1 <1>  -0.1500 
 23 C       -4.0090    -6.4060     1.4010 C.ar  1 <1>  -0.1500 
 24 C       -2.8050    -6.9250    -1.0350 C.ar  1 <1>  -0.1500 
 25 C       -2.6290    -6.4260     1.3010 C.ar  1 <1>  -0.1500 
 26 C       -2.0260    -6.6850     0.0830 C.ar  1 <1>  -0.1500 
 27 H       -1.6070    -0.2350     0.6760 H     1 <1>   0.3700 
 28 H       -2.8640    -4.0010    -0.3930 H     1 <1>   0.0800 
 29 H       -3.5130    -2.7310    -1.3700 H     1 <1>   0.0800 
 30 H       -3.9820     0.2010    -0.7250 H     1 <1>   0.0800 
 31 H       -3.5170     0.9920     0.7530 H     1 <1>   0.0800 
 32 H       -4.2990    -3.1670     1.5300 H     1 <1>   0.0800 
 33 H       -5.1290    -3.9220     0.2180 H     1 <1>   0.0800 
 34 H       -4.4270    -1.0390     1.9810 H     1 <1>   0.0800 
 35 H       -6.3040     0.8870     0.6490 H     1 <1>   0.0800 
 36 H       -5.5980     0.9670     2.2320 H     1 <1>   0.0800 
 37 H       -6.7860    -0.2600     1.8850 H     1 <1>   0.0800 
 38 H       -6.0910    -3.6120    -1.7430 H     1 <1>   0.0800 
 39 H       -7.3010    -2.5830    -2.3890 H     1 <1>   0.0800 
 40 H       -9.1130    -1.7490    -0.6070 H     1 <1>   0.1500 
 41 H       -8.8990    -6.4170     0.9150 H     1 <1>   0.1500 
 42 H      -10.9270    -2.6910     0.7390 H     1 <1>   0.1500 
 43 H       -6.7470    -7.5390     0.0890 H     1 <1>   0.0800 
 44 H       -6.6090    -6.3610     1.3930 H     1 <1>   0.0800 
 45 H      -10.8200    -5.0280     1.4980 H     1 <1>   0.1500 
 46 H       -4.7860    -7.0820    -1.8090 H     1 <1>   0.1500 
 47 H       -4.4630    -6.2030     2.3560 H     1 <1>   0.1500 
 48 H       -2.3370    -7.1260    -1.9830 H     1 <1>   0.1500 
 49 H       -2.0210    -6.2370     2.1690 H     1 <1>   0.1500 
 50 H       -0.9530    -6.6960     0.0060 H     1 <1>   0.1500 
@<TRIPOS>BOND
  1   1   2  2   
  2   2   3  am  
  3   2   4  1   
  4   3   5  1   
  5   3  27  1   
  6   4   6  1   
  7   4  28  1   
  8   4  29  1   
  9   5   7  1   
 10   5  30  1   
 11   5  31  1   
 12   6   8  1   
 13   6  32  1   
 14   6  33  1   
 15   7   8  1   
 16   7   9  1   
 17   7  34  1   
 18   8  10  am  
 19   9  35  1   
 20   9  36  1   
 21   9  37  1   
 22  10  11  2   
 23  10  12  1   
 24  12  13  1   
 25  12  38  1   
 26  12  39  1   
 27  13  14  ar  
 28  13  15  ar  
 29  14  16  1   
 30  14  17  ar  
 31  15  18  ar  
 32  15  40  1   
 33  16  19  1   
 34  17  20  ar  
 35  17  41  1   
 36  18  20  ar  
 37  18  42  1   
 38  19  21  1   
 39  19  43  1   
 40  19  44  1   
 41  20  45  1   
 42  21  22  ar  
 43  21  23  ar  
 44  22  24  ar  
 45  22  46  1   
 46  23  25  ar  
 47  23  47  1   
 48  24  26  ar  
 49  24  48  1   
 50  25  26  ar  
 51  25  49  1   
 52  26  50  1   
@<TRIPOS>SUBSTRUCTURE
  1 ****   6 GROUP 4 **** **** 0

# MOE 2024.06 (io_trps.svl 2023.06)
