@<TRIPOS>MOLECULE
NONAME
50 52 1 0 0 
SMALL
USER_CHARGES


@<TRIPOS>ATOM
  1 O       -0.7410     0.0990     1.1540 O.2   1 <1>  -0.5700 
  2 C       -1.5720     0.5790     0.4050 C.2   1 <1>   0.7150 
  3 N       -2.3510    -0.2820    -0.3330 N.am  1 <1>  -0.6600 
  4 C       -1.7220     1.9970     0.2830 C.2   1 <1>  -0.2370 
  5 C       -2.6440    -1.6420     0.2060 C.3   1 <1>   0.1400 
  6 C       -3.0120     0.1080    -1.6050 C.3   1 <1>   0.1400 
  7 N       -0.7520     2.8970    -0.0460 N.pl3 1 <1>   0.3140 
  8 C       -2.8560     2.7290     0.4570 C.2   1 <1>  -0.1500 
  9 C       -3.9750    -2.2420    -0.3170 C.3   1 <1>   0.4230 
 10 C       -4.5320    -0.1180    -1.5680 C.3   1 <1>  -0.1600 
 11 N       -1.2430     4.1520    -0.1020 N.2   1 <1>  -0.7070 
 12 C        0.6910     2.6800    -0.3810 C.3   1 <1>   0.1760 
 13 C       -2.4990     4.0370     0.2090 C.2   1 <1>   0.1390 
 14 N       -4.5010    -3.3340     0.5750 N.4   1 <1>  -0.9590 
 15 C       -5.0420    -1.1420    -0.5050 C.3   1 <1>  -0.1060 
 16 C        0.9070     1.5610    -1.4130 C.3   1 <1>  -0.2400 
 17 C        1.5410     2.4700     0.8800 C.3   1 <1>  -0.2400 
 18 C       -5.7270    -3.9810     0.0460 C.3   1 <1>   0.3430 
 19 C       -3.4950    -4.3170     1.0610 C.3   1 <1>   0.2630 
 20 C       -5.2930    -0.4690     0.8620 C.2   1 <1>   0.9060 
 21 C       -6.3600    -1.7680    -1.0310 C.3   1 <1>  -0.1600 
 22 C       -6.8280    -2.9390    -0.1540 C.3   1 <1>  -0.1600 
 23 O       -5.6860     0.6960     0.9080 O.co2 1 <1>  -0.9000 
 24 O       -5.1540    -1.1470     1.8940 O.co2 1 <1>  -0.9000 
 25 H       -1.8270    -2.2920    -0.0470 H     1 <1>   0.0800 
 26 H       -2.6960    -1.5630     1.2800 H     1 <1>   0.0800 
 27 H       -2.8090     1.1380    -1.8450 H     1 <1>   0.0800 
 28 H       -2.5860    -0.4890    -2.3930 H     1 <1>   0.0800 
 29 H       -3.8370     2.3750     0.7340 H     1 <1>   0.1500 
 30 H       -3.7730    -2.6680    -1.2840 H     1 <1>   0.0800 
 31 H       -5.0120     0.8330    -1.4180 H     1 <1>   0.0800 
 32 H       -4.8200    -0.4290    -2.5560 H     1 <1>   0.0800 
 33 H        1.0260     3.5960    -0.8370 H     1 <1>   0.0800 
 34 H       -3.1770     4.8720     0.2630 H     1 <1>   0.1500 
 35 H       -4.8200    -2.7520     1.3990 H     1 <1>   0.4500 
 36 H        0.7320     0.5930    -0.9830 H     1 <1>   0.0800 
 37 H        1.9230     1.5860    -1.7610 H     1 <1>   0.0800 
 38 H        0.2560     1.7050    -2.2560 H     1 <1>   0.0800 
 39 H        1.2890     1.5490     1.3710 H     1 <1>   0.0800 
 40 H        1.3850     3.2850     1.5640 H     1 <1>   0.0800 
 41 H        2.5830     2.4390     0.6190 H     1 <1>   0.0800 
 42 H       -5.5080    -4.4610    -0.8930 H     1 <1>   0.0800 
 43 H       -6.0750    -4.7280     0.7410 H     1 <1>   0.0800 
 44 H       -3.0790    -4.8680     0.2340 H     1 <1>   0.0800 
 45 H       -3.9570    -5.0090     1.7460 H     1 <1>   0.0800 
 46 H       -2.7000    -3.8100     1.5830 H     1 <1>   0.0800 
 47 H       -7.1270    -1.0100    -1.0520 H     1 <1>   0.0800 
 48 H       -6.2250    -2.1270    -2.0360 H     1 <1>   0.0800 
 49 H       -7.6810    -3.4080    -0.6100 H     1 <1>   0.0800 
 50 H       -7.1450    -2.5710     0.8080 H     1 <1>   0.0800 
@<TRIPOS>BOND
  1   1   2  2   
  2   2   3  am  
  3   2   4  1   
  4   3   5  1   
  5   3   6  1   
  6   4   7  1   
  7   4   8  2   
  8   5   9  1   
  9   5  25  1   
 10   5  26  1   
 11   6  10  1   
 12   6  27  1   
 13   6  28  1   
 14   7  11  1   
 15   7  12  1   
 16   8  13  1   
 17   8  29  1   
 18   9  14  1   
 19   9  15  1   
 20   9  30  1   
 21  10  15  1   
 22  10  31  1   
 23  10  32  1   
 24  11  13  2   
 25  12  16  1   
 26  12  17  1   
 27  12  33  1   
 28  13  34  1   
 29  14  18  1   
 30  14  19  1   
 31  14  35  1   
 32  15  20  1   
 33  15  21  1   
 34  16  36  1   
 35  16  37  1   
 36  16  38  1   
 37  17  39  1   
 38  17  40  1   
 39  17  41  1   
 40  18  22  1   
 41  18  42  1   
 42  18  43  1   
 43  19  44  1   
 44  19  45  1   
 45  19  46  1   
 46  20  23  ar  
 47  20  24  ar  
 48  21  22  1   
 49  21  47  1   
 50  21  48  1   
 51  22  49  1   
 52  22  50  1   
@<TRIPOS>SUBSTRUCTURE
  1 ****   3 GROUP 4 **** **** 0

# MOE 2024.06 (io_trps.svl 2023.06)
