@<TRIPOS>MOLECULE
NONAME
42 44 1 0 0 
SMALL
USER_CHARGES


@<TRIPOS>ATOM
  1 S       -1.9420    -0.3870     2.3100 S.3   1 <1>  -0.0800 
  2 C       -2.1250     0.8930     1.1300 C.2   1 <1>   0.1980 
  3 C       -2.0820    -1.5490     1.0250 C.2   1 <1>  -0.1100 
  4 N       -2.2760     0.4880    -0.0660 N.2   1 <1>  -0.5650 
  5 C       -2.0880     2.3150     1.6370 C.3   1 <1>  -0.0600 
  6 C       -2.2520    -0.8970    -0.1370 C.2   1 <1>   0.0460 
  7 C       -2.4230    -1.5130    -1.5150 C.3   1 <1>   0.0820 
  8 C       -2.8500    -2.9690    -1.4490 C.2   1 <1>   0.5690 
  9 O       -2.0440    -3.8150    -1.7570 O.2   1 <1>  -0.5700 
 10 N       -4.1180    -3.3050    -1.0550 N.am  1 <1>  -0.6600 
 11 C       -5.1860    -2.3650    -0.6200 C.3   1 <1>   0.1400 
 12 C       -4.5700    -4.7110    -0.9230 C.3   1 <1>   0.1400 
 13 C       -6.4050    -3.2500    -0.3650 C.3   1 <1>   0.2000 
 14 C       -5.8450    -4.6420    -0.0820 C.3   1 <1>  -0.0800 
 15 O       -7.1460    -2.8010     0.7160 O.3   1 <1>  -0.6800 
 16 C       -6.8430    -5.7700    -0.3830 C.3   1 <1>   0.0210 
 17 C       -6.1990    -7.1300    -0.2030 C.2   1 <1>   0.1080 
 18 N       -5.7270    -7.5410     0.9330 N.2   1 <1>  -0.7070 
 19 C       -6.0310    -8.0710    -1.2130 C.2   1 <1>  -0.1500 
 20 N       -5.2410    -8.7700     0.6750 N.pl3 1 <1>   0.3000 
 21 C       -5.4110    -9.1130    -0.6190 C.2   1 <1>  -0.3320 
 22 C       -4.9640   -10.4340    -1.2170 C.3   1 <1>  -0.0600 
 23 H       -2.0200    -2.5930     1.2740 H     1 <1>   0.1500 
 24 H       -2.2110     2.9960     0.8150 H     1 <1>   0.0800 
 25 H       -1.1450     2.5070     2.1130 H     1 <1>   0.0800 
 26 H       -2.8820     2.4710     2.3430 H     1 <1>   0.0800 
 27 H       -1.4940    -1.4360    -2.0470 H     1 <1>   0.0800 
 28 H       -3.1610    -0.9610    -2.0640 H     1 <1>   0.0800 
 29 H       -4.8790    -1.8690     0.2850 H     1 <1>   0.0800 
 30 H       -5.3950    -1.6430    -1.3890 H     1 <1>   0.0800 
 31 H       -4.7730    -5.1060    -1.9030 H     1 <1>   0.0800 
 32 H       -3.8170    -5.3170    -0.4450 H     1 <1>   0.0800 
 33 H       -7.0400    -3.2500    -1.2340 H     1 <1>   0.0800 
 34 H       -5.5430    -4.7080     0.9500 H     1 <1>   0.0800 
 35 H       -6.6410    -2.9190     1.5450 H     1 <1>   0.4000 
 36 H       -7.2110    -5.6810    -1.3890 H     1 <1>   0.0800 
 37 H       -7.6810    -5.6950     0.2870 H     1 <1>   0.0800 
 38 H       -6.3370    -7.9670    -2.2390 H     1 <1>   0.1500 
 39 H       -4.8000    -9.3460     1.4020 H     1 <1>   0.2700 
 40 H       -5.2120   -10.4690    -2.2630 H     1 <1>   0.0800 
 41 H       -5.4560   -11.2520    -0.7210 H     1 <1>   0.0800 
 42 H       -3.9000   -10.5480    -1.1130 H     1 <1>   0.0800 
@<TRIPOS>BOND
  1   1   2  1   
  2   1   3  1   
  3   2   4  2   
  4   2   5  1   
  5   3   6  2   
  6   3  23  1   
  7   4   6  1   
  8   5  24  1   
  9   5  25  1   
 10   5  26  1   
 11   6   7  1   
 12   7   8  1   
 13   7  27  1   
 14   7  28  1   
 15   8   9  2   
 16   8  10  am  
 17  10  11  1   
 18  10  12  1   
 19  11  13  1   
 20  11  29  1   
 21  11  30  1   
 22  12  14  1   
 23  12  31  1   
 24  12  32  1   
 25  13  14  1   
 26  13  15  1   
 27  13  33  1   
 28  14  16  1   
 29  14  34  1   
 30  15  35  1   
 31  16  17  1   
 32  16  36  1   
 33  16  37  1   
 34  17  18  2   
 35  17  19  1   
 36  18  20  1   
 37  19  21  2   
 38  19  38  1   
 39  20  21  1   
 40  20  39  1   
 41  21  22  1   
 42  22  40  1   
 43  22  41  1   
 44  22  42  1   
@<TRIPOS>SUBSTRUCTURE
  1 ****  10 GROUP 4 **** **** 0

# MOE 2024.06 (io_trps.svl 2023.06)
