@<TRIPOS>MOLECULE
NONAME
53 56 1 0 0 
SMALL
USER_CHARGES


@<TRIPOS>ATOM
  1 O        0.7880     0.3130     0.6320 O.co2 1 <1>  -0.9000 
  2 C        1.9390    -0.0570     0.9300 C.2   1 <1>   0.9790 
  3 O        2.0700    -1.0780     1.6310 O.co2 1 <1>  -0.9000 
  4 C        3.1040     0.6890     0.4730 C.ar  1 <1>  -0.1790 
  5 C        4.4020     0.3060     0.8200 C.ar  1 <1>  -0.1500 
  6 C        2.9790     1.8230    -0.3330 C.ar  1 <1>  -0.1500 
  7 C        5.5080     1.0150     0.3920 C.ar  1 <1>  -0.1500 
  8 C        4.0830     2.5320    -0.7640 C.ar  1 <1>  -0.1500 
  9 C        5.3690     2.1440    -0.4080 C.ar  1 <1>   0.1000 
 10 N        6.4620     2.8910    -0.8410 N.pl3 1 <1>  -0.8380 
 11 C        6.6330     4.2670    -0.2870 C.3   1 <1>   0.2090 
 12 C        7.7080     2.2230    -1.3090 C.3   1 <1>   0.2090 
 13 C        7.7670     4.3110     0.7520 C.3   1 <1>   0.2090 
 14 C        8.8520     2.3350    -0.2760 C.3   1 <1>   0.2090 
 15 N        9.0610     3.7550     0.1930 N.pl3 1 <1>  -0.8380 
 16 C       10.1750     4.5250     0.0720 C.ar  1 <1>   0.7710 
 17 N       10.0960     5.8250     0.3140 N.ar  1 <1>  -0.6200 
 18 N       11.3350     3.9480    -0.2880 N.ar  1 <1>  -0.1790 
 19 C       11.1830     6.5650     0.2010 C.ar  1 <1>   0.4100 
 20 C       12.4720     4.6690    -0.4380 C.ar  1 <1>   0.2110 
 21 N       11.0770     7.8900     0.4820 N.pl3 1 <1>  -0.8380 
 22 C       12.4080     5.9990    -0.1980 C.ar  1 <1>  -0.1500 
 23 C       12.1820     8.7290     1.0560 C.3   1 <1>   0.2090 
 24 C        9.7940     8.6450     0.3360 C.3   1 <1>   0.2090 
 25 C       12.4320     9.9630     0.1730 C.3   1 <1>   0.2000 
 26 C       10.0190     9.8720    -0.5580 C.3   1 <1>  -0.1600 
 27 O       13.3750    10.7800     0.7700 O.3   1 <1>  -0.6800 
 28 C       11.1510    10.7770    -0.0390 C.3   1 <1>  -0.1600 
 29 H        4.5230    -0.5660     1.4400 H     1 <1>   0.1500 
 30 H        1.9890     2.1380    -0.6190 H     1 <1>   0.1500 
 31 H        6.4810     0.6870     0.6930 H     1 <1>   0.1500 
 32 H        3.9540     3.3950    -1.3880 H     1 <1>   0.1500 
 33 H        5.7150     4.5860     0.1780 H     1 <1>   0.0800 
 34 H        6.8520     4.9490    -1.0900 H     1 <1>   0.0800 
 35 H        8.0130     2.6820    -2.2330 H     1 <1>   0.0800 
 36 H        7.5020     1.1870    -1.5160 H     1 <1>   0.0800 
 37 H        7.4670     3.7190     1.6000 H     1 <1>   0.0800 
 38 H        7.8760     5.3230     1.0990 H     1 <1>   0.0800 
 39 H        9.7420     1.9260    -0.7150 H     1 <1>   0.0800 
 40 H        8.5980     1.7230     0.5740 H     1 <1>   0.0800 
 41 H       11.3060     2.9450    -0.4160 H     1 <1>   0.4570 
 42 H       13.3800     4.1720    -0.7430 H     1 <1>   0.1500 
 43 H       13.2680     6.6300    -0.3190 H     1 <1>   0.1500 
 44 H       13.0900     8.1660     1.1550 H     1 <1>   0.0800 
 45 H       11.8840     9.0530     2.0380 H     1 <1>   0.0800 
 46 H        9.4530     8.9540     1.3100 H     1 <1>   0.0800 
 47 H        9.0310     8.0270    -0.1040 H     1 <1>   0.0800 
 48 H       12.8340     9.6450    -0.7740 H     1 <1>   0.0800 
 49 H        9.1060    10.4380    -0.6170 H     1 <1>   0.0800 
 50 H       10.2550     9.5330    -1.5520 H     1 <1>   0.0800 
 51 H       12.9790    11.2750     1.5120 H     1 <1>   0.4000 
 52 H       11.3360    11.5630    -0.7500 H     1 <1>   0.0800 
 53 H       10.8400    11.2170     0.8930 H     1 <1>   0.0800 
@<TRIPOS>BOND
  1   1   2  ar  
  2   2   3  ar  
  3   2   4  1   
  4   4   5  ar  
  5   4   6  ar  
  6   5   7  ar  
  7   5  29  1   
  8   6   8  ar  
  9   6  30  1   
 10   7   9  ar  
 11   7  31  1   
 12   8   9  ar  
 13   8  32  1   
 14   9  10  1   
 15  10  11  1   
 16  10  12  1   
 17  11  13  1   
 18  11  33  1   
 19  11  34  1   
 20  12  14  1   
 21  12  35  1   
 22  12  36  1   
 23  13  15  1   
 24  13  37  1   
 25  13  38  1   
 26  14  15  1   
 27  14  39  1   
 28  14  40  1   
 29  15  16  1   
 30  16  17  ar  
 31  16  18  ar  
 32  17  19  ar  
 33  18  20  ar  
 34  18  41  1   
 35  19  21  1   
 36  19  22  ar  
 37  20  22  ar  
 38  20  42  1   
 39  21  23  1   
 40  21  24  1   
 41  22  43  1   
 42  23  25  1   
 43  23  44  1   
 44  23  45  1   
 45  24  26  1   
 46  24  46  1   
 47  24  47  1   
 48  25  27  1   
 49  25  28  1   
 50  25  48  1   
 51  26  28  1   
 52  26  49  1   
 53  26  50  1   
 54  27  51  1   
 55  28  52  1   
 56  28  53  1   
@<TRIPOS>SUBSTRUCTURE
  1 ****  13 GROUP 4 **** **** 0

# MOE 2024.06 (io_trps.svl 2023.06)
