@<TRIPOS>MOLECULE
NONAME
48 49 1 0 0 
SMALL
USER_CHARGES


@<TRIPOS>ATOM
  1 O        1.3170     1.2150    -1.2900 O.2   1 <1>  -0.5700 
  2 C        2.2870     1.6780    -0.6910 C.2   1 <1>   0.5410 
  3 C        2.5580     3.0840    -0.7140 C.2   1 <1>  -0.1240 
  4 C        3.1850     0.8310     0.0240 C.2   1 <1>  -0.1240 
  5 C        3.6760     3.5760    -0.0980 C.2   1 <1>  -0.0380 
  6 C        1.5340     3.9580    -1.4480 C.3   1 <1>  -0.1020 
  7 C        4.2670     1.3670     0.6430 C.2   1 <1>  -0.0500 
  8 C        2.9040    -0.6660     0.0810 C.3   1 <1>  -0.1020 
  9 N        4.5130     2.7170     0.5860 N.pl3 1 <1>  -0.6000 
 10 C        4.0680     5.0500    -0.1170 C.3   1 <1>   0.4810 
 11 N        4.5430     5.4300    -1.4900 N.4   1 <1>  -0.9590 
 12 C        5.8070     4.7240    -1.8940 C.3   1 <1>   0.4860 
 13 C        4.6010     6.9020    -1.7800 C.3   1 <1>   0.3430 
 14 C        6.9010     4.8220    -0.8440 C.ar  1 <1>  -0.1430 
 15 C        4.5360     7.8050    -0.5400 C.3   1 <1>  -0.1600 
 16 C        7.3040     3.6580    -0.2060 C.ar  1 <1>   0.1600 
 17 C        7.5220     6.0100    -0.5000 C.ar  1 <1>  -0.1500 
 18 C        4.7980     9.2660    -0.9250 C.3   1 <1>  -0.1600 
 19 N        8.1880     3.5960     0.7700 N.ar  1 <1>  -0.6200 
 20 C        8.4690     5.9570     0.4990 C.ar  1 <1>  -0.1500 
 21 C        4.7410    10.1730     0.3070 C.3   1 <1>  -0.2400 
 22 C        8.7570     4.7440     1.1000 C.ar  1 <1>   0.1600 
 23 H        0.5520     3.7570    -1.0550 H     1 <1>   0.0800 
 24 H        1.5220     3.7070    -2.4940 H     1 <1>   0.0800 
 25 H        1.7130     5.0100    -1.3420 H     1 <1>   0.0800 
 26 H        4.9620     0.7580     1.2020 H     1 <1>   0.1500 
 27 H        1.9440    -0.8400     0.5350 H     1 <1>   0.0800 
 28 H        3.6540    -1.1820     0.6530 H     1 <1>   0.0800 
 29 H        2.8880    -1.0740    -0.9140 H     1 <1>   0.0800 
 30 H        5.3240     3.0660     1.1290 H     1 <1>   0.4000 
 31 H        4.8360     5.2390     0.6150 H     1 <1>   0.0800 
 32 H        3.2020     5.6340     0.1480 H     1 <1>   0.0800 
 33 H        3.8240     5.0410    -2.1130 H     1 <1>   0.4500 
 34 H        6.1720     5.1250    -2.8260 H     1 <1>   0.0800 
 35 H        5.5870     3.6800    -2.0560 H     1 <1>   0.0800 
 36 H        3.7790     7.1680    -2.4270 H     1 <1>   0.0800 
 37 H        5.5090     7.1240    -2.3180 H     1 <1>   0.0800 
 38 H        5.2750     7.5080     0.1840 H     1 <1>   0.0800 
 39 H        3.5590     7.7450    -0.0920 H     1 <1>   0.0800 
 40 H        6.8740     2.7150    -0.5050 H     1 <1>   0.1500 
 41 H        7.3010     6.9470    -0.9790 H     1 <1>   0.1500 
 42 H        4.0600     9.6000    -1.6360 H     1 <1>   0.0800 
 43 H        5.7690     9.3630    -1.3810 H     1 <1>   0.0800 
 44 H        8.9880     6.8450     0.8160 H     1 <1>   0.1500 
 45 H        3.7710    10.1280     0.7720 H     1 <1>   0.0800 
 46 H        4.9270    11.1940     0.0200 H     1 <1>   0.0800 
 47 H        5.4850     9.8870     1.0290 H     1 <1>   0.0800 
 48 H        9.4950     4.7150     1.8860 H     1 <1>   0.1500 
@<TRIPOS>BOND
  1   1   2  2   
  2   2   3  1   
  3   2   4  1   
  4   3   5  2   
  5   3   6  1   
  6   4   7  2   
  7   4   8  1   
  8   5   9  1   
  9   5  10  1   
 10   6  23  1   
 11   6  24  1   
 12   6  25  1   
 13   7   9  1   
 14   7  26  1   
 15   8  27  1   
 16   8  28  1   
 17   8  29  1   
 18   9  30  1   
 19  10  11  1   
 20  10  31  1   
 21  10  32  1   
 22  11  12  1   
 23  11  13  1   
 24  11  33  1   
 25  12  14  1   
 26  12  34  1   
 27  12  35  1   
 28  13  15  1   
 29  13  36  1   
 30  13  37  1   
 31  14  16  ar  
 32  14  17  ar  
 33  15  18  1   
 34  15  38  1   
 35  15  39  1   
 36  16  19  ar  
 37  16  40  1   
 38  17  20  ar  
 39  17  41  1   
 40  18  21  1   
 41  18  42  1   
 42  18  43  1   
 43  19  22  ar  
 44  20  22  ar  
 45  20  44  1   
 46  21  45  1   
 47  21  46  1   
 48  21  47  1   
 49  22  48  1   
@<TRIPOS>SUBSTRUCTURE
  1 ****  10 GROUP 4 **** **** 0

# MOE 2024.06 (io_trps.svl 2023.06)
