@<TRIPOS>MOLECULE
NONAME
54 56 1 0 0 
SMALL
USER_CHARGES


@<TRIPOS>ATOM
  1 O        0.3540     0.1820    -0.7700 O.2   1 <1>  -0.5700 
  2 C       -0.6020     0.9180    -0.7510 C.2   1 <1>   0.5690 
  3 N       -1.8770     0.4490    -0.6080 N.am  1 <1>  -0.6600 
  4 C       -0.3400     2.4010    -0.8490 C.3   1 <1>  -0.0990 
  5 C       -3.1260     1.2560    -0.5510 C.3   1 <1>   0.1400 
  6 C       -2.1730    -0.9870    -0.3860 C.3   1 <1>   0.1400 
  7 C       -0.1550     2.9650     0.5600 C.3   1 <1>   0.0960 
  8 C       -4.2510     0.2290    -0.4130 C.3   1 <1>   0.2000 
  9 C       -3.5930    -1.0140     0.1790 C.3   1 <1>  -0.0800 
 10 N       -0.1590     4.4380     0.5200 N.pl3 1 <1>   0.3140 
 11 O       -5.2610     0.6810     0.4210 O.3   1 <1>  -0.6800 
 12 C       -4.3540    -2.3120    -0.1270 C.3   1 <1>   0.0210 
 13 N       -1.3270     5.0920     0.5150 N.2   1 <1>  -0.7070 
 14 C        0.8840     5.2880     0.4690 C.2   1 <1>  -0.3320 
 15 C       -3.5880    -3.5220     0.3720 C.2   1 <1>   0.1080 
 16 C       -1.0120     6.3420     0.4640 C.2   1 <1>   0.1080 
 17 C        0.3740     6.5600     0.4170 C.2   1 <1>  -0.0860 
 18 C        2.3330     4.8100     0.4940 C.3   1 <1>  -0.0600 
 19 N       -3.2320    -3.6690     1.6100 N.2   1 <1>  -0.7070 
 20 C       -3.1750    -4.5860    -0.4230 C.2   1 <1>  -0.1500 
 21 C       -2.0800     7.4170     0.4500 C.3   1 <1>  -0.0590 
 22 C        0.9970     7.8580     0.3210 C.2   1 <1>   0.5950 
 23 N       -2.5750    -4.8440     1.6390 N.pl3 1 <1>   0.3000 
 24 C       -2.5260    -5.4180     0.4180 C.2   1 <1>  -0.3320 
 25 O        0.5100     8.8710     0.7560 O.2   1 <1>  -0.5700 
 26 C        2.3240     8.0090    -0.3900 C.3   1 <1>  -0.1790 
 27 C       -1.8500    -6.7450     0.1270 C.3   1 <1>  -0.0600 
 28 H        0.5520     2.5610    -1.4250 H     1 <1>   0.0800 
 29 H       -1.1560     2.8900    -1.3480 H     1 <1>   0.0800 
 30 H       -3.0950     1.9080     0.3050 H     1 <1>   0.0800 
 31 H       -3.2490     1.8290    -1.4530 H     1 <1>   0.0800 
 32 H       -2.1210    -1.5050    -1.3280 H     1 <1>   0.0800 
 33 H       -1.4700    -1.4280     0.3010 H     1 <1>   0.0800 
 34 H        0.7630     2.6100     0.9890 H     1 <1>   0.0800 
 35 H       -0.9660     2.6530     1.1910 H     1 <1>   0.0800 
 36 H       -4.6770     0.0270    -1.3810 H     1 <1>   0.0800 
 37 H       -3.5060    -0.9030     1.2460 H     1 <1>   0.0800 
 38 H       -4.9330     0.7590     1.3390 H     1 <1>   0.4000 
 39 H       -4.5160    -2.4060    -1.1850 H     1 <1>   0.0800 
 40 H       -5.3140    -2.2880     0.3580 H     1 <1>   0.0800 
 41 H        3.0140     5.6240     0.6530 H     1 <1>   0.0800 
 42 H        2.5810     4.3280    -0.4350 H     1 <1>   0.0800 
 43 H        2.4800     4.1110     1.2980 H     1 <1>   0.0800 
 44 H       -3.3470    -4.6960    -1.4790 H     1 <1>   0.1500 
 45 H       -1.9340     8.0700    -0.3900 H     1 <1>   0.0800 
 46 H       -2.0270     7.9900     1.3560 H     1 <1>   0.0800 
 47 H       -3.0540     6.9680     0.3780 H     1 <1>   0.0800 
 48 H       -2.1730    -5.2240     2.5040 H     1 <1>   0.2700 
 49 H        2.4520     7.2270    -1.1140 H     1 <1>   0.0800 
 50 H        3.1210     7.9810     0.3280 H     1 <1>   0.0800 
 51 H        2.3500     8.9550    -0.8990 H     1 <1>   0.0800 
 52 H       -1.9470    -6.9880    -0.9160 H     1 <1>   0.0800 
 53 H       -2.3060    -7.5290     0.7050 H     1 <1>   0.0800 
 54 H       -0.8040    -6.6910     0.3700 H     1 <1>   0.0800 
@<TRIPOS>BOND
  1   1   2  2   
  2   2   3  am  
  3   2   4  1   
  4   3   5  1   
  5   3   6  1   
  6   4   7  1   
  7   4  28  1   
  8   4  29  1   
  9   5   8  1   
 10   5  30  1   
 11   5  31  1   
 12   6   9  1   
 13   6  32  1   
 14   6  33  1   
 15   7  10  1   
 16   7  34  1   
 17   7  35  1   
 18   8   9  1   
 19   8  11  1   
 20   8  36  1   
 21   9  12  1   
 22   9  37  1   
 23  10  13  1   
 24  10  14  1   
 25  11  38  1   
 26  12  15  1   
 27  12  39  1   
 28  12  40  1   
 29  13  16  2   
 30  14  17  2   
 31  14  18  1   
 32  15  19  2   
 33  15  20  1   
 34  16  17  1   
 35  16  21  1   
 36  17  22  1   
 37  18  41  1   
 38  18  42  1   
 39  18  43  1   
 40  19  23  1   
 41  20  24  2   
 42  20  44  1   
 43  21  45  1   
 44  21  46  1   
 45  21  47  1   
 46  22  25  2   
 47  22  26  1   
 48  23  24  1   
 49  23  48  1   
 50  24  27  1   
 51  26  49  1   
 52  26  50  1   
 53  26  51  1   
 54  27  52  1   
 55  27  53  1   
 56  27  54  1   
@<TRIPOS>SUBSTRUCTURE
  1 ****   3 GROUP 4 **** **** 0

# MOE 2024.06 (io_trps.svl 2023.06)
