@<TRIPOS>MOLECULE
NONAME
48 50 1 0 0 
SMALL
USER_CHARGES


@<TRIPOS>ATOM
  1 CL      -0.1990     0.1660     1.5370 Cl    1 <1>  -0.1770 
  2 C       -0.1220    -1.5720     1.4400 C.ar  1 <1>   0.1770 
  3 C        0.9380    -2.1740     0.7980 C.ar  1 <1>  -0.1500 
  4 C       -1.1260    -2.3230     2.0190 C.ar  1 <1>  -0.1500 
  5 C        1.0120    -3.5630     0.7130 C.ar  1 <1>   0.1170 
  6 C       -1.0630    -3.7000     1.9390 C.ar  1 <1>  -0.1500 
  7 N        2.1000    -4.2040     0.1020 N.am  1 <1>  -0.5470 
  8 C       -0.0140    -4.3460     1.2770 C.ar  1 <1>   0.0860 
  9 C        3.0530    -3.7870    -0.7830 C.2   1 <1>   0.5690 
 10 C        0.0140    -5.7920     1.1770 C.2   1 <1>   0.5440 
 11 O        3.0840    -2.6810    -1.2610 O.2   1 <1>  -0.5700 
 12 C        4.1130    -4.7930    -1.1970 C.3   1 <1>  -0.0990 
 13 O        1.0390    -6.3990     1.4390 O.2   1 <1>  -0.5700 
 14 N       -1.0800    -6.5180     0.7610 N.am  1 <1>  -0.6600 
 15 C        4.8730    -5.4080    -0.0080 C.3   1 <1>  -0.2400 
 16 C       -2.2360    -5.9630     0.0090 C.3   1 <1>   0.1400 
 17 C       -1.0300    -7.9950     0.6160 C.3   1 <1>   0.1400 
 18 C       -2.8370    -7.1560    -0.7350 C.3   1 <1>   0.2000 
 19 C       -2.3910    -8.3930     0.0410 C.3   1 <1>  -0.0800 
 20 O       -4.2210    -7.0940    -0.7720 O.3   1 <1>  -0.6800 
 21 C       -2.3600    -9.6590    -0.8330 C.3   1 <1>  -0.0170 
 22 C       -1.9230   -10.8820    -0.0420 C.ar  1 <1>   0.1670 
 23 N       -0.6190   -11.0540     0.1060 N.ar  1 <1>  -0.6200 
 24 C       -2.8790   -11.7490     0.4860 C.ar  1 <1>   0.1600 
 25 C       -0.3380   -12.1370     0.8120 C.ar  1 <1>   0.1600 
 26 N       -2.5990   -12.8310     1.1930 N.ar  1 <1>  -0.6200 
 27 C       -1.2960   -12.9960     1.3370 C.ar  1 <1>   0.1600 
 28 H        1.7050    -1.5540     0.3740 H     1 <1>   0.1500 
 29 H       -1.9370    -1.8280     2.5250 H     1 <1>   0.1500 
 30 H       -1.8350    -4.2930     2.4000 H     1 <1>   0.1500 
 31 H        2.1900    -5.1890     0.3870 H     1 <1>   0.3700 
 32 H        3.6410    -5.5720    -1.7660 H     1 <1>   0.0800 
 33 H        4.8160    -4.2980    -1.8430 H     1 <1>   0.0800 
 34 H        4.2100    -5.9750     0.6220 H     1 <1>   0.0800 
 35 H        5.3310    -4.6320     0.5800 H     1 <1>   0.0800 
 36 H        5.6450    -6.0660    -0.3670 H     1 <1>   0.0800 
 37 H       -2.9480    -5.5530     0.7040 H     1 <1>   0.0800 
 38 H       -1.9120    -5.2060    -0.6840 H     1 <1>   0.0800 
 39 H       -0.2350    -8.2550    -0.0630 H     1 <1>   0.0800 
 40 H       -0.8470    -8.4680     1.5660 H     1 <1>   0.0800 
 41 H       -2.4690    -7.1740    -1.7470 H     1 <1>   0.0800 
 42 H       -3.0520    -8.5510     0.8760 H     1 <1>   0.0800 
 43 H       -4.5920    -7.1100     0.1310 H     1 <1>   0.4000 
 44 H       -1.6850    -9.5200    -1.6590 H     1 <1>   0.0800 
 45 H       -3.3400    -9.8290    -1.2440 H     1 <1>   0.0800 
 46 H       -3.9200   -11.5380     0.3180 H     1 <1>   0.1500 
 47 H        0.7010   -12.3560     0.9820 H     1 <1>   0.1500 
 48 H       -0.9680   -13.8530     1.8990 H     1 <1>   0.1500 
@<TRIPOS>BOND
  1   1   2  1   
  2   2   3  ar  
  3   2   4  ar  
  4   3   5  ar  
  5   3  28  1   
  6   4   6  ar  
  7   4  29  1   
  8   5   7  1   
  9   5   8  ar  
 10   6   8  ar  
 11   6  30  1   
 12   7   9  am  
 13   7  31  1   
 14   8  10  1   
 15   9  11  2   
 16   9  12  1   
 17  10  13  2   
 18  10  14  am  
 19  12  15  1   
 20  12  32  1   
 21  12  33  1   
 22  14  16  1   
 23  14  17  1   
 24  15  34  1   
 25  15  35  1   
 26  15  36  1   
 27  16  18  1   
 28  16  37  1   
 29  16  38  1   
 30  17  19  1   
 31  17  39  1   
 32  17  40  1   
 33  18  19  1   
 34  18  20  1   
 35  18  41  1   
 36  19  21  1   
 37  19  42  1   
 38  20  43  1   
 39  21  22  1   
 40  21  44  1   
 41  21  45  1   
 42  22  23  ar  
 43  22  24  ar  
 44  23  25  ar  
 45  24  26  ar  
 46  24  46  1   
 47  25  27  ar  
 48  25  47  1   
 49  26  27  ar  
 50  27  48  1   
@<TRIPOS>SUBSTRUCTURE
  1 ****  14 GROUP 4 **** **** 0

# MOE 2024.06 (io_trps.svl 2023.06)
