@<TRIPOS>MOLECULE
NONAME
46 48 1 0 0 
SMALL
USER_CHARGES


@<TRIPOS>ATOM
  1 S        0.2160    -0.3600     0.7590 S.3   1 <1>  -0.0800 
  2 C       -1.4090     0.1640     0.3690 C.2   1 <1>   0.1980 
  3 C        0.8320     0.7980    -0.3820 C.2   1 <1>  -0.1100 
  4 N       -1.4640     1.0940    -0.5020 N.2   1 <1>  -0.5650 
  5 C       -2.5630    -0.5170     1.0980 C.3   1 <1>   0.2900 
  6 C       -0.2000     1.4550    -0.9330 C.2   1 <1>   0.0460 
  7 N       -2.6590    -1.9740     0.8370 N.3   1 <1>  -0.8100 
  8 C       -0.1180     2.5470    -1.9750 C.3   1 <1>  -0.0590 
  9 C       -3.7260    -2.5870     1.6790 C.3   1 <1>   0.2530 
 10 C       -2.8670    -2.2520    -0.5940 C.3   1 <1>   0.0300 
 11 C       -3.8120    -4.1200     1.6300 C.ar  1 <1>   0.4770 
 12 N       -4.6560    -4.6490     0.7790 N.ar  1 <1>  -0.6200 
 13 N       -3.0570    -4.7910     2.4590 N.ar  1 <1>  -0.6200 
 14 C       -4.6800    -5.9620     0.7830 C.ar  1 <1>   0.7200 
 15 C       -3.1930    -6.0860     2.3660 C.ar  1 <1>   0.7200 
 16 N       -3.9690    -6.7380     1.5570 N.ar  1 <1>  -0.6200 
 17 N       -5.5580    -6.5000    -0.1100 N.pl3 1 <1>  -0.6000 
 18 N       -2.4380    -6.8160     3.1870 N.pl3 1 <1>  -0.9000 
 19 C       -5.8580    -7.8160    -0.4850 C.ar  1 <1>   0.1000 
 20 C       -7.1530    -8.1190    -0.8900 C.ar  1 <1>  -0.1500 
 21 C       -4.9070    -8.8310    -0.4960 C.ar  1 <1>  -0.1500 
 22 C       -7.5010    -9.3990    -1.2890 C.ar  1 <1>  -0.1430 
 23 C       -5.2450   -10.1120    -0.8920 C.ar  1 <1>  -0.1500 
 24 C       -6.5400   -10.3960    -1.2880 C.ar  1 <1>  -0.1500 
 25 C       -8.9200    -9.7170    -1.7270 C.3   1 <1>  -0.0970 
 26 H        1.8960     0.8590    -0.5160 H     1 <1>   0.1500 
 27 H       -3.4800    -0.0370     0.8050 H     1 <1>   0.0800 
 28 H       -2.4230    -0.3550     2.1530 H     1 <1>   0.0800 
 29 H        0.9060     2.7430    -2.2360 H     1 <1>   0.0800 
 30 H       -0.5620     3.4470    -1.5900 H     1 <1>   0.0800 
 31 H       -0.6530     2.2440    -2.8560 H     1 <1>   0.0800 
 32 H       -4.6810    -2.1850     1.3900 H     1 <1>   0.0800 
 33 H       -3.5560    -2.3130     2.7050 H     1 <1>   0.0800 
 34 H       -2.0710    -1.8210    -1.1790 H     1 <1>   0.0800 
 35 H       -3.8050    -1.8440    -0.9290 H     1 <1>   0.0800 
 36 H       -2.8610    -3.3130    -0.7720 H     1 <1>   0.0800 
 37 H       -6.1270    -5.7750    -0.5360 H     1 <1>   0.4000 
 38 H       -2.3620    -7.8110     2.9930 H     1 <1>   0.4000 
 39 H       -1.6440    -6.3540     3.6230 H     1 <1>   0.4000 
 40 H       -7.8950    -7.3420    -0.8880 H     1 <1>   0.1500 
 41 H       -3.8980    -8.6190    -0.1990 H     1 <1>   0.1500 
 42 H       -4.5000   -10.8880    -0.8930 H     1 <1>   0.1500 
 43 H       -6.7960   -11.3950    -1.5960 H     1 <1>   0.1500 
 44 H       -9.5990    -8.9440    -1.4160 H     1 <1>   0.0800 
 45 H       -9.2420   -10.6460    -1.2900 H     1 <1>   0.0800 
 46 H       -8.9600    -9.8030    -2.7980 H     1 <1>   0.0800 
@<TRIPOS>BOND
  1   1   2  1   
  2   1   3  1   
  3   2   4  2   
  4   2   5  1   
  5   3   6  2   
  6   3  26  1   
  7   4   6  1   
  8   5   7  1   
  9   5  27  1   
 10   5  28  1   
 11   6   8  1   
 12   7   9  1   
 13   7  10  1   
 14   8  29  1   
 15   8  30  1   
 16   8  31  1   
 17   9  11  1   
 18   9  32  1   
 19   9  33  1   
 20  10  34  1   
 21  10  35  1   
 22  10  36  1   
 23  11  12  ar  
 24  11  13  ar  
 25  12  14  ar  
 26  13  15  ar  
 27  14  16  ar  
 28  14  17  1   
 29  15  16  ar  
 30  15  18  1   
 31  17  19  1   
 32  17  37  1   
 33  18  38  1   
 34  18  39  1   
 35  19  20  ar  
 36  19  21  ar  
 37  20  22  ar  
 38  20  40  1   
 39  21  23  ar  
 40  21  41  1   
 41  22  24  ar  
 42  22  25  1   
 43  23  24  ar  
 44  23  42  1   
 45  24  43  1   
 46  25  44  1   
 47  25  45  1   
 48  25  46  1   
@<TRIPOS>SUBSTRUCTURE
  1 ****  12 GROUP 4 **** **** 0

# MOE 2024.06 (io_trps.svl 2023.06)
