@<TRIPOS>MOLECULE
NONAME
40 42 1 0 0 
SMALL
USER_CHARGES


@<TRIPOS>ATOM
  1 CL       3.1560    -0.1430    -2.1560 Cl    1 <1>  -0.1770 
  2 C        3.0350     1.2280    -1.0700 C.ar  1 <1>   0.1770 
  3 C        3.4720     1.1600     0.2500 C.ar  1 <1>   0.1660 
  4 C        2.4930     2.3960    -1.5640 C.ar  1 <1>  -0.1500 
  5 N        3.4110     2.1820     1.0940 N.ar  1 <1>  -0.6200 
  6 C        4.0690    -0.1120     0.8240 C.3   1 <1>  -0.0960 
  7 C        2.4220     3.4530    -0.6860 C.ar  1 <1>  -0.1500 
  8 C        2.8910     3.3000     0.6170 C.ar  1 <1>   0.4100 
  9 N        2.8640     4.3150     1.5250 N.pl3 1 <1>  -0.8690 
 10 C        3.4790     5.6200     1.1980 C.3   1 <1>   0.2890 
 11 C        4.9580     5.4600     0.8000 C.3   1 <1>   0.1400 
 12 C        3.3460     6.5260     2.4270 C.3   1 <1>  -0.1600 
 13 N        5.5960     6.7990     0.6000 N.am  1 <1>  -0.6600 
 14 C        4.0590     7.8720     2.2060 C.3   1 <1>  -0.1600 
 15 C        5.9780     7.2290    -0.6570 C.2   1 <1>   0.7150 
 16 C        5.5240     7.6940     1.7870 C.3   1 <1>   0.1400 
 17 O        5.4530     6.6990    -1.6220 O.2   1 <1>  -0.5700 
 18 C        6.9510     8.2810    -0.8810 C.2   1 <1>   0.0550 
 19 O        7.8130     8.6740     0.0570 O.3   1 <1>  -0.2800 
 20 C        7.1920     9.0090    -2.0080 C.2   1 <1>  -0.1500 
 21 C        8.5790     9.6210    -0.4360 C.2   1 <1>  -0.0100 
 22 C        8.2440     9.8790    -1.7180 C.2   1 <1>  -0.1500 
 23 H        2.1480     2.4660    -2.5800 H     1 <1>   0.1500 
 24 H        3.7120    -0.9850     0.3110 H     1 <1>   0.0800 
 25 H        3.8020    -0.2030     1.8610 H     1 <1>   0.0800 
 26 H        5.1400    -0.0710     0.7470 H     1 <1>   0.0800 
 27 H        2.0080     4.3950    -0.9900 H     1 <1>   0.1500 
 28 H        3.1860     3.9560     2.4260 H     1 <1>   0.4000 
 29 H        2.9490     6.0610     0.3710 H     1 <1>   0.0800 
 30 H        5.0280     4.8750    -0.1010 H     1 <1>   0.0800 
 31 H        5.4840     4.9380     1.5790 H     1 <1>   0.0800 
 32 H        3.7830     6.0360     3.2800 H     1 <1>   0.0800 
 33 H        2.3040     6.7000     2.6290 H     1 <1>   0.0800 
 34 H        4.0190     8.4520     3.1110 H     1 <1>   0.0800 
 35 H        3.5470     8.4290     1.4410 H     1 <1>   0.0800 
 36 H        5.9400     8.6610     1.5680 H     1 <1>   0.0800 
 37 H        6.0920     7.2570     2.5910 H     1 <1>   0.0800 
 38 H        6.6790     8.9320    -2.9500 H     1 <1>   0.1500 
 39 H        9.3380    10.0600     0.1880 H     1 <1>   0.1500 
 40 H        8.6770    10.5920    -2.3970 H     1 <1>   0.1500 
@<TRIPOS>BOND
  1   1   2  1   
  2   2   3  ar  
  3   2   4  ar  
  4   3   5  ar  
  5   3   6  1   
  6   4   7  ar  
  7   4  23  1   
  8   5   8  ar  
  9   6  24  1   
 10   6  25  1   
 11   6  26  1   
 12   7   8  ar  
 13   7  27  1   
 14   8   9  1   
 15   9  10  1   
 16   9  28  1   
 17  10  11  1   
 18  10  12  1   
 19  10  29  1   
 20  11  13  1   
 21  11  30  1   
 22  11  31  1   
 23  12  14  1   
 24  12  32  1   
 25  12  33  1   
 26  13  15  am  
 27  13  16  1   
 28  14  16  1   
 29  14  34  1   
 30  14  35  1   
 31  15  17  2   
 32  15  18  1   
 33  16  36  1   
 34  16  37  1   
 35  18  19  1   
 36  18  20  2   
 37  19  21  1   
 38  20  22  1   
 39  20  38  1   
 40  21  22  2   
 41  21  39  1   
 42  22  40  1   
@<TRIPOS>SUBSTRUCTURE
  1 ****  11 GROUP 4 **** **** 0

# MOE 2024.06 (io_trps.svl 2023.06)
