@<TRIPOS>MOLECULE
NONAME
40 42 1 0 0 
SMALL
USER_CHARGES


@<TRIPOS>ATOM
  1 O       -0.5520     0.4570    -1.8140 O.2   1 <1>  -0.5700 
  2 C       -1.5920     0.8650    -1.2920 C.2   1 <1>   0.5440 
  3 N       -2.7450     0.2160    -1.7000 N.am  1 <1>  -0.6600 
  4 C       -1.5510     2.0070    -0.4110 C.ar  1 <1>   0.0860 
  5 C       -4.1000     0.7940    -1.5100 C.3   1 <1>   0.1400 
  6 C       -2.8290    -1.2390    -1.4920 C.3   1 <1>   0.1400 
  7 C       -2.2820     2.1030     0.8100 C.ar  1 <1>  -0.1710 
  8 C       -0.7510     3.1140    -0.7510 C.ar  1 <1>   0.0830 
  9 C       -4.8880    -0.2390    -0.6970 C.3   1 <1>   0.2000 
 10 C       -3.9330    -1.4110    -0.4510 C.3   1 <1>  -0.0800 
 11 O       -2.9610     1.1580     1.2760 O.3   1 <1>  -0.8290 
 12 C       -2.2480     3.2930     1.5520 C.ar  1 <1>  -0.1500 
 13 O        0.0410     3.0520    -1.8380 O.3   1 <1>  -0.5320 
 14 C       -0.7270     4.2740    -0.0040 C.ar  1 <1>  -0.1500 
 15 O       -5.2460     0.3010     0.5210 O.3   1 <1>  -0.6800 
 16 C       -4.6300    -2.7770    -0.5000 C.3   1 <1>   0.0200 
 17 C       -1.4900     4.3650     1.1550 C.ar  1 <1>  -0.1500 
 18 C       -3.6820    -3.9250    -0.1970 C.2   1 <1>  -0.0400 
 19 O       -4.0290    -5.1460    -0.5090 O.3   1 <1>  -0.0190 
 20 C       -2.4670    -3.9780     0.3700 C.2   1 <1>  -0.1500 
 21 N       -3.1080    -6.0100    -0.1880 N.2   1 <1>  -0.4100 
 22 C       -2.1550    -5.3330     0.3440 C.2   1 <1>   0.1080 
 23 C       -0.8710    -5.9320     0.8710 C.3   1 <1>  -0.0590 
 24 H       -4.0670     1.7460    -1.0110 H     1 <1>   0.0800 
 25 H       -4.5560     0.9210    -2.4740 H     1 <1>   0.0800 
 26 H       -3.0900    -1.7110    -2.4230 H     1 <1>   0.0800 
 27 H       -1.8910    -1.6340    -1.1390 H     1 <1>   0.0800 
 28 H       -5.7840    -0.5300    -1.2150 H     1 <1>   0.0800 
 29 H       -3.4730    -1.2850     0.5160 H     1 <1>   0.0800 
 30 H       -2.8370     3.3230     2.4500 H     1 <1>   0.1500 
 31 H        0.0620     2.1150    -2.1600 H     1 <1>   0.4500 
 32 H       -0.1140     5.0980    -0.3160 H     1 <1>   0.1500 
 33 H       -4.3860     0.6830     0.9240 H     1 <1>   0.4000 
 34 H       -5.0560    -2.9240    -1.4760 H     1 <1>   0.0800 
 35 H       -5.4300    -2.7930     0.2190 H     1 <1>   0.0800 
 36 H       -1.4770     5.2680     1.7360 H     1 <1>   0.1500 
 37 H       -1.8550    -3.1850     0.7640 H     1 <1>   0.1500 
 38 H       -0.0280    -5.4180     0.4480 H     1 <1>   0.0800 
 39 H       -0.8160    -6.9720     0.6070 H     1 <1>   0.0800 
 40 H       -0.8420    -5.8410     1.9410 H     1 <1>   0.0800 
@<TRIPOS>BOND
  1   1   2  2   
  2   2   3  am  
  3   2   4  1   
  4   3   5  1   
  5   3   6  1   
  6   4   7  ar  
  7   4   8  ar  
  8   5   9  1   
  9   5  24  1   
 10   5  25  1   
 11   6  10  1   
 12   6  26  1   
 13   6  27  1   
 14   7  11  1   
 15   7  12  ar  
 16   8  13  1   
 17   8  14  ar  
 18   9  10  1   
 19   9  15  1   
 20   9  28  1   
 21  10  16  1   
 22  10  29  1   
 23  12  17  ar  
 24  12  30  1   
 25  13  31  1   
 26  14  17  ar  
 27  14  32  1   
 28  15  33  1   
 29  16  18  1   
 30  16  34  1   
 31  16  35  1   
 32  17  36  1   
 33  18  19  1   
 34  18  20  2   
 35  19  21  1   
 36  20  22  1   
 37  20  37  1   
 38  21  22  2   
 39  22  23  1   
 40  23  38  1   
 41  23  39  1   
 42  23  40  1   
@<TRIPOS>SUBSTRUCTURE
  1 ****   6 GROUP 4 **** **** 0

# MOE 2024.06 (io_trps.svl 2023.06)
