@<TRIPOS>MOLECULE
NONAME
46 48 1 0 0 
SMALL
USER_CHARGES


@<TRIPOS>ATOM
  1 F       -1.4000    -0.4520    -1.0660 F     1 <1>  -0.1900 
  2 C       -1.2120    -1.5670    -0.4120 C.ar  1 <1>   0.1900 
  3 C       -1.9580    -2.6910    -0.7410 C.ar  1 <1>  -0.1440 
  4 C       -0.2600    -1.5620     0.5950 C.ar  1 <1>  -0.1500 
  5 C       -1.6860    -3.8330    -0.0020 C.ar  1 <1>   0.1900 
  6 C       -3.0150    -2.6850    -1.8520 C.3   1 <1>   0.0440 
  7 C       -0.0260    -2.7230     1.3150 C.ar  1 <1>  -0.1500 
  8 F       -2.3300    -4.9380    -0.2640 F     1 <1>  -0.1900 
  9 C       -0.7440    -3.8690     1.0130 C.ar  1 <1>  -0.1500 
 10 C       -4.4280    -2.9950    -1.3660 C.2   1 <1>   0.5690 
 11 O       -4.9810    -3.9460    -1.8690 O.2   1 <1>  -0.5700 
 12 N       -5.0520    -2.2180    -0.4180 N.am  1 <1>  -0.6600 
 13 C       -6.4090    -2.5770     0.0930 C.3   1 <1>   0.1400 
 14 C       -4.4860    -0.9500     0.1330 C.3   1 <1>   0.1400 
 15 C       -7.4620    -1.4890    -0.2540 C.3   1 <1>   0.0000 
 16 C       -5.5780    -0.0350     0.7100 C.3   1 <1>  -0.1600 
 17 C       -8.6920    -1.7110     0.6550 C.3   1 <1>   0.2000 
 18 C       -6.8340    -0.0650    -0.1710 C.3   1 <1>  -0.1600 
 19 C       -8.0370    -1.7580    -1.6560 C.3   1 <1>  -0.1600 
 20 O       -9.5410    -0.5990     0.6080 O.3   1 <1>  -0.5600 
 21 C       -9.4330    -2.8930     0.0170 C.3   1 <1>  -0.1600 
 22 C       -9.1140    -2.8370    -1.4830 C.3   1 <1>  -0.1600 
 23 C      -10.3680    -0.4380     1.7170 C.3   1 <1>   0.0400 
 24 H        0.2880    -0.6610     0.8090 H     1 <1>   0.1500 
 25 H       -2.7410    -3.4270    -2.5790 H     1 <1>   0.0800 
 26 H       -3.0400    -1.7440    -2.3670 H     1 <1>   0.0800 
 27 H        0.7100    -2.7350     2.1010 H     1 <1>   0.1500 
 28 H       -0.5780    -4.7840     1.5540 H     1 <1>   0.1500 
 29 H       -6.7160    -3.5330    -0.2940 H     1 <1>   0.0800 
 30 H       -6.3360    -2.6820     1.1610 H     1 <1>   0.0800 
 31 H       -3.7650    -1.1800     0.8980 H     1 <1>   0.0800 
 32 H       -3.9880    -0.4190    -0.6590 H     1 <1>   0.0800 
 33 H       -5.8250    -0.3490     1.7090 H     1 <1>   0.0800 
 34 H       -5.1980     0.9690     0.7730 H     1 <1>   0.0800 
 35 H       -8.4070    -1.8960     1.6770 H     1 <1>   0.0800 
 36 H       -6.5430     0.2460    -1.1590 H     1 <1>   0.0800 
 37 H       -7.5420     0.6620     0.1850 H     1 <1>   0.0800 
 38 H       -8.5110    -0.8620    -2.0220 H     1 <1>   0.0800 
 39 H       -7.2760    -2.0570    -2.3560 H     1 <1>   0.0800 
 40 H       -9.0450    -3.8110     0.4230 H     1 <1>   0.0800 
 41 H      -10.4910    -2.8600     0.2010 H     1 <1>   0.0800 
 42 H       -8.7470    -3.7910    -1.8220 H     1 <1>   0.0800 
 43 H       -9.9910    -2.5780    -2.0510 H     1 <1>   0.0800 
 44 H      -10.9880     0.4240     1.5470 H     1 <1>   0.0800 
 45 H       -9.7600    -0.2810     2.5910 H     1 <1>   0.0800 
 46 H      -10.9860    -1.3100     1.8360 H     1 <1>   0.0800 
@<TRIPOS>BOND
  1   1   2  1   
  2   2   3  ar  
  3   2   4  ar  
  4   3   5  ar  
  5   3   6  1   
  6   4   7  ar  
  7   4  24  1   
  8   5   8  1   
  9   5   9  ar  
 10   6  10  1   
 11   6  25  1   
 12   6  26  1   
 13   7   9  ar  
 14   7  27  1   
 15   9  28  1   
 16  10  11  2   
 17  10  12  am  
 18  12  13  1   
 19  12  14  1   
 20  13  15  1   
 21  13  29  1   
 22  13  30  1   
 23  14  16  1   
 24  14  31  1   
 25  14  32  1   
 26  15  17  1   
 27  15  18  1   
 28  15  19  1   
 29  16  18  1   
 30  16  33  1   
 31  16  34  1   
 32  17  20  1   
 33  17  21  1   
 34  17  35  1   
 35  18  36  1   
 36  18  37  1   
 37  19  22  1   
 38  19  38  1   
 39  19  39  1   
 40  20  23  1   
 41  21  22  1   
 42  21  40  1   
 43  21  41  1   
 44  22  42  1   
 45  22  43  1   
 46  23  44  1   
 47  23  45  1   
 48  23  46  1   
@<TRIPOS>SUBSTRUCTURE
  1 ****  12 GROUP 4 **** **** 0

# MOE 2024.06 (io_trps.svl 2023.06)
