@<TRIPOS>MOLECULE
NONAME
47 49 1 0 0 
SMALL
USER_CHARGES


@<TRIPOS>ATOM
  1 CL       0.3760    -3.3610    -0.6780 Cl    1 <1>  -0.1230 
  2 C       -0.9030    -4.0300     0.3260 C.2   1 <1>   0.1230 
  3 C       -0.7910    -5.1410     1.1490 C.2   1 <1>   0.1080 
  4 C       -2.1670    -3.5820     0.4470 C.2   1 <1>  -0.3320 
  5 N       -1.9090    -5.3820     1.7650 N.2   1 <1>  -0.7070 
  6 C        0.4460    -5.9890     1.3280 C.3   1 <1>  -0.0590 
  7 N       -2.7680    -4.4350     1.3170 N.pl3 1 <1>   0.3140 
  8 C       -2.8290    -2.3920    -0.2330 C.3   1 <1>  -0.0600 
  9 C       -4.1680    -4.4410     1.7630 C.3   1 <1>   0.1570 
 10 C       -5.1130    -4.6030     0.5880 C.2   1 <1>   0.5690 
 11 O       -5.8500    -3.6710     0.3560 O.2   1 <1>  -0.5700 
 12 N       -5.1690    -5.7390    -0.1800 N.am  1 <1>  -0.6600 
 13 C       -4.3020    -6.9500     0.0220 C.3   1 <1>   0.3640 
 14 C       -6.2000    -5.8630    -1.2580 C.3   1 <1>   0.1400 
 15 C       -3.0800    -6.9620    -0.9160 C.ar  1 <1>  -0.1440 
 16 C       -5.1640    -8.2440    -0.1000 C.3   1 <1>   0.2000 
 17 C       -6.0650    -7.1690    -2.0620 C.3   1 <1>   0.1200 
 18 C       -2.8600    -6.0040    -1.9020 C.ar  1 <1>  -0.1500 
 19 C       -2.1260    -7.9580    -0.7460 C.ar  1 <1>  -0.1500 
 20 O       -6.0260    -8.2880    -1.2200 O.3   1 <1>  -0.5600 
 21 C       -6.0560    -8.4380     1.1350 C.3   1 <1>   0.1200 
 22 C       -1.7310    -6.0520    -2.7010 C.ar  1 <1>  -0.1500 
 23 C       -0.9980    -8.0120    -1.5470 C.ar  1 <1>  -0.1500 
 24 O       -5.2870    -8.5850     2.2870 O.3   1 <1>  -0.6800 
 25 C       -0.8000    -7.0580    -2.5270 C.ar  1 <1>  -0.1500 
 26 H        0.9970    -6.0350     0.4070 H     1 <1>   0.0800 
 27 H        0.1630    -6.9850     1.6140 H     1 <1>   0.0800 
 28 H        1.0660    -5.5650     2.0950 H     1 <1>   0.0800 
 29 H       -2.0980    -1.8200    -0.7750 H     1 <1>   0.0800 
 30 H       -3.2900    -1.7510     0.4970 H     1 <1>   0.0800 
 31 H       -3.5780    -2.7270    -0.9270 H     1 <1>   0.0800 
 32 H       -4.3140    -5.2450     2.4590 H     1 <1>   0.0800 
 33 H       -4.3690    -3.5140     2.2630 H     1 <1>   0.0800 
 34 H       -3.9040    -6.9350     1.0190 H     1 <1>   0.0800 
 35 H       -7.1790    -5.8250    -0.8130 H     1 <1>   0.0800 
 36 H       -6.1140    -5.0250    -1.9270 H     1 <1>   0.0800 
 37 H       -4.5200    -9.0990    -0.1840 H     1 <1>   0.0800 
 38 H       -5.1710    -7.1630    -2.6600 H     1 <1>   0.0800 
 39 H       -6.9070    -7.2860    -2.7200 H     1 <1>   0.0800 
 40 H       -3.5540    -5.1990    -2.0560 H     1 <1>   0.1500 
 41 H       -2.2470    -8.6990     0.0230 H     1 <1>   0.1500 
 42 H       -6.6680    -9.3170     1.0260 H     1 <1>   0.0800 
 43 H       -6.6880    -7.5780     1.2720 H     1 <1>   0.0800 
 44 H       -1.5760    -5.3010    -3.4560 H     1 <1>   0.1500 
 45 H       -0.2730    -8.7930    -1.4030 H     1 <1>   0.1500 
 46 H       -4.9200    -9.4900     2.3490 H     1 <1>   0.4000 
 47 H        0.0770    -7.0950    -3.1490 H     1 <1>   0.1500 
@<TRIPOS>BOND
  1   1   2  1   
  2   2   3  1   
  3   2   4  2   
  4   3   5  2   
  5   3   6  1   
  6   4   7  1   
  7   4   8  1   
  8   5   7  1   
  9   6  26  1   
 10   6  27  1   
 11   6  28  1   
 12   7   9  1   
 13   8  29  1   
 14   8  30  1   
 15   8  31  1   
 16   9  10  1   
 17   9  32  1   
 18   9  33  1   
 19  10  11  2   
 20  10  12  am  
 21  12  13  1   
 22  12  14  1   
 23  13  15  1   
 24  13  16  1   
 25  13  34  1   
 26  14  17  1   
 27  14  35  1   
 28  14  36  1   
 29  15  18  ar  
 30  15  19  ar  
 31  16  20  1   
 32  16  21  1   
 33  16  37  1   
 34  17  20  1   
 35  17  38  1   
 36  17  39  1   
 37  18  22  ar  
 38  18  40  1   
 39  19  23  ar  
 40  19  41  1   
 41  21  24  1   
 42  21  42  1   
 43  21  43  1   
 44  22  25  ar  
 45  22  44  1   
 46  23  25  ar  
 47  23  45  1   
 48  24  46  1   
 49  25  47  1   
@<TRIPOS>SUBSTRUCTURE
  1 ****  15 GROUP 4 **** **** 0

# MOE 2024.06 (io_trps.svl 2023.06)
