@<TRIPOS>MOLECULE
NONAME
42 45 1 0 0 
SMALL
USER_CHARGES


@<TRIPOS>ATOM
  1 O       -1.1480     0.2750    -1.1290 O.2   1 <1>  -0.5700 
  2 C       -1.7000     0.8910    -0.2370 C.2   1 <1>   0.7150 
  3 N       -2.6290     0.2400     0.5390 N.am  1 <1>  -0.6600 
  4 C       -1.4080     2.2790    -0.0160 C.2   1 <1>  -0.2370 
  5 C       -2.6370    -1.2550     0.6080 C.3   1 <1>   0.1400 
  6 C       -3.9970     0.8190     0.7110 C.3   1 <1>   0.1400 
  7 N       -1.5310     2.8840     1.2050 N.pl3 1 <1>   0.0330 
  8 C       -0.9620     3.2290    -0.8980 C.2   1 <1>  -0.1500 
  9 C       -3.7130    -1.8460    -0.3230 C.3   1 <1>   0.3440 
 10 C       -5.0090     0.1160    -0.2170 C.3   1 <1>   0.2950 
 11 C       -1.1840     4.1870     1.0810 C.2   1 <1>  -0.3020 
 12 C       -0.8270     4.4310    -0.2070 C.2   1 <1>  -0.1500 
 13 O       -4.9610    -1.2680    -0.0330 O.3   1 <1>  -0.5600 
 14 C       -3.7920    -3.3600    -0.1540 C.ar  1 <1>  -0.1440 
 15 C       -6.4430     0.5700     0.0740 C.3   1 <1>  -0.1950 
 16 C       -4.6420    -3.9480     0.7730 C.ar  1 <1>  -0.1500 
 17 C       -2.9830    -4.1740    -0.9350 C.ar  1 <1>  -0.1500 
 18 C       -7.5180     0.4450    -0.9590 C.3   1 <1>  -0.2000 
 19 C       -7.0070     1.8020    -0.5620 C.3   1 <1>  -0.2000 
 20 C       -4.6820    -5.3240     0.9180 C.ar  1 <1>  -0.1500 
 21 C       -3.0220    -5.5500    -0.7920 C.ar  1 <1>  -0.1500 
 22 C       -3.8710    -6.1260     0.1360 C.ar  1 <1>  -0.1500 
 23 H       -1.6740    -1.6480     0.3300 H     1 <1>   0.0800 
 24 H       -2.8370    -1.5670     1.6180 H     1 <1>   0.0800 
 25 H       -4.3090     0.6990     1.7340 H     1 <1>   0.0800 
 26 H       -3.9950     1.8700     0.4830 H     1 <1>   0.0800 
 27 H       -1.8220     2.4050     2.0650 H     1 <1>   0.2700 
 28 H       -0.7470     3.0810    -1.9440 H     1 <1>   0.1500 
 29 H       -3.4700    -1.6160    -1.3460 H     1 <1>   0.0800 
 30 H       -4.7680     0.3270    -1.2450 H     1 <1>   0.0800 
 31 H       -1.2010     4.8750     1.9080 H     1 <1>   0.1500 
 32 H       -0.4960     5.3630    -0.6350 H     1 <1>   0.1500 
 33 H       -6.7270     0.3730     1.0940 H     1 <1>   0.1000 
 34 H       -5.2800    -3.3330     1.3850 H     1 <1>   0.1500 
 35 H       -2.3160    -3.7400    -1.6610 H     1 <1>   0.1500 
 36 H       -7.2590     0.0470    -1.9260 H     1 <1>   0.1000 
 37 H       -8.4990     0.1390    -0.6400 H     1 <1>   0.1000 
 38 H       -7.6500     2.4410     0.0190 H     1 <1>   0.1000 
 39 H       -6.4210     2.3510    -1.2790 H     1 <1>   0.1000 
 40 H       -5.3460    -5.7680     1.6390 H     1 <1>   0.1500 
 41 H       -2.3910    -6.1720    -1.4020 H     1 <1>   0.1500 
 42 H       -3.9030    -7.1960     0.2470 H     1 <1>   0.1500 
@<TRIPOS>BOND
  1   1   2  2   
  2   2   3  am  
  3   2   4  1   
  4   3   5  1   
  5   3   6  1   
  6   4   7  1   
  7   4   8  2   
  8   5   9  1   
  9   5  23  1   
 10   5  24  1   
 11   6  10  1   
 12   6  25  1   
 13   6  26  1   
 14   7  11  1   
 15   7  27  1   
 16   8  12  1   
 17   8  28  1   
 18   9  13  1   
 19   9  14  1   
 20   9  29  1   
 21  10  13  1   
 22  10  15  1   
 23  10  30  1   
 24  11  12  2   
 25  11  31  1   
 26  12  32  1   
 27  14  16  ar  
 28  14  17  ar  
 29  15  18  1   
 30  15  19  1   
 31  15  33  1   
 32  16  20  ar  
 33  16  34  1   
 34  17  21  ar  
 35  17  35  1   
 36  18  19  1   
 37  18  36  1   
 38  18  37  1   
 39  19  38  1   
 40  19  39  1   
 41  20  22  ar  
 42  20  40  1   
 43  21  22  ar  
 44  21  41  1   
 45  22  42  1   
@<TRIPOS>SUBSTRUCTURE
  1 ****   3 GROUP 4 **** **** 0

# MOE 2024.06 (io_trps.svl 2023.06)
