@<TRIPOS>MOLECULE
NONAME
46 48 1 0 0 
SMALL
USER_CHARGES


@<TRIPOS>ATOM
  1 S       -0.5930     0.3050     0.9020 S.o2  1 <1>   1.4470 
  2 O       -1.2190     1.4550     1.5110 O.2   1 <1>  -0.6500 
  3 O       -0.5900    -0.9390     1.6390 O.2   1 <1>  -0.6500 
  4 N       -1.5220     0.0620    -0.4800 N.am  1 <1>  -0.9140 
  5 C        1.0780     0.7100     0.2960 C.ar  1 <1>  -0.0090 
  6 C       -1.6190    -1.2640    -1.1000 C.3   1 <1>   0.2760 
  7 C        1.3590     1.8010    -0.5340 C.ar  1 <1>  -0.1430 
  8 C        2.1390    -0.1110     0.6680 C.ar  1 <1>  -0.1500 
  9 C       -2.4590    -2.2700    -0.3040 C.3   1 <1>  -0.0800 
 10 C       -0.2990    -1.9960    -1.3690 C.3   1 <1>   0.1200 
 11 C        2.6560     2.0280    -0.9690 C.ar  1 <1>  -0.1500 
 12 C        0.2760     2.7740    -0.9850 C.3   1 <1>  -0.0970 
 13 C        3.4330     0.1130     0.2330 C.ar  1 <1>  -0.1430 
 14 C       -1.5090    -3.4630    -0.1590 C.3   1 <1>   0.1200 
 15 C       -3.7500    -2.6430    -1.0560 C.3   1 <1>  -0.0170 
 16 O       -0.6030    -3.3420    -1.2050 O.3   1 <1>  -0.5600 
 17 C        3.6870     1.1910    -0.5920 C.ar  1 <1>  -0.1500 
 18 C        4.5560    -0.8140     0.6620 C.3   1 <1>  -0.0970 
 19 C       -4.5850    -3.6550    -0.2850 C.ar  1 <1>  -0.1430 
 20 C       -4.7000    -4.9690    -0.6930 C.ar  1 <1>  -0.1500 
 21 C       -5.2730    -3.3120     0.8620 C.ar  1 <1>  -0.1500 
 22 C       -5.4730    -5.8510     0.0440 C.ar  1 <1>   0.1600 
 23 C       -6.0180    -4.2720     1.5260 C.ar  1 <1>   0.1600 
 24 N       -6.1350    -5.5340     1.1440 N.ar  1 <1>  -0.6200 
 25 H       -2.4510     0.3580    -0.1920 H     1 <1>   0.4200 
 26 H       -2.0820    -1.1210    -2.0620 H     1 <1>   0.0800 
 27 H        1.9490    -0.9500     1.3160 H     1 <1>   0.1500 
 28 H       -2.7180    -1.9040     0.6730 H     1 <1>   0.0800 
 29 H        0.4680    -1.7560    -0.6590 H     1 <1>   0.0800 
 30 H        0.0560    -1.8390    -2.3720 H     1 <1>   0.0800 
 31 H        2.8760     2.8650    -1.6090 H     1 <1>   0.1500 
 32 H        0.6960     3.5810    -1.5570 H     1 <1>   0.0800 
 33 H       -0.2230     3.2020    -0.1340 H     1 <1>   0.0800 
 34 H       -0.4470     2.2720    -1.6020 H     1 <1>   0.0800 
 35 H       -1.9990    -4.4180    -0.2230 H     1 <1>   0.0800 
 36 H       -0.9580    -3.4030     0.7660 H     1 <1>   0.0800 
 37 H       -3.5010    -3.0450    -2.0240 H     1 <1>   0.0800 
 38 H       -4.3430    -1.7590    -1.2140 H     1 <1>   0.0800 
 39 H        4.6870     1.3860    -0.9400 H     1 <1>   0.1500 
 40 H        5.3660    -0.7810    -0.0450 H     1 <1>   0.0800 
 41 H        4.2020    -1.8280     0.7240 H     1 <1>   0.0800 
 42 H        4.9260    -0.5150     1.6260 H     1 <1>   0.0800 
 43 H       -4.1950    -5.3180    -1.5760 H     1 <1>   0.1500 
 44 H       -5.2370    -2.3100     1.2470 H     1 <1>   0.1500 
 45 H       -5.5500    -6.8710    -0.2900 H     1 <1>   0.1500 
 46 H       -6.5470    -3.9870     2.4190 H     1 <1>   0.1500 
@<TRIPOS>BOND
  1   1   2  2   
  2   1   3  2   
  3   1   4  am  
  4   1   5  1   
  5   4   6  1   
  6   4  25  1   
  7   5   7  ar  
  8   5   8  ar  
  9   6   9  1   
 10   6  10  1   
 11   6  26  1   
 12   7  11  ar  
 13   7  12  1   
 14   8  13  ar  
 15   8  27  1   
 16   9  14  1   
 17   9  15  1   
 18   9  28  1   
 19  10  16  1   
 20  10  29  1   
 21  10  30  1   
 22  11  17  ar  
 23  11  31  1   
 24  12  32  1   
 25  12  33  1   
 26  12  34  1   
 27  13  17  ar  
 28  13  18  1   
 29  14  16  1   
 30  14  35  1   
 31  14  36  1   
 32  15  19  1   
 33  15  37  1   
 34  15  38  1   
 35  17  39  1   
 36  18  40  1   
 37  18  41  1   
 38  18  42  1   
 39  19  20  ar  
 40  19  21  ar  
 41  20  22  ar  
 42  20  43  1   
 43  21  23  ar  
 44  21  44  1   
 45  22  24  ar  
 46  22  45  1   
 47  23  24  ar  
 48  23  46  1   
@<TRIPOS>SUBSTRUCTURE
  1 ****   6 GROUP 4 **** **** 0

# MOE 2024.06 (io_trps.svl 2023.06)
