@<TRIPOS>MOLECULE
NONAME
33 33 1 0 0 
SMALL
USER_CHARGES


@<TRIPOS>ATOM
  1 O        1.1180    -0.8830    -0.7900 O.co2 1 <1>  -0.9000 
  2 C        1.5440     0.0780    -0.1300 C.2   1 <1>   0.9060 
  3 O        0.8430     1.0180     0.2390 O.co2 1 <1>  -0.9000 
  4 C        3.0110    -0.0070     0.3070 C.3   1 <1>   0.3170 
  5 N        3.5150    -1.4300     0.2090 N.4   1 <1>  -0.9060 
  6 C        3.9160     0.9370    -0.5320 C.3   1 <1>   0.2800 
  7 C        2.9770    -2.3050     1.2540 C.3   1 <1>   0.4860 
  8 O        5.2320     0.5560    -0.3180 O.3   1 <1>  -0.6800 
  9 C        3.6990     0.8300    -2.0460 C.3   1 <1>  -0.2400 
 10 C        3.8140     2.3930    -0.0740 C.3   1 <1>  -0.2400 
 11 C        3.2850    -3.7240     0.8370 C.ar  1 <1>  -0.1440 
 12 C        2.4660    -4.3540    -0.0880 C.ar  1 <1>  -0.1500 
 13 C        4.3780    -4.4010     1.3600 C.ar  1 <1>  -0.1500 
 14 C        2.7370    -5.6500    -0.4880 C.ar  1 <1>  -0.1500 
 15 C        4.6470    -5.6980     0.9580 C.ar  1 <1>  -0.1500 
 16 C        3.8280    -6.3220     0.0340 C.ar  1 <1>  -0.1500 
 17 H        3.0540     0.3210     1.3290 H     1 <1>   0.0800 
 18 H        3.0920    -1.7670    -0.6710 H     1 <1>   0.4500 
 19 H        4.5370    -1.4200     0.1220 H     1 <1>   0.4500 
 20 H        3.4250    -2.0790     2.2070 H     1 <1>   0.0800 
 21 H        1.9080    -2.1770     1.3240 H     1 <1>   0.0800 
 22 H        5.8230     1.1900    -0.7710 H     1 <1>   0.4000 
 23 H        2.7110     1.1710    -2.3060 H     1 <1>   0.0800 
 24 H        3.7930    -0.1880    -2.3780 H     1 <1>   0.0800 
 25 H        4.4030     1.4420    -2.5810 H     1 <1>   0.0800 
 26 H        2.8130     2.7570    -0.2300 H     1 <1>   0.0800 
 27 H        4.4840     3.0240    -0.6300 H     1 <1>   0.0800 
 28 H        4.0350     2.4770     0.9760 H     1 <1>   0.0800 
 29 H        1.6110    -3.8390    -0.5030 H     1 <1>   0.1500 
 30 H        5.0260    -3.9310     2.0800 H     1 <1>   0.1500 
 31 H        2.0990    -6.1360    -1.2060 H     1 <1>   0.1500 
 32 H        5.4950    -6.2240     1.3640 H     1 <1>   0.1500 
 33 H        4.0380    -7.3310    -0.2770 H     1 <1>   0.1500 
@<TRIPOS>BOND
  1   1   2  ar  
  2   2   3  ar  
  3   2   4  1   
  4   4   5  1   
  5   4   6  1   
  6   4  17  1   
  7   5   7  1   
  8   5  18  1   
  9   5  19  1   
 10   6   8  1   
 11   6   9  1   
 12   6  10  1   
 13   7  11  1   
 14   7  20  1   
 15   7  21  1   
 16   8  22  1   
 17   9  23  1   
 18   9  24  1   
 19   9  25  1   
 20  10  26  1   
 21  10  27  1   
 22  10  28  1   
 23  11  12  ar  
 24  11  13  ar  
 25  12  14  ar  
 26  12  29  1   
 27  13  15  ar  
 28  13  30  1   
 29  14  16  ar  
 30  14  31  1   
 31  15  16  ar  
 32  15  32  1   
 33  16  33  1   
@<TRIPOS>SUBSTRUCTURE
  1 ****   5 GROUP 4 **** **** 0

# MOE 2024.06 (io_trps.svl 2023.06)
