@<TRIPOS>MOLECULE
NONAME
42 43 1 0 0 
SMALL
USER_CHARGES


@<TRIPOS>ATOM
  1 O        3.1790     0.3390     1.0680 O.2   1 <1>  -0.5700 
  2 C        3.0470     1.2410     0.2790 C.2   1 <1>   0.6900 
  3 N        2.7720     1.0100    -1.0280 N.am  1 <1>  -0.4900 
  4 N        3.1820     2.5370     0.6980 N.am  1 <1>  -0.5390 
  5 C        2.6150     2.0160    -1.9310 C.2   1 <1>   0.6160 
  6 C        3.0500     3.6200    -0.1690 C.2   1 <1>  -0.0290 
  7 O        2.3730     1.7460    -3.0850 O.2   1 <1>  -0.5700 
  8 C        2.7620     3.3580    -1.4680 C.2   1 <1>  -0.1360 
  9 C        3.2320     5.0360     0.3710 C.3   1 <1>   0.4810 
 10 N        4.6530     5.4790     0.2040 N.4   1 <1>  -0.9590 
 11 C        5.6170     4.6130     0.9520 C.3   1 <1>   0.4860 
 12 C        4.8410     6.9230     0.5420 C.3   1 <1>   0.3430 
 13 C        7.0300     4.9660     0.5420 C.ar  1 <1>  -0.1430 
 14 C        4.1620     7.8140    -0.4990 C.3   1 <1>  -0.1600 
 15 C        7.5270     4.5260    -0.6760 C.ar  1 <1>   0.1600 
 16 C        7.8460     5.7250     1.3610 C.ar  1 <1>  -0.1500 
 17 C        4.4890     9.2900    -0.2400 C.3   1 <1>  -0.1600 
 18 N        8.7290     4.8030    -1.1420 N.ar  1 <1>  -0.6200 
 19 C        9.1100     6.0110     0.8900 C.ar  1 <1>  -0.1500 
 20 C        3.8160    10.1900    -1.2790 C.3   1 <1>  -0.2400 
 21 C        9.4970     5.5350    -0.3510 C.ar  1 <1>   0.1600 
 22 H        2.6590     0.0500    -1.3420 H     1 <1>   0.3700 
 23 H        3.2710     2.6030     1.7170 H     1 <1>   0.3700 
 24 H        2.6280     4.1160    -2.2180 H     1 <1>   0.1500 
 25 H        2.9420     5.0760     1.4080 H     1 <1>   0.0800 
 26 H        2.5820     5.6950    -0.1810 H     1 <1>   0.0800 
 27 H        4.8960     5.3790    -0.7900 H     1 <1>   0.4500 
 28 H        5.4430     3.5740     0.7240 H     1 <1>   0.0800 
 29 H        5.4990     4.7520     2.0150 H     1 <1>   0.0800 
 30 H        5.8930     7.1610     0.5450 H     1 <1>   0.0800 
 31 H        4.4480     7.1360     1.5230 H     1 <1>   0.0800 
 32 H        3.0940     7.6940    -0.4640 H     1 <1>   0.0800 
 33 H        4.5130     7.5550    -1.4840 H     1 <1>   0.0800 
 34 H        6.9120     3.9130    -1.3140 H     1 <1>   0.1500 
 35 H        7.5330     6.0840     2.3270 H     1 <1>   0.1500 
 36 H        5.5540     9.4460    -0.2840 H     1 <1>   0.0800 
 37 H        4.1500     9.5790     0.7420 H     1 <1>   0.0800 
 38 H        9.7980     6.5950     1.4760 H     1 <1>   0.1500 
 39 H        4.1560     9.9480    -2.2720 H     1 <1>   0.0800 
 40 H        4.0570    11.2200    -1.0840 H     1 <1>   0.0800 
 41 H        2.7450    10.0830    -1.2440 H     1 <1>   0.0800 
 42 H       10.4870     5.7670    -0.7110 H     1 <1>   0.1500 
@<TRIPOS>BOND
  1   1   2  2   
  2   2   3  am  
  3   2   4  am  
  4   3   5  am  
  5   3  22  1   
  6   4   6  1   
  7   4  23  1   
  8   5   7  2   
  9   5   8  1   
 10   6   8  2   
 11   6   9  1   
 12   8  24  1   
 13   9  10  1   
 14   9  25  1   
 15   9  26  1   
 16  10  11  1   
 17  10  12  1   
 18  10  27  1   
 19  11  13  1   
 20  11  28  1   
 21  11  29  1   
 22  12  14  1   
 23  12  30  1   
 24  12  31  1   
 25  13  15  ar  
 26  13  16  ar  
 27  14  17  1   
 28  14  32  1   
 29  14  33  1   
 30  15  18  ar  
 31  15  34  1   
 32  16  19  ar  
 33  16  35  1   
 34  17  20  1   
 35  17  36  1   
 36  17  37  1   
 37  18  21  ar  
 38  19  21  ar  
 39  19  38  1   
 40  20  39  1   
 41  20  40  1   
 42  20  41  1   
 43  21  42  1   
@<TRIPOS>SUBSTRUCTURE
  1 ****  10 GROUP 4 **** **** 0

# MOE 2024.06 (io_trps.svl 2023.06)
