@<TRIPOS>MOLECULE
NONAME
44 46 1 0 0 
SMALL
USER_CHARGES


@<TRIPOS>ATOM
  1 O        0.3210    -2.3970    -0.4800 O.3   1 <1>  -0.0190 
  2 N       -0.5460    -1.4650    -0.2150 N.2   1 <1>  -0.4100 
  3 C       -0.0370    -3.5510     0.0130 C.2   1 <1>  -0.0400 
  4 C       -1.4800    -2.0230     0.4640 C.2   1 <1>   0.1080 
  5 C       -1.2140    -3.3810     0.6380 C.2   1 <1>  -0.1810 
  6 C        0.8620    -4.7510    -0.2030 C.3   1 <1>  -0.0600 
  7 C       -2.6850    -1.2650     0.9870 C.3   1 <1>  -0.0590 
  8 C       -2.0930    -4.3790     1.3520 C.3   1 <1>   0.5240 
  9 N       -2.6560    -5.3160     0.3540 N.4   1 <1>  -0.9590 
 10 C       -3.3310    -4.6610    -0.8140 C.3   1 <1>   0.3430 
 11 C       -3.6240    -6.2920     0.9070 C.3   1 <1>   0.3430 
 12 C       -4.6540    -5.4160    -1.0220 C.3   1 <1>   0.2000 
 13 C       -4.4200    -6.7510    -0.3160 C.3   1 <1>  -0.0800 
 14 O       -5.6510    -4.7380    -0.3310 O.3   1 <1>  -0.6800 
 15 C       -3.6450    -7.7350    -1.2350 C.3   1 <1>   0.0210 
 16 C       -2.4270    -8.3780    -0.5920 C.2   1 <1>   0.1080 
 17 N       -1.3020    -7.7500    -0.4030 N.2   1 <1>  -0.7070 
 18 C       -2.3770    -9.6950    -0.1520 C.2   1 <1>  -0.1500 
 19 N       -0.4860    -8.6840     0.1410 N.pl3 1 <1>   0.3000 
 20 C       -1.1220    -9.8590     0.3140 C.2   1 <1>  -0.3320 
 21 C       -0.4780   -11.0990     0.9100 C.3   1 <1>  -0.0600 
 22 H        0.4740    -5.6160     0.3000 H     1 <1>   0.0800 
 23 H        1.8450    -4.5390     0.1790 H     1 <1>   0.0800 
 24 H        0.9410    -4.9620    -1.2550 H     1 <1>   0.0800 
 25 H       -3.5960    -1.7240     0.6510 H     1 <1>   0.0800 
 26 H       -2.6600    -0.2510     0.6260 H     1 <1>   0.0800 
 27 H       -2.6680    -1.2430     2.0610 H     1 <1>   0.0800 
 28 H       -2.8890    -3.8610     1.8610 H     1 <1>   0.0800 
 29 H       -1.5120    -4.9200     2.0800 H     1 <1>   0.0800 
 30 H       -1.8840    -5.9060    -0.0240 H     1 <1>   0.4500 
 31 H       -3.5280    -3.6180    -0.6320 H     1 <1>   0.0800 
 32 H       -2.7050    -4.7560    -1.6860 H     1 <1>   0.0800 
 33 H       -3.1290    -7.1120     1.4020 H     1 <1>   0.0800 
 34 H       -4.2900    -5.7990     1.5970 H     1 <1>   0.0800 
 35 H       -4.9370    -5.4910    -2.0590 H     1 <1>   0.0800 
 36 H       -5.3430    -7.2100    -0.0100 H     1 <1>   0.0800 
 37 H       -6.5430    -5.0550    -0.5890 H     1 <1>   0.4000 
 38 H       -3.3000    -7.2380    -2.1250 H     1 <1>   0.0800 
 39 H       -4.3140    -8.5110    -1.5610 H     1 <1>   0.0800 
 40 H       -3.1740   -10.4170    -0.1930 H     1 <1>   0.1500 
 41 H        0.5010    -8.5070     0.3730 H     1 <1>   0.2700 
 42 H       -1.1860   -11.9080     0.9370 H     1 <1>   0.0800 
 43 H       -0.1470   -10.9040     1.9150 H     1 <1>   0.0800 
 44 H        0.3650   -11.4050     0.3160 H     1 <1>   0.0800 
@<TRIPOS>BOND
  1   1   2  1   
  2   1   3  1   
  3   2   4  2   
  4   3   5  2   
  5   3   6  1   
  6   4   5  1   
  7   4   7  1   
  8   5   8  1   
  9   6  22  1   
 10   6  23  1   
 11   6  24  1   
 12   7  25  1   
 13   7  26  1   
 14   7  27  1   
 15   8   9  1   
 16   8  28  1   
 17   8  29  1   
 18   9  10  1   
 19   9  11  1   
 20   9  30  1   
 21  10  12  1   
 22  10  31  1   
 23  10  32  1   
 24  11  13  1   
 25  11  33  1   
 26  11  34  1   
 27  12  13  1   
 28  12  14  1   
 29  12  35  1   
 30  13  15  1   
 31  13  36  1   
 32  14  37  1   
 33  15  16  1   
 34  15  38  1   
 35  15  39  1   
 36  16  17  2   
 37  16  18  1   
 38  17  19  1   
 39  18  20  2   
 40  18  40  1   
 41  19  20  1   
 42  19  41  1   
 43  20  21  1   
 44  21  42  1   
 45  21  43  1   
 46  21  44  1   
@<TRIPOS>SUBSTRUCTURE
  1 ****   9 GROUP 4 **** **** 0

# MOE 2024.06 (io_trps.svl 2023.06)
