@<TRIPOS>MOLECULE
NONAME
54 57 1 0 0 
SMALL
USER_CHARGES


@<TRIPOS>ATOM
  1 O        0.9530    -0.3820    -1.6530 O.2   1 <1>  -0.5700 
  2 C        1.5670    -0.8250    -0.6940 C.2   1 <1>   0.5440 
  3 N        1.1110    -2.0090    -0.1270 N.am  1 <1>  -0.6600 
  4 C        2.7520    -0.0980    -0.2260 C.ar  1 <1>   0.3960 
  5 C       -0.2280    -2.5700    -0.4600 C.3   1 <1>   0.1400 
  6 C        1.8980    -2.8120     0.8510 C.3   1 <1>   0.1400 
  7 N        2.9560     0.1140     1.0890 N.ar  1 <1>  -0.6200 
  8 C        3.6540     0.3790    -1.1800 C.ar  1 <1>  -0.1500 
  9 C       -0.0810    -4.0040    -0.9740 C.3   1 <1>  -0.1600 
 10 C        2.0390    -4.2520     0.3520 C.3   1 <1>  -0.1600 
 11 C        4.0390     0.7870     1.4290 C.ar  1 <1>   0.1600 
 12 C        4.7830     1.0760    -0.8110 C.ar  1 <1>  -0.1500 
 13 C        0.6720    -4.8890     0.0350 C.3   1 <1>  -0.0190 
 14 C        4.9720     1.2810     0.5360 C.ar  1 <1>  -0.1500 
 15 C        0.7940    -6.3270    -0.4850 C.2   1 <1>   0.5690 
 16 O        1.7620    -6.6290    -1.1430 O.2   1 <1>  -0.5700 
 17 N       -0.1840    -7.2470    -0.2140 N.am  1 <1>  -0.6600 
 18 C       -1.4320    -7.0330     0.5600 C.3   1 <1>   0.1400 
 19 C       -0.1200    -8.6380    -0.7250 C.3   1 <1>   0.1400 
 20 C       -2.1990    -8.3510     0.4520 C.3   1 <1>   0.2000 
 21 C       -1.1590    -9.4100     0.0920 C.3   1 <1>  -0.0800 
 22 O       -2.8170    -8.6800     1.6480 O.3   1 <1>  -0.6800 
 23 C       -1.7710   -10.6160    -0.6410 C.3   1 <1>  -0.0170 
 24 C       -0.7260   -11.6710    -0.9650 C.ar  1 <1>   0.1670 
 25 N       -0.0100   -11.4750    -2.0600 N.ar  1 <1>  -0.6200 
 26 C       -0.5600   -12.7700    -0.1240 C.ar  1 <1>   0.1600 
 27 C        0.8760   -12.4380    -2.2540 C.ar  1 <1>   0.1600 
 28 N        0.3250   -13.7340    -0.3150 N.ar  1 <1>  -0.6200 
 29 C        1.0390   -13.5300    -1.4090 C.ar  1 <1>   0.1600 
 30 H       -0.8380    -2.5580     0.4270 H     1 <1>   0.0800 
 31 H       -0.7230    -1.9720    -1.2060 H     1 <1>   0.0800 
 32 H        2.8830    -2.4010     0.9860 H     1 <1>   0.0800 
 33 H        1.3950    -2.7940     1.8030 H     1 <1>   0.0800 
 34 H        3.4500     0.1950    -2.2200 H     1 <1>   0.1500 
 35 H       -1.0570    -4.4110    -1.1660 H     1 <1>   0.0800 
 36 H        0.4520    -3.9850    -1.9090 H     1 <1>   0.0800 
 37 H        2.6540    -4.2500    -0.5310 H     1 <1>   0.0800 
 38 H        2.5460    -4.8390     1.0970 H     1 <1>   0.0800 
 39 H        4.1950     0.9570     2.4820 H     1 <1>   0.1500 
 40 H        5.4820     1.4450    -1.5430 H     1 <1>   0.1500 
 41 H        0.1140    -4.9070     0.9520 H     1 <1>   0.0800 
 42 H        5.8310     1.8200     0.8940 H     1 <1>   0.1500 
 43 H       -1.1830    -6.8180     1.5840 H     1 <1>   0.0800 
 44 H       -2.0050    -6.2270     0.1360 H     1 <1>   0.0800 
 45 H       -0.3740    -8.6390    -1.7720 H     1 <1>   0.0800 
 46 H        0.8680    -9.0510    -0.6030 H     1 <1>   0.0800 
 47 H       -2.9560    -8.2700    -0.3110 H     1 <1>   0.0800 
 48 H       -0.6660    -9.7480     0.9870 H     1 <1>   0.0800 
 49 H       -2.1530    -8.8000     2.3550 H     1 <1>   0.4000 
 50 H       -2.2360   -10.2930    -1.5560 H     1 <1>   0.0800 
 51 H       -2.5400   -11.0500    -0.0250 H     1 <1>   0.0800 
 52 H       -1.1850   -12.8560     0.7470 H     1 <1>   0.1500 
 53 H        1.5060   -12.3590    -3.1220 H     1 <1>   0.1500 
 54 H        1.7880   -14.2620    -1.6510 H     1 <1>   0.1500 
@<TRIPOS>BOND
  1   1   2  2   
  2   2   3  am  
  3   2   4  1   
  4   3   5  1   
  5   3   6  1   
  6   4   7  ar  
  7   4   8  ar  
  8   5   9  1   
  9   5  30  1   
 10   5  31  1   
 11   6  10  1   
 12   6  32  1   
 13   6  33  1   
 14   7  11  ar  
 15   8  12  ar  
 16   8  34  1   
 17   9  13  1   
 18   9  35  1   
 19   9  36  1   
 20  10  13  1   
 21  10  37  1   
 22  10  38  1   
 23  11  14  ar  
 24  11  39  1   
 25  12  14  ar  
 26  12  40  1   
 27  13  15  1   
 28  13  41  1   
 29  14  42  1   
 30  15  16  2   
 31  15  17  am  
 32  17  18  1   
 33  17  19  1   
 34  18  20  1   
 35  18  43  1   
 36  18  44  1   
 37  19  21  1   
 38  19  45  1   
 39  19  46  1   
 40  20  21  1   
 41  20  22  1   
 42  20  47  1   
 43  21  23  1   
 44  21  48  1   
 45  22  49  1   
 46  23  24  1   
 47  23  50  1   
 48  23  51  1   
 49  24  25  ar  
 50  24  26  ar  
 51  25  27  ar  
 52  26  28  ar  
 53  26  52  1   
 54  27  29  ar  
 55  27  53  1   
 56  28  29  ar  
 57  29  54  1   
@<TRIPOS>SUBSTRUCTURE
  1 ****  15 GROUP 4 **** **** 0

# MOE 2024.06 (io_trps.svl 2023.06)
