@<TRIPOS>MOLECULE
NONAME
42 43 1 0 0 
SMALL
USER_CHARGES


@<TRIPOS>ATOM
  1 S       -0.3840     0.1630     1.4590 S.o2  1 <1>   1.4470 
  2 O       -0.9420     1.3130     2.1260 O.2   1 <1>  -0.6500 
  3 O       -0.2560    -1.0840     2.1760 O.2   1 <1>  -0.6500 
  4 N       -1.4340    -0.0820     0.1680 N.am  1 <1>  -0.9140 
  5 C        1.1820     0.6130     0.6610 C.ar  1 <1>  -0.0090 
  6 C       -1.5780    -1.4100    -0.4380 C.3   1 <1>   0.2760 
  7 C        1.2250     1.6060    -0.3110 C.ar  1 <1>  -0.1500 
  8 C        2.3760    -0.0220     1.0000 C.ar  1 <1>  -0.1500 
  9 C       -2.3380    -2.4140     0.4350 C.3   1 <1>  -0.0800 
 10 C       -0.2820    -2.1380    -0.8180 C.3   1 <1>   0.1200 
 11 C        2.4280     1.9270    -0.9090 C.ar  1 <1>   0.1900 
 12 C        3.5780     0.3100     0.3920 C.ar  1 <1>  -0.1500 
 13 C       -1.3610    -3.5910     0.5280 C.3   1 <1>   0.1200 
 14 C       -3.6640    -2.8290    -0.2320 C.3   1 <1>  -0.0550 
 15 O       -0.5600    -3.4820    -0.6030 O.3   1 <1>  -0.5600 
 16 F        2.4460     2.8580    -1.8230 F     1 <1>  -0.1900 
 17 C        3.6100     1.2960    -0.5770 C.ar  1 <1>  -0.1500 
 18 S       -4.7710    -3.7220     0.8590 S.o2  1 <1>   1.3330 
 19 O       -4.1980    -5.0020     1.2090 O.2   1 <1>  -0.6500 
 20 O       -5.1740    -2.8030     1.8990 O.2   1 <1>  -0.6500 
 21 N       -6.1120    -4.0100    -0.1410 N.am  1 <1>  -0.8490 
 22 C       -5.9610    -5.1990    -0.9870 C.3   1 <1>   0.1160 
 23 C       -7.3620    -4.1000     0.6200 C.3   1 <1>   0.1160 
 24 H       -2.3360     0.2090     0.5420 H     1 <1>   0.4200 
 25 H       -2.1230    -1.2720    -1.3560 H     1 <1>   0.0800 
 26 H        0.3290     2.1270    -0.6010 H     1 <1>   0.1500 
 27 H        2.3660    -0.7920     1.7550 H     1 <1>   0.1500 
 28 H       -2.5390    -2.0280     1.4200 H     1 <1>   0.0800 
 29 H        0.5490    -1.8810    -0.1910 H     1 <1>   0.0800 
 30 H       -0.0270    -1.9980    -1.8540 H     1 <1>   0.0800 
 31 H        4.4850    -0.1990     0.6740 H     1 <1>   0.1500 
 32 H       -1.8340    -4.5570     0.5300 H     1 <1>   0.0800 
 33 H       -0.7270    -3.5010     1.3950 H     1 <1>   0.0800 
 34 H       -3.4520    -3.4240    -1.0990 H     1 <1>   0.0800 
 35 H       -4.1760    -1.9450    -0.5600 H     1 <1>   0.0800 
 36 H        4.5280     1.5730    -1.0650 H     1 <1>   0.1500 
 37 H       -6.7940    -5.2800    -1.6640 H     1 <1>   0.0800 
 38 H       -5.9140    -6.0900    -0.3820 H     1 <1>   0.0800 
 39 H       -5.0570    -5.1310    -1.5690 H     1 <1>   0.0800 
 40 H       -8.1930    -4.2670    -0.0430 H     1 <1>   0.0800 
 41 H       -7.5380    -3.1800     1.1520 H     1 <1>   0.0800 
 42 H       -7.3090    -4.9060     1.3340 H     1 <1>   0.0800 
@<TRIPOS>BOND
  1   1   2  2   
  2   1   3  2   
  3   1   4  am  
  4   1   5  1   
  5   4   6  1   
  6   4  24  1   
  7   5   7  ar  
  8   5   8  ar  
  9   6   9  1   
 10   6  10  1   
 11   6  25  1   
 12   7  11  ar  
 13   7  26  1   
 14   8  12  ar  
 15   8  27  1   
 16   9  13  1   
 17   9  14  1   
 18   9  28  1   
 19  10  15  1   
 20  10  29  1   
 21  10  30  1   
 22  11  16  1   
 23  11  17  ar  
 24  12  17  ar  
 25  12  31  1   
 26  13  15  1   
 27  13  32  1   
 28  13  33  1   
 29  14  18  1   
 30  14  34  1   
 31  14  35  1   
 32  17  36  1   
 33  18  19  2   
 34  18  20  2   
 35  18  21  am  
 36  21  22  1   
 37  21  23  1   
 38  22  37  1   
 39  22  38  1   
 40  22  39  1   
 41  23  40  1   
 42  23  41  1   
 43  23  42  1   
@<TRIPOS>SUBSTRUCTURE
  1 ****   6 GROUP 4 **** **** 0

# MOE 2024.06 (io_trps.svl 2023.06)
