@<TRIPOS>MOLECULE
NONAME
45 46 1 0 0 
SMALL
USER_CHARGES


@<TRIPOS>ATOM
  1 O       -2.0590     0.1920    -2.2170 O.2   1 <1>  -0.5700 
  2 C       -1.9770     0.4110    -1.0280 C.2   1 <1>   0.5690 
  3 N       -1.9510    -0.6140    -0.1360 N.am  1 <1>  -0.7300 
  4 C       -1.9120     1.8750    -0.4980 C.3   1 <1>   0.3410 
  5 C       -2.0160    -2.0570    -0.4520 C.3   1 <1>   0.2200 
  6 O       -1.9410     1.8320     0.9210 O.3   1 <1>  -0.5600 
  7 C       -0.6030     2.5340    -0.9640 C.3   1 <1>  -0.2400 
  8 C       -3.1340     2.6680    -0.9930 C.3   1 <1>  -0.2400 
  9 C       -3.3810    -2.6360    -0.1110 C.3   1 <1>  -0.0800 
 10 C       -1.1300    -2.8240     0.5210 C.3   1 <1>   0.1200 
 11 C       -1.8240     3.0050     1.6670 C.3   1 <1>   0.1200 
 12 C       -3.2580    -2.9400     1.3840 C.3   1 <1>   0.1200 
 13 C       -4.5930    -1.7610    -0.4800 C.3   1 <1>  -0.0170 
 14 O       -1.8910    -2.9850     1.6800 O.3   1 <1>  -0.5600 
 15 C       -1.9590     2.6150     3.1340 C.3   1 <1>  -0.2400 
 16 C       -5.8960    -2.4840    -0.1760 C.ar  1 <1>  -0.1430 
 17 C       -6.4310    -3.4120    -1.0470 C.ar  1 <1>  -0.1500 
 18 C       -6.6090    -2.2550     0.9830 C.ar  1 <1>  -0.1500 
 19 C       -7.6170    -4.0510    -0.7230 C.ar  1 <1>   0.1600 
 20 C       -7.7860    -2.9490     1.2120 C.ar  1 <1>   0.1600 
 21 N       -8.3060    -3.8430     0.3870 N.ar  1 <1>  -0.6200 
 22 H       -1.9060    -0.3680     0.8590 H     1 <1>   0.3700 
 23 H       -1.7370    -2.2290    -1.4790 H     1 <1>   0.0800 
 24 H       -0.5210     2.4480    -2.0330 H     1 <1>   0.0800 
 25 H        0.2380     2.0320    -0.5220 H     1 <1>   0.0800 
 26 H       -0.5760     3.5800    -0.7200 H     1 <1>   0.0800 
 27 H       -3.1980     2.5970    -2.0650 H     1 <1>   0.0800 
 28 H       -3.0620     3.7090    -0.7420 H     1 <1>   0.0800 
 29 H       -4.0340     2.2530    -0.5770 H     1 <1>   0.0800 
 30 H       -3.4760    -3.5770    -0.6240 H     1 <1>   0.0800 
 31 H       -0.2180    -2.3040     0.7530 H     1 <1>   0.0800 
 32 H       -0.9070    -3.8050     0.1380 H     1 <1>   0.0800 
 33 H       -0.8590     3.4480     1.4920 H     1 <1>   0.0800 
 34 H       -2.6060     3.6910     1.3950 H     1 <1>   0.0800 
 35 H       -3.7050    -3.8850     1.6400 H     1 <1>   0.0800 
 36 H       -3.6910    -2.1580     1.9830 H     1 <1>   0.0800 
 37 H       -4.5530    -1.5210    -1.5290 H     1 <1>   0.0800 
 38 H       -4.5670    -0.8330     0.0630 H     1 <1>   0.0800 
 39 H       -1.1800     1.9260     3.4060 H     1 <1>   0.0800 
 40 H       -2.9180     2.1620     3.3090 H     1 <1>   0.0800 
 41 H       -1.8740     3.4900     3.7520 H     1 <1>   0.0800 
 42 H       -5.9380    -3.6420    -1.9730 H     1 <1>   0.1500 
 43 H       -6.2620    -1.5450     1.7110 H     1 <1>   0.1500 
 44 H       -8.0190    -4.7710    -1.4150 H     1 <1>   0.1500 
 45 H       -8.3280    -2.7580     2.1220 H     1 <1>   0.1500 
@<TRIPOS>BOND
  1   1   2  2   
  2   2   3  am  
  3   2   4  1   
  4   3   5  1   
  5   3  22  1   
  6   4   6  1   
  7   4   7  1   
  8   4   8  1   
  9   5   9  1   
 10   5  10  1   
 11   5  23  1   
 12   6  11  1   
 13   7  24  1   
 14   7  25  1   
 15   7  26  1   
 16   8  27  1   
 17   8  28  1   
 18   8  29  1   
 19   9  12  1   
 20   9  13  1   
 21   9  30  1   
 22  10  14  1   
 23  10  31  1   
 24  10  32  1   
 25  11  15  1   
 26  11  33  1   
 27  11  34  1   
 28  12  14  1   
 29  12  35  1   
 30  12  36  1   
 31  13  16  1   
 32  13  37  1   
 33  13  38  1   
 34  15  39  1   
 35  15  40  1   
 36  15  41  1   
 37  16  17  ar  
 38  16  18  ar  
 39  17  19  ar  
 40  17  42  1   
 41  18  20  ar  
 42  18  43  1   
 43  19  21  ar  
 44  19  44  1   
 45  20  21  ar  
 46  20  45  1   
@<TRIPOS>SUBSTRUCTURE
  1 ****  13 GROUP 4 **** **** 0

# MOE 2024.06 (io_trps.svl 2023.06)
