@<TRIPOS>MOLECULE
NONAME
40 41 1 0 0 
SMALL
USER_CHARGES


@<TRIPOS>ATOM
  1 O        0.6510    -0.5750    -1.0900 O.2   1 <1>  -0.5700 
  2 C        1.6270    -0.7860    -0.4070 C.2   1 <1>   0.5690 
  3 N        2.5230     0.1900    -0.0720 N.am  1 <1>  -0.4940 
  4 C        1.8320    -2.2200     0.1220 C.3   1 <1>   0.0610 
  5 C        2.5400     1.5380    -0.4530 C.2   1 <1>   0.2040 
  6 C        1.3230    -3.1960    -0.9420 C.3   1 <1>   0.3430 
  7 C        0.8750    -2.4970     1.2970 C.3   1 <1>  -0.1600 
  8 C        3.2950    -2.5360     0.5050 C.3   1 <1>  -0.2400 
  9 O        1.6730     2.0360    -1.3020 O.3   1 <1>  -0.0190 
 10 C        3.3700     2.5340    -0.0860 C.2   1 <1>  -0.1810 
 11 N       -0.1520    -3.2040    -0.7630 N.4   1 <1>  -0.9590 
 12 C       -0.4120    -3.0650     0.6930 C.3   1 <1>   0.3430 
 13 N        1.8830     3.3080    -1.5230 N.2   1 <1>  -0.4100 
 14 C        2.8970     3.6320    -0.8040 C.2   1 <1>   0.1080 
 15 C        4.5470     2.5080     0.8760 C.3   1 <1>   0.0210 
 16 C       -0.8600    -4.3370    -1.4240 C.3   1 <1>   0.2630 
 17 C        3.4690     5.0330    -0.7680 C.3   1 <1>  -0.0590 
 18 C        5.8570     2.2810     0.1190 C.3   1 <1>  -0.2400 
 19 H        3.3010    -0.0820     0.5240 H     1 <1>   0.3700 
 20 H        1.7190    -4.1810    -0.7550 H     1 <1>   0.0800 
 21 H        1.5980    -2.8760    -1.9350 H     1 <1>   0.0800 
 22 H        0.6680    -1.6060     1.8650 H     1 <1>   0.0800 
 23 H        1.2850    -3.2320     1.9680 H     1 <1>   0.0800 
 24 H        3.9550    -2.3370    -0.3230 H     1 <1>   0.0800 
 25 H        3.4050    -3.5720     0.7760 H     1 <1>   0.0800 
 26 H        3.6090    -1.9430     1.3470 H     1 <1>   0.0800 
 27 H       -0.4580    -2.3010    -1.1880 H     1 <1>   0.4500 
 28 H       -1.2440    -2.4000     0.8640 H     1 <1>   0.0800 
 29 H       -0.6290    -4.0260     1.1330 H     1 <1>   0.0800 
 30 H        4.4080     1.7210     1.5960 H     1 <1>   0.0800 
 31 H        4.5940     3.4370     1.4160 H     1 <1>   0.0800 
 32 H       -0.5410    -5.2760    -1.0020 H     1 <1>   0.0800 
 33 H       -0.6490    -4.3410    -2.4810 H     1 <1>   0.0800 
 34 H       -1.9250    -4.2400    -1.2880 H     1 <1>   0.0800 
 35 H        4.4930     5.0200    -1.0930 H     1 <1>   0.0800 
 36 H        3.4150     5.4250     0.2300 H     1 <1>   0.0800 
 37 H        2.9070     5.6750    -1.4220 H     1 <1>   0.0800 
 38 H        5.8240     1.3480    -0.4170 H     1 <1>   0.0800 
 39 H        6.6830     2.2560     0.8060 H     1 <1>   0.0800 
 40 H        6.0220     3.0740    -0.5890 H     1 <1>   0.0800 
@<TRIPOS>BOND
  1   1   2  2   
  2   2   3  am  
  3   2   4  1   
  4   3   5  1   
  5   3  19  1   
  6   4   6  1   
  7   4   7  1   
  8   4   8  1   
  9   5   9  1   
 10   5  10  2   
 11   6  11  1   
 12   6  20  1   
 13   6  21  1   
 14   7  12  1   
 15   7  22  1   
 16   7  23  1   
 17   8  24  1   
 18   8  25  1   
 19   8  26  1   
 20   9  13  1   
 21  10  14  1   
 22  10  15  1   
 23  11  12  1   
 24  11  16  1   
 25  11  27  1   
 26  12  28  1   
 27  12  29  1   
 28  13  14  2   
 29  14  17  1   
 30  15  18  1   
 31  15  30  1   
 32  15  31  1   
 33  16  32  1   
 34  16  33  1   
 35  16  34  1   
 36  17  35  1   
 37  17  36  1   
 38  17  37  1   
 39  18  38  1   
 40  18  39  1   
 41  18  40  1   
@<TRIPOS>SUBSTRUCTURE
  1 ****   3 GROUP 4 **** **** 0

# MOE 2024.06 (io_trps.svl 2023.06)
