@<TRIPOS>MOLECULE
NONAME
22 22 1 0 0 
SMALL
USER_CHARGES


@<TRIPOS>ATOM
  1 F       -0.0710    -1.4390    -1.4870 F     1 <1>  -0.3400 
  2 C        0.0020    -1.5760    -0.1710 C.3   1 <1>   1.0200 
  3 F       -1.0240    -0.9080     0.3360 F     1 <1>  -0.3400 
  4 F        1.0990    -0.9440     0.2180 F     1 <1>  -0.3400 
  5 C        0.0080    -3.0490     0.2590 C.3   1 <1>  -0.1600 
  6 C       -1.2500    -3.8380    -0.1680 C.3   1 <1>  -0.1600 
  7 C       -1.2220    -5.2990     0.3140 C.3   1 <1>  -0.0800 
  8 C       -0.0890    -6.1450    -0.3050 C.3   1 <1>   0.1400 
  9 C       -2.5330    -6.0490    -0.0150 C.3   1 <1>  -0.0990 
 10 N       -0.7360    -7.4340    -0.5680 N.am  1 <1>  -0.7300 
 11 C       -2.0650    -7.4190    -0.4140 C.2   1 <1>   0.5690 
 12 O       -2.7900    -8.3650    -0.5790 O.2   1 <1>  -0.5700 
 13 H        0.1010    -3.0760     1.3290 H     1 <1>   0.0800 
 14 H        0.8860    -3.5030    -0.1620 H     1 <1>   0.0800 
 15 H       -1.3450    -3.8170    -1.2420 H     1 <1>   0.0800 
 16 H       -2.1220    -3.3570     0.2430 H     1 <1>   0.0800 
 17 H       -1.0930    -5.3150     1.3830 H     1 <1>   0.0800 
 18 H        0.7350    -6.2630     0.3780 H     1 <1>   0.0800 
 19 H        0.2560    -5.7260    -1.2350 H     1 <1>   0.0800 
 20 H       -3.0510    -5.6110    -0.8490 H     1 <1>   0.0800 
 21 H       -3.1870    -6.1060     0.8340 H     1 <1>   0.0800 
 22 H       -0.2330    -8.2720    -0.8680 H     1 <1>   0.3700 
@<TRIPOS>BOND
  1   1   2  1   
  2   2   3  1   
  3   2   4  1   
  4   2   5  1   
  5   5   6  1   
  6   5  13  1   
  7   5  14  1   
  8   6   7  1   
  9   6  15  1   
 10   6  16  1   
 11   7   8  1   
 12   7   9  1   
 13   7  17  1   
 14   8  10  1   
 15   8  18  1   
 16   8  19  1   
 17   9  11  1   
 18   9  20  1   
 19   9  21  1   
 20  10  11  am  
 21  10  22  1   
 22  11  12  2   
@<TRIPOS>SUBSTRUCTURE
  1 ****   6 GROUP 4 **** **** 0

# MOE 2024.06 (io_trps.svl 2023.06)
