@<TRIPOS>MOLECULE
NONAME
44 47 1 0 0 
SMALL
USER_CHARGES


@<TRIPOS>ATOM
  1 O        2.6580    -0.9840    -2.3570 O.2   1 <1>  -0.5700 
  2 C        2.1890    -1.4000    -1.3090 C.2   1 <1>   0.5440 
  3 N        1.6550    -0.4580    -0.4450 N.am  1 <1>  -0.6600 
  4 C        2.2520    -2.8390    -1.0330 C.ar  1 <1>   0.3960 
  5 C        1.1200    -0.7190     0.9120 C.3   1 <1>   0.1400 
  6 C        1.7060     0.9960    -0.7170 C.3   1 <1>   0.1400 
  7 N        1.3240    -3.4520    -0.2750 N.ar  1 <1>  -0.6200 
  8 C        3.3140    -3.5580    -1.5960 C.ar  1 <1>   0.1600 
  9 C        0.7210     0.6490     1.4550 C.3   1 <1>  -0.1600 
 10 C        1.5430     1.6490     0.6490 C.3   1 <1>  -0.1600 
 11 C        1.5280    -4.7420    -0.1260 C.ar  1 <1>   0.4100 
 12 N        3.5370    -4.8580    -1.4490 N.ar  1 <1>  -0.6200 
 13 N        0.5780    -5.3580     0.6390 N.pl3 1 <1>  -0.8690 
 14 C        2.6160    -5.4210    -0.6950 C.ar  1 <1>   0.1600 
 15 C       -0.1610    -6.5120     0.0890 C.3   1 <1>   0.4330 
 16 C       -1.6350    -6.2160     0.2380 C.ar  1 <1>  -0.1430 
 17 C        0.0230    -7.7760     0.9650 C.3   1 <1>   0.2000 
 18 C       -2.1810    -6.9190     1.2870 C.ar  1 <1>  -0.1430 
 19 C       -2.4160    -5.3680    -0.5260 C.ar  1 <1>  -0.1500 
 20 O       -0.1170    -8.9170     0.1750 O.3   1 <1>  -0.6800 
 21 C       -1.1330    -7.7610     1.9800 C.3   1 <1>  -0.0170 
 22 C       -3.5230    -6.8010     1.5950 C.ar  1 <1>  -0.1500 
 23 C       -3.7630    -5.2430    -0.2230 C.ar  1 <1>  -0.1500 
 24 C       -4.3140    -5.9570     0.8310 C.ar  1 <1>  -0.1500 
 25 H        0.2680    -1.3760     0.8690 H     1 <1>   0.0800 
 26 H        1.8910    -1.1610     1.5200 H     1 <1>   0.0800 
 27 H        2.6380     1.2740    -1.1810 H     1 <1>   0.0800 
 28 H        0.8870     1.2580    -1.3640 H     1 <1>   0.0800 
 29 H        4.0200    -3.0180    -2.2030 H     1 <1>   0.1500 
 30 H       -0.3270     0.8050     1.2680 H     1 <1>   0.0800 
 31 H        0.9010     0.7260     2.5130 H     1 <1>   0.0800 
 32 H        2.5150     1.7700     1.0960 H     1 <1>   0.0800 
 33 H        1.0680     2.6110     0.5780 H     1 <1>   0.0800 
 34 H       -0.1000    -4.6720     0.9850 H     1 <1>   0.4000 
 35 H        2.7070    -6.4740    -0.5020 H     1 <1>   0.1500 
 36 H        0.1120    -6.6970    -0.9370 H     1 <1>   0.0800 
 37 H        0.9920    -7.8090     1.4310 H     1 <1>   0.0800 
 38 H       -1.9850    -4.8110    -1.3410 H     1 <1>   0.1500 
 39 H       -1.0400    -8.9840    -0.1460 H     1 <1>   0.4000 
 40 H       -1.4820    -8.7490     2.2240 H     1 <1>   0.0800 
 41 H       -0.8210    -7.2560     2.8770 H     1 <1>   0.0800 
 42 H       -3.9480    -7.3520     2.4160 H     1 <1>   0.1500 
 43 H       -4.3850    -4.5870    -0.8090 H     1 <1>   0.1500 
 44 H       -5.3610    -5.8540     1.0590 H     1 <1>   0.1500 
@<TRIPOS>BOND
  1   1   2  2   
  2   2   3  am  
  3   2   4  1   
  4   3   5  1   
  5   3   6  1   
  6   4   7  ar  
  7   4   8  ar  
  8   5   9  1   
  9   5  25  1   
 10   5  26  1   
 11   6  10  1   
 12   6  27  1   
 13   6  28  1   
 14   7  11  ar  
 15   8  12  ar  
 16   8  29  1   
 17   9  10  1   
 18   9  30  1   
 19   9  31  1   
 20  10  32  1   
 21  10  33  1   
 22  11  13  1   
 23  11  14  ar  
 24  12  14  ar  
 25  13  15  1   
 26  13  34  1   
 27  14  35  1   
 28  15  16  1   
 29  15  17  1   
 30  15  36  1   
 31  16  18  ar  
 32  16  19  ar  
 33  17  20  1   
 34  17  21  1   
 35  17  37  1   
 36  18  21  1   
 37  18  22  ar  
 38  19  23  ar  
 39  19  38  1   
 40  20  39  1   
 41  21  40  1   
 42  21  41  1   
 43  22  24  ar  
 44  22  42  1   
 45  23  24  ar  
 46  23  43  1   
 47  24  44  1   
@<TRIPOS>SUBSTRUCTURE
  1 ****   7 GROUP 4 **** **** 0

# MOE 2024.06 (io_trps.svl 2023.06)
