@<TRIPOS>MOLECULE
NONAME
58 62 1 0 0 
SMALL
USER_CHARGES


@<TRIPOS>ATOM
  1 O       -2.9950     1.4540    -1.7350 O.2   1 <1>  -0.5700 
  2 C       -2.4170     1.3410    -0.6720 C.2   1 <1>   0.7160 
  3 N       -2.2310     0.0950    -0.1620 N.am  1 <1>  -0.7300 
  4 C       -1.9890     2.4940     0.0750 C.2   1 <1>  -0.0860 
  5 C       -2.5730    -1.1750    -0.8350 C.3   1 <1>   0.2200 
  6 C       -0.7950     2.9420     0.5790 C.2   1 <1>  -0.3320 
  7 C       -2.8940     3.4890     0.4510 C.2   1 <1>   0.1390 
  8 C       -3.8280    -1.7480    -0.2020 C.3   1 <1>  -0.0800 
  9 C       -1.5350    -2.2360    -0.4870 C.3   1 <1>   0.1200 
 10 N       -1.0550     4.1040     1.2060 N.pl3 1 <1>   0.3000 
 11 C        0.6430     2.4260     0.5150 C.3   1 <1>   0.1000 
 12 N       -2.3510     4.4440     1.1340 N.2   1 <1>  -0.7070 
 13 C       -3.2660    -2.4930     1.0140 C.3   1 <1>   0.1200 
 14 C       -4.5690    -2.6880    -1.1740 C.3   1 <1>  -0.0160 
 15 O       -1.9160    -2.7540     0.7520 O.3   1 <1>  -0.5600 
 16 C        1.4240     3.2240    -0.5410 C.3   1 <1>  -0.1600 
 17 C        0.7620     0.9220     0.2300 C.3   1 <1>  -0.1600 
 18 C       -5.8810    -3.1910    -0.5780 C.ar  1 <1>  -0.1440 
 19 C        2.8920     2.7810    -0.6220 C.3   1 <1>  -0.1600 
 20 C        2.2280     0.4710     0.1740 C.3   1 <1>  -0.1600 
 21 C       -7.0360    -2.3770    -0.4950 C.ar  1 <1>   0.0000 
 22 C       -5.9720    -4.4650    -0.1000 C.ar  1 <1>  -0.1500 
 23 C        3.0070     1.2730    -0.8760 C.3   1 <1>  -0.1600 
 24 C       -8.1950    -2.9390     0.0950 C.ar  1 <1>   0.3100 
 25 C       -7.1130    -1.0440    -0.9650 C.ar  1 <1>  -0.1500 
 26 C       -7.1690    -4.9250     0.4600 C.ar  1 <1>   0.1600 
 27 N       -8.2440    -4.2100     0.5670 N.ar  1 <1>  -0.6200 
 28 C       -9.3540    -2.1540     0.1990 C.ar  1 <1>  -0.1500 
 29 C       -8.2600    -0.3070    -0.8490 C.ar  1 <1>  -0.1500 
 30 C       -9.3960    -0.8650    -0.2590 C.ar  1 <1>  -0.1500 
 31 H       -1.8210     0.0020     0.7690 H     1 <1>   0.3700 
 32 H       -2.6610    -1.0240    -1.8990 H     1 <1>   0.0800 
 33 H       -3.9410     3.4640     0.1990 H     1 <1>   0.1500 
 34 H       -4.4960    -0.9650     0.1100 H     1 <1>   0.0800 
 35 H       -0.5380    -1.8390    -0.4240 H     1 <1>   0.0800 
 36 H       -1.5610    -3.0410    -1.1990 H     1 <1>   0.0800 
 37 H       -0.3690     4.7030     1.6810 H     1 <1>   0.2700 
 38 H        1.1000     2.6030     1.4750 H     1 <1>   0.0800 
 39 H       -3.7700    -3.4230     1.2110 H     1 <1>   0.0800 
 40 H       -3.3110    -1.8720     1.8930 H     1 <1>   0.0800 
 41 H       -3.9410    -3.5270    -1.4170 H     1 <1>   0.0800 
 42 H       -4.7760    -2.1760    -2.0970 H     1 <1>   0.0800 
 43 H        0.9570     3.0850    -1.5010 H     1 <1>   0.0800 
 44 H        1.3850     4.2740    -0.3100 H     1 <1>   0.0800 
 45 H        0.2540     0.3680     0.9990 H     1 <1>   0.0800 
 46 H        0.3060     0.7020    -0.7190 H     1 <1>   0.0800 
 47 H        3.3870     3.3170    -1.4140 H     1 <1>   0.0800 
 48 H        3.3910     3.0250     0.3010 H     1 <1>   0.0800 
 49 H        2.6850     0.6080     1.1400 H     1 <1>   0.0800 
 50 H        2.2750    -0.5770    -0.0660 H     1 <1>   0.0800 
 51 H       -5.1380    -5.1430    -0.1350 H     1 <1>   0.1500 
 52 H        4.0430     0.9810    -0.8590 H     1 <1>   0.0800 
 53 H        2.6190     1.0480    -1.8550 H     1 <1>   0.0800 
 54 H       -6.2550    -0.5930    -1.4260 H     1 <1>   0.1500 
 55 H       -7.1970    -5.9370     0.8270 H     1 <1>   0.1500 
 56 H      -10.2160    -2.6060     0.6540 H     1 <1>   0.1500 
 57 H       -8.3020     0.7070    -1.2100 H     1 <1>   0.1500 
 58 H      -10.2920    -0.2760    -0.1730 H     1 <1>   0.1500 
@<TRIPOS>BOND
  1   1   2  2   
  2   2   3  am  
  3   2   4  1   
  4   3   5  1   
  5   3  31  1   
  6   4   6  2   
  7   4   7  1   
  8   5   8  1   
  9   5   9  1   
 10   5  32  1   
 11   6  10  1   
 12   6  11  1   
 13   7  12  2   
 14   7  33  1   
 15   8  13  1   
 16   8  14  1   
 17   8  34  1   
 18   9  15  1   
 19   9  35  1   
 20   9  36  1   
 21  10  12  1   
 22  10  37  1   
 23  11  16  1   
 24  11  17  1   
 25  11  38  1   
 26  13  15  1   
 27  13  39  1   
 28  13  40  1   
 29  14  18  1   
 30  14  41  1   
 31  14  42  1   
 32  16  19  1   
 33  16  43  1   
 34  16  44  1   
 35  17  20  1   
 36  17  45  1   
 37  17  46  1   
 38  18  21  ar  
 39  18  22  ar  
 40  19  23  1   
 41  19  47  1   
 42  19  48  1   
 43  20  23  1   
 44  20  49  1   
 45  20  50  1   
 46  21  24  ar  
 47  21  25  ar  
 48  22  26  ar  
 49  22  51  1   
 50  23  52  1   
 51  23  53  1   
 52  24  27  ar  
 53  24  28  ar  
 54  25  29  ar  
 55  25  54  1   
 56  26  27  ar  
 57  26  55  1   
 58  28  30  ar  
 59  28  56  1   
 60  29  30  ar  
 61  29  57  1   
 62  30  58  1   
@<TRIPOS>SUBSTRUCTURE
  1 ****   3 GROUP 4 **** **** 0

# MOE 2024.06 (io_trps.svl 2023.06)
