@<TRIPOS>MOLECULE
NONAME
41 42 1 0 0 
SMALL
USER_CHARGES


@<TRIPOS>ATOM
  1 O        0.8290     0.5440     1.2750 O.co2 1 <1>  -0.9000 
  2 C        1.5360     0.2620     0.3060 C.2   1 <1>   0.9060 
  3 O        1.1170    -0.3820    -0.6670 O.co2 1 <1>  -0.9000 
  4 C        2.9840     0.7070     0.3040 C.3   1 <1>  -0.1860 
  5 C        3.9140    -0.4850     0.0380 C.3   1 <1>   0.2000 
  6 C        3.2430     1.8860    -0.6730 C.3   1 <1>  -0.1600 
  7 O        3.6220    -0.9910    -1.2190 O.3   1 <1>  -0.6800 
  8 C        5.4010    -0.0680     0.1070 C.3   1 <1>   0.1400 
  9 C        4.6520     1.8780    -1.2860 C.3   1 <1>   0.1400 
 10 N        5.6380     1.3640    -0.2940 N.am  1 <1>  -0.6600 
 11 C        6.6080     2.1090     0.3220 C.2   1 <1>   0.5690 
 12 O        7.4210     1.6040     1.0610 O.2   1 <1>  -0.5700 
 13 C        6.6770     3.6100     0.0820 C.3   1 <1>  -0.0990 
 14 C        7.5820     4.3570     1.0730 C.3   1 <1>  -0.0170 
 15 C        7.5510     5.8550     0.7850 C.ar  1 <1>  -0.1440 
 16 C        8.4810     6.4830    -0.0410 C.ar  1 <1>  -0.1440 
 17 C        6.5440     6.6070     1.3720 C.ar  1 <1>  -0.1500 
 18 C        8.3830     7.8490    -0.2610 C.ar  1 <1>  -0.1500 
 19 C        9.6120     5.7170    -0.7140 C.3   1 <1>  -0.0970 
 20 C        6.4530     7.9680     1.1470 C.ar  1 <1>  -0.1500 
 21 C        7.3750     8.5910     0.3280 C.ar  1 <1>  -0.1500 
 22 H        3.1990     1.0540     1.2970 H     1 <1>   0.0800 
 23 H        3.7190    -1.2740     0.7450 H     1 <1>   0.0800 
 24 H        3.0750     2.8130    -0.1540 H     1 <1>   0.0800 
 25 H        2.5330     1.8410    -1.4810 H     1 <1>   0.0800 
 26 H        2.6220    -0.9480    -1.2940 H     1 <1>   0.4000 
 27 H        5.9900    -0.7210    -0.5130 H     1 <1>   0.0800 
 28 H        5.7290    -0.1930     1.1230 H     1 <1>   0.0800 
 29 H        4.9100     2.8580    -1.6410 H     1 <1>   0.0800 
 30 H        4.6590     1.2170    -2.1360 H     1 <1>   0.0800 
 31 H        7.0290     3.7780    -0.9170 H     1 <1>   0.0800 
 32 H        5.6860     4.0150     0.1660 H     1 <1>   0.0800 
 33 H        8.5850     3.9750     1.0170 H     1 <1>   0.0800 
 34 H        7.2350     4.1760     2.0750 H     1 <1>   0.0800 
 35 H        5.8200     6.1320     2.0110 H     1 <1>   0.1500 
 36 H        9.0940     8.3480    -0.8950 H     1 <1>   0.1500 
 37 H       10.1500     6.3460    -1.4000 H     1 <1>   0.0800 
 38 H        9.2220     4.8810    -1.2640 H     1 <1>   0.0800 
 39 H       10.3020     5.3590     0.0280 H     1 <1>   0.0800 
 40 H        5.6680     8.5410     1.6080 H     1 <1>   0.1500 
 41 H        7.3100     9.6490     0.1490 H     1 <1>   0.1500 
@<TRIPOS>BOND
  1   1   2  ar  
  2   2   3  ar  
  3   2   4  1   
  4   4   5  1   
  5   4   6  1   
  6   4  22  1   
  7   5   7  1   
  8   5   8  1   
  9   5  23  1   
 10   6   9  1   
 11   6  24  1   
 12   6  25  1   
 13   7  26  1   
 14   8  10  1   
 15   8  27  1   
 16   8  28  1   
 17   9  10  1   
 18   9  29  1   
 19   9  30  1   
 20  10  11  am  
 21  11  12  2   
 22  11  13  1   
 23  13  14  1   
 24  13  31  1   
 25  13  32  1   
 26  14  15  1   
 27  14  33  1   
 28  14  34  1   
 29  15  16  ar  
 30  15  17  ar  
 31  16  18  ar  
 32  16  19  1   
 33  17  20  ar  
 34  17  35  1   
 35  18  21  ar  
 36  18  36  1   
 37  19  37  1   
 38  19  38  1   
 39  19  39  1   
 40  20  21  ar  
 41  20  40  1   
 42  21  41  1   
@<TRIPOS>SUBSTRUCTURE
  1 ****  13 GROUP 4 **** **** 0

# MOE 2024.06 (io_trps.svl 2023.06)
