@<TRIPOS>MOLECULE
NONAME
54 55 1 0 0 
SMALL
USER_CHARGES


@<TRIPOS>ATOM
  1 S        3.2300     0.3420     1.5090 S.o2  1 <1>   1.3330 
  2 O        3.2230    -1.0890     1.2970 O.2   1 <1>  -0.6500 
  3 O        4.3110     0.9440     2.2560 O.2   1 <1>  -0.6500 
  4 N        1.7690     0.7560     2.2680 N.am  1 <1>  -0.8490 
  5 C        3.1200     1.1650    -0.0780 C.3   1 <1>  -0.0550 
  6 C        1.8730     0.7070     3.7290 C.3   1 <1>   0.1160 
  7 C        0.6280    -0.0480     1.8200 C.3   1 <1>   0.1160 
  8 C        4.4080     1.0520    -0.9090 C.3   1 <1>  -0.0800 
  9 C        4.2870     1.7290    -2.2580 C.3   1 <1>   0.2200 
 10 C        4.8040    -0.3640    -1.3080 C.3   1 <1>   0.1200 
 11 N        4.5750     3.1710    -2.1290 N.am  1 <1>  -0.7300 
 12 C        5.3040     0.9790    -3.1150 C.3   1 <1>   0.1200 
 13 O        5.5870    -0.2210    -2.4520 O.3   1 <1>  -0.5600 
 14 C        3.6310     4.1510    -2.0390 C.2   1 <1>   0.5440 
 15 O        2.4740     3.8500    -2.2700 O.2   1 <1>  -0.5700 
 16 C        3.9880     5.5110    -1.6740 C.ar  1 <1>   0.0860 
 17 C        5.0450     5.8210    -0.8020 C.ar  1 <1>   0.0820 
 18 C        3.2490     6.5770    -2.1930 C.ar  1 <1>  -0.1500 
 19 O        5.7610     4.8050    -0.2600 O.3   1 <1>  -0.3630 
 20 C        5.3430     7.1470    -0.4950 C.ar  1 <1>  -0.1500 
 21 C        3.5430     7.8900    -1.8820 C.ar  1 <1>  -0.1500 
 22 C        6.4700     4.9410     0.9520 C.3   1 <1>   0.1200 
 23 C        4.5950     8.1770    -1.0320 C.ar  1 <1>  -0.1500 
 24 C        6.8060     3.5380     1.4530 C.3   1 <1>  -0.1600 
 25 C        7.5700     3.5830     2.7820 C.3   1 <1>  -0.1600 
 26 C        7.8630     2.1670     3.2840 C.3   1 <1>  -0.2400 
 27 H        2.2990     0.7600    -0.6360 H     1 <1>   0.0800 
 28 H        2.9150     2.2060     0.0890 H     1 <1>   0.0800 
 29 H        0.9380     0.9930     4.1800 H     1 <1>   0.0800 
 30 H        2.6320     1.3920     4.0680 H     1 <1>   0.0800 
 31 H        2.1350    -0.2870     4.0530 H     1 <1>   0.0800 
 32 H       -0.2790     0.3140     2.2740 H     1 <1>   0.0800 
 33 H        0.7670    -1.0830     2.0890 H     1 <1>   0.0800 
 34 H        0.5220     0.0210     0.7510 H     1 <1>   0.0800 
 35 H        5.2310     1.4760    -0.3590 H     1 <1>   0.0800 
 36 H        3.3060     1.5770    -2.6780 H     1 <1>   0.0800 
 37 H        3.9440    -0.9570    -1.5690 H     1 <1>   0.0800 
 38 H        5.3770    -0.8650    -0.5460 H     1 <1>   0.0800 
 39 H        5.4950     3.4040    -1.7390 H     1 <1>   0.3700 
 40 H        6.2250     1.5280    -3.2090 H     1 <1>   0.0800 
 41 H        4.9050     0.7490    -4.0870 H     1 <1>   0.0800 
 42 H        2.4260     6.3620    -2.8550 H     1 <1>   0.1500 
 43 H        6.1580     7.3950     0.1580 H     1 <1>   0.1500 
 44 H        2.9540     8.6890    -2.3000 H     1 <1>   0.1500 
 45 H        7.3640     5.5090     0.7630 H     1 <1>   0.0800 
 46 H        5.8420     5.4540     1.6610 H     1 <1>   0.0800 
 47 H        4.8270     9.2000    -0.7910 H     1 <1>   0.1500 
 48 H        5.8890     2.9920     1.5960 H     1 <1>   0.0800 
 49 H        7.4010     3.0280     0.7160 H     1 <1>   0.0800 
 50 H        8.4980     4.1140     2.6530 H     1 <1>   0.0800 
 51 H        6.9820     4.1020     3.5200 H     1 <1>   0.0800 
 52 H        8.4690     1.6310     2.5750 H     1 <1>   0.0800 
 53 H        6.9440     1.6240     3.4300 H     1 <1>   0.0800 
 54 H        8.3880     2.2070     4.2220 H     1 <1>   0.0800 
@<TRIPOS>BOND
  1   1   2  2   
  2   1   3  2   
  3   1   4  am  
  4   1   5  1   
  5   4   6  1   
  6   4   7  1   
  7   5   8  1   
  8   5  27  1   
  9   5  28  1   
 10   6  29  1   
 11   6  30  1   
 12   6  31  1   
 13   7  32  1   
 14   7  33  1   
 15   7  34  1   
 16   8   9  1   
 17   8  10  1   
 18   8  35  1   
 19   9  11  1   
 20   9  12  1   
 21   9  36  1   
 22  10  13  1   
 23  10  37  1   
 24  10  38  1   
 25  11  14  am  
 26  11  39  1   
 27  12  13  1   
 28  12  40  1   
 29  12  41  1   
 30  14  15  2   
 31  14  16  1   
 32  16  17  ar  
 33  16  18  ar  
 34  17  19  1   
 35  17  20  ar  
 36  18  21  ar  
 37  18  42  1   
 38  19  22  1   
 39  20  23  ar  
 40  20  43  1   
 41  21  23  ar  
 42  21  44  1   
 43  22  24  1   
 44  22  45  1   
 45  22  46  1   
 46  23  47  1   
 47  24  25  1   
 48  24  48  1   
 49  24  49  1   
 50  25  26  1   
 51  25  50  1   
 52  25  51  1   
 53  26  52  1   
 54  26  53  1   
 55  26  54  1   
@<TRIPOS>SUBSTRUCTURE
  1 ****  11 GROUP 4 **** **** 0

# MOE 2024.06 (io_trps.svl 2023.06)
