@<TRIPOS>MOLECULE
NONAME
40 41 1 0 0 
SMALL
USER_CHARGES


@<TRIPOS>ATOM
  1 O        3.4310    -0.8210    -0.4900 O.2   1 <1>  -0.5700 
  2 C        2.4230    -0.8990     0.1650 C.2   1 <1>   0.5690 
  3 N        1.7900     0.1850     0.6840 N.am  1 <1>  -0.4930 
  4 C        1.8290    -2.2670     0.4130 C.3   1 <1>  -0.0990 
  5 C        2.0830     1.5580     0.6170 C.2   1 <1>   0.3520 
  6 C        1.1730    -2.8200    -0.8550 C.3   1 <1>   0.0210 
  7 N        1.3150     2.3840     1.2120 N.2   1 <1>  -0.4100 
  8 C        3.1110     2.2870    -0.0090 C.2   1 <1>   0.3520 
  9 C        0.5800    -4.1870    -0.5700 C.2   1 <1>  -0.1810 
 10 O        1.8440     3.5430     0.9640 O.3   1 <1>   0.2420 
 11 N        2.9190     3.5260     0.2370 N.2   1 <1>  -0.4100 
 12 N        4.1770     1.7870    -0.7780 N.am  1 <1>  -0.4930 
 13 C        1.2400    -5.4100    -0.6690 C.2   1 <1>   0.1080 
 14 C       -0.6700    -4.5030    -0.1660 C.2   1 <1>  -0.3320 
 15 C        5.2040     2.3820    -1.4340 C.2   1 <1>   0.5690 
 16 N        0.4740    -6.4040    -0.3550 N.2   1 <1>  -0.7070 
 17 C        2.6760    -5.6210    -1.0960 C.3   1 <1>  -0.0590 
 18 N       -0.7070    -5.8490    -0.0460 N.pl3 1 <1>   0.3140 
 19 C       -1.8620    -3.6000     0.1190 C.3   1 <1>  -0.0600 
 20 O        5.9950     1.7060    -2.0380 O.2   1 <1>  -0.5700 
 21 C        5.3970     3.8810    -1.4400 C.3   1 <1>  -0.1790 
 22 C       -1.8460    -6.6810     0.3600 C.3   1 <1>   0.0160 
 23 H        0.9520     0.0020     1.2320 H     1 <1>   0.3700 
 24 H        1.1030    -2.2240     1.2040 H     1 <1>   0.0800 
 25 H        2.6160    -2.9300     0.7260 H     1 <1>   0.0800 
 26 H        1.9000    -2.8990    -1.6450 H     1 <1>   0.0800 
 27 H        0.3990    -2.1540    -1.1920 H     1 <1>   0.0800 
 28 H        4.1900     0.7620    -0.8690 H     1 <1>   0.3700 
 29 H        3.3040    -4.8400    -0.7130 H     1 <1>   0.0800 
 30 H        2.7320    -5.6320    -2.1680 H     1 <1>   0.0800 
 31 H        3.0280    -6.5640    -0.7200 H     1 <1>   0.0800 
 32 H       -1.6030    -2.5680    -0.0250 H     1 <1>   0.0800 
 33 H       -2.1890    -3.7300     1.1350 H     1 <1>   0.0800 
 34 H       -2.6730    -3.8420    -0.5440 H     1 <1>   0.0800 
 35 H        4.5400     4.3580    -1.8780 H     1 <1>   0.0800 
 36 H        6.2670     4.1340    -2.0180 H     1 <1>   0.0800 
 37 H        5.5330     4.2360    -0.4360 H     1 <1>   0.0800 
 38 H       -2.6570    -6.5250    -0.3260 H     1 <1>   0.0800 
 39 H       -2.1440    -6.4100     1.3540 H     1 <1>   0.0800 
 40 H       -1.5510    -7.7130     0.3400 H     1 <1>   0.0800 
@<TRIPOS>BOND
  1   1   2  2   
  2   2   3  am  
  3   2   4  1   
  4   3   5  1   
  5   3  23  1   
  6   4   6  1   
  7   4  24  1   
  8   4  25  1   
  9   5   7  2   
 10   5   8  1   
 11   6   9  1   
 12   6  26  1   
 13   6  27  1   
 14   7  10  1   
 15   8  11  2   
 16   8  12  1   
 17   9  13  1   
 18   9  14  2   
 19  10  11  1   
 20  12  15  am  
 21  12  28  1   
 22  13  16  2   
 23  13  17  1   
 24  14  18  1   
 25  14  19  1   
 26  15  20  2   
 27  15  21  1   
 28  16  18  1   
 29  17  29  1   
 30  17  30  1   
 31  17  31  1   
 32  18  22  1   
 33  19  32  1   
 34  19  33  1   
 35  19  34  1   
 36  21  35  1   
 37  21  36  1   
 38  21  37  1   
 39  22  38  1   
 40  22  39  1   
 41  22  40  1   
@<TRIPOS>SUBSTRUCTURE
  1 ****   2 GROUP 4 **** **** 0

# MOE 2024.06 (io_trps.svl 2023.06)
