@<TRIPOS>MOLECULE
NONAME
52 55 1 0 0 
SMALL
USER_CHARGES


@<TRIPOS>ATOM
  1 O        2.4100    -0.2400    -1.7620 O.2   1 <1>  -0.5700 
  2 C        2.3000    -0.6310    -0.6240 C.2   1 <1>   0.5690 
  3 N        2.3850     0.2660     0.4120 N.am  1 <1>  -0.6600 
  4 C        2.1260    -2.1330    -0.3500 C.3   1 <1>  -0.0190 
  5 C        3.1850    -0.0010     1.6370 C.3   1 <1>   0.1400 
  6 C        1.9770     1.6800     0.1950 C.3   1 <1>   0.1400 
  7 C        2.1790    -2.9970    -1.6270 C.3   1 <1>  -0.1600 
  8 C        0.7990    -2.4180     0.3790 C.3   1 <1>  -0.1600 
  9 C        4.6920     0.0350     1.3060 C.3   1 <1>   0.3430 
 10 C        3.1850     2.6200     0.1120 C.3   1 <1>  -0.1600 
 11 C        1.8860    -4.4670    -1.3130 C.3   1 <1>   0.1200 
 12 C        0.5890    -3.9230     0.5750 C.3   1 <1>   0.1200 
 13 N        5.2100     1.3660     0.8250 N.4   1 <1>  -0.9590 
 14 C        4.4740     1.9390    -0.3520 C.3   1 <1>   0.3430 
 15 O        0.6600    -4.5630    -0.6590 O.3   1 <1>  -0.5600 
 16 C        6.6610     1.2540     0.4960 C.3   1 <1>   0.5230 
 17 C        7.3180     2.6230     0.4380 C.2   1 <1>  -0.0400 
 18 O        8.5640     2.6540    -0.0210 O.3   1 <1>  -0.2800 
 19 C        6.8960     3.8640     0.7680 C.2   1 <1>  -0.1500 
 20 C        8.9710     3.9230     0.0000 C.ar  1 <1>   0.1400 
 21 C        7.9650     4.7380     0.4880 C.ar  1 <1>   0.0000 
 22 C       10.2030     4.4290    -0.3910 C.ar  1 <1>  -0.1500 
 23 C        8.1860     6.1120     0.5930 C.ar  1 <1>  -0.1500 
 24 C       10.4140     5.7890    -0.2850 C.ar  1 <1>  -0.1500 
 25 C        9.4070     6.6260     0.2060 C.ar  1 <1>  -0.1500 
 26 H        2.9330    -2.4550     0.2790 H     1 <1>   0.0800 
 27 H        2.9290    -0.9690     2.0300 H     1 <1>   0.0800 
 28 H        2.9530     0.7240     2.3980 H     1 <1>   0.0800 
 29 H        1.3170     1.9910     0.9880 H     1 <1>   0.0800 
 30 H        1.4170     1.7460    -0.7240 H     1 <1>   0.0800 
 31 H        3.1450    -2.9130    -2.0910 H     1 <1>   0.0800 
 32 H        1.4460    -2.6500    -2.3360 H     1 <1>   0.0800 
 33 H       -0.0230    -2.0310    -0.1990 H     1 <1>   0.0800 
 34 H        0.7810    -1.9310     1.3360 H     1 <1>   0.0800 
 35 H        4.8830    -0.7130     0.5530 H     1 <1>   0.0800 
 36 H        5.2360    -0.2540     2.1910 H     1 <1>   0.0800 
 37 H        3.3340     3.1170     1.0530 H     1 <1>   0.0800 
 38 H        2.9360     3.3860    -0.6010 H     1 <1>   0.0800 
 39 H        2.6470    -4.8990    -0.6850 H     1 <1>   0.0800 
 40 H        1.8170    -5.0400    -2.2220 H     1 <1>   0.0800 
 41 H       -0.3870    -4.1180     0.9860 H     1 <1>   0.0800 
 42 H        1.3340    -4.3480     1.2260 H     1 <1>   0.0800 
 43 H        5.1430     2.0450     1.5910 H     1 <1>   0.4500 
 44 H        5.0900     2.6820    -0.8330 H     1 <1>   0.0800 
 45 H        4.2530     1.1740    -1.0810 H     1 <1>   0.0800 
 46 H        6.7850     0.7620    -0.4550 H     1 <1>   0.0800 
 47 H        7.1690     0.6690     1.2450 H     1 <1>   0.0800 
 48 H        5.9600     4.2070     1.1680 H     1 <1>   0.1500 
 49 H       10.9610     3.7660    -0.7650 H     1 <1>   0.1500 
 50 H        7.4110     6.7540     0.9710 H     1 <1>   0.1500 
 51 H       11.3580     6.2140    -0.5800 H     1 <1>   0.1500 
 52 H        9.5960     7.6830     0.2800 H     1 <1>   0.1500 
@<TRIPOS>BOND
  1   1   2  2   
  2   2   3  am  
  3   2   4  1   
  4   3   5  1   
  5   3   6  1   
  6   4   7  1   
  7   4   8  1   
  8   4  26  1   
  9   5   9  1   
 10   5  27  1   
 11   5  28  1   
 12   6  10  1   
 13   6  29  1   
 14   6  30  1   
 15   7  11  1   
 16   7  31  1   
 17   7  32  1   
 18   8  12  1   
 19   8  33  1   
 20   8  34  1   
 21   9  13  1   
 22   9  35  1   
 23   9  36  1   
 24  10  14  1   
 25  10  37  1   
 26  10  38  1   
 27  11  15  1   
 28  11  39  1   
 29  11  40  1   
 30  12  15  1   
 31  12  41  1   
 32  12  42  1   
 33  13  14  1   
 34  13  16  1   
 35  13  43  1   
 36  14  44  1   
 37  14  45  1   
 38  16  17  1   
 39  16  46  1   
 40  16  47  1   
 41  17  18  1   
 42  17  19  2   
 43  18  20  1   
 44  19  21  1   
 45  19  48  1   
 46  20  21  ar  
 47  20  22  ar  
 48  21  23  ar  
 49  22  24  ar  
 50  22  49  1   
 51  23  25  ar  
 52  23  50  1   
 53  24  25  ar  
 54  24  51  1   
 55  25  52  1   
@<TRIPOS>SUBSTRUCTURE
  1 ****  13 GROUP 4 **** **** 0

# MOE 2024.06 (io_trps.svl 2023.06)
