@<TRIPOS>MOLECULE
NONAME
49 52 1 0 0 
SMALL
USER_CHARGES


@<TRIPOS>ATOM
  1 O        1.5840    -0.3400     1.8200 O.2   1 <1>  -0.5700 
  2 C        2.2770    -1.0930     1.1790 C.2   1 <1>   0.5690 
  3 N        3.5370    -0.7200     0.7880 N.am  1 <1>  -0.6600 
  4 C        1.7030    -2.4380     0.7760 C.3   1 <1>  -0.0990 
  5 C        4.2430     0.4060     1.4890 C.3   1 <1>   0.1400 
  6 C        4.2830    -1.3160    -0.3620 C.3   1 <1>   0.1400 
  7 C        0.5210    -2.8620     1.6590 C.3   1 <1>   0.0960 
  8 C        4.5120     1.6730     0.6280 C.3   1 <1>   0.4230 
  9 C        4.4100    -0.3090    -1.5270 C.3   1 <1>  -0.0800 
 10 N       -0.0020    -4.1570     1.1890 N.pl3 1 <1>   0.0480 
 11 N        3.5400     1.9140    -0.5140 N.4   1 <1>  -0.9590 
 12 C        5.9770     1.7330     0.1420 C.3   1 <1>   0.1200 
 13 C        5.8330     0.2440    -1.7030 C.3   1 <1>   0.1200 
 14 C        3.3280     0.7860    -1.4890 C.3   1 <1>   0.3430 
 15 C       -0.8130    -4.3630     0.1190 C.ar  1 <1>  -0.1520 
 16 C        0.3610    -5.3960     1.6110 C.2   1 <1>   0.0360 
 17 C        2.2140     2.3440     0.0340 C.3   1 <1>   0.2630 
 18 O        6.3960     0.5560    -0.4730 O.3   1 <1>  -0.5600 
 19 C       -0.8830    -5.7360    -0.0330 C.ar  1 <1>   0.2270 
 20 C       -1.5000    -3.5060    -0.7460 C.ar  1 <1>  -0.1500 
 21 N       -0.1360    -6.3600     0.9190 N.2   1 <1>  -0.5650 
 22 C       -1.6410    -6.2860    -1.0640 C.ar  1 <1>  -0.1500 
 23 C       -2.2480    -4.0580    -1.7630 C.ar  1 <1>  -0.1500 
 24 C       -2.3180    -5.4480    -1.9230 C.ar  1 <1>  -0.1500 
 25 H        1.3790    -2.3770    -0.2460 H     1 <1>   0.0800 
 26 H        2.4730    -3.1830     0.8590 H     1 <1>   0.0800 
 27 H        3.6700     0.7090     2.3480 H     1 <1>   0.0800 
 28 H        5.1770     0.0360     1.8760 H     1 <1>   0.0800 
 29 H        5.2560    -1.6410    -0.0290 H     1 <1>   0.0800 
 30 H        3.7710    -2.1900    -0.7220 H     1 <1>   0.0800 
 31 H       -0.2690    -2.1340     1.6120 H     1 <1>   0.0800 
 32 H        0.8350    -2.9590     2.6840 H     1 <1>   0.0800 
 33 H        4.4160     2.5090     1.3000 H     1 <1>   0.0800 
 34 H        4.2150    -0.8720    -2.4230 H     1 <1>   0.0800 
 35 H        3.9220     2.7020    -1.0520 H     1 <1>   0.4500 
 36 H        6.6180     1.8700     0.9960 H     1 <1>   0.0800 
 37 H        6.1400     2.5590    -0.5270 H     1 <1>   0.0800 
 38 H        5.8650     1.1080    -2.3460 H     1 <1>   0.0800 
 39 H        6.4590    -0.5180    -2.1370 H     1 <1>   0.0800 
 40 H        2.3920     0.3010    -1.2600 H     1 <1>   0.0800 
 41 H        3.2290     1.2030    -2.4780 H     1 <1>   0.0800 
 42 H        1.0170    -5.5350     2.4520 H     1 <1>   0.1500 
 43 H        1.7680     1.5470     0.6050 H     1 <1>   0.0800 
 44 H        1.5420     2.6070    -0.7670 H     1 <1>   0.0800 
 45 H        2.3300     3.2010     0.6780 H     1 <1>   0.0800 
 46 H       -1.4490    -2.4410    -0.6140 H     1 <1>   0.1500 
 47 H       -1.6780    -7.3540    -1.1610 H     1 <1>   0.1500 
 48 H       -2.7890    -3.4260    -2.4450 H     1 <1>   0.1500 
 49 H       -2.9090    -5.8560    -2.7250 H     1 <1>   0.1500 
@<TRIPOS>BOND
  1   1   2  2   
  2   2   3  am  
  3   2   4  1   
  4   3   5  1   
  5   3   6  1   
  6   4   7  1   
  7   4  25  1   
  8   4  26  1   
  9   5   8  1   
 10   5  27  1   
 11   5  28  1   
 12   6   9  1   
 13   6  29  1   
 14   6  30  1   
 15   7  10  1   
 16   7  31  1   
 17   7  32  1   
 18   8  11  1   
 19   8  12  1   
 20   8  33  1   
 21   9  13  1   
 22   9  14  1   
 23   9  34  1   
 24  10  15  1   
 25  10  16  1   
 26  11  14  1   
 27  11  17  1   
 28  11  35  1   
 29  12  18  1   
 30  12  36  1   
 31  12  37  1   
 32  13  18  1   
 33  13  38  1   
 34  13  39  1   
 35  14  40  1   
 36  14  41  1   
 37  15  19  ar  
 38  15  20  ar  
 39  16  21  2   
 40  16  42  1   
 41  17  43  1   
 42  17  44  1   
 43  17  45  1   
 44  19  21  1   
 45  19  22  ar  
 46  20  23  ar  
 47  20  46  1   
 48  22  24  ar  
 49  22  47  1   
 50  23  24  ar  
 51  23  48  1   
 52  24  49  1   
@<TRIPOS>SUBSTRUCTURE
  1 ****   4 GROUP 4 **** **** 0

# MOE 2024.06 (io_trps.svl 2023.06)
