@<TRIPOS>MOLECULE
NONAME
50 53 1 0 0 
SMALL
USER_CHARGES


@<TRIPOS>ATOM
  1 O       -0.6410     0.3080     0.6200 O.2   1 <1>  -0.5700 
  2 C       -1.6780     0.9090     0.4210 C.2   1 <1>   0.5440 
  3 N       -2.8450     0.1870     0.3070 N.am  1 <1>  -0.6600 
  4 C       -1.6480     2.3400     0.2950 C.ar  1 <1>   0.0860 
  5 C       -4.1090     0.6730    -0.3130 C.3   1 <1>   0.1400 
  6 C       -2.8630    -1.3000     0.3860 C.3   1 <1>   0.1400 
  7 C       -0.7460     2.9790    -0.5330 C.ar  1 <1>   0.1600 
  8 C       -2.4980     3.1800     0.9870 C.ar  1 <1>   0.1600 
  9 C       -5.0780    -0.5000    -0.1740 C.3   1 <1>   0.2000 
 10 C       -4.1720    -1.7300    -0.2860 C.3   1 <1>  -0.0800 
 11 N       -0.7130     4.2800    -0.6920 N.ar  1 <1>  -0.6200 
 12 N       -2.4940     4.4820     0.8500 N.ar  1 <1>  -0.6200 
 13 O       -5.6350    -0.4490     1.0950 O.3   1 <1>  -0.6800 
 14 C       -4.7620    -3.0380     0.2730 C.3   1 <1>  -0.0170 
 15 C       -1.5970     4.9940     0.0060 C.ar  1 <1>   0.7200 
 16 C       -3.8230    -4.2080     0.0280 C.ar  1 <1>  -0.1430 
 17 N       -1.5840     6.3570    -0.1570 N.pl3 1 <1>  -0.8380 
 18 C       -2.9410    -4.6570     0.9910 C.ar  1 <1>  -0.1500 
 19 C       -3.8040    -4.8830    -1.1760 C.ar  1 <1>  -0.1500 
 20 C       -2.5090     7.2900     0.5590 C.3   1 <1>   0.2090 
 21 C       -0.6150     7.0780    -1.0430 C.3   1 <1>   0.2090 
 22 C       -2.1050    -5.7250     0.7100 C.ar  1 <1>   0.1600 
 23 C       -2.9270    -5.9400    -1.3550 C.ar  1 <1>   0.1600 
 24 C       -1.7220     8.4340     1.2240 C.3   1 <1>   0.1200 
 25 C        0.0600     8.2340    -0.2840 C.3   1 <1>   0.1200 
 26 N       -2.0760    -6.3770    -0.4410 N.ar  1 <1>  -0.6200 
 27 O       -0.8920     9.0810     0.2990 O.3   1 <1>  -0.5600 
 28 H       -4.4960     1.5530     0.1690 H     1 <1>   0.0800 
 29 H       -3.9330     0.8800    -1.3540 H     1 <1>   0.0800 
 30 H       -2.0100    -1.7260    -0.1160 H     1 <1>   0.0800 
 31 H       -2.8450    -1.5930     1.4210 H     1 <1>   0.0800 
 32 H       -0.0340     2.3830    -1.0780 H     1 <1>   0.1500 
 33 H       -3.2040     2.7510     1.6770 H     1 <1>   0.1500 
 34 H       -5.8730    -0.4830    -0.9000 H     1 <1>   0.0800 
 35 H       -3.9580    -1.8800    -1.3300 H     1 <1>   0.0800 
 36 H       -4.9170    -0.3540     1.7510 H     1 <1>   0.4000 
 37 H       -5.7070    -3.2350    -0.2020 H     1 <1>   0.0800 
 38 H       -4.9500    -2.9460     1.3290 H     1 <1>   0.0800 
 39 H       -2.8950    -4.1890     1.9570 H     1 <1>   0.1500 
 40 H       -4.4620    -4.5990    -1.9770 H     1 <1>   0.1500 
 41 H       -3.2050     7.7060    -0.1480 H     1 <1>   0.0800 
 42 H       -3.0780     6.7810     1.3150 H     1 <1>   0.0800 
 43 H        0.1490     6.4190    -1.4130 H     1 <1>   0.0800 
 44 H       -1.1440     7.4740    -1.8920 H     1 <1>   0.0800 
 45 H       -1.4230    -6.0600     1.4730 H     1 <1>   0.1500 
 46 H       -2.9260    -6.4550    -2.3010 H     1 <1>   0.1500 
 47 H       -1.1140     8.0500     2.0240 H     1 <1>   0.0800 
 48 H       -2.4010     9.1660     1.6240 H     1 <1>   0.0800 
 49 H        0.6540     8.8230    -0.9600 H     1 <1>   0.0800 
 50 H        0.6980     7.8470     0.4900 H     1 <1>   0.0800 
@<TRIPOS>BOND
  1   1   2  2   
  2   2   3  am  
  3   2   4  1   
  4   3   5  1   
  5   3   6  1   
  6   4   7  ar  
  7   4   8  ar  
  8   5   9  1   
  9   5  28  1   
 10   5  29  1   
 11   6  10  1   
 12   6  30  1   
 13   6  31  1   
 14   7  11  ar  
 15   7  32  1   
 16   8  12  ar  
 17   8  33  1   
 18   9  10  1   
 19   9  13  1   
 20   9  34  1   
 21  10  14  1   
 22  10  35  1   
 23  11  15  ar  
 24  12  15  ar  
 25  13  36  1   
 26  14  16  1   
 27  14  37  1   
 28  14  38  1   
 29  15  17  1   
 30  16  18  ar  
 31  16  19  ar  
 32  17  20  1   
 33  17  21  1   
 34  18  22  ar  
 35  18  39  1   
 36  19  23  ar  
 37  19  40  1   
 38  20  24  1   
 39  20  41  1   
 40  20  42  1   
 41  21  25  1   
 42  21  43  1   
 43  21  44  1   
 44  22  26  ar  
 45  22  45  1   
 46  23  26  ar  
 47  23  46  1   
 48  24  27  1   
 49  24  47  1   
 50  24  48  1   
 51  25  27  1   
 52  25  49  1   
 53  25  50  1   
@<TRIPOS>SUBSTRUCTURE
  1 ****   2 GROUP 4 **** **** 0

# MOE 2024.06 (io_trps.svl 2023.06)
