@<TRIPOS>MOLECULE
NONAME
52 54 1 0 0 
SMALL
USER_CHARGES


@<TRIPOS>ATOM
  1 O        0.2750    -0.9060    -0.9110 O.2   1 <1>  -0.5700 
  2 C        0.7610    -1.6410    -0.0840 C.2   1 <1>   0.5690 
  3 N        1.2230    -2.8890    -0.4060 N.am  1 <1>  -0.6600 
  4 C        0.8170    -1.1390     1.3490 C.3   1 <1>  -0.0990 
  5 C        1.9330    -3.7840     0.5560 C.3   1 <1>   0.1400 
  6 C        1.0170    -3.4490    -1.7930 C.3   1 <1>   0.2010 
  7 C        1.8180    -1.8970     2.2300 C.3   1 <1>  -0.1600 
  8 C        1.6450    -3.4010     2.0100 C.3   1 <1>  -0.1600 
  9 C        0.4210    -4.8640    -1.8360 C.2   1 <1>   0.5690 
 10 O        1.0730    -5.7090    -2.4080 O.2   1 <1>  -0.5700 
 11 N       -0.7730    -5.1660    -1.2240 N.am  1 <1>  -0.6600 
 12 C       -1.1510    -6.5900    -0.9490 C.3   1 <1>   0.1400 
 13 C       -1.6200    -4.1520    -0.5240 C.3   1 <1>   0.1400 
 14 C       -2.6500    -6.8210    -1.1830 C.3   1 <1>   0.2000 
 15 C       -3.1150    -4.4270    -0.7280 C.3   1 <1>  -0.1600 
 16 O       -2.9550    -8.1410    -0.8900 O.3   1 <1>  -0.6800 
 17 C       -3.5250    -5.8720    -0.3300 C.3   1 <1>  -0.1060 
 18 C       -3.2680    -6.1610     1.1630 C.2   1 <1>   0.9060 
 19 C       -5.0230    -6.1250    -0.6580 C.3   1 <1>  -0.0160 
 20 O       -3.2880    -7.3410     1.5480 O.co2 1 <1>  -0.9000 
 21 O       -3.0280    -5.2440     1.9580 O.co2 1 <1>  -0.9000 
 22 C       -5.9800    -5.0080    -0.2460 C.ar  1 <1>  -0.1440 
 23 C       -6.6150    -4.2380    -1.2100 C.ar  1 <1>  -0.1500 
 24 C       -6.2290    -4.7520     1.0930 C.ar  1 <1>  -0.1500 
 25 C       -7.4850    -3.2270    -0.8400 C.ar  1 <1>  -0.1500 
 26 C       -7.0960    -3.7400     1.4660 C.ar  1 <1>  -0.1500 
 27 C       -7.7270    -2.9770     0.4990 C.ar  1 <1>  -0.1500 
 28 H        1.0590    -0.0920     1.3430 H     1 <1>   0.0800 
 29 H       -0.1700    -1.2460     1.7630 H     1 <1>   0.0800 
 30 H        1.6340    -4.8070     0.4090 H     1 <1>   0.0800 
 31 H        2.9910    -3.7160     0.3660 H     1 <1>   0.0800 
 32 H        0.3720    -2.8070    -2.3640 H     1 <1>   0.0800 
 33 H        1.9680    -3.4700    -2.2920 H     1 <1>   0.0800 
 34 H        2.8210    -1.6080     1.9670 H     1 <1>   0.0800 
 35 H        1.6540    -1.6510     3.2640 H     1 <1>   0.0800 
 36 H        0.6390    -3.6980     2.2580 H     1 <1>   0.0800 
 37 H        2.3110    -3.9460     2.6560 H     1 <1>   0.0800 
 38 H       -0.5970    -7.2530    -1.5900 H     1 <1>   0.0800 
 39 H       -0.9060    -6.8200     0.0730 H     1 <1>   0.0800 
 40 H       -1.3810    -4.1650     0.5260 H     1 <1>   0.0800 
 41 H       -1.4130    -3.1640    -0.8940 H     1 <1>   0.0800 
 42 H       -2.8530    -6.6800    -2.2300 H     1 <1>   0.0800 
 43 H       -3.6610    -3.7200    -0.1270 H     1 <1>   0.0800 
 44 H       -3.3670    -4.2410    -1.7560 H     1 <1>   0.0800 
 45 H       -3.0860    -8.1670     0.1080 H     1 <1>   0.4000 
 46 H       -5.1240    -6.2840    -1.7170 H     1 <1>   0.0800 
 47 H       -5.3390    -7.0370    -0.1820 H     1 <1>   0.0800 
 48 H       -6.4310    -4.4230    -2.2520 H     1 <1>   0.1500 
 49 H       -5.7370    -5.3360     1.8550 H     1 <1>   0.1500 
 50 H       -7.9720    -2.6350    -1.5940 H     1 <1>   0.1500 
 51 H       -7.2720    -3.5520     2.5100 H     1 <1>   0.1500 
 52 H       -8.3990    -2.1900     0.7900 H     1 <1>   0.1500 
@<TRIPOS>BOND
  1   1   2  2   
  2   2   3  am  
  3   2   4  1   
  4   3   5  1   
  5   3   6  1   
  6   4   7  1   
  7   4  28  1   
  8   4  29  1   
  9   5   8  1   
 10   5  30  1   
 11   5  31  1   
 12   6   9  1   
 13   6  32  1   
 14   6  33  1   
 15   7   8  1   
 16   7  34  1   
 17   7  35  1   
 18   8  36  1   
 19   8  37  1   
 20   9  10  2   
 21   9  11  am  
 22  11  12  1   
 23  11  13  1   
 24  12  14  1   
 25  12  38  1   
 26  12  39  1   
 27  13  15  1   
 28  13  40  1   
 29  13  41  1   
 30  14  16  1   
 31  14  17  1   
 32  14  42  1   
 33  15  17  1   
 34  15  43  1   
 35  15  44  1   
 36  16  45  1   
 37  17  18  1   
 38  17  19  1   
 39  18  20  ar  
 40  18  21  ar  
 41  19  22  1   
 42  19  46  1   
 43  19  47  1   
 44  22  23  ar  
 45  22  24  ar  
 46  23  25  ar  
 47  23  48  1   
 48  24  26  ar  
 49  24  49  1   
 50  25  27  ar  
 51  25  50  1   
 52  26  27  ar  
 53  26  51  1   
 54  27  52  1   
@<TRIPOS>SUBSTRUCTURE
  1 ****  13 GROUP 4 **** **** 0

# MOE 2024.06 (io_trps.svl 2023.06)
