@<TRIPOS>MOLECULE
NONAME
27 28 1 0 0 
SMALL
USER_CHARGES


@<TRIPOS>ATOM
  1 BR       0.2010    -0.0400    -1.7840 Br    1 <1>  -0.1110 
  2 C        0.1710    -1.8220    -1.0500 C.ar  1 <1>   0.1110 
  3 C       -1.0490    -2.4490    -0.8550 C.ar  1 <1>   0.1170 
  4 C        1.3670    -2.4410    -0.7320 C.ar  1 <1>  -0.1500 
  5 N       -2.3490    -1.9860    -1.1140 N.am  1 <1>  -0.5470 
  6 C       -1.0110    -3.7230    -0.3270 C.ar  1 <1>   0.1020 
  7 C        1.3850    -3.7340    -0.1970 C.ar  1 <1>  -0.1440 
  8 C       -3.3330    -2.8440    -0.8120 C.2   1 <1>   0.5810 
  9 S       -2.6710    -4.3330    -0.1630 S.3   1 <1>  -0.2430 
 10 C        0.1610    -4.3780     0.0040 C.ar  1 <1>  -0.1500 
 11 C        2.7400    -4.3910     0.1450 C.3   1 <1>   0.1440 
 12 S       -4.9150    -2.6380    -0.9800 S.2   1 <1>  -0.3800 
 13 C        3.5970    -4.4930    -1.1260 C.3   1 <1>  -0.2400 
 14 C        3.4750    -3.5370     1.1890 C.3   1 <1>  -0.2400 
 15 C        2.5950    -5.8090     0.7220 C.3   1 <1>  -0.2400 
 16 H        2.2820    -1.9040    -0.9060 H     1 <1>   0.1500 
 17 H       -2.5340    -1.0610    -1.5060 H     1 <1>   0.3700 
 18 H        0.0830    -5.3690     0.4090 H     1 <1>   0.1500 
 19 H        3.8130    -3.5210    -1.5290 H     1 <1>   0.0800 
 20 H        3.0760    -5.0610    -1.8770 H     1 <1>   0.0800 
 21 H        4.5320    -4.9810    -0.9160 H     1 <1>   0.0800 
 22 H        3.6910    -2.5560     0.8080 H     1 <1>   0.0800 
 23 H        4.4070    -3.9970     1.4670 H     1 <1>   0.0800 
 24 H        2.8700    -3.4320     2.0710 H     1 <1>   0.0800 
 25 H        2.1080    -6.4580     0.0160 H     1 <1>   0.0800 
 26 H        2.0230    -5.7900     1.6330 H     1 <1>   0.0800 
 27 H        3.5600    -6.2270     0.9450 H     1 <1>   0.0800 
@<TRIPOS>BOND
  1   1   2  1   
  2   2   3  ar  
  3   2   4  ar  
  4   3   5  1   
  5   3   6  ar  
  6   4   7  ar  
  7   4  16  1   
  8   5   8  am  
  9   5  17  1   
 10   6   9  1   
 11   6  10  ar  
 12   7  10  ar  
 13   7  11  1   
 14   8   9  1   
 15   8  12  2   
 16  10  18  1   
 17  11  13  1   
 18  11  14  1   
 19  11  15  1   
 20  13  19  1   
 21  13  20  1   
 22  13  21  1   
 23  14  22  1   
 24  14  23  1   
 25  14  24  1   
 26  15  25  1   
 27  15  26  1   
 28  15  27  1   
@<TRIPOS>SUBSTRUCTURE
  1 ****   6 GROUP 4 **** **** 0

# MOE 2024.06 (io_trps.svl 2023.06)
