@<TRIPOS>MOLECULE
NONAME
48 51 1 0 0 
SMALL
USER_CHARGES


@<TRIPOS>ATOM
  1 O       -0.3100    -4.2320     0.1630 O.3   1 <1>  -0.3630 
  2 C       -1.4940    -3.6000     0.3560 C.ar  1 <1>   0.0830 
  3 C        0.8060    -3.4040    -0.1180 C.3   1 <1>   0.1200 
  4 C       -1.6930    -2.2880    -0.0740 C.ar  1 <1>   0.0830 
  5 C       -2.5190    -4.2840     0.9820 C.ar  1 <1>  -0.1500 
  6 C        0.4240    -2.3230    -1.1400 C.3   1 <1>   0.1200 
  7 O       -0.7060    -1.5950    -0.6950 O.3   1 <1>  -0.3630 
  8 C       -2.9180    -1.6770     0.1270 C.ar  1 <1>  -0.1500 
  9 C       -3.7580    -3.6830     1.1560 C.ar  1 <1>  -0.1430 
 10 C       -3.9500    -2.3730     0.7360 C.ar  1 <1>  -0.1500 
 11 C       -4.8860    -4.4840     1.7700 C.3   1 <1>   0.4860 
 12 N       -5.3110    -5.4630     0.7460 N.4   1 <1>  -0.9590 
 13 C       -6.0710    -4.9080    -0.4100 C.3   1 <1>   0.3430 
 14 C       -6.0090    -6.6860     1.1920 C.3   1 <1>   0.3430 
 15 C       -6.8800    -6.0860    -0.9740 C.3   1 <1>   0.2000 
 16 C       -6.5390    -7.3050    -0.1030 C.3   1 <1>  -0.0800 
 17 O       -8.2390    -5.8130    -0.8510 O.3   1 <1>  -0.6800 
 18 C       -5.5120    -8.2510    -0.7750 C.3   1 <1>   0.0210 
 19 C       -4.0720    -7.7530    -0.7980 C.2   1 <1>   0.1080 
 20 N       -3.7070    -6.6210    -1.3210 N.2   1 <1>  -0.7070 
 21 C       -2.9940    -8.4450    -0.2580 C.2   1 <1>  -0.1500 
 22 N       -2.3640    -6.5810    -1.1630 N.pl3 1 <1>   0.3000 
 23 C       -1.9190    -7.6660    -0.5000 C.2   1 <1>  -0.3320 
 24 C       -0.4610    -7.8950    -0.1440 C.3   1 <1>  -0.0600 
 25 H        1.1260    -2.9490     0.8030 H     1 <1>   0.0800 
 26 H        1.5970    -4.0260    -0.4970 H     1 <1>   0.0800 
 27 H       -2.3320    -5.2880     1.3200 H     1 <1>   0.1500 
 28 H        0.1790    -2.7710    -2.0870 H     1 <1>   0.0800 
 29 H        1.2310    -1.6270    -1.2800 H     1 <1>   0.0800 
 30 H       -3.0550    -0.6610    -0.1990 H     1 <1>   0.1500 
 31 H       -4.8980    -1.8800     0.8720 H     1 <1>   0.1500 
 32 H       -5.7050    -3.8430     2.0510 H     1 <1>   0.0800 
 33 H       -4.5220    -4.9950     2.6470 H     1 <1>   0.0800 
 34 H       -4.4390    -5.8030     0.2810 H     1 <1>   0.4500 
 35 H       -6.7340    -4.1180    -0.1010 H     1 <1>   0.0800 
 36 H       -5.3830    -4.5370    -1.1540 H     1 <1>   0.0800 
 37 H       -5.3410    -7.3580     1.7080 H     1 <1>   0.0800 
 38 H       -6.8310    -6.4240     1.8370 H     1 <1>   0.0800 
 39 H       -6.6690    -6.2420    -2.0190 H     1 <1>   0.0800 
 40 H       -7.4240    -7.8850     0.0960 H     1 <1>   0.0800 
 41 H       -8.5430    -5.7830     0.0760 H     1 <1>   0.4000 
 42 H       -5.8170    -8.4540    -1.7870 H     1 <1>   0.0800 
 43 H       -5.5260    -9.1930    -0.2550 H     1 <1>   0.0800 
 44 H       -3.0260    -9.4010     0.2360 H     1 <1>   0.1500 
 45 H       -1.7790    -5.7980    -1.4910 H     1 <1>   0.2700 
 46 H       -0.3480    -8.8250     0.3850 H     1 <1>   0.0800 
 47 H       -0.0980    -7.0990     0.4810 H     1 <1>   0.0800 
 48 H        0.1370    -7.9380    -1.0370 H     1 <1>   0.0800 
@<TRIPOS>BOND
  1   1   2  1   
  2   1   3  1   
  3   2   4  ar  
  4   2   5  ar  
  5   3   6  1   
  6   3  25  1   
  7   3  26  1   
  8   4   7  1   
  9   4   8  ar  
 10   5   9  ar  
 11   5  27  1   
 12   6   7  1   
 13   6  28  1   
 14   6  29  1   
 15   8  10  ar  
 16   8  30  1   
 17   9  10  ar  
 18   9  11  1   
 19  10  31  1   
 20  11  12  1   
 21  11  32  1   
 22  11  33  1   
 23  12  13  1   
 24  12  14  1   
 25  12  34  1   
 26  13  15  1   
 27  13  35  1   
 28  13  36  1   
 29  14  16  1   
 30  14  37  1   
 31  14  38  1   
 32  15  16  1   
 33  15  17  1   
 34  15  39  1   
 35  16  18  1   
 36  16  40  1   
 37  17  41  1   
 38  18  19  1   
 39  18  42  1   
 40  18  43  1   
 41  19  20  2   
 42  19  21  1   
 43  20  22  1   
 44  21  23  2   
 45  21  44  1   
 46  22  23  1   
 47  22  45  1   
 48  23  24  1   
 49  24  46  1   
 50  24  47  1   
 51  24  48  1   
@<TRIPOS>SUBSTRUCTURE
  1 ****   5 GROUP 4 **** **** 0

# MOE 2024.06 (io_trps.svl 2023.06)
