@<TRIPOS>MOLECULE
NONAME
45 47 1 0 0 
SMALL
USER_CHARGES


@<TRIPOS>ATOM
  1 O        1.1580    -0.3490     1.6690 O.3   1 <1>  -0.0190 
  2 N        1.4080     0.9010     1.4050 N.2   1 <1>  -0.4100 
  3 C        1.4230    -1.1230     0.6520 C.2   1 <1>  -0.0400 
  4 C        1.8410     0.9340     0.1920 C.2   1 <1>   0.1080 
  5 C        1.8750    -0.3500    -0.3480 C.2   1 <1>  -0.1500 
  6 C        1.2060    -2.6230     0.7540 C.3   1 <1>   0.2900 
  7 C        2.2600     2.1970    -0.5540 C.3   1 <1>   0.1010 
  8 N       -0.2200    -2.9530     0.9160 N.3   1 <1>  -0.8100 
  9 C        3.4290     2.8890     0.1580 C.3   1 <1>  -0.2400 
 10 C        1.0760     3.1610    -0.6970 C.3   1 <1>  -0.2400 
 11 C       -1.0790    -2.4570    -0.1650 C.3   1 <1>   0.1100 
 12 C       -0.4810    -4.3940     1.0320 C.3   1 <1>   0.1100 
 13 C       -2.3630    -3.2600    -0.0030 C.3   1 <1>   0.2000 
 14 C       -1.8600    -4.6490     0.3920 C.3   1 <1>  -0.0800 
 15 O       -3.0460    -2.7350     1.0760 O.3   1 <1>  -0.6800 
 16 C       -1.7710    -5.5750    -0.8350 C.3   1 <1>  -0.0170 
 17 C       -1.2280    -6.9490    -0.4700 C.ar  1 <1>  -0.1430 
 18 C       -1.9420    -7.8250     0.3220 C.ar  1 <1>  -0.1500 
 19 C        0.0030    -7.3940    -0.9120 C.ar  1 <1>  -0.1500 
 20 C       -1.4040    -9.0630     0.6330 C.ar  1 <1>   0.1600 
 21 C        0.4490    -8.6520    -0.5440 C.ar  1 <1>   0.1600 
 22 N       -0.2240    -9.4960     0.2210 N.ar  1 <1>  -0.6200 
 23 H        2.1940    -0.6180    -1.3370 H     1 <1>   0.1500 
 24 H        1.7520    -2.9930     1.6040 H     1 <1>   0.0800 
 25 H        1.5900    -3.0990    -0.1310 H     1 <1>   0.0800 
 26 H        2.5860     1.9150    -1.5390 H     1 <1>   0.0800 
 27 H        3.1340     3.1950     1.1470 H     1 <1>   0.0800 
 28 H        3.7480     3.7550    -0.3930 H     1 <1>   0.0800 
 29 H        4.2590     2.2100     0.2460 H     1 <1>   0.0800 
 30 H        0.7300     3.4710     0.2730 H     1 <1>   0.0800 
 31 H        0.2640     2.6730    -1.2060 H     1 <1>   0.0800 
 32 H        1.3630     4.0310    -1.2590 H     1 <1>   0.0800 
 33 H       -1.2550    -1.3980    -0.0790 H     1 <1>   0.0800 
 34 H       -0.6330    -2.6720    -1.1210 H     1 <1>   0.0800 
 35 H        0.2850    -4.9600     0.5300 H     1 <1>   0.0800 
 36 H       -0.4900    -4.6740     2.0730 H     1 <1>   0.0800 
 37 H       -3.0080    -3.2420    -0.8650 H     1 <1>   0.0800 
 38 H       -2.5250    -5.0980     1.1090 H     1 <1>   0.0800 
 39 H       -2.3690    -2.5300     1.7570 H     1 <1>   0.4000 
 40 H       -1.1450    -5.1260    -1.5870 H     1 <1>   0.0800 
 41 H       -2.7520    -5.6960    -1.2600 H     1 <1>   0.0800 
 42 H       -2.9120    -7.5580     0.7010 H     1 <1>   0.1500 
 43 H        0.6200    -6.7770    -1.5380 H     1 <1>   0.1500 
 44 H       -1.9760    -9.7320     1.2540 H     1 <1>   0.1500 
 45 H        1.4110    -8.9830    -0.8970 H     1 <1>   0.1500 
@<TRIPOS>BOND
  1   1   2  1   
  2   1   3  1   
  3   2   4  2   
  4   3   5  2   
  5   3   6  1   
  6   4   5  1   
  7   4   7  1   
  8   5  23  1   
  9   6   8  1   
 10   6  24  1   
 11   6  25  1   
 12   7   9  1   
 13   7  10  1   
 14   7  26  1   
 15   8  11  1   
 16   8  12  1   
 17   9  27  1   
 18   9  28  1   
 19   9  29  1   
 20  10  30  1   
 21  10  31  1   
 22  10  32  1   
 23  11  13  1   
 24  11  33  1   
 25  11  34  1   
 26  12  14  1   
 27  12  35  1   
 28  12  36  1   
 29  13  14  1   
 30  13  15  1   
 31  13  37  1   
 32  14  16  1   
 33  14  38  1   
 34  15  39  1   
 35  16  17  1   
 36  16  40  1   
 37  16  41  1   
 38  17  18  ar  
 39  17  19  ar  
 40  18  20  ar  
 41  18  42  1   
 42  19  21  ar  
 43  19  43  1   
 44  20  22  ar  
 45  20  44  1   
 46  21  22  ar  
 47  21  45  1   
@<TRIPOS>SUBSTRUCTURE
  1 ****   8 GROUP 4 **** **** 0

# MOE 2024.06 (io_trps.svl 2023.06)
