@<TRIPOS>MOLECULE
NONAME
52 54 1 0 0 
SMALL
USER_CHARGES


@<TRIPOS>ATOM
  1 S       -0.3110     0.3460     1.7250 S.o2  1 <1>   1.4470 
  2 O        0.2500    -0.4700     2.7810 O.2   1 <1>  -0.6500 
  3 O       -1.3500     1.3050     2.0240 O.2   1 <1>  -0.6500 
  4 N       -0.9550    -0.7430     0.5960 N.am  1 <1>  -0.8490 
  5 C        1.0350     1.1320     0.7980 C.ar  1 <1>  -0.0090 
  6 C       -1.7460    -1.8030     1.2590 C.3   1 <1>   0.1960 
  7 C       -1.6180    -0.0980    -0.5630 C.3   1 <1>   0.1960 
  8 C        0.9600     2.4620     0.4020 C.ar  1 <1>  -0.1500 
  9 C        2.1670     0.4120     0.4380 C.ar  1 <1>  -0.1500 
 10 C       -2.5240    -2.5920     0.1890 C.3   1 <1>   0.4230 
 11 C       -3.1480    -0.2440    -0.5460 C.3   1 <1>  -0.1600 
 12 C        1.9700     3.0620    -0.3330 C.ar  1 <1>  -0.1440 
 13 C        3.1860     0.9920    -0.2940 C.ar  1 <1>  -0.1500 
 14 N       -3.0380    -3.9560     0.5390 N.4   1 <1>  -0.9590 
 15 C       -3.6630    -1.7040    -0.3430 C.3   1 <1>  -0.1060 
 16 C        3.0940     2.3230    -0.6880 C.ar  1 <1>   0.0830 
 17 C        1.8430     4.5230    -0.7430 C.3   1 <1>  -0.0970 
 18 C       -3.5580    -4.6560    -0.6690 C.3   1 <1>   0.3430 
 19 C       -2.1250    -4.8010     1.3530 C.3   1 <1>   0.2630 
 20 C       -4.8330    -1.6660     0.6550 C.2   1 <1>   0.9060 
 21 C       -4.1270    -2.3460    -1.6700 C.3   1 <1>  -0.1600 
 22 O        4.0590     2.9480    -1.4110 O.3   1 <1>  -0.3630 
 23 C       -4.5850    -3.7990    -1.4270 C.3   1 <1>  -0.1600 
 24 O       -5.8240    -0.9950     0.3760 O.co2 1 <1>  -0.9000 
 25 O       -4.7850    -2.3660     1.6790 O.co2 1 <1>  -0.9000 
 26 C        5.2520     2.2940    -1.7830 C.3   1 <1>   0.0400 
 27 H       -1.0670    -2.4440     1.7900 H     1 <1>   0.0800 
 28 H       -2.4310    -1.3660     1.9680 H     1 <1>   0.0800 
 29 H       -1.3630     0.9480    -0.6150 H     1 <1>   0.0800 
 30 H       -1.2420    -0.5570    -1.4620 H     1 <1>   0.0800 
 31 H        0.0900     3.0360     0.6770 H     1 <1>   0.1500 
 32 H        2.2490    -0.6190     0.7390 H     1 <1>   0.1500 
 33 H       -1.8230    -2.7300    -0.6160 H     1 <1>   0.0800 
 34 H       -3.5100     0.3770     0.2580 H     1 <1>   0.0800 
 35 H       -3.5640     0.1720    -1.4470 H     1 <1>   0.0800 
 36 H        4.0410     0.3940    -0.5480 H     1 <1>   0.1500 
 37 H       -3.8700    -3.7020     1.1400 H     1 <1>   0.4500 
 38 H        0.9230     4.9510    -0.3900 H     1 <1>   0.0800 
 39 H        1.8710     4.6040    -1.8150 H     1 <1>   0.0800 
 40 H        2.6630     5.0860    -0.3350 H     1 <1>   0.0800 
 41 H       -2.7350    -4.8790    -1.3280 H     1 <1>   0.0800 
 42 H       -4.0200    -5.5860    -0.3810 H     1 <1>   0.0800 
 43 H       -1.2080    -4.9860     0.8190 H     1 <1>   0.0800 
 44 H       -2.5970    -5.7430     1.5790 H     1 <1>   0.0800 
 45 H       -1.8970    -4.3080     2.2840 H     1 <1>   0.0800 
 46 H       -4.9510    -1.7810    -2.0750 H     1 <1>   0.0800 
 47 H       -3.3280    -2.3290    -2.3910 H     1 <1>   0.0800 
 48 H       -4.8040    -4.2660    -2.3710 H     1 <1>   0.0800 
 49 H       -5.5040    -3.7930    -0.8650 H     1 <1>   0.0800 
 50 H        5.8590     2.9940    -2.3280 H     1 <1>   0.0800 
 51 H        5.0100     1.4550    -2.4090 H     1 <1>   0.0800 
 52 H        5.7680     1.9790    -0.8940 H     1 <1>   0.0800 
@<TRIPOS>BOND
  1   1   2  2   
  2   1   3  2   
  3   1   4  am  
  4   1   5  1   
  5   4   6  1   
  6   4   7  1   
  7   5   8  ar  
  8   5   9  ar  
  9   6  10  1   
 10   6  27  1   
 11   6  28  1   
 12   7  11  1   
 13   7  29  1   
 14   7  30  1   
 15   8  12  ar  
 16   8  31  1   
 17   9  13  ar  
 18   9  32  1   
 19  10  14  1   
 20  10  15  1   
 21  10  33  1   
 22  11  15  1   
 23  11  34  1   
 24  11  35  1   
 25  12  16  ar  
 26  12  17  1   
 27  13  16  ar  
 28  13  36  1   
 29  14  18  1   
 30  14  19  1   
 31  14  37  1   
 32  15  20  1   
 33  15  21  1   
 34  16  22  1   
 35  17  38  1   
 36  17  39  1   
 37  17  40  1   
 38  18  23  1   
 39  18  41  1   
 40  18  42  1   
 41  19  43  1   
 42  19  44  1   
 43  19  45  1   
 44  20  24  ar  
 45  20  25  ar  
 46  21  23  1   
 47  21  46  1   
 48  21  47  1   
 49  22  26  1   
 50  23  48  1   
 51  23  49  1   
 52  26  50  1   
 53  26  51  1   
 54  26  52  1   
@<TRIPOS>SUBSTRUCTURE
  1 ****   4 GROUP 4 **** **** 0

# MOE 2024.06 (io_trps.svl 2023.06)
