@<TRIPOS>MOLECULE
Untitled Document
51 50 1 0 0 
SMALL
USER_CHARGES


@<TRIPOS>ATOM
  1 O       -0.0170    -1.6080    -1.2610 O.2   1 <1>  -0.5700 
  2 C       -0.1840    -2.1420    -0.1650 C.2   1 <1>   0.5690 
  3 N        0.7330    -2.0190     0.8050 N.am  1 <1>  -0.7300 
  4 C       -1.4740    -2.9560     0.1300 C.3   1 <1>   0.2810 
  5 C        1.9700    -1.2640     0.6340 C.3   1 <1>   0.0600 
  6 N       -2.6390    -2.3020    -0.4810 N.am  1 <1>  -0.7300 
  7 C       -1.3840    -4.4520    -0.3190 C.3   1 <1>   0.0000 
  8 C       -3.7470    -1.9200     0.1950 C.2   1 <1>   0.5690 
  9 C       -1.2260    -4.5960    -1.8460 C.3   1 <1>  -0.2400 
 10 C       -2.6550    -5.2160     0.1060 C.3   1 <1>  -0.2400 
 11 C       -0.1860    -5.1520     0.3520 C.3   1 <1>  -0.2400 
 12 O       -3.9100    -2.1990     1.3590 O.2   1 <1>  -0.5700 
 13 C       -4.8320    -1.1470    -0.5500 C.3   1 <1>  -0.0190 
 14 C       -6.0880    -2.0400    -0.6120 C.3   1 <1>  -0.0990 
 15 C       -5.1400     0.2300     0.0940 C.3   1 <1>  -0.1600 
 16 C       -7.1640    -1.4840    -1.5200 C.2   1 <1>   0.5690 
 17 C       -4.0890     1.3320    -0.1570 C.3   1 <1>  -0.0800 
 18 O       -6.9600    -1.4790    -2.7130 O.2   1 <1>  -0.5700 
 19 N       -8.3230    -1.0310    -0.9650 N.am  1 <1>  -0.3950 
 20 C       -2.7470     1.0720     0.5410 C.3   1 <1>  -0.2400 
 21 C       -4.6460     2.6770     0.3280 C.3   1 <1>  -0.2400 
 22 O       -9.3360    -0.3750    -1.6840 O.3   1 <1>  -0.4350 
 23 H        0.5550    -2.4520     1.6970 H     1 <1>   0.3700 
 24 H       -1.6010    -2.9530     1.2130 H     1 <1>   0.0800 
 25 H        2.5480    -1.6820    -0.1930 H     1 <1>   0.0800 
 26 H        2.5680    -1.3040     1.5460 H     1 <1>   0.0800 
 27 H        1.7380    -0.2220     0.4040 H     1 <1>   0.0800 
 28 H       -2.4930    -1.9710    -1.4220 H     1 <1>   0.3700 
 29 H       -1.1680    -5.6330    -2.1240 H     1 <1>   0.0800 
 30 H       -0.3300    -4.1080    -2.1880 H     1 <1>   0.0800 
 31 H       -2.0640    -4.1610    -2.3610 H     1 <1>   0.0800 
 32 H       -2.5710    -6.2620    -0.1310 H     1 <1>   0.0800 
 33 H       -3.5220    -4.8320    -0.4000 H     1 <1>   0.0800 
 34 H       -2.8170    -5.1190     1.1660 H     1 <1>   0.0800 
 35 H       -0.1690    -6.1970     0.0980 H     1 <1>   0.0800 
 36 H       -0.2480    -5.0690     1.4220 H     1 <1>   0.0800 
 37 H        0.7450    -4.7230     0.0260 H     1 <1>   0.0800 
 38 H       -4.5000    -0.9810    -1.5600 H     1 <1>   0.0800 
 39 H       -6.4790    -2.1840     0.3800 H     1 <1>   0.0800 
 40 H       -5.8120    -3.0070    -0.9930 H     1 <1>   0.0800 
 41 H       -6.0690     0.5920    -0.3080 H     1 <1>   0.0800 
 42 H       -5.2840     0.1050     1.1540 H     1 <1>   0.0800 
 43 H       -3.9140     1.4130    -1.2180 H     1 <1>   0.0800 
 44 H       -8.5010    -1.1050     0.0410 H     1 <1>   0.3700 
 45 H       -2.8990     0.8140     1.5750 H     1 <1>   0.0800 
 46 H       -2.1250     1.9470     0.4960 H     1 <1>   0.0800 
 47 H       -2.2100     0.2790     0.0580 H     1 <1>   0.0800 
 48 H       -4.8330     2.6490     1.3870 H     1 <1>   0.0800 
 49 H       -5.5660     2.9090    -0.1790 H     1 <1>   0.0800 
 50 H       -3.9460     3.4680     0.1240 H     1 <1>   0.0800 
 51 H       -9.7680    -0.9870    -2.3180 H     1 <1>   0.4000 
@<TRIPOS>BOND
  1   1   2  2   
  2   2   3  am  
  3   2   4  1   
  4   3   5  1   
  5   3  23  1   
  6   4   6  1   
  7   4   7  1   
  8   4  24  1   
  9   5  25  1   
 10   5  26  1   
 11   5  27  1   
 12   6   8  am  
 13   6  28  1   
 14   7   9  1   
 15   7  10  1   
 16   7  11  1   
 17   8  12  2   
 18   8  13  1   
 19   9  29  1   
 20   9  30  1   
 21   9  31  1   
 22  10  32  1   
 23  10  33  1   
 24  10  34  1   
 25  11  35  1   
 26  11  36  1   
 27  11  37  1   
 28  13  14  1   
 29  13  15  1   
 30  13  38  1   
 31  14  16  1   
 32  14  39  1   
 33  14  40  1   
 34  15  17  1   
 35  15  41  1   
 36  15  42  1   
 37  16  18  2   
 38  16  19  am  
 39  17  20  1   
 40  17  21  1   
 41  17  43  1   
 42  19  22  1   
 43  19  44  1   
 44  20  45  1   
 45  20  46  1   
 46  20  47  1   
 47  21  48  1   
 48  21  49  1   
 49  21  50  1   
 50  22  51  1   
@<TRIPOS>SUBSTRUCTURE
  1 ****   8 GROUP 4 **** **** 0

# MOE 2024.06 (io_trps.svl 2023.06)
