@<TRIPOS>MOLECULE
NONAME
56 59 1 0 0 
SMALL
USER_CHARGES


@<TRIPOS>ATOM
  1 O        0.5370     1.4510    -2.4200 O.2   1 <1>  -0.5700 
  2 C        0.0000     2.0530    -1.5080 C.2   1 <1>   0.5440 
  3 N       -1.3350     1.8230    -1.2400 N.am  1 <1>  -0.6600 
  4 C        0.7670     3.0120    -0.7490 C.ar  1 <1>   0.0860 
  5 C       -2.0780     2.4750    -0.1150 C.3   1 <1>   0.1400 
  6 C       -2.1910     0.9640    -2.1050 C.3   1 <1>   0.1400 
  7 C        1.2110     2.8000     0.5660 C.ar  1 <1>   0.0820 
  8 C        1.0440     4.2480    -1.3310 C.ar  1 <1>  -0.1500 
  9 C       -3.2270     3.3490    -0.6490 C.3   1 <1>   0.1440 
 10 C       -3.3620     1.7870    -2.6600 C.3   1 <1>  -0.1600 
 11 O        1.0500     1.6340     1.2390 O.3   1 <1>  -0.3630 
 12 C        1.8370     3.8150     1.2730 C.ar  1 <1>  -0.1500 
 13 C        1.6820     5.2530    -0.6350 C.ar  1 <1>   0.0820 
 14 C       -3.9420     3.9630     0.5410 C.ar  1 <1>   0.1670 
 15 C       -4.1520     2.4960    -1.5430 C.3   1 <1>  -0.1600 
 16 C       -2.6950     4.6060    -1.3880 C.3   1 <1>  -0.1600 
 17 C        1.3000     0.3950     0.6060 C.3   1 <1>   0.0400 
 18 C        2.0720     5.0550     0.6930 C.ar  1 <1>   0.0820 
 19 O        1.8780     6.4280    -1.2850 O.3   1 <1>  -0.3630 
 20 N       -4.7740     3.3370     1.3430 N.ar  1 <1>  -0.6200 
 21 C       -3.5970     5.2720     0.7060 C.ar  1 <1>  -0.1430 
 22 C       -2.6150     5.7320    -0.3440 C.3   1 <1>  -0.0160 
 23 O        2.6520     6.0820     1.3700 O.3   1 <1>  -0.3620 
 24 C        3.2160     6.7750    -1.5680 C.3   1 <1>   0.0400 
 25 C       -5.2600     4.0890     2.3210 C.ar  1 <1>   0.4770 
 26 C       -4.1600     5.9550     1.7550 C.ar  1 <1>   0.1600 
 27 C        2.9580     5.9920     2.7440 C.3   1 <1>   0.0400 
 28 N       -5.0040     5.3650     2.5770 N.ar  1 <1>  -0.6200 
 29 C       -6.2280     3.4090     3.2590 C.3   1 <1>  -0.0970 
 30 H       -1.4270     3.0750     0.4930 H     1 <1>   0.0800 
 31 H       -2.4870     1.7060     0.5190 H     1 <1>   0.0800 
 32 H       -2.5660     0.1440    -1.5170 H     1 <1>   0.0800 
 33 H       -1.6200     0.5540    -2.9210 H     1 <1>   0.0800 
 34 H        0.7430     4.4260    -2.3480 H     1 <1>   0.1500 
 35 H       -4.0200     1.1360    -3.2070 H     1 <1>   0.0800 
 36 H       -2.9740     2.5110    -3.3550 H     1 <1>   0.0800 
 37 H        2.1320     3.6040     2.2830 H     1 <1>   0.1500 
 38 H       -4.9270     3.1100    -1.9670 H     1 <1>   0.0800 
 39 H       -4.6320     1.7500    -0.9330 H     1 <1>   0.0800 
 40 H       -3.4080     4.9030    -2.1380 H     1 <1>   0.0800 
 41 H       -1.7520     4.4400    -1.8750 H     1 <1>   0.0800 
 42 H        1.5950    -0.3130     1.3590 H     1 <1>   0.0800 
 43 H        2.0910     0.5140    -0.1150 H     1 <1>   0.0800 
 44 H        0.3990     0.0560     0.1270 H     1 <1>   0.0800 
 45 H       -2.8890     6.6840    -0.7640 H     1 <1>   0.0800 
 46 H       -1.6270     5.7880     0.0800 H     1 <1>   0.0800 
 47 H        3.2100     7.6350    -2.2130 H     1 <1>   0.0800 
 48 H        3.6950     5.9480    -2.0600 H     1 <1>   0.0800 
 49 H        3.7240     7.0120    -0.6510 H     1 <1>   0.0800 
 50 H       -3.9190     6.9900     1.9260 H     1 <1>   0.1500 
 51 H        3.3590     6.9380     3.0590 H     1 <1>   0.0800 
 52 H        3.6910     5.2180     2.8890 H     1 <1>   0.0800 
 53 H        2.0560     5.7770     3.2890 H     1 <1>   0.0800 
 54 H       -6.0240     2.3560     3.3040 H     1 <1>   0.0800 
 55 H       -7.2290     3.5600     2.9020 H     1 <1>   0.0800 
 56 H       -6.1380     3.8240     4.2450 H     1 <1>   0.0800 
@<TRIPOS>BOND
  1   1   2  2   
  2   2   3  am  
  3   2   4  1   
  4   3   5  1   
  5   3   6  1   
  6   4   7  ar  
  7   4   8  ar  
  8   5   9  1   
  9   5  30  1   
 10   5  31  1   
 11   6  10  1   
 12   6  32  1   
 13   6  33  1   
 14   7  11  1   
 15   7  12  ar  
 16   8  13  ar  
 17   8  34  1   
 18   9  14  1   
 19   9  15  1   
 20   9  16  1   
 21  10  15  1   
 22  10  35  1   
 23  10  36  1   
 24  11  17  1   
 25  12  18  ar  
 26  12  37  1   
 27  13  18  ar  
 28  13  19  1   
 29  14  20  ar  
 30  14  21  ar  
 31  15  38  1   
 32  15  39  1   
 33  16  22  1   
 34  16  40  1   
 35  16  41  1   
 36  17  42  1   
 37  17  43  1   
 38  17  44  1   
 39  18  23  1   
 40  19  24  1   
 41  20  25  ar  
 42  21  22  1   
 43  21  26  ar  
 44  22  45  1   
 45  22  46  1   
 46  23  27  1   
 47  24  47  1   
 48  24  48  1   
 49  24  49  1   
 50  25  28  ar  
 51  25  29  1   
 52  26  28  ar  
 53  26  50  1   
 54  27  51  1   
 55  27  52  1   
 56  27  53  1   
 57  29  54  1   
 58  29  55  1   
 59  29  56  1   
@<TRIPOS>SUBSTRUCTURE
  1 ****   5 GROUP 4 **** **** 0

# MOE 2024.06 (io_trps.svl 2023.06)
