@<TRIPOS>MOLECULE
NONAME
49 52 1 0 0 
SMALL
USER_CHARGES


@<TRIPOS>ATOM
  1 O       -2.2820    -1.2250    -0.6210 O.2   1 <1>  -0.5700 
  2 C       -1.9850    -0.0700    -0.4620 C.2   1 <1>   0.5950 
  3 C       -2.7450     0.8830     0.2910 C.2   1 <1>  -0.0860 
  4 C       -0.7070     0.4590    -1.1070 C.3   1 <1>  -0.0990 
  5 C       -3.8660     0.7430     1.1470 C.2   1 <1>  -0.0860 
  6 C       -2.4480     2.2030     0.3180 C.2   1 <1>  -0.0400 
  7 C       -0.8230     1.9360    -1.5570 C.3   1 <1>  -0.1600 
  8 C       -4.1060     2.0010     1.6090 C.2   1 <1>  -0.0400 
  9 C       -4.5600    -0.4810     1.4610 C.2   1 <1>   0.7160 
 10 O       -3.2570     2.8630     1.1010 O.3   1 <1>  -0.2800 
 11 C       -1.3190     2.8720    -0.4350 C.3   1 <1>   0.0200 
 12 C       -5.1540     2.5040     2.5780 C.3   1 <1>  -0.0600 
 13 O       -4.5000    -0.9420     2.5840 O.2   1 <1>  -0.5700 
 14 N       -5.3290    -1.1200     0.5210 N.am  1 <1>  -0.6600 
 15 C       -5.5860    -0.6320    -0.8570 C.3   1 <1>   0.1400 
 16 C       -5.7670    -2.5290     0.6660 C.3   1 <1>   0.1400 
 17 C       -6.4920    -1.6970    -1.4790 C.3   1 <1>   0.2000 
 18 C       -6.1050    -2.9910    -0.7590 C.3   1 <1>  -0.0800 
 19 O       -7.8050    -1.3940    -1.1560 O.3   1 <1>  -0.6800 
 20 C       -4.8950    -3.6540    -1.4440 C.3   1 <1>   0.0210 
 21 C       -4.4420    -4.8970    -0.7060 C.2   1 <1>   0.1080 
 22 N       -5.1430    -5.9870    -0.6560 N.2   1 <1>  -0.7070 
 23 C       -3.2480    -5.0030    -0.0020 C.2   1 <1>  -0.1500 
 24 N       -4.4020    -6.8300     0.0900 N.pl3 1 <1>   0.3000 
 25 C       -3.2510    -6.2560     0.4990 C.2   1 <1>  -0.3320 
 26 C       -2.2080    -6.9460     1.3580 C.3   1 <1>  -0.0600 
 27 H        0.0890     0.3610    -0.3920 H     1 <1>   0.0800 
 28 H       -0.4650    -0.1570    -1.9550 H     1 <1>   0.0800 
 29 H        0.1260     2.2850    -1.9260 H     1 <1>   0.0800 
 30 H       -1.5260     1.9860    -2.3720 H     1 <1>   0.0800 
 31 H       -1.6610     3.8020    -0.8560 H     1 <1>   0.0800 
 32 H       -0.5220     3.0860     0.2560 H     1 <1>   0.0800 
 33 H       -5.7680     1.6920     2.9240 H     1 <1>   0.0800 
 34 H       -5.7770     3.2350     2.0950 H     1 <1>   0.0800 
 35 H       -4.6730     2.9590     3.4240 H     1 <1>   0.0800 
 36 H       -6.0510     0.3390    -0.8550 H     1 <1>   0.0800 
 37 H       -4.6590    -0.5870    -1.3980 H     1 <1>   0.0800 
 38 H       -4.9980    -3.1240     1.1280 H     1 <1>   0.0800 
 39 H       -6.6460    -2.5590     1.2860 H     1 <1>   0.0800 
 40 H       -6.4110    -1.7520    -2.5510 H     1 <1>   0.0800 
 41 H       -6.9170    -3.6980    -0.7530 H     1 <1>   0.0800 
 42 H       -7.8710    -1.2750    -0.1880 H     1 <1>   0.4000 
 43 H       -4.0700    -2.9680    -1.5020 H     1 <1>   0.0800 
 44 H       -5.1610    -3.9390    -2.4460 H     1 <1>   0.0800 
 45 H       -2.5080    -4.2280     0.1020 H     1 <1>   0.1500 
 46 H       -4.7110    -7.7860     0.3010 H     1 <1>   0.2700 
 47 H       -1.3870    -6.2780     1.5480 H     1 <1>   0.0800 
 48 H       -1.8300    -7.8190     0.8560 H     1 <1>   0.0800 
 49 H       -2.6360    -7.2390     2.3000 H     1 <1>   0.0800 
@<TRIPOS>BOND
  1   1   2  2   
  2   2   3  1   
  3   2   4  1   
  4   3   5  1   
  5   3   6  2   
  6   4   7  1   
  7   4  27  1   
  8   4  28  1   
  9   5   8  2   
 10   5   9  1   
 11   6  10  1   
 12   6  11  1   
 13   7  11  1   
 14   7  29  1   
 15   7  30  1   
 16   8  10  1   
 17   8  12  1   
 18   9  13  2   
 19   9  14  am  
 20  11  31  1   
 21  11  32  1   
 22  12  33  1   
 23  12  34  1   
 24  12  35  1   
 25  14  15  1   
 26  14  16  1   
 27  15  17  1   
 28  15  36  1   
 29  15  37  1   
 30  16  18  1   
 31  16  38  1   
 32  16  39  1   
 33  17  18  1   
 34  17  19  1   
 35  17  40  1   
 36  18  20  1   
 37  18  41  1   
 38  19  42  1   
 39  20  21  1   
 40  20  43  1   
 41  20  44  1   
 42  21  22  2   
 43  21  23  1   
 44  22  24  1   
 45  23  25  2   
 46  23  45  1   
 47  24  25  1   
 48  24  46  1   
 49  25  26  1   
 50  26  47  1   
 51  26  48  1   
 52  26  49  1   
@<TRIPOS>SUBSTRUCTURE
  1 ****  14 GROUP 4 **** **** 0

# MOE 2024.06 (io_trps.svl 2023.06)
