@<TRIPOS>MOLECULE
NONAME
34 36 1 0 0 
SMALL
USER_CHARGES


@<TRIPOS>ATOM
  1 CL      -2.0360    -0.6790    -2.6060 Cl    1 <1>  -0.1770 
  2 C       -2.6980     0.4300    -1.4290 C.ar  1 <1>   0.1770 
  3 C       -3.1690    -0.0310    -0.2020 C.ar  1 <1>   0.0860 
  4 C       -2.7380     1.7690    -1.7700 C.ar  1 <1>  -0.1500 
  5 C       -3.1340    -1.4300     0.1600 C.2   1 <1>   0.5440 
  6 C       -3.6830     0.9220     0.6800 C.ar  1 <1>  -0.1500 
  7 C       -3.2580     2.6900    -0.8780 C.ar  1 <1>  -0.1500 
  8 O       -2.0610    -1.9690     0.3600 O.2   1 <1>  -0.5700 
  9 N       -4.2930    -2.1380     0.3460 N.am  1 <1>  -0.6600 
 10 C       -3.7320     2.2670     0.3530 C.ar  1 <1>  -0.1440 
 11 C       -5.6560    -1.6160     0.2970 C.3   1 <1>   0.2350 
 12 C       -4.3790    -3.5620     0.6620 C.3   1 <1>   0.2350 
 13 C       -4.3130     3.2720     1.3320 C.3   1 <1>  -0.0960 
 14 C       -6.5730    -2.7450    -0.1620 C.3   1 <1>  -0.2420 
 15 C       -5.7020    -4.0820     0.0900 C.3   1 <1>  -0.2420 
 16 C       -7.7680    -1.8990    -0.6040 C.2   1 <1>   0.9470 
 17 C       -7.0870    -4.0940    -0.3880 C.3   1 <1>  -0.2000 
 18 C       -5.3950    -5.5820     0.0890 C.2   1 <1>   0.9470 
 19 O       -7.8940    -1.5770    -1.7920 O.co2 1 <1>  -0.9000 
 20 O       -8.5300    -1.4570     0.2670 O.co2 1 <1>  -0.9000 
 21 O       -5.0280    -6.1450    -0.9500 O.co2 1 <1>  -0.9000 
 22 O       -5.4640    -6.1960     1.1640 O.co2 1 <1>  -0.9000 
 23 H       -2.3690     2.0840    -2.7290 H     1 <1>   0.1500 
 24 H       -4.0510     0.5840     1.6330 H     1 <1>   0.1500 
 25 H       -3.2950     3.7320    -1.1460 H     1 <1>   0.1500 
 26 H       -5.9420    -1.3300     1.2940 H     1 <1>   0.0800 
 27 H       -5.7250    -0.7560    -0.3500 H     1 <1>   0.0800 
 28 H       -3.5270    -4.0970     0.2710 H     1 <1>   0.0800 
 29 H       -4.3960    -3.6690     1.7320 H     1 <1>   0.0800 
 30 H       -3.7840     4.2060     1.2690 H     1 <1>   0.0800 
 31 H       -4.2390     2.9070     2.3400 H     1 <1>   0.0800 
 32 H       -5.3500     3.4430     1.1020 H     1 <1>   0.0800 
 33 H       -7.2700    -4.4050    -1.4040 H     1 <1>   0.1000 
 34 H       -7.8470    -4.4640     0.2770 H     1 <1>   0.1000 
@<TRIPOS>BOND
  1   1   2  1   
  2   2   3  ar  
  3   2   4  ar  
  4   3   5  1   
  5   3   6  ar  
  6   4   7  ar  
  7   4  23  1   
  8   5   8  2   
  9   5   9  am  
 10   6  10  ar  
 11   6  24  1   
 12   7  10  ar  
 13   7  25  1   
 14   9  11  1   
 15   9  12  1   
 16  10  13  1   
 17  11  14  1   
 18  11  26  1   
 19  11  27  1   
 20  12  15  1   
 21  12  28  1   
 22  12  29  1   
 23  13  30  1   
 24  13  31  1   
 25  13  32  1   
 26  14  15  1   
 27  14  16  1   
 28  14  17  1   
 29  15  17  1   
 30  15  18  1   
 31  16  19  ar  
 32  16  20  ar  
 33  17  33  1   
 34  17  34  1   
 35  18  21  ar  
 36  18  22  ar  
@<TRIPOS>SUBSTRUCTURE
  1 ****   9 GROUP 4 **** **** 0

# MOE 2024.06 (io_trps.svl 2023.06)
