@<TRIPOS>MOLECULE
NONAME
40 41 1 0 0 
SMALL
USER_CHARGES


@<TRIPOS>ATOM
  1 O        0.1280    -0.0620     0.2840 O.2   1 <1>  -0.5700 
  2 C        1.2630    -0.4520     0.0760 C.2   1 <1>   0.7150 
  3 N        2.2580     0.4410    -0.2380 N.am  1 <1>  -0.4940 
  4 C        1.6100    -1.8520     0.1500 C.2   1 <1>   0.0550 
  5 C        2.2380     1.8550    -0.3420 C.2   1 <1>  -0.0880 
  6 O        2.8650    -2.2260    -0.0760 O.3   1 <1>  -0.2800 
  7 C        0.8770    -2.9550     0.4230 C.2   1 <1>   0.0460 
  8 N        3.3060     2.6240    -0.6920 N.pl3 1 <1>   0.3140 
  9 C        1.2170     2.7160    -0.1250 C.2   1 <1>  -0.1500 
 10 C        2.7950    -3.5310     0.0790 C.2   1 <1>   0.2980 
 11 N        1.6550    -4.0290     0.3730 N.2   1 <1>  -0.5650 
 12 C       -0.5940    -3.1230     0.7520 C.3   1 <1>  -0.0590 
 13 N        2.9920     3.9380    -0.7010 N.2   1 <1>  -0.7070 
 14 C        4.6600     2.1640    -1.0560 C.3   1 <1>   0.0960 
 15 C        1.7430     3.9780    -0.3610 C.2   1 <1>   0.1080 
 16 C        4.0610    -4.3350    -0.1020 C.3   1 <1>  -0.0600 
 17 C        5.4630     1.7620     0.1900 C.3   1 <1>  -0.1600 
 18 C        0.9790     5.2760    -0.2460 C.3   1 <1>  -0.0590 
 19 C        6.8520     1.2330    -0.1920 C.3   1 <1>  -0.1600 
 20 C        7.6430     0.8240     1.0530 C.3   1 <1>  -0.2400 
 21 H        3.1540    -0.0210    -0.3890 H     1 <1>   0.3700 
 22 H        0.2080     2.4910     0.1680 H     1 <1>   0.1500 
 23 H       -1.1090    -2.1820     0.7580 H     1 <1>   0.0800 
 24 H       -0.6950    -3.5780     1.7200 H     1 <1>   0.0800 
 25 H       -1.0540    -3.7630     0.0210 H     1 <1>   0.0800 
 26 H        5.1580     2.9670    -1.5690 H     1 <1>   0.0800 
 27 H        4.5670     1.3350    -1.7320 H     1 <1>   0.0800 
 28 H        4.7990    -4.0130     0.6080 H     1 <1>   0.0800 
 29 H        4.4380    -4.1980    -1.0980 H     1 <1>   0.0800 
 30 H        3.8550    -5.3790     0.0540 H     1 <1>   0.0800 
 31 H        4.9320     1.0030     0.7370 H     1 <1>   0.0800 
 32 H        5.5720     2.6250     0.8260 H     1 <1>   0.0800 
 33 H       -0.0380     5.0890     0.0440 H     1 <1>   0.0800 
 34 H        0.9900     5.7830    -1.1930 H     1 <1>   0.0800 
 35 H        1.4480     5.9020     0.4910 H     1 <1>   0.0800 
 36 H        7.3970     1.9970    -0.7210 H     1 <1>   0.0800 
 37 H        6.7540     0.3810    -0.8430 H     1 <1>   0.0800 
 38 H        7.7740     1.6670     1.7090 H     1 <1>   0.0800 
 39 H        8.6140     0.4590     0.7690 H     1 <1>   0.0800 
 40 H        7.1300     0.0450     1.5900 H     1 <1>   0.0800 
@<TRIPOS>BOND
  1   1   2  2   
  2   2   3  am  
  3   2   4  1   
  4   3   5  1   
  5   3  21  1   
  6   4   6  1   
  7   4   7  2   
  8   5   8  1   
  9   5   9  2   
 10   6  10  1   
 11   7  11  1   
 12   7  12  1   
 13   8  13  1   
 14   8  14  1   
 15   9  15  1   
 16   9  22  1   
 17  10  11  2   
 18  10  16  1   
 19  12  23  1   
 20  12  24  1   
 21  12  25  1   
 22  13  15  2   
 23  14  17  1   
 24  14  26  1   
 25  14  27  1   
 26  15  18  1   
 27  16  28  1   
 28  16  29  1   
 29  16  30  1   
 30  17  19  1   
 31  17  31  1   
 32  17  32  1   
 33  18  33  1   
 34  18  34  1   
 35  18  35  1   
 36  19  20  1   
 37  19  36  1   
 38  19  37  1   
 39  20  38  1   
 40  20  39  1   
 41  20  40  1   
@<TRIPOS>SUBSTRUCTURE
  1 ****   3 GROUP 4 **** **** 0

# MOE 2024.06 (io_trps.svl 2023.06)
