@<TRIPOS>MOLECULE
NONAME
56 58 1 0 0 
SMALL
USER_CHARGES


@<TRIPOS>ATOM
  1 O       -4.4840     3.1250     1.9200 O.2   1 <1>  -0.5700 
  2 C       -4.0330     3.0420     0.7940 C.2   1 <1>   0.5440 
  3 N       -4.6850     2.2290    -0.1070 N.am  1 <1>  -0.6600 
  4 C       -2.8090     3.7230     0.4470 C.ar  1 <1>   0.0860 
  5 C       -4.1280     1.8800    -1.4450 C.3   1 <1>   0.3200 
  6 C       -5.9120     1.4740     0.3010 C.3   1 <1>   0.1400 
  7 C       -1.5540     3.1130     0.6760 C.ar  1 <1>   0.0000 
  8 C       -2.8050     4.9430    -0.1770 C.ar  1 <1>  -0.1500 
  9 C       -3.7410     0.4200    -1.3890 C.2   1 <1>  -0.3320 
 10 C       -5.5510     0.4150     1.3610 C.3   1 <1>   0.3430 
 11 C       -0.4070     3.7380     0.1410 C.ar  1 <1>   0.3100 
 12 C       -1.3900     1.9090     1.3970 C.ar  1 <1>  -0.1500 
 13 C       -1.6090     5.5100    -0.6220 C.ar  1 <1>   0.1660 
 14 N       -2.6310    -0.0470    -0.7860 N.pl3 1 <1>   0.0330 
 15 C       -4.3980    -0.6580    -1.8660 C.2   1 <1>   0.0770 
 16 N       -6.5800    -0.6700     1.5080 N.4   1 <1>  -0.9590 
 17 N       -0.4560     4.9330    -0.4950 N.ar  1 <1>  -0.6200 
 18 C        0.8350     3.1010     0.2660 C.ar  1 <1>  -0.1500 
 19 C       -0.1640     1.3150     1.5110 C.ar  1 <1>  -0.1500 
 20 C       -1.6260     6.8610    -1.3060 C.3   1 <1>  -0.0970 
 21 C       -2.7140    -1.3900    -0.8910 C.2   1 <1>   0.0060 
 22 N       -3.7730    -1.7950    -1.5140 N.2   1 <1>  -0.5650 
 23 C       -6.4030    -1.3600     2.8210 C.3   1 <1>   0.2630 
 24 C       -6.4670    -1.6660     0.3920 C.3   1 <1>   0.2630 
 25 C        0.9630     1.9020     0.9270 C.ar  1 <1>   0.0830 
 26 C       -1.6510    -2.3160    -0.3380 C.3   1 <1>  -0.0600 
 27 O        2.1250     1.2260     1.0710 O.3   1 <1>  -0.3630 
 28 C        3.3430     1.7530     0.5900 C.3   1 <1>   0.0400 
 29 H       -3.2750     2.4850    -1.7010 H     1 <1>   0.0800 
 30 H       -4.8830     2.0370    -2.1970 H     1 <1>   0.0800 
 31 H       -6.3490     1.0090    -0.5640 H     1 <1>   0.0800 
 32 H       -6.6250     2.1660     0.7150 H     1 <1>   0.0800 
 33 H       -3.7300     5.4670    -0.3380 H     1 <1>   0.1500 
 34 H       -5.4210     0.9240     2.3030 H     1 <1>   0.0800 
 35 H       -4.6090    -0.0330     1.0900 H     1 <1>   0.0800 
 36 H       -2.2430     1.4600     1.8750 H     1 <1>   0.1500 
 37 H       -1.8690     0.4880    -0.3530 H     1 <1>   0.2700 
 38 H       -5.3090    -0.6820    -2.4420 H     1 <1>   0.1500 
 39 H       -7.5180    -0.2420     1.4930 H     1 <1>   0.4500 
 40 H        1.6740     3.5990    -0.1790 H     1 <1>   0.1500 
 41 H       -0.0290     0.3970     2.0570 H     1 <1>   0.1500 
 42 H       -2.6160     7.2780    -1.3270 H     1 <1>   0.0800 
 43 H       -1.2690     6.7580    -2.3150 H     1 <1>   0.0800 
 44 H       -0.9770     7.5370    -0.7800 H     1 <1>   0.0800 
 45 H       -5.4290    -1.8180     2.8750 H     1 <1>   0.0800 
 46 H       -7.1520    -2.1260     2.9450 H     1 <1>   0.0800 
 47 H       -6.4980    -0.6530     3.6310 H     1 <1>   0.0800 
 48 H       -5.4740    -2.0900     0.3660 H     1 <1>   0.0800 
 49 H       -6.6560    -1.1940    -0.5570 H     1 <1>   0.0800 
 50 H       -7.1790    -2.4650     0.5250 H     1 <1>   0.0800 
 51 H       -0.7040    -2.1050    -0.8020 H     1 <1>   0.0800 
 52 H       -1.9120    -3.3380    -0.5470 H     1 <1>   0.0800 
 53 H       -1.5610    -2.1910     0.7250 H     1 <1>   0.0800 
 54 H        4.1270     1.0600     0.8360 H     1 <1>   0.0800 
 55 H        3.5280     2.6990     1.0690 H     1 <1>   0.0800 
 56 H        3.2780     1.8690    -0.4770 H     1 <1>   0.0800 
@<TRIPOS>BOND
  1   1   2  2   
  2   2   3  am  
  3   2   4  1   
  4   3   5  1   
  5   3   6  1   
  6   4   7  ar  
  7   4   8  ar  
  8   5   9  1   
  9   5  29  1   
 10   5  30  1   
 11   6  10  1   
 12   6  31  1   
 13   6  32  1   
 14   7  11  ar  
 15   7  12  ar  
 16   8  13  ar  
 17   8  33  1   
 18   9  14  1   
 19   9  15  2   
 20  10  16  1   
 21  10  34  1   
 22  10  35  1   
 23  11  17  ar  
 24  11  18  ar  
 25  12  19  ar  
 26  12  36  1   
 27  13  17  ar  
 28  13  20  1   
 29  14  21  1   
 30  14  37  1   
 31  15  22  1   
 32  15  38  1   
 33  16  23  1   
 34  16  24  1   
 35  16  39  1   
 36  18  25  ar  
 37  18  40  1   
 38  19  25  ar  
 39  19  41  1   
 40  20  42  1   
 41  20  43  1   
 42  20  44  1   
 43  21  22  2   
 44  21  26  1   
 45  23  45  1   
 46  23  46  1   
 47  23  47  1   
 48  24  48  1   
 49  24  49  1   
 50  24  50  1   
 51  25  27  1   
 52  26  51  1   
 53  26  52  1   
 54  26  53  1   
 55  27  28  1   
 56  28  54  1   
 57  28  55  1   
 58  28  56  1   
@<TRIPOS>SUBSTRUCTURE
  1 ****  12 GROUP 4 **** **** 0

# MOE 2024.06 (io_trps.svl 2023.06)
