@<TRIPOS>MOLECULE
NONAME
49 50 1 0 0 
SMALL
USER_CHARGES


@<TRIPOS>ATOM
  1 O        0.1370     1.0590    -0.1050 O.2   1 <1>  -0.5700 
  2 C       -0.1320     2.2130    -0.3400 C.2   1 <1>   0.5690 
  3 N       -0.9630     2.9530     0.4570 N.am  1 <1>  -0.6600 
  4 C        0.4640     2.8520    -1.5930 C.3   1 <1>   0.1810 
  5 C       -1.3220     4.3690     0.1110 C.3   1 <1>   0.3640 
  6 C       -1.5310     2.4220     1.7290 C.3   1 <1>   0.0600 
  7 O        0.5640     4.2500    -1.4850 O.3   1 <1>  -0.5600 
  8 C       -2.8500     4.5520     0.0920 C.ar  1 <1>  -0.1430 
  9 C       -0.6630     4.9070    -1.1890 C.3   1 <1>   0.2610 
 10 C       -3.7430     3.7570    -0.6350 C.ar  1 <1>  -0.1430 
 11 C       -3.3600     5.5910     0.8630 C.ar  1 <1>  -0.1500 
 12 C       -0.4230     6.4170    -1.0530 C.2   1 <1>   0.5690 
 13 C       -5.1050     4.0160    -0.5610 C.ar  1 <1>  -0.1500 
 14 C       -3.3130     2.5900    -1.5180 C.3   1 <1>  -0.0960 
 15 C       -4.7170     5.8420     0.9260 C.ar  1 <1>  -0.1500 
 16 O       -1.3630     7.1730    -0.9980 O.2   1 <1>  -0.5700 
 17 N        0.8580     6.8740    -0.9920 N.am  1 <1>  -0.7300 
 18 C       -5.5930     5.0500     0.2130 C.ar  1 <1>  -0.1500 
 19 C        1.2790     8.2840    -0.8710 C.3   1 <1>   0.1400 
 20 C        2.2900     8.4040     0.2720 C.3   1 <1>  -0.1600 
 21 C        2.7170     9.8570     0.5480 C.3   1 <1>  -0.0800 
 22 C        3.4620    10.4760    -0.6430 C.3   1 <1>  -0.2400 
 23 C        3.6130     9.9070     1.7910 C.3   1 <1>  -0.2400 
 24 H       -0.1400     2.6140    -2.4490 H     1 <1>   0.0800 
 25 H        1.4540     2.4660    -1.7490 H     1 <1>   0.0800 
 26 H       -0.9330     4.9710     0.9140 H     1 <1>   0.0800 
 27 H       -1.3020     3.0900     2.5400 H     1 <1>   0.0800 
 28 H       -1.1200     1.4530     1.9560 H     1 <1>   0.0800 
 29 H       -2.6000     2.3280     1.6430 H     1 <1>   0.0800 
 30 H       -1.3240     4.7580    -2.0220 H     1 <1>   0.0800 
 31 H       -2.6980     6.2310     1.4210 H     1 <1>   0.1500 
 32 H       -5.8040     3.4100    -1.1100 H     1 <1>   0.1500 
 33 H       -4.1280     2.2530    -2.1330 H     1 <1>   0.0800 
 34 H       -2.9980     1.7630    -0.9080 H     1 <1>   0.0800 
 35 H       -2.5130     2.8750    -2.1710 H     1 <1>   0.0800 
 36 H       -5.0880     6.6540     1.5260 H     1 <1>   0.1500 
 37 H        1.6010     6.1780    -1.1120 H     1 <1>   0.3700 
 38 H       -6.6520     5.2400     0.2580 H     1 <1>   0.1500 
 39 H        1.7190     8.5960    -1.8010 H     1 <1>   0.0800 
 40 H        0.4220     8.9060    -0.6710 H     1 <1>   0.0800 
 41 H        1.8350     8.0050     1.1630 H     1 <1>   0.0800 
 42 H        3.1590     7.8130     0.0430 H     1 <1>   0.0800 
 43 H        1.8360    10.4460     0.7460 H     1 <1>   0.0800 
 44 H        4.3210     9.8820    -0.9040 H     1 <1>   0.0800 
 45 H        3.7980    11.4680    -0.3950 H     1 <1>   0.0800 
 46 H        2.8210    10.5540    -1.5020 H     1 <1>   0.0800 
 47 H        4.5090     9.3310     1.6370 H     1 <1>   0.0800 
 48 H        3.0920     9.5110     2.6450 H     1 <1>   0.0800 
 49 H        3.8920    10.9220     2.0100 H     1 <1>   0.0800 
@<TRIPOS>BOND
  1   1   2  2   
  2   2   3  am  
  3   2   4  1   
  4   3   5  1   
  5   3   6  1   
  6   4   7  1   
  7   4  24  1   
  8   4  25  1   
  9   5   8  1   
 10   5   9  1   
 11   5  26  1   
 12   6  27  1   
 13   6  28  1   
 14   6  29  1   
 15   7   9  1   
 16   8  10  ar  
 17   8  11  ar  
 18   9  12  1   
 19   9  30  1   
 20  10  13  ar  
 21  10  14  1   
 22  11  15  ar  
 23  11  31  1   
 24  12  16  2   
 25  12  17  am  
 26  13  18  ar  
 27  13  32  1   
 28  14  33  1   
 29  14  34  1   
 30  14  35  1   
 31  15  18  ar  
 32  15  36  1   
 33  17  19  1   
 34  17  37  1   
 35  18  38  1   
 36  19  20  1   
 37  19  39  1   
 38  19  40  1   
 39  20  21  1   
 40  20  41  1   
 41  20  42  1   
 42  21  22  1   
 43  21  23  1   
 44  21  43  1   
 45  22  44  1   
 46  22  45  1   
 47  22  46  1   
 48  23  47  1   
 49  23  48  1   
 50  23  49  1   
@<TRIPOS>SUBSTRUCTURE
  1 ****   9 GROUP 4 **** **** 0

# MOE 2024.06 (io_trps.svl 2023.06)
