@<TRIPOS>MOLECULE
NONAME
47 50 1 0 0 
SMALL
USER_CHARGES


@<TRIPOS>ATOM
  1 O        0.7170    -1.0370    -0.6480 O.3   1 <1>  -0.3570 
  2 C        0.1980    -2.1130     0.0280 C.2   1 <1>   0.0910 
  3 C        2.1080    -0.7890    -0.6030 C.3   1 <1>   0.0400 
  4 C        0.8820    -3.3690     0.1830 C.2   1 <1>   0.5410 
  5 C       -1.0460    -1.9590     0.5600 C.2   1 <1>  -0.0500 
  6 O        1.9930    -3.6310    -0.2750 O.2   1 <1>  -0.5700 
  7 C        0.1980    -4.3850     0.8990 C.2   1 <1>  -0.1360 
  8 N       -1.6740    -2.9800     1.2500 N.pl3 1 <1>  -0.6000 
  9 C       -1.0510    -4.2010     1.4090 C.2   1 <1>  -0.0380 
 10 C       -1.7910    -5.3220     2.1310 C.3   1 <1>   0.4810 
 11 N       -2.9140    -5.7850     1.2660 N.4   1 <1>  -0.9590 
 12 C       -3.8580    -6.6630     2.0210 C.3   1 <1>   0.3430 
 13 C       -2.4050    -6.4230     0.0110 C.3   1 <1>   0.3430 
 14 C       -5.0460    -7.0300     1.1400 C.3   1 <1>  -0.1600 
 15 C       -3.5710    -6.7870    -0.9000 C.3   1 <1>  -0.1600 
 16 C       -4.5990    -7.6620    -0.1800 C.3   1 <1>   0.2820 
 17 C       -4.1200    -9.1130    -0.0070 C.ar  1 <1>  -0.1440 
 18 C       -5.8050    -7.8860    -1.0780 C.2   1 <1>  -0.2880 
 19 C       -4.9630    -9.9580    -0.7130 C.ar  1 <1>   0.0280 
 20 C       -3.0490    -9.6390     0.7020 C.ar  1 <1>  -0.1500 
 21 C       -5.9750    -9.1810    -1.3520 C.2   1 <1>  -0.1780 
 22 C       -4.7490   -11.3280    -0.7190 C.ar  1 <1>  -0.1500 
 23 C       -2.8350   -11.0090     0.6950 C.ar  1 <1>  -0.1500 
 24 C       -3.6810   -11.8500    -0.0120 C.ar  1 <1>  -0.1500 
 25 H        2.2780     0.2250    -0.9170 H     1 <1>   0.0800 
 26 H        2.6060    -1.4620    -1.2790 H     1 <1>   0.0800 
 27 H        2.4640    -0.9270     0.4020 H     1 <1>   0.0800 
 28 H       -1.5700    -1.0220     0.4560 H     1 <1>   0.1500 
 29 H        0.7350    -5.3100     1.0000 H     1 <1>   0.1500 
 30 H       -2.5760    -2.7530     1.6930 H     1 <1>   0.4000 
 31 H       -2.1670    -4.9490     3.0700 H     1 <1>   0.0800 
 32 H       -1.1170    -6.1380     2.3330 H     1 <1>   0.0800 
 33 H       -3.4160    -4.9370     0.9730 H     1 <1>   0.4500 
 34 H       -4.2150    -6.1540     2.9020 H     1 <1>   0.0800 
 35 H       -3.3540    -7.5620     2.3360 H     1 <1>   0.0800 
 36 H       -1.8420    -7.3100     0.2470 H     1 <1>   0.0800 
 37 H       -1.7510    -5.7420    -0.5130 H     1 <1>   0.0800 
 38 H       -5.6290    -6.1490     0.9440 H     1 <1>   0.0800 
 39 H       -5.6790    -7.7240     1.6660 H     1 <1>   0.0800 
 40 H       -3.1980    -7.3150    -1.7610 H     1 <1>   0.0800 
 41 H       -4.0390    -5.8860    -1.2530 H     1 <1>   0.0800 
 42 H       -6.3970    -7.0490    -1.4070 H     1 <1>   0.1500 
 43 H       -2.3730    -9.0220     1.2590 H     1 <1>   0.1500 
 44 H       -6.7390    -9.6410    -1.9580 H     1 <1>   0.1500 
 45 H       -5.4100   -11.9720    -1.2710 H     1 <1>   0.1500 
 46 H       -2.0080   -11.4300     1.2410 H     1 <1>   0.1500 
 47 H       -3.5070   -12.9120    -0.0110 H     1 <1>   0.1500 
@<TRIPOS>BOND
  1   1   2  1   
  2   1   3  1   
  3   2   4  1   
  4   2   5  2   
  5   3  25  1   
  6   3  26  1   
  7   3  27  1   
  8   4   6  2   
  9   4   7  1   
 10   5   8  1   
 11   5  28  1   
 12   7   9  2   
 13   7  29  1   
 14   8   9  1   
 15   8  30  1   
 16   9  10  1   
 17  10  11  1   
 18  10  31  1   
 19  10  32  1   
 20  11  12  1   
 21  11  13  1   
 22  11  33  1   
 23  12  14  1   
 24  12  34  1   
 25  12  35  1   
 26  13  15  1   
 27  13  36  1   
 28  13  37  1   
 29  14  16  1   
 30  14  38  1   
 31  14  39  1   
 32  15  16  1   
 33  15  40  1   
 34  15  41  1   
 35  16  17  1   
 36  16  18  1   
 37  17  19  ar  
 38  17  20  ar  
 39  18  21  2   
 40  18  42  1   
 41  19  21  1   
 42  19  22  ar  
 43  20  23  ar  
 44  20  43  1   
 45  21  44  1   
 46  22  24  ar  
 47  22  45  1   
 48  23  24  ar  
 49  23  46  1   
 50  24  47  1   
@<TRIPOS>SUBSTRUCTURE
  1 ****  13 GROUP 4 **** **** 0

# MOE 2024.06 (io_trps.svl 2023.06)
