@<TRIPOS>MOLECULE
NONAME
42 44 1 0 0 
SMALL
USER_CHARGES


@<TRIPOS>ATOM
  1 O        0.1280     0.1360    -1.0240 O.3   1 <1>  -0.0190 
  2 N        0.6070     1.2840    -0.6680 N.2   1 <1>  -0.4100 
  3 C        0.9670    -0.8350    -0.8050 C.2   1 <1>  -0.0400 
  4 C        1.8060     1.0760    -0.2170 C.2   1 <1>   0.2350 
  5 C        2.0810    -0.2980    -0.2850 C.2   1 <1>  -0.1500 
  6 C        0.5690    -2.2570    -1.1520 C.3   1 <1>   0.5230 
  7 C        2.6950     2.1090     0.2790 C.ar  1 <1>   0.0540 
  8 N       -0.4720    -2.7620    -0.1990 N.4   1 <1>  -0.9590 
  9 C        2.2210     3.3970     0.5410 C.ar  1 <1>   0.1600 
 10 C        4.0450     1.8820     0.5190 C.ar  1 <1>  -0.1500 
 11 C       -0.5610    -4.2570    -0.2760 C.3   1 <1>   0.3430 
 12 C       -1.8010    -2.1030    -0.4370 C.3   1 <1>   0.2630 
 13 N        2.9340     4.4110     1.0030 N.ar  1 <1>  -0.6200 
 14 C        4.8070     2.9260     0.9980 C.ar  1 <1>  -0.1500 
 15 C       -1.3760    -4.8620     0.8710 C.3   1 <1>   0.0210 
 16 C        4.2120     4.1540     1.2220 C.ar  1 <1>   0.1600 
 17 C       -1.3020    -6.3680     0.7620 C.2   1 <1>  -0.1810 
 18 C       -0.2580    -7.1840     1.1850 C.2   1 <1>   0.1390 
 19 C       -2.2060    -7.2190     0.2330 C.2   1 <1>  -0.3020 
 20 N       -0.4830    -8.4330     0.9290 N.2   1 <1>  -0.7070 
 21 N       -1.6930    -8.4610     0.3490 N.pl3 1 <1>   0.3140 
 22 C       -2.3100    -9.7230    -0.0750 C.3   1 <1>   0.0160 
 23 H        2.9940    -0.7720     0.0240 H     1 <1>   0.1500 
 24 H        1.4470    -2.8790    -1.0920 H     1 <1>   0.0800 
 25 H        0.2000    -2.2920    -2.1650 H     1 <1>   0.0800 
 26 H       -0.1500    -2.4960     0.7440 H     1 <1>   0.4500 
 27 H        1.1790     3.5980     0.3560 H     1 <1>   0.1500 
 28 H        4.5010     0.9270     0.3360 H     1 <1>   0.1500 
 29 H        0.4300    -4.6800    -0.2360 H     1 <1>   0.0800 
 30 H       -1.0040    -4.5540    -1.2130 H     1 <1>   0.0800 
 31 H       -2.1490    -2.3060    -1.4370 H     1 <1>   0.0800 
 32 H       -1.7240    -1.0350    -0.3110 H     1 <1>   0.0800 
 33 H       -2.5350    -2.4660     0.2630 H     1 <1>   0.0800 
 34 H        5.8550     2.7940     1.1980 H     1 <1>   0.1500 
 35 H       -2.4070    -4.5640     0.8060 H     1 <1>   0.0800 
 36 H       -0.9790    -4.5600     1.8240 H     1 <1>   0.0800 
 37 H        4.8150     4.9640     1.5980 H     1 <1>   0.1500 
 38 H        0.6420    -6.8460     1.6720 H     1 <1>   0.1500 
 39 H       -3.1670    -7.0290    -0.2090 H     1 <1>   0.1500 
 40 H       -3.3540    -9.5690    -0.2720 H     1 <1>   0.0800 
 41 H       -2.1920   -10.4470     0.7100 H     1 <1>   0.0800 
 42 H       -1.8160   -10.0730    -0.9620 H     1 <1>   0.0800 
@<TRIPOS>BOND
  1   1   2  1   
  2   1   3  1   
  3   2   4  2   
  4   3   5  2   
  5   3   6  1   
  6   4   5  1   
  7   4   7  1   
  8   5  23  1   
  9   6   8  1   
 10   6  24  1   
 11   6  25  1   
 12   7   9  ar  
 13   7  10  ar  
 14   8  11  1   
 15   8  12  1   
 16   8  26  1   
 17   9  13  ar  
 18   9  27  1   
 19  10  14  ar  
 20  10  28  1   
 21  11  15  1   
 22  11  29  1   
 23  11  30  1   
 24  12  31  1   
 25  12  32  1   
 26  12  33  1   
 27  13  16  ar  
 28  14  16  ar  
 29  14  34  1   
 30  15  17  1   
 31  15  35  1   
 32  15  36  1   
 33  16  37  1   
 34  17  18  1   
 35  17  19  2   
 36  18  20  2   
 37  18  38  1   
 38  19  21  1   
 39  19  39  1   
 40  20  21  1   
 41  21  22  1   
 42  22  40  1   
 43  22  41  1   
 44  22  42  1   
@<TRIPOS>SUBSTRUCTURE
  1 ****   6 GROUP 4 **** **** 0

# MOE 2024.06 (io_trps.svl 2023.06)
