@<TRIPOS>MOLECULE
NONAME
44 46 1 0 0 
SMALL
USER_CHARGES


@<TRIPOS>ATOM
  1 O        3.6420    -0.9700     1.2170 O.2   1 <1>  -0.5700 
  2 C        2.4690    -1.0890     0.9460 C.2   1 <1>   0.5690 
  3 N        1.6830    -0.0690     0.5210 N.am  1 <1>  -0.4930 
  4 C        1.8100    -2.4630     1.0810 C.3   1 <1>   0.1710 
  5 C        1.9670     1.2640     0.2630 C.2   1 <1>   0.3520 
  6 N        0.6040    -2.6520     0.2210 N.3   1 <1>  -0.8100 
  7 N        1.0440     2.0250    -0.2320 N.2   1 <1>  -0.7070 
  8 C        3.1640     1.9450     0.4650 C.2   1 <1>  -0.1500 
  9 C        0.9390    -2.7540    -1.2080 C.3   1 <1>   0.1100 
 10 C       -0.1070    -3.8990     0.5480 C.3   1 <1>   0.1100 
 11 N        1.6320     3.2310    -0.3630 N.pl3 1 <1>   0.3140 
 12 C        2.9130     3.2050     0.0530 C.2   1 <1>  -0.3020 
 13 C       -0.2790    -3.4260    -1.8280 C.3   1 <1>   0.2000 
 14 C       -0.6960    -4.4450    -0.7680 C.3   1 <1>  -0.0800 
 15 C        0.8990     4.3820    -0.9010 C.3   1 <1>   0.0160 
 16 O       -1.2810    -2.4800    -1.9240 O.3   1 <1>  -0.6800 
 17 C       -0.1610    -5.8480    -1.1100 C.3   1 <1>  -0.0160 
 18 C       -0.5710    -6.8810    -0.0730 C.ar  1 <1>   0.1670 
 19 N        0.3170    -7.1580     0.8690 N.ar  1 <1>  -0.6200 
 20 C       -1.8250    -7.4690    -0.1550 C.ar  1 <1>  -0.1500 
 21 C       -0.0580    -8.0590     1.7630 C.ar  1 <1>   0.1600 
 22 C       -2.2020    -8.4040     0.7850 C.ar  1 <1>  -0.1500 
 23 C       -1.2840    -8.7000     1.7680 C.ar  1 <1>  -0.1500 
 24 H        0.7280    -0.3340     0.2800 H     1 <1>   0.3700 
 25 H        1.5250    -2.5770     2.1120 H     1 <1>   0.0800 
 26 H        2.5420    -3.2190     0.8580 H     1 <1>   0.0800 
 27 H        4.0680     1.5220     0.8650 H     1 <1>   0.1500 
 28 H        1.1310    -1.7910    -1.6500 H     1 <1>   0.0800 
 29 H        1.8010    -3.3860    -1.3420 H     1 <1>   0.0800 
 30 H        0.5760    -4.6110     0.9800 H     1 <1>   0.0800 
 31 H       -0.8870    -3.6980     1.2620 H     1 <1>   0.0800 
 32 H        3.5610     4.0620     0.0340 H     1 <1>   0.1500 
 33 H       -0.0990    -3.8400    -2.8050 H     1 <1>   0.0800 
 34 H       -1.7680    -4.5010    -0.6990 H     1 <1>   0.0800 
 35 H        1.5620     5.2200    -0.9970 H     1 <1>   0.0800 
 36 H        0.0960     4.6260    -0.2310 H     1 <1>   0.0800 
 37 H        0.4990     4.1200    -1.8620 H     1 <1>   0.0800 
 38 H       -1.3020    -2.0030    -1.0680 H     1 <1>   0.4000 
 39 H        0.9120    -5.8290    -1.1840 H     1 <1>   0.0800 
 40 H       -0.5450    -6.1510    -2.0680 H     1 <1>   0.0800 
 41 H       -2.5010    -7.1990    -0.9460 H     1 <1>   0.1500 
 42 H        0.6520    -8.3010     2.5360 H     1 <1>   0.1500 
 43 H       -3.1680    -8.8790     0.7510 H     1 <1>   0.1500 
 44 H       -1.5140    -9.4210     2.5320 H     1 <1>   0.1500 
@<TRIPOS>BOND
  1   1   2  2   
  2   2   3  am  
  3   2   4  1   
  4   3   5  1   
  5   3  24  1   
  6   4   6  1   
  7   4  25  1   
  8   4  26  1   
  9   5   7  2   
 10   5   8  1   
 11   6   9  1   
 12   6  10  1   
 13   7  11  1   
 14   8  12  2   
 15   8  27  1   
 16   9  13  1   
 17   9  28  1   
 18   9  29  1   
 19  10  14  1   
 20  10  30  1   
 21  10  31  1   
 22  11  12  1   
 23  11  15  1   
 24  12  32  1   
 25  13  14  1   
 26  13  16  1   
 27  13  33  1   
 28  14  17  1   
 29  14  34  1   
 30  15  35  1   
 31  15  36  1   
 32  15  37  1   
 33  16  38  1   
 34  17  18  1   
 35  17  39  1   
 36  17  40  1   
 37  18  19  ar  
 38  18  20  ar  
 39  19  21  ar  
 40  20  22  ar  
 41  20  41  1   
 42  21  23  ar  
 43  21  42  1   
 44  22  23  ar  
 45  22  43  1   
 46  23  44  1   
@<TRIPOS>SUBSTRUCTURE
  1 ****   6 GROUP 4 **** **** 0

# MOE 2024.06 (io_trps.svl 2023.06)
