@<TRIPOS>MOLECULE
NONAME
45 47 1 0 0 
SMALL
USER_CHARGES


@<TRIPOS>ATOM
  1 O       -0.0040    -1.5000    -2.3160 O.2   1 <1>  -0.5700 
  2 C       -0.0630    -2.0610    -1.2400 C.2   1 <1>   0.5440 
  3 N       -1.2850    -2.0980    -0.6650 N.am  1 <1>  -0.8000 
  4 C        1.1120    -2.6280    -0.6090 C.ar  1 <1>   0.0860 
  5 C        1.0600    -3.6600     0.3530 C.ar  1 <1>   0.4100 
  6 C        2.3660    -2.1250    -0.9330 C.ar  1 <1>  -0.1500 
  7 N        2.1350    -4.1070     0.9990 N.ar  1 <1>  -0.6200 
  8 N       -0.1270    -4.2970     0.6860 N.pl3 1 <1>  -0.8380 
  9 C        3.4810    -2.6160    -0.2910 C.ar  1 <1>  -0.1430 
 10 C        3.3040    -3.6000     0.6750 C.ar  1 <1>   0.1670 
 11 C       -0.7270    -5.2690    -0.2800 C.3   1 <1>   0.2090 
 12 C       -0.3450    -4.8680     2.0280 C.3   1 <1>   0.2090 
 13 C        4.8530    -2.0640    -0.6580 C.3   1 <1>  -0.0970 
 14 C        4.4840    -4.1780     1.4350 C.3   1 <1>  -0.0970 
 15 C       -1.7420    -6.1350     0.5010 C.3   1 <1>   0.0370 
 16 C       -1.7310    -5.4650     1.8990 C.3   1 <1>  -0.1600 
 17 C       -3.1430    -6.1140    -0.1630 C.ar  1 <1>  -0.1430 
 18 C       -1.1870    -7.5750     0.5290 C.2   1 <1>   0.9060 
 19 C       -3.2480    -6.3130    -1.5340 C.ar  1 <1>  -0.1500 
 20 C       -4.3190    -5.9310     0.5590 C.ar  1 <1>  -0.1500 
 21 O       -1.0980    -8.1870     1.6040 O.co2 1 <1>  -0.9000 
 22 O       -0.8210    -8.1010    -0.5340 O.co2 1 <1>  -0.9000 
 23 C       -4.4750    -6.2840    -2.1730 C.ar  1 <1>  -0.1500 
 24 C       -5.5500    -5.9010    -0.0750 C.ar  1 <1>  -0.1500 
 25 C       -5.6300    -6.0710    -1.4440 C.ar  1 <1>  -0.1500 
 26 H       -2.1040    -1.8380    -1.2090 H     1 <1>   0.3700 
 27 H       -1.4230    -2.7840     0.0910 H     1 <1>   0.3700 
 28 H        2.4490    -1.3540    -1.6790 H     1 <1>   0.1500 
 29 H        0.0570    -5.8690    -0.7140 H     1 <1>   0.0800 
 30 H       -1.2150    -4.7320    -1.0710 H     1 <1>   0.0800 
 31 H       -0.2940    -4.1090     2.7880 H     1 <1>   0.0800 
 32 H        0.3800    -5.6430     2.2250 H     1 <1>   0.0800 
 33 H        4.7910    -1.4220    -1.5180 H     1 <1>   0.0800 
 34 H        5.5270    -2.8690    -0.8900 H     1 <1>   0.0800 
 35 H        5.2520    -1.4950     0.1620 H     1 <1>   0.0800 
 36 H        4.1390    -4.7100     2.3040 H     1 <1>   0.0800 
 37 H        5.1460    -3.3980     1.7600 H     1 <1>   0.0800 
 38 H        5.0150    -4.8650     0.8040 H     1 <1>   0.0800 
 39 H       -2.4280    -4.6500     1.9390 H     1 <1>   0.0800 
 40 H       -1.9470    -6.1520     2.6980 H     1 <1>   0.0800 
 41 H       -2.3620    -6.5120    -2.1130 H     1 <1>   0.1500 
 42 H       -4.2960    -5.8210     1.6270 H     1 <1>   0.1500 
 43 H       -4.5250    -6.4370    -3.2360 H     1 <1>   0.1500 
 44 H       -6.4450    -5.7520     0.5020 H     1 <1>   0.1500 
 45 H       -6.5850    -6.0490    -1.9380 H     1 <1>   0.1500 
@<TRIPOS>BOND
  1   1   2  2   
  2   2   3  am  
  3   2   4  1   
  4   3  26  1   
  5   3  27  1   
  6   4   5  ar  
  7   4   6  ar  
  8   5   7  ar  
  9   5   8  1   
 10   6   9  ar  
 11   6  28  1   
 12   7  10  ar  
 13   8  11  1   
 14   8  12  1   
 15   9  10  ar  
 16   9  13  1   
 17  10  14  1   
 18  11  15  1   
 19  11  29  1   
 20  11  30  1   
 21  12  16  1   
 22  12  31  1   
 23  12  32  1   
 24  13  33  1   
 25  13  34  1   
 26  13  35  1   
 27  14  36  1   
 28  14  37  1   
 29  14  38  1   
 30  15  16  1   
 31  15  17  1   
 32  15  18  1   
 33  16  39  1   
 34  16  40  1   
 35  17  19  ar  
 36  17  20  ar  
 37  18  21  ar  
 38  18  22  ar  
 39  19  23  ar  
 40  19  41  1   
 41  20  24  ar  
 42  20  42  1   
 43  23  25  ar  
 44  23  43  1   
 45  24  25  ar  
 46  24  44  1   
 47  25  45  1   
@<TRIPOS>SUBSTRUCTURE
  1 ****  11 GROUP 4 **** **** 0

# MOE 2024.06 (io_trps.svl 2023.06)
