@<TRIPOS>MOLECULE
NONAME
55 57 1 0 0 
SMALL
USER_CHARGES


@<TRIPOS>ATOM
  1 S       -0.1930    -0.1610     0.2980 S.3   1 <1>  -0.0800 
  2 C       -1.4610     1.0100    -0.0400 C.2   1 <1>  -0.1400 
  3 C        0.9690     0.7610    -0.6400 C.2   1 <1>  -0.1100 
  4 C       -0.9860     2.0080    -0.8080 C.2   1 <1>  -0.1500 
  5 C       -2.8330     0.7550     0.5550 C.3   1 <1>   0.0200 
  6 C        0.3970     1.8660    -1.1510 C.2   1 <1>  -0.1500 
  7 C       -3.5260    -0.4320    -0.1270 C.3   1 <1>  -0.1600 
  8 C       -4.9330    -0.6810     0.4510 C.3   1 <1>  -0.0990 
  9 C       -5.6940    -1.8360    -0.1970 C.2   1 <1>   0.5690 
 10 O       -5.1120    -2.5290    -0.9980 O.2   1 <1>  -0.5700 
 11 N       -7.0110    -2.0690     0.1250 N.am  1 <1>  -0.6600 
 12 C       -7.7670    -3.1790    -0.5340 C.3   1 <1>   0.1400 
 13 C       -7.7990    -1.2540     1.0940 C.3   1 <1>   0.1400 
 14 C       -8.9590    -2.6650    -1.3540 C.3   1 <1>   0.1400 
 15 C       -8.6270    -0.2140     0.3300 C.3   1 <1>  -0.1600 
 16 N      -10.0540    -2.1640    -0.4640 N.am  1 <1>  -0.6600 
 17 C      -10.0070    -0.7070    -0.1330 C.3   1 <1>   0.1400 
 18 C      -11.0670    -2.9550     0.0250 C.2   1 <1>   0.5690 
 19 O      -11.9060    -2.5170     0.7760 O.2   1 <1>  -0.5700 
 20 C      -11.1520    -4.4260    -0.3640 C.3   1 <1>  -0.0990 
 21 C      -12.3520    -5.1620     0.2480 C.3   1 <1>   0.0200 
 22 C      -12.3440    -6.6240    -0.1720 C.2   1 <1>  -0.3320 
 23 N      -11.6090    -7.6030     0.4070 N.pl3 1 <1>   0.3140 
 24 C      -13.0460    -7.2040    -1.1680 C.2   1 <1>  -0.1500 
 25 N      -11.8130    -8.7870    -0.1950 N.2   1 <1>  -0.7070 
 26 C      -10.6990    -7.4900     1.5540 C.3   1 <1>   0.0160 
 27 C      -12.6750    -8.5420    -1.1330 C.2   1 <1>   0.1390 
 28 H        1.9680     0.3710    -0.7090 H     1 <1>   0.1500 
 29 H       -1.5540     2.8520    -1.1570 H     1 <1>   0.1500 
 30 H       -3.4330     1.6390     0.4310 H     1 <1>   0.0800 
 31 H       -2.7280     0.5670     1.6090 H     1 <1>   0.0800 
 32 H        0.8910     2.6000    -1.7630 H     1 <1>   0.1500 
 33 H       -2.9280    -1.3180     0.0010 H     1 <1>   0.0800 
 34 H       -3.6010    -0.2390    -1.1840 H     1 <1>   0.0800 
 35 H       -5.5150     0.2130     0.3310 H     1 <1>   0.0800 
 36 H       -4.8430    -0.8930     1.5000 H     1 <1>   0.0800 
 37 H       -8.1080    -3.8700     0.2160 H     1 <1>   0.0800 
 38 H       -7.1180    -3.7250    -1.1960 H     1 <1>   0.0800 
 39 H       -7.1400    -0.7530     1.7790 H     1 <1>   0.0800 
 40 H       -8.4410    -1.8920     1.6790 H     1 <1>   0.0800 
 41 H       -9.3260    -3.4630    -1.9730 H     1 <1>   0.0800 
 42 H       -8.6290    -1.8820    -2.0140 H     1 <1>   0.0800 
 43 H       -8.0680     0.1470    -0.5150 H     1 <1>   0.0800 
 44 H       -8.7920     0.6310     0.9740 H     1 <1>   0.0800 
 45 H      -10.3190    -0.1430    -0.9960 H     1 <1>   0.0800 
 46 H      -10.7130    -0.4950     0.6520 H     1 <1>   0.0800 
 47 H      -10.2480    -4.9140    -0.0570 H     1 <1>   0.0800 
 48 H      -11.2310    -4.4950    -1.4320 H     1 <1>   0.0800 
 49 H      -13.2610    -4.7000    -0.0980 H     1 <1>   0.0800 
 50 H      -12.3370    -5.0830     1.3210 H     1 <1>   0.0800 
 51 H      -13.7450    -6.7600    -1.8540 H     1 <1>   0.1500 
 52 H       -9.8230    -6.9460     1.2580 H     1 <1>   0.0800 
 53 H      -10.4180    -8.4750     1.8770 H     1 <1>   0.0800 
 54 H      -11.1990    -6.9800     2.3560 H     1 <1>   0.0800 
 55 H      -13.0520    -9.2970    -1.8010 H     1 <1>   0.1500 
@<TRIPOS>BOND
  1   1   2  1   
  2   1   3  1   
  3   2   4  2   
  4   2   5  1   
  5   3   6  2   
  6   3  28  1   
  7   4   6  1   
  8   4  29  1   
  9   5   7  1   
 10   5  30  1   
 11   5  31  1   
 12   6  32  1   
 13   7   8  1   
 14   7  33  1   
 15   7  34  1   
 16   8   9  1   
 17   8  35  1   
 18   8  36  1   
 19   9  10  2   
 20   9  11  am  
 21  11  12  1   
 22  11  13  1   
 23  12  14  1   
 24  12  37  1   
 25  12  38  1   
 26  13  15  1   
 27  13  39  1   
 28  13  40  1   
 29  14  16  1   
 30  14  41  1   
 31  14  42  1   
 32  15  17  1   
 33  15  43  1   
 34  15  44  1   
 35  16  17  1   
 36  16  18  am  
 37  17  45  1   
 38  17  46  1   
 39  18  19  2   
 40  18  20  1   
 41  20  21  1   
 42  20  47  1   
 43  20  48  1   
 44  21  22  1   
 45  21  49  1   
 46  21  50  1   
 47  22  23  1   
 48  22  24  2   
 49  23  25  1   
 50  23  26  1   
 51  24  27  1   
 52  24  51  1   
 53  25  27  2   
 54  26  52  1   
 55  26  53  1   
 56  26  54  1   
 57  27  55  1   
@<TRIPOS>SUBSTRUCTURE
  1 ****  12 GROUP 4 **** **** 0

# MOE 2024.06 (io_trps.svl 2023.06)
