@<TRIPOS>MOLECULE
NONAME
47 48 1 0 0 
SMALL
USER_CHARGES


@<TRIPOS>ATOM
  1 F        1.2930     1.7880    -2.4460 F     1 <1>  -0.1900 
  2 C        2.0660     1.6520    -1.4010 C.ar  1 <1>   0.1900 
  3 C        2.3570     0.3790    -0.9470 C.ar  1 <1>  -0.1440 
  4 C        2.5530     2.7930    -0.7940 C.ar  1 <1>  -0.1500 
  5 C        3.1710     0.2480     0.1740 C.ar  1 <1>   0.0830 
  6 C        1.8000    -0.8320    -1.6660 C.3   1 <1>   0.4860 
  7 C        3.3660     2.6540     0.3170 C.ar  1 <1>  -0.1500 
  8 O        3.4310    -1.0130     0.6120 O.3   1 <1>  -0.3620 
  9 C        3.6730     1.3910     0.7990 C.ar  1 <1>  -0.1500 
 10 N        0.9880    -1.6270    -0.7160 N.4   1 <1>  -0.9590 
 11 C        4.2780    -1.2500     1.7200 C.3   1 <1>   0.0400 
 12 C        0.6760    -2.9920    -1.2520 C.3   1 <1>   0.3430 
 13 C       -0.2310    -0.9000    -0.2580 C.3   1 <1>   0.3430 
 14 C       -0.1070    -3.8360    -0.2390 C.3   1 <1>   0.2000 
 15 C       -0.9460    -1.7350     0.7980 C.3   1 <1>  -0.1600 
 16 O       -0.4260    -5.0380    -0.8380 O.3   1 <1>  -0.6800 
 17 C       -1.3860    -3.1300     0.2690 C.3   1 <1>  -0.1060 
 18 C       -1.9230    -4.0040     1.4130 C.2   1 <1>   0.9060 
 19 C       -2.4550    -2.9920    -0.8630 C.3   1 <1>  -0.1600 
 20 O       -2.1200    -3.4980     2.5210 O.co2 1 <1>  -0.9000 
 21 O       -2.0830    -5.2120     1.1960 O.co2 1 <1>  -0.9000 
 22 C       -3.7460    -2.2660    -0.4460 C.3   1 <1>  -0.1600 
 23 C       -4.7850    -2.3100    -1.5690 C.3   1 <1>  -0.2400 
 24 H        2.3040     3.7660    -1.1820 H     1 <1>   0.1500 
 25 H        2.6220    -1.4260    -2.0280 H     1 <1>   0.0800 
 26 H        1.1980    -0.5320    -2.5080 H     1 <1>   0.0800 
 27 H        3.7600     3.5290     0.8070 H     1 <1>   0.1500 
 28 H        4.3060     1.3220     1.6650 H     1 <1>   0.1500 
 29 H        1.5970    -1.7410     0.1120 H     1 <1>   0.4500 
 30 H        4.3500    -2.3120     1.8700 H     1 <1>   0.0800 
 31 H        3.8530    -0.7880     2.5940 H     1 <1>   0.0800 
 32 H        5.2530    -0.8470     1.5090 H     1 <1>   0.0800 
 33 H        0.0810    -2.9020    -2.1450 H     1 <1>   0.0800 
 34 H        1.5880    -3.5100    -1.4950 H     1 <1>   0.0800 
 35 H        0.0430     0.0520     0.1670 H     1 <1>   0.0800 
 36 H       -0.8940    -0.7250    -1.0900 H     1 <1>   0.0800 
 37 H        0.5290    -4.0690     0.5990 H     1 <1>   0.0800 
 38 H       -0.2900    -1.8620     1.6430 H     1 <1>   0.0800 
 39 H       -1.7970    -1.1950     1.1700 H     1 <1>   0.0800 
 40 H       -1.0850    -5.4760    -0.2160 H     1 <1>   0.4000 
 41 H       -2.0430    -2.4980    -1.7220 H     1 <1>   0.0800 
 42 H       -2.7370    -3.9840    -1.1790 H     1 <1>   0.0800 
 43 H       -4.1590    -2.7390     0.4310 H     1 <1>   0.0800 
 44 H       -3.5460    -1.2380    -0.2050 H     1 <1>   0.0800 
 45 H       -5.0370    -3.3300    -1.8030 H     1 <1>   0.0800 
 46 H       -4.4080    -1.8320    -2.4560 H     1 <1>   0.0800 
 47 H       -5.6820    -1.8020    -1.2590 H     1 <1>   0.0800 
@<TRIPOS>BOND
  1   1   2  1   
  2   2   3  ar  
  3   2   4  ar  
  4   3   5  ar  
  5   3   6  1   
  6   4   7  ar  
  7   4  24  1   
  8   5   8  1   
  9   5   9  ar  
 10   6  10  1   
 11   6  25  1   
 12   6  26  1   
 13   7   9  ar  
 14   7  27  1   
 15   8  11  1   
 16   9  28  1   
 17  10  12  1   
 18  10  13  1   
 19  10  29  1   
 20  11  30  1   
 21  11  31  1   
 22  11  32  1   
 23  12  14  1   
 24  12  33  1   
 25  12  34  1   
 26  13  15  1   
 27  13  35  1   
 28  13  36  1   
 29  14  16  1   
 30  14  17  1   
 31  14  37  1   
 32  15  17  1   
 33  15  38  1   
 34  15  39  1   
 35  16  40  1   
 36  17  18  1   
 37  17  19  1   
 38  18  20  ar  
 39  18  21  ar  
 40  19  22  1   
 41  19  41  1   
 42  19  42  1   
 43  22  23  1   
 44  22  43  1   
 45  22  44  1   
 46  23  45  1   
 47  23  46  1   
 48  23  47  1   
@<TRIPOS>SUBSTRUCTURE
  1 ****  13 GROUP 4 **** **** 0

# MOE 2024.06 (io_trps.svl 2023.06)
