@<TRIPOS>MOLECULE
NONAME
45 47 1 0 0 
SMALL
USER_CHARGES


@<TRIPOS>ATOM
  1 O        0.2720    -0.6170    -1.6620 O.2   1 <1>  -0.5700 
  2 C        1.1310    -1.1330    -0.9970 C.2   1 <1>   0.4230 
  3 C        0.9760    -2.4290    -0.3680 C.ar  1 <1>   0.0860 
  4 C        2.4230    -0.3550    -0.8340 C.3   1 <1>  -0.1790 
  5 C       -0.1440    -3.2110    -0.5900 C.ar  1 <1>  -0.1500 
  6 C        1.9100    -2.9950     0.4940 C.ar  1 <1>  -0.1500 
  7 C       -0.3050    -4.4520     0.0170 C.ar  1 <1>   0.4100 
  8 C        1.6800    -4.2370     1.0480 C.ar  1 <1>   0.1600 
  9 N        0.6070    -4.9710     0.8310 N.ar  1 <1>  -0.6200 
 10 N       -1.4440    -5.2040    -0.2260 N.pl3 1 <1>  -0.8380 
 11 C       -2.7820    -4.5700    -0.3380 C.3   1 <1>   0.2090 
 12 C       -1.5850    -6.5980     0.2670 C.3   1 <1>   0.2090 
 13 C       -3.7420    -5.4920     0.4250 C.3   1 <1>  -0.0800 
 14 C       -3.0880    -6.8800     0.3270 C.3   1 <1>  -0.0800 
 15 C       -5.2410    -5.4370    -0.0030 C.3   1 <1>   0.2800 
 16 C       -3.6070    -7.6430    -0.9020 C.3   1 <1>  -0.1600 
 17 O       -5.3550    -5.0150    -1.3140 O.3   1 <1>  -0.6800 
 18 C       -5.8640    -6.8450     0.0540 C.3   1 <1>  -0.1600 
 19 C       -6.0700    -4.4570     0.8570 C.3   1 <1>  -0.1600 
 20 C       -5.1260    -7.8810    -0.8210 C.3   1 <1>  -0.1600 
 21 C       -5.6100    -2.9890     0.8200 C.3   1 <1>  -0.2400 
 22 H        3.2560    -0.9500    -1.1600 H     1 <1>   0.0800 
 23 H        2.5550    -0.0740     0.1940 H     1 <1>   0.0800 
 24 H        2.3880     0.5390    -1.4310 H     1 <1>   0.0800 
 25 H       -0.9060    -2.8580    -1.2570 H     1 <1>   0.1500 
 26 H        2.8180    -2.4800     0.7410 H     1 <1>   0.1500 
 27 H        2.4190    -4.6550     1.7100 H     1 <1>   0.1500 
 28 H       -2.7830    -3.5790     0.0800 H     1 <1>   0.0800 
 29 H       -3.0290    -4.5130    -1.3830 H     1 <1>   0.0800 
 30 H       -1.0730    -7.2790    -0.3900 H     1 <1>   0.0800 
 31 H       -1.1680    -6.6790     1.2560 H     1 <1>   0.0800 
 32 H       -3.6810    -5.2120     1.4610 H     1 <1>   0.0800 
 33 H       -3.3000    -7.4640     1.2060 H     1 <1>   0.0800 
 34 H       -3.3900    -7.0610    -1.7830 H     1 <1>   0.0800 
 35 H       -3.0960    -8.5850    -1.0030 H     1 <1>   0.0800 
 36 H       -6.2870    -5.0630    -1.5880 H     1 <1>   0.4000 
 37 H       -5.8260    -7.1800     1.0760 H     1 <1>   0.0800 
 38 H       -6.9030    -6.8110    -0.2220 H     1 <1>   0.0800 
 39 H       -7.0980    -4.5010     0.5430 H     1 <1>   0.0800 
 40 H       -6.0450    -4.7910     1.8790 H     1 <1>   0.0800 
 41 H       -5.3160    -8.8640    -0.4240 H     1 <1>   0.0800 
 42 H       -5.5260    -7.8550    -1.8210 H     1 <1>   0.0800 
 43 H       -5.5740    -2.6240    -0.1920 H     1 <1>   0.0800 
 44 H       -4.6360    -2.8800     1.2620 H     1 <1>   0.0800 
 45 H       -6.2980    -2.3760     1.3750 H     1 <1>   0.0800 
@<TRIPOS>BOND
  1   1   2  2   
  2   2   3  1   
  3   2   4  1   
  4   3   5  ar  
  5   3   6  ar  
  6   4  22  1   
  7   4  23  1   
  8   4  24  1   
  9   5   7  ar  
 10   5  25  1   
 11   6   8  ar  
 12   6  26  1   
 13   7   9  ar  
 14   7  10  1   
 15   8   9  ar  
 16   8  27  1   
 17  10  11  1   
 18  10  12  1   
 19  11  13  1   
 20  11  28  1   
 21  11  29  1   
 22  12  14  1   
 23  12  30  1   
 24  12  31  1   
 25  13  14  1   
 26  13  15  1   
 27  13  32  1   
 28  14  16  1   
 29  14  33  1   
 30  15  17  1   
 31  15  18  1   
 32  15  19  1   
 33  16  20  1   
 34  16  34  1   
 35  16  35  1   
 36  17  36  1   
 37  18  20  1   
 38  18  37  1   
 39  18  38  1   
 40  19  21  1   
 41  19  39  1   
 42  19  40  1   
 43  20  41  1   
 44  20  42  1   
 45  21  43  1   
 46  21  44  1   
 47  21  45  1   
@<TRIPOS>SUBSTRUCTURE
  1 ****  11 GROUP 4 **** **** 0

# MOE 2024.06 (io_trps.svl 2023.06)
