@<TRIPOS>MOLECULE
NONAME
38 39 1 0 0 
SMALL
USER_CHARGES


@<TRIPOS>ATOM
  1 O       -0.9810    -1.2580     1.0490 O.3   1 <1>  -0.2800 
  2 C       -2.1870    -1.4330     0.5490 C.2   1 <1>  -0.0400 
  3 C       -0.2630    -0.5950     0.1670 C.2   1 <1>  -0.0400 
  4 C       -2.2610    -0.8740    -0.6840 C.2   1 <1>  -0.1500 
  5 C       -3.1690    -2.1920     1.4330 C.3   1 <1>   0.5230 
  6 C       -0.9970    -0.3260    -0.9310 C.2   1 <1>  -0.1500 
  7 C        1.1750    -0.2600     0.5030 C.3   1 <1>  -0.0600 
  8 N       -4.3950    -2.6480     0.7150 N.4   1 <1>  -0.9590 
  9 C       -4.0420    -3.5890    -0.3810 C.3   1 <1>   0.5240 
 10 C       -5.3210    -1.5400     0.3360 C.3   1 <1>   0.3430 
 11 C       -3.7790    -4.9250     0.2930 C.2   1 <1>   0.0460 
 12 C       -6.7400    -2.0480     0.0400 C.3   1 <1>   0.1200 
 13 N       -4.6070    -5.3350     1.2790 N.2   1 <1>  -0.5650 
 14 C       -2.7850    -5.8190     0.0890 C.2   1 <1>  -0.3320 
 15 O       -7.4910    -0.9690    -0.3870 O.3   1 <1>  -0.6800 
 16 C       -4.1120    -6.4750     1.6400 C.2   1 <1>   0.0360 
 17 N       -3.0040    -6.8280     0.9560 N.pl3 1 <1>   0.0330 
 18 C       -1.6090    -5.8110    -0.8760 C.3   1 <1>  -0.0600 
 19 H       -3.0740    -0.8170    -1.3840 H     1 <1>   0.1500 
 20 H       -3.4400    -1.5670     2.2670 H     1 <1>   0.0800 
 21 H       -2.6560    -3.0550     1.8290 H     1 <1>   0.0800 
 22 H       -0.7020     0.2000    -1.8230 H     1 <1>   0.1500 
 23 H        1.7300    -1.1640     0.6770 H     1 <1>   0.0800 
 24 H        1.2100     0.3460     1.3890 H     1 <1>   0.0800 
 25 H        1.6310     0.2790    -0.3070 H     1 <1>   0.0800 
 26 H       -4.8740    -3.2880     1.3760 H     1 <1>   0.4500 
 27 H       -3.1760    -3.2590    -0.9290 H     1 <1>   0.0800 
 28 H       -4.8700    -3.7050    -1.0600 H     1 <1>   0.0800 
 29 H       -4.9460    -1.0280    -0.5330 H     1 <1>   0.0800 
 30 H       -5.3830    -0.8310     1.1440 H     1 <1>   0.0800 
 31 H       -7.1990    -2.4470     0.9290 H     1 <1>   0.0800 
 32 H       -6.7460    -2.7830    -0.7450 H     1 <1>   0.0800 
 33 H       -8.4260    -1.2200    -0.5520 H     1 <1>   0.4000 
 34 H       -4.5260    -7.1040     2.4120 H     1 <1>   0.1500 
 35 H       -2.4530    -7.6850     1.0750 H     1 <1>   0.2700 
 36 H       -1.6070    -4.9190    -1.4750 H     1 <1>   0.0800 
 37 H       -1.6630    -6.6620    -1.5330 H     1 <1>   0.0800 
 38 H       -0.6820    -5.8550    -0.3320 H     1 <1>   0.0800 
@<TRIPOS>BOND
  1   1   2  1   
  2   1   3  1   
  3   2   4  2   
  4   2   5  1   
  5   3   6  2   
  6   3   7  1   
  7   4   6  1   
  8   4  19  1   
  9   5   8  1   
 10   5  20  1   
 11   5  21  1   
 12   6  22  1   
 13   7  23  1   
 14   7  24  1   
 15   7  25  1   
 16   8   9  1   
 17   8  10  1   
 18   8  26  1   
 19   9  11  1   
 20   9  27  1   
 21   9  28  1   
 22  10  12  1   
 23  10  29  1   
 24  10  30  1   
 25  11  13  1   
 26  11  14  2   
 27  12  15  1   
 28  12  31  1   
 29  12  32  1   
 30  13  16  2   
 31  14  17  1   
 32  14  18  1   
 33  15  33  1   
 34  16  17  1   
 35  16  34  1   
 36  17  35  1   
 37  18  36  1   
 38  18  37  1   
 39  18  38  1   
@<TRIPOS>SUBSTRUCTURE
  1 ****   9 GROUP 4 **** **** 0

# MOE 2024.06 (io_trps.svl 2023.06)
