@<TRIPOS>MOLECULE
NONAME
46 47 1 0 0 
SMALL
USER_CHARGES


@<TRIPOS>ATOM
  1 S       -0.3520     0.4270    -0.6060 S.3   1 <1>  -0.4600 
  2 C        0.4460    -1.0320     0.1210 C.3   1 <1>   0.2140 
  3 C        0.6000     1.8080     0.0690 C.3   1 <1>   0.0700 
  4 C       -0.3130    -2.2700    -0.3250 C.ar  1 <1>  -0.1440 
  5 C        0.0470     3.0890    -0.5550 C.3   1 <1>  -0.0990 
  6 C       -0.1500    -2.7630    -1.6110 C.ar  1 <1>  -0.1500 
  7 C       -1.1710    -2.9220     0.5480 C.ar  1 <1>  -0.1500 
  8 C        0.7280     4.3200     0.0000 C.2   1 <1>   0.5690 
  9 C       -0.8300    -3.8970    -2.0180 C.ar  1 <1>  -0.1500 
 10 C       -1.8520    -4.0560     0.1420 C.ar  1 <1>  -0.1500 
 11 O        1.9240     4.3170     0.1610 O.2   1 <1>  -0.5700 
 12 N       -0.0340     5.4100     0.2870 N.am  1 <1>  -0.7300 
 13 C       -1.6810    -4.5460    -1.1410 C.ar  1 <1>  -0.1500 
 14 C        0.3890     6.7460     0.8020 C.3   1 <1>   0.2200 
 15 C        1.5910     6.6900     1.7680 C.3   1 <1>   0.3430 
 16 C        0.8910     7.5910    -0.3580 C.3   1 <1>  -0.1600 
 17 N        2.7860     7.2300     1.0330 N.4   1 <1>  -0.9590 
 18 C        2.3870     7.2980    -0.4030 C.3   1 <1>   0.4230 
 19 C        3.9940     6.3730     1.2450 C.3   1 <1>   0.2630 
 20 C        3.2040     8.3380    -1.1990 C.3   1 <1>   0.1200 
 21 O        2.6690     8.5160    -2.4700 O.3   1 <1>  -0.6800 
 22 H        1.4640    -1.0520    -0.2270 H     1 <1>   0.0800 
 23 H        0.4220    -0.9150     1.1890 H     1 <1>   0.0800 
 24 H        0.4740     1.7970     1.1380 H     1 <1>   0.0800 
 25 H        1.6330     1.6530    -0.1900 H     1 <1>   0.0800 
 26 H        0.2020     3.0600    -1.6180 H     1 <1>   0.0800 
 27 H       -1.0100     3.1420    -0.3670 H     1 <1>   0.0800 
 28 H        0.5050    -2.2590    -2.3010 H     1 <1>   0.1500 
 29 H       -1.3150    -2.5470     1.5460 H     1 <1>   0.1500 
 30 H       -0.6990    -4.2730    -3.0180 H     1 <1>   0.1500 
 31 H       -2.5170    -4.5570     0.8240 H     1 <1>   0.1500 
 32 H       -1.0350     5.3460     0.0720 H     1 <1>   0.3700 
 33 H       -2.2110    -5.4270    -1.4570 H     1 <1>   0.1500 
 34 H       -0.4550     7.2110     1.2860 H     1 <1>   0.0800 
 35 H        1.7560     5.6720     2.0800 H     1 <1>   0.0800 
 36 H        1.3950     7.2950     2.6380 H     1 <1>   0.0800 
 37 H        0.7370     8.6350    -0.1510 H     1 <1>   0.0800 
 38 H        0.4080     7.3510    -1.2890 H     1 <1>   0.0800 
 39 H        2.9690     8.1870     1.3620 H     1 <1>   0.4500 
 40 H        2.5300     6.3260    -0.8480 H     1 <1>   0.0800 
 41 H        3.8100     5.3720     0.8900 H     1 <1>   0.0800 
 42 H        4.2390     6.3240     2.2930 H     1 <1>   0.0800 
 43 H        4.8400     6.7750     0.7120 H     1 <1>   0.0800 
 44 H        4.2290     8.0310    -1.3070 H     1 <1>   0.0800 
 45 H        3.1640     9.2950    -0.7090 H     1 <1>   0.0800 
 46 H        3.0230     7.8720    -3.1190 H     1 <1>   0.4000 
@<TRIPOS>BOND
  1   1   2  1   
  2   1   3  1   
  3   2   4  1   
  4   2  22  1   
  5   2  23  1   
  6   3   5  1   
  7   3  24  1   
  8   3  25  1   
  9   4   6  ar  
 10   4   7  ar  
 11   5   8  1   
 12   5  26  1   
 13   5  27  1   
 14   6   9  ar  
 15   6  28  1   
 16   7  10  ar  
 17   7  29  1   
 18   8  11  2   
 19   8  12  am  
 20   9  13  ar  
 21   9  30  1   
 22  10  13  ar  
 23  10  31  1   
 24  12  14  1   
 25  12  32  1   
 26  13  33  1   
 27  14  15  1   
 28  14  16  1   
 29  14  34  1   
 30  15  17  1   
 31  15  35  1   
 32  15  36  1   
 33  16  18  1   
 34  16  37  1   
 35  16  38  1   
 36  17  18  1   
 37  17  19  1   
 38  17  39  1   
 39  18  20  1   
 40  18  40  1   
 41  19  41  1   
 42  19  42  1   
 43  19  43  1   
 44  20  21  1   
 45  20  44  1   
 46  20  45  1   
 47  21  46  1   
@<TRIPOS>SUBSTRUCTURE
  1 ****   5 GROUP 4 **** **** 0

# MOE 2024.06 (io_trps.svl 2023.06)
