@<TRIPOS>MOLECULE
NONAME
46 48 1 0 0 
SMALL
USER_CHARGES


@<TRIPOS>ATOM
  1 S        0.4020    -1.6350    -0.7730 S.3   1 <1>  -0.3320 
  2 C        0.0010    -3.1320     0.1110 C.ar  1 <1>   0.7220 
  3 C        1.3990    -2.1940    -2.2230 C.3   1 <1>   0.0700 
  4 N        0.4650    -4.2610    -0.4020 N.ar  1 <1>  -0.6200 
  5 N       -0.7300    -2.9580     1.2000 N.ar  1 <1>  -0.6200 
  6 C        1.7740    -0.9580    -3.0390 C.3   1 <1>  -0.2400 
  7 C        0.1480    -5.3430     0.2690 C.ar  1 <1>   0.1600 
  8 C       -1.0240    -4.0560     1.8500 C.ar  1 <1>   0.1600 
  9 C       -0.6120    -5.2980     1.4190 C.ar  1 <1>  -0.1430 
 10 C       -0.9860    -6.5480     2.1860 C.3   1 <1>   0.4870 
 11 N       -1.9270    -7.3700     1.3780 N.4   1 <1>  -0.9590 
 12 C       -3.1610    -6.6560     0.9110 C.3   1 <1>   0.3430 
 13 C       -2.3850    -8.6380     2.0090 C.3   1 <1>   0.3430 
 14 C       -4.2620    -7.7240     0.8040 C.3   1 <1>   0.2000 
 15 C       -3.6260    -9.0610     1.2140 C.3   1 <1>  -0.0800 
 16 O       -5.2820    -7.4190     1.6950 O.3   1 <1>  -0.6800 
 17 C       -3.2870    -9.9660     0.0010 C.3   1 <1>   0.0200 
 18 C       -2.0350    -9.5280    -0.7380 C.2   1 <1>  -0.0400 
 19 O       -1.9850    -8.3470    -1.2900 O.3   1 <1>  -0.0190 
 20 C       -0.8480   -10.1220    -0.9320 C.2   1 <1>  -0.1500 
 21 N       -0.8100    -8.0880    -1.7720 N.2   1 <1>  -0.4100 
 22 C       -0.1100    -9.1530    -1.6050 C.2   1 <1>   0.1080 
 23 C        1.3200    -9.3160    -2.0760 C.3   1 <1>  -0.0590 
 24 H        2.2680    -2.7000    -1.8410 H     1 <1>   0.0800 
 25 H        0.7890    -2.8760    -2.7900 H     1 <1>   0.0800 
 26 H        2.3540    -0.2800    -2.4370 H     1 <1>   0.0800 
 27 H        0.8860    -0.4550    -3.3780 H     1 <1>   0.0800 
 28 H        2.3570    -1.2470    -3.8940 H     1 <1>   0.0800 
 29 H        0.5090    -6.2810    -0.1220 H     1 <1>   0.1500 
 30 H       -1.6120    -3.9460     2.7470 H     1 <1>   0.1500 
 31 H       -1.4470    -6.2750     3.1210 H     1 <1>   0.0800 
 32 H       -0.0940    -7.1150     2.4010 H     1 <1>   0.0800 
 33 H       -1.4360    -7.6370     0.5020 H     1 <1>   0.4500 
 34 H       -3.4610    -5.8970     1.6140 H     1 <1>   0.0800 
 35 H       -2.9830    -6.2020    -0.0510 H     1 <1>   0.0800 
 36 H       -1.6180    -9.3970     1.9800 H     1 <1>   0.0800 
 37 H       -2.6640    -8.4540     3.0340 H     1 <1>   0.0800 
 38 H       -4.6910    -7.7440    -0.1840 H     1 <1>   0.0800 
 39 H       -4.2980    -9.6180     1.8450 H     1 <1>   0.0800 
 40 H       -5.0580    -7.5950     2.6290 H     1 <1>   0.4000 
 41 H       -4.1170    -9.9970    -0.6840 H     1 <1>   0.0800 
 42 H       -3.1310   -10.9720     0.3510 H     1 <1>   0.0800 
 43 H       -0.5010   -11.1000    -0.6450 H     1 <1>   0.1500 
 44 H        1.9520    -9.6040    -1.2560 H     1 <1>   0.0800 
 45 H        1.6830    -8.3910    -2.4880 H     1 <1>   0.0800 
 46 H        1.3660   -10.0710    -2.8390 H     1 <1>   0.0800 
@<TRIPOS>BOND
  1   1   2  1   
  2   1   3  1   
  3   2   4  ar  
  4   2   5  ar  
  5   3   6  1   
  6   3  24  1   
  7   3  25  1   
  8   4   7  ar  
  9   5   8  ar  
 10   6  26  1   
 11   6  27  1   
 12   6  28  1   
 13   7   9  ar  
 14   7  29  1   
 15   8   9  ar  
 16   8  30  1   
 17   9  10  1   
 18  10  11  1   
 19  10  31  1   
 20  10  32  1   
 21  11  12  1   
 22  11  13  1   
 23  11  33  1   
 24  12  14  1   
 25  12  34  1   
 26  12  35  1   
 27  13  15  1   
 28  13  36  1   
 29  13  37  1   
 30  14  15  1   
 31  14  16  1   
 32  14  38  1   
 33  15  17  1   
 34  15  39  1   
 35  16  40  1   
 36  17  18  1   
 37  17  41  1   
 38  17  42  1   
 39  18  19  1   
 40  18  20  2   
 41  19  21  1   
 42  20  22  1   
 43  20  43  1   
 44  21  22  2   
 45  22  23  1   
 46  23  44  1   
 47  23  45  1   
 48  23  46  1   
@<TRIPOS>SUBSTRUCTURE
  1 ****   7 GROUP 4 **** **** 0

# MOE 2024.06 (io_trps.svl 2023.06)
