@<TRIPOS>MOLECULE
NONAME
37 39 1 0 0 
SMALL
USER_CHARGES


@<TRIPOS>ATOM
  1 CL      -2.4460     0.1000     2.8080 Cl    1 <1>  -0.1240 
  2 C       -2.0690    -1.0350     1.5430 C.2   1 <1>   0.1640 
  3 S       -2.7360    -2.6400     1.7020 S.3   1 <1>  -0.0800 
  4 C       -1.3350    -0.9050     0.4250 C.2   1 <1>  -0.1500 
  5 C       -1.9960    -3.1510     0.1720 C.2   1 <1>  -0.0450 
  6 C       -1.2910    -2.1070    -0.3420 C.2   1 <1>  -0.1500 
  7 C       -2.1650    -4.5030    -0.3080 C.2   1 <1>   0.7150 
  8 O       -1.2550    -5.0080    -0.9420 O.2   1 <1>  -0.5700 
  9 N       -3.3030    -5.2580    -0.0930 N.am  1 <1>  -0.6600 
 10 C       -4.6770    -4.6650    -0.0230 C.3   1 <1>   0.2200 
 11 C       -3.1660    -6.7370     0.0700 C.3   1 <1>   0.0600 
 12 C       -5.8090    -5.6550    -0.3160 C.3   1 <1>  -0.1600 
 13 C       -4.9050    -3.5790    -1.0770 C.3   1 <1>  -0.1600 
 14 C       -7.0090    -4.7840    -0.7010 C.3   1 <1>  -0.0800 
 15 C       -6.4270    -3.4590    -1.2130 C.3   1 <1>  -0.0800 
 16 C       -7.9170    -4.4300     0.4860 C.3   1 <1>  -0.1600 
 17 C       -7.0320    -2.3500    -0.3380 C.3   1 <1>  -0.1600 
 18 C       -8.2830    -2.9720     0.2610 C.3   1 <1>   0.2000 
 19 O       -8.5890    -2.3670     1.4590 O.3   1 <1>  -0.6800 
 20 H       -0.8240    -0.0110     0.1160 H     1 <1>   0.1500 
 21 H       -0.7290    -2.1600    -1.2590 H     1 <1>   0.1500 
 22 H       -4.8400    -4.2540     0.9590 H     1 <1>   0.0800 
 23 H       -3.7530    -7.0750     0.9050 H     1 <1>   0.0800 
 24 H       -2.1380    -7.0010     0.2520 H     1 <1>   0.0800 
 25 H       -3.4890    -7.2350    -0.8270 H     1 <1>   0.0800 
 26 H       -5.5510    -6.2560    -1.1700 H     1 <1>   0.0800 
 27 H       -6.0230    -6.2910     0.5240 H     1 <1>   0.0800 
 28 H       -4.4580    -2.6380    -0.8130 H     1 <1>   0.0800 
 29 H       -4.5000    -3.9110    -2.0180 H     1 <1>   0.0800 
 30 H       -7.5930    -5.2580    -1.4730 H     1 <1>   0.0800 
 31 H       -6.7050    -3.3030    -2.2430 H     1 <1>   0.0800 
 32 H       -7.3770    -4.5300     1.4110 H     1 <1>   0.0800 
 33 H       -8.7930    -5.0520     0.5100 H     1 <1>   0.0800 
 34 H       -7.2730    -1.4780    -0.9210 H     1 <1>   0.0800 
 35 H       -6.3480    -2.0800     0.4470 H     1 <1>   0.0800 
 36 H       -9.1240    -2.8800    -0.4070 H     1 <1>   0.0800 
 37 H       -7.8280    -2.4230     2.0650 H     1 <1>   0.4000 
@<TRIPOS>BOND
  1   1   2  1   
  2   2   3  1   
  3   2   4  2   
  4   3   5  1   
  5   4   6  1   
  6   4  20  1   
  7   5   6  2   
  8   5   7  1   
  9   6  21  1   
 10   7   8  2   
 11   7   9  am  
 12   9  10  1   
 13   9  11  1   
 14  10  12  1   
 15  10  13  1   
 16  10  22  1   
 17  11  23  1   
 18  11  24  1   
 19  11  25  1   
 20  12  14  1   
 21  12  26  1   
 22  12  27  1   
 23  13  15  1   
 24  13  28  1   
 25  13  29  1   
 26  14  15  1   
 27  14  16  1   
 28  14  30  1   
 29  15  17  1   
 30  15  31  1   
 31  16  18  1   
 32  16  32  1   
 33  16  33  1   
 34  17  18  1   
 35  17  34  1   
 36  17  35  1   
 37  18  19  1   
 38  18  36  1   
 39  19  37  1   
@<TRIPOS>SUBSTRUCTURE
  1 ****  10 GROUP 4 **** **** 0

# MOE 2024.06 (io_trps.svl 2023.06)
