@<TRIPOS>MOLECULE
NONAME
46 47 1 0 0 
SMALL
USER_CHARGES


@<TRIPOS>ATOM
  1 O        0.8820    -0.3230    -0.6830 O.2   1 <1>  -0.5700 
  2 C        1.7900    -1.0750    -0.4190 C.2   1 <1>   0.5690 
  3 N        3.0720    -0.6150    -0.3110 N.am  1 <1>  -0.6600 
  4 C        1.5090    -2.5580    -0.1980 C.3   1 <1>  -0.0990 
  5 C        3.4390     0.8100    -0.5320 C.3   1 <1>   0.1400 
  6 C        4.2820    -1.3990     0.0300 C.3   1 <1>   0.1400 
  7 C        0.0320    -2.9610    -0.3650 C.3   1 <1>  -0.1600 
  8 C        4.7960     0.9810     0.1630 C.3   1 <1>   0.4240 
  9 C        5.4350    -0.3930    -0.0330 C.3   1 <1>  -0.1600 
 10 C       -0.1720    -4.4640    -0.1350 C.3   1 <1>  -0.1600 
 11 O        4.5540     1.1180     1.5180 O.3   1 <1>  -0.6800 
 12 C        5.6850     2.1440    -0.2990 C.ar  1 <1>  -0.1440 
 13 C       -1.6470    -4.8550    -0.3070 C.3   1 <1>  -0.1600 
 14 C        5.2690     3.0820    -1.2400 C.ar  1 <1>  -0.1500 
 15 C        6.9590     2.2760     0.2420 C.ar  1 <1>  -0.1500 
 16 C       -1.8560    -6.3520    -0.0810 C.3   1 <1>   0.1200 
 17 C        6.1100     4.1070    -1.6390 C.ar  1 <1>  -0.1500 
 18 C        7.8020     3.3000    -0.1550 C.ar  1 <1>  -0.1500 
 19 O       -3.2060    -6.6270    -0.2540 O.3   1 <1>  -0.5600 
 20 C        7.3780     4.2160    -1.1000 C.ar  1 <1>  -0.1500 
 21 C       -3.5380    -7.9650    -0.0750 C.3   1 <1>   0.0400 
 22 H        1.8280    -2.8130     0.7960 H     1 <1>   0.0800 
 23 H        2.1020    -3.1160    -0.8980 H     1 <1>   0.0800 
 24 H        2.6980     1.4840    -0.1370 H     1 <1>   0.0800 
 25 H        3.5390     0.9660    -1.5910 H     1 <1>   0.0800 
 26 H        4.4290    -2.2050    -0.6700 H     1 <1>   0.0800 
 27 H        4.1830    -1.7940     1.0270 H     1 <1>   0.0800 
 28 H       -0.2950    -2.7000    -1.3580 H     1 <1>   0.0800 
 29 H       -0.5690    -2.4030     0.3340 H     1 <1>   0.0800 
 30 H        5.8780    -0.4370    -1.0110 H     1 <1>   0.0800 
 31 H        6.1970    -0.6010     0.6960 H     1 <1>   0.0800 
 32 H        0.1500    -4.7210     0.8600 H     1 <1>   0.0800 
 33 H        0.4270    -5.0190    -0.8380 H     1 <1>   0.0800 
 34 H        3.7930     0.5480     1.7410 H     1 <1>   0.4000 
 35 H       -1.9720    -4.6050    -1.3020 H     1 <1>   0.0800 
 36 H       -2.2490    -4.3090     0.3980 H     1 <1>   0.0800 
 37 H        4.2880     3.0400    -1.6760 H     1 <1>   0.1500 
 38 H        7.2990     1.5790     0.9880 H     1 <1>   0.1500 
 39 H       -1.5730    -6.6270     0.9210 H     1 <1>   0.0800 
 40 H       -1.2920    -6.9260    -0.7960 H     1 <1>   0.0800 
 41 H        5.7750     4.8230    -2.3690 H     1 <1>   0.1500 
 42 H        8.7850     3.3840     0.2740 H     1 <1>   0.1500 
 43 H        8.0310     5.0120    -1.4100 H     1 <1>   0.1500 
 44 H       -4.5970    -8.0700    -0.2300 H     1 <1>   0.0800 
 45 H       -3.2870    -8.2630     0.9290 H     1 <1>   0.0800 
 46 H       -3.0050    -8.5630    -0.7940 H     1 <1>   0.0800 
@<TRIPOS>BOND
  1   1   2  2   
  2   2   3  am  
  3   2   4  1   
  4   3   5  1   
  5   3   6  1   
  6   4   7  1   
  7   4  22  1   
  8   4  23  1   
  9   5   8  1   
 10   5  24  1   
 11   5  25  1   
 12   6   9  1   
 13   6  26  1   
 14   6  27  1   
 15   7  10  1   
 16   7  28  1   
 17   7  29  1   
 18   8   9  1   
 19   8  11  1   
 20   8  12  1   
 21   9  30  1   
 22   9  31  1   
 23  10  13  1   
 24  10  32  1   
 25  10  33  1   
 26  11  34  1   
 27  12  14  ar  
 28  12  15  ar  
 29  13  16  1   
 30  13  35  1   
 31  13  36  1   
 32  14  17  ar  
 33  14  37  1   
 34  15  18  ar  
 35  15  38  1   
 36  16  19  1   
 37  16  39  1   
 38  16  40  1   
 39  17  20  ar  
 40  17  41  1   
 41  18  20  ar  
 42  18  42  1   
 43  19  21  1   
 44  20  43  1   
 45  21  44  1   
 46  21  45  1   
 47  21  46  1   
@<TRIPOS>SUBSTRUCTURE
  1 ****   3 GROUP 4 **** **** 0

# MOE 2024.06 (io_trps.svl 2023.06)
