@<TRIPOS>MOLECULE
NONAME
56 57 1 0 0 
SMALL
USER_CHARGES


@<TRIPOS>ATOM
  1 S       -0.7290    -0.0670     0.7420 S.o2  1 <1>   1.3330 
  2 O        0.4780    -0.7480     1.1340 O.2   1 <1>  -0.6500 
  3 O       -1.6230     0.5010     1.7220 O.2   1 <1>  -0.6500 
  4 N       -1.5990    -1.2110    -0.1080 N.am  1 <1>  -0.9140 
  5 C       -0.3620     1.1550    -0.4980 C.3   1 <1>  -0.1350 
  6 C       -2.3500    -2.1000     0.8020 C.3   1 <1>   0.2570 
  7 C       -3.1280    -3.2140     0.0850 C.2   1 <1>   0.5690 
  8 O       -2.6940    -4.3390     0.1830 O.2   1 <1>  -0.5700 
  9 N       -4.2790    -2.9570    -0.6280 N.am  1 <1>  -0.6600 
 10 C       -5.0210    -4.0700    -1.2840 C.3   1 <1>   0.1400 
 11 C       -4.9130    -1.6210    -0.7420 C.3   1 <1>   0.1400 
 12 C       -6.0950    -4.6130    -0.3320 C.3   1 <1>   0.1400 
 13 C       -6.2490    -1.5960     0.0060 C.3   1 <1>  -0.1600 
 14 N       -7.3940    -3.8520    -0.3190 N.am  1 <1>  -0.6600 
 15 C       -7.3550    -2.3960    -0.6950 C.3   1 <1>   0.1400 
 16 C       -8.6270    -4.4360    -0.0990 C.2   1 <1>   0.5690 
 17 O       -9.6240    -3.8730    -0.4980 O.2   1 <1>  -0.5700 
 18 C       -8.8450    -5.8200     0.6030 C.3   1 <1>   0.0610 
 19 C      -10.2900    -5.9280     1.1710 C.3   1 <1>  -0.1600 
 20 C       -8.6170    -6.9720    -0.4170 C.3   1 <1>  -0.1600 
 21 C       -7.9210    -6.0080     1.8330 C.3   1 <1>  -0.2400 
 22 C      -11.3910    -5.9910     0.1030 C.3   1 <1>   0.3430 
 23 C       -9.8710    -7.7860    -0.7630 C.3   1 <1>   0.3430 
 24 N      -11.0430    -6.9010    -1.0390 N.4   1 <1>  -0.9590 
 25 C      -10.8540    -6.0930    -2.2880 C.3   1 <1>   0.2630 
 26 H       -0.8850    -1.8060    -0.5320 H     1 <1>   0.4200 
 27 H        0.2120     1.9520    -0.0680 H     1 <1>   0.0800 
 28 H       -1.2720     1.5610    -0.8950 H     1 <1>   0.0800 
 29 H        0.2010     0.7160    -1.2980 H     1 <1>   0.0800 
 30 H       -3.0480    -1.5250     1.3840 H     1 <1>   0.0800 
 31 H       -1.6640    -2.5630     1.4910 H     1 <1>   0.0800 
 32 H       -4.3300    -4.8640    -1.5110 H     1 <1>   0.0800 
 33 H       -5.4550    -3.7480    -2.2140 H     1 <1>   0.0800 
 34 H       -5.0660    -1.3890    -1.7820 H     1 <1>   0.0800 
 35 H       -4.2710    -0.8590    -0.3390 H     1 <1>   0.0800 
 36 H       -5.6800    -4.6250     0.6610 H     1 <1>   0.0800 
 37 H       -6.2860    -5.6290    -0.6210 H     1 <1>   0.0800 
 38 H       -6.5690    -0.5700     0.0330 H     1 <1>   0.0800 
 39 H       -6.1300    -1.9160     1.0260 H     1 <1>   0.0800 
 40 H       -7.2630    -2.3040    -1.7630 H     1 <1>   0.0800 
 41 H       -8.2900    -1.9370    -0.4220 H     1 <1>   0.0800 
 42 H      -10.4880    -5.0830     1.8080 H     1 <1>   0.0800 
 43 H      -10.3870    -6.8040     1.7880 H     1 <1>   0.0800 
 44 H       -7.8840    -7.6630    -0.0390 H     1 <1>   0.0800 
 45 H       -8.2120    -6.5780    -1.3320 H     1 <1>   0.0800 
 46 H       -7.9520    -5.1300     2.4560 H     1 <1>   0.0800 
 47 H       -6.9010    -6.1890     1.5580 H     1 <1>   0.0800 
 48 H       -8.2270    -6.8500     2.4280 H     1 <1>   0.0800 
 49 H      -11.5710    -4.9960    -0.2740 H     1 <1>   0.0800 
 50 H      -12.3040    -6.3240     0.5680 H     1 <1>   0.0800 
 51 H      -10.1070    -8.4280     0.0710 H     1 <1>   0.0800 
 52 H       -9.6720    -8.4150    -1.6170 H     1 <1>   0.0800 
 53 H      -11.8600    -7.5080    -1.1960 H     1 <1>   0.4500 
 54 H      -10.0150    -5.4250    -2.1820 H     1 <1>   0.0800 
 55 H      -11.7320    -5.5010    -2.4870 H     1 <1>   0.0800 
 56 H      -10.6750    -6.7400    -3.1310 H     1 <1>   0.0800 
@<TRIPOS>BOND
  1   1   2  2   
  2   1   3  2   
  3   1   4  am  
  4   1   5  1   
  5   4   6  1   
  6   4  26  1   
  7   5  27  1   
  8   5  28  1   
  9   5  29  1   
 10   6   7  1   
 11   6  30  1   
 12   6  31  1   
 13   7   8  2   
 14   7   9  am  
 15   9  10  1   
 16   9  11  1   
 17  10  12  1   
 18  10  32  1   
 19  10  33  1   
 20  11  13  1   
 21  11  34  1   
 22  11  35  1   
 23  12  14  1   
 24  12  36  1   
 25  12  37  1   
 26  13  15  1   
 27  13  38  1   
 28  13  39  1   
 29  14  15  1   
 30  14  16  am  
 31  15  40  1   
 32  15  41  1   
 33  16  17  2   
 34  16  18  1   
 35  18  19  1   
 36  18  20  1   
 37  18  21  1   
 38  19  22  1   
 39  19  42  1   
 40  19  43  1   
 41  20  23  1   
 42  20  44  1   
 43  20  45  1   
 44  21  46  1   
 45  21  47  1   
 46  21  48  1   
 47  22  24  1   
 48  22  49  1   
 49  22  50  1   
 50  23  24  1   
 51  23  51  1   
 52  23  52  1   
 53  24  25  1   
 54  24  53  1   
 55  25  54  1   
 56  25  55  1   
 57  25  56  1   
@<TRIPOS>SUBSTRUCTURE
  1 ****  12 GROUP 4 **** **** 0

# MOE 2024.06 (io_trps.svl 2023.06)
