@<TRIPOS>MOLECULE
NONAME
57 61 1 0 0 
SMALL
USER_CHARGES


@<TRIPOS>ATOM
  1 O       -3.9010     2.6140    -2.9180 O.2   1 <1>  -0.5700 
  2 C       -3.1500     3.0490    -2.0690 C.2   1 <1>   0.6900 
  3 N       -3.0150     2.4580    -0.8190 N.am  1 <1>  -0.4690 
  4 N       -2.4240     4.1650    -2.3420 N.am  1 <1>  -0.4900 
  5 C       -2.1580     3.0080     0.1290 C.2   1 <1>  -0.0410 
  6 C       -3.7470     1.2000    -0.5080 C.3   1 <1>   0.1400 
  7 C       -1.5740     4.7360    -1.4470 C.2   1 <1>   0.6160 
  8 C       -1.4500     4.1210    -0.1690 C.2   1 <1>  -0.1360 
  9 C       -5.2130     1.5030    -0.1790 C.3   1 <1>  -0.0990 
 10 O       -0.9650     5.7340    -1.7690 O.2   1 <1>  -0.5700 
 11 C       -5.9810     0.2620     0.2430 C.2   1 <1>   0.5690 
 12 O       -5.3480    -0.7210     0.5520 O.2   1 <1>  -0.5700 
 13 N       -7.3520     0.2680     0.2840 N.am  1 <1>  -0.6600 
 14 C       -8.2270     1.4460    -0.0150 C.3   1 <1>   0.1400 
 15 C       -8.0820    -0.9940     0.6230 C.3   1 <1>   0.1400 
 16 C       -9.1560     1.7760     1.1760 C.3   1 <1>   0.1430 
 17 C       -9.5600    -0.7440     0.9690 C.3   1 <1>  -0.1600 
 18 C      -10.2570     2.6790     0.6450 C.ar  1 <1>   0.1670 
 19 C       -9.7110     0.4970     1.8600 C.3   1 <1>  -0.1600 
 20 C       -8.4490     2.6990     2.2040 C.3   1 <1>  -0.1600 
 21 N      -11.2670     2.2910    -0.0950 N.ar  1 <1>  -0.6200 
 22 C      -10.0650     3.9750     1.0120 C.ar  1 <1>  -0.1440 
 23 C       -8.8170     4.1480     1.8400 C.3   1 <1>  -0.0170 
 24 C      -12.1260     3.2500    -0.4650 C.ar  1 <1>   0.6200 
 25 C      -10.9860     4.8990     0.5930 C.ar  1 <1>   0.1600 
 26 N      -12.0170     4.5470    -0.1410 N.ar  1 <1>  -0.6200 
 27 C      -13.2640     2.8510    -1.2820 C.ar  1 <1>   0.0000 
 28 C      -13.2010     1.7500    -2.1410 C.ar  1 <1>  -0.1500 
 29 C      -14.4740     3.5510    -1.2450 C.ar  1 <1>  -0.1500 
 30 C      -14.2800     1.3680    -2.9180 C.ar  1 <1>  -0.1500 
 31 C      -15.5570     3.1760    -2.0190 C.ar  1 <1>  -0.1500 
 32 C      -15.4630     2.0810    -2.8580 C.ar  1 <1>  -0.1500 
 33 H       -2.5170     4.5860    -3.2590 H     1 <1>   0.3700 
 34 H       -2.0850     2.5150     1.0850 H     1 <1>   0.1500 
 35 H       -3.2760     0.7080     0.3260 H     1 <1>   0.0800 
 36 H       -3.6950     0.5350    -1.3550 H     1 <1>   0.0800 
 37 H       -0.7740     4.5880     0.5220 H     1 <1>   0.1500 
 38 H       -5.6740     1.9130    -1.0570 H     1 <1>   0.0800 
 39 H       -5.2610     2.2180     0.6200 H     1 <1>   0.0800 
 40 H       -8.8290     1.2000    -0.8740 H     1 <1>   0.0800 
 41 H       -7.6550     2.3180    -0.2710 H     1 <1>   0.0800 
 42 H       -7.5980    -1.4510     1.4700 H     1 <1>   0.0800 
 43 H       -8.0100    -1.6780    -0.2050 H     1 <1>   0.0800 
 44 H       -9.9550    -1.6080     1.4730 H     1 <1>   0.0800 
 45 H      -10.1280    -0.6140     0.0630 H     1 <1>   0.0800 
 46 H      -10.7450     0.6380     2.1240 H     1 <1>   0.0800 
 47 H       -9.1680     0.3050     2.7690 H     1 <1>   0.0800 
 48 H       -7.3850     2.5440     2.2280 H     1 <1>   0.0800 
 49 H       -8.8390     2.5050     3.1880 H     1 <1>   0.0800 
 50 H       -8.0450     4.6010     1.2430 H     1 <1>   0.0800 
 51 H       -9.0000     4.7430     2.7180 H     1 <1>   0.0800 
 52 H      -10.8780     5.9370     0.8590 H     1 <1>   0.1500 
 53 H      -12.2880     1.1830    -2.2020 H     1 <1>   0.1500 
 54 H      -14.5670     4.4060    -0.5980 H     1 <1>   0.1500 
 55 H      -14.1990     0.5150    -3.5690 H     1 <1>   0.1500 
 56 H      -16.4740     3.7360    -1.9670 H     1 <1>   0.1500 
 57 H      -16.3040     1.7870    -3.4610 H     1 <1>   0.1500 
@<TRIPOS>BOND
  1   1   2  2   
  2   2   3  am  
  3   2   4  am  
  4   3   5  1   
  5   3   6  1   
  6   4   7  am  
  7   4  33  1   
  8   5   8  2   
  9   5  34  1   
 10   6   9  1   
 11   6  35  1   
 12   6  36  1   
 13   7   8  1   
 14   7  10  2   
 15   8  37  1   
 16   9  11  1   
 17   9  38  1   
 18   9  39  1   
 19  11  12  2   
 20  11  13  am  
 21  13  14  1   
 22  13  15  1   
 23  14  16  1   
 24  14  40  1   
 25  14  41  1   
 26  15  17  1   
 27  15  42  1   
 28  15  43  1   
 29  16  18  1   
 30  16  19  1   
 31  16  20  1   
 32  17  19  1   
 33  17  44  1   
 34  17  45  1   
 35  18  21  ar  
 36  18  22  ar  
 37  19  46  1   
 38  19  47  1   
 39  20  23  1   
 40  20  48  1   
 41  20  49  1   
 42  21  24  ar  
 43  22  23  1   
 44  22  25  ar  
 45  23  50  1   
 46  23  51  1   
 47  24  26  ar  
 48  24  27  1   
 49  25  26  ar  
 50  25  52  1   
 51  27  28  ar  
 52  27  29  ar  
 53  28  30  ar  
 54  28  53  1   
 55  29  31  ar  
 56  29  54  1   
 57  30  32  ar  
 58  30  55  1   
 59  31  32  ar  
 60  31  56  1   
 61  32  57  1   
@<TRIPOS>SUBSTRUCTURE
  1 ****  14 GROUP 4 **** **** 0

# MOE 2024.06 (io_trps.svl 2023.06)
