@<TRIPOS>MOLECULE
NONAME
42 43 1 0 0 
SMALL
USER_CHARGES


@<TRIPOS>ATOM
  1 CL      -5.9890    -0.9330     0.8820 Cl    1 <1>  -0.1770 
  2 C       -4.5300    -1.7300     0.3330 C.ar  1 <1>   0.1770 
  3 C       -3.4760    -0.9940    -0.2000 C.ar  1 <1>   0.0830 
  4 C       -4.4560    -3.1050     0.4390 C.ar  1 <1>  -0.1500 
  5 O       -3.5250     0.3530    -0.3210 O.3   1 <1>  -0.3630 
  6 C       -2.3460    -1.6620    -0.6400 C.ar  1 <1>  -0.1500 
  7 C       -3.3200    -3.7810     0.0080 C.ar  1 <1>   0.1170 
  8 C       -3.2510     1.0900     0.8490 C.3   1 <1>   0.0400 
  9 C       -2.2700    -3.0410    -0.5320 C.ar  1 <1>  -0.1500 
 10 N       -3.2780    -5.1770     0.1470 N.am  1 <1>  -0.5470 
 11 C       -2.5410    -6.1360    -0.4940 C.2   1 <1>   0.5690 
 12 O       -1.7490    -5.8860    -1.3700 O.2   1 <1>  -0.5700 
 13 C       -2.7280    -7.6060    -0.0890 C.3   1 <1>   0.1710 
 14 N       -4.0440    -8.0170     0.5060 N.3   1 <1>  -0.8100 
 15 C       -5.2560    -7.6940    -0.3040 C.3   1 <1>   0.3330 
 16 C       -4.1630    -7.6840     1.9400 C.3   1 <1>   0.0300 
 17 C       -6.5430    -8.2090     0.3560 C.ar  1 <1>   0.1670 
 18 C       -5.1290    -8.2800    -1.7150 C.3   1 <1>  -0.2400 
 19 N       -7.4880    -7.3320     0.6390 N.ar  1 <1>  -0.6200 
 20 C       -6.7000    -9.5460     0.6500 C.ar  1 <1>  -0.1500 
 21 C       -8.5770    -7.8280     1.2060 C.ar  1 <1>   0.4700 
 22 C       -7.8750    -9.9400     1.2430 C.ar  1 <1>   0.1600 
 23 N       -8.8320    -9.0850     1.5290 N.ar  1 <1>  -0.6200 
 24 H       -5.2880    -3.6420     0.8530 H     1 <1>   0.1500 
 25 H       -1.5320    -1.1020    -1.0660 H     1 <1>   0.1500 
 26 H       -3.3010     2.1360     0.6060 H     1 <1>   0.0800 
 27 H       -2.2650     0.8390     1.1970 H     1 <1>   0.0800 
 28 H       -3.9860     0.8530     1.5980 H     1 <1>   0.0800 
 29 H       -1.3800    -3.5390    -0.8720 H     1 <1>   0.1500 
 30 H       -3.9720    -5.5750     0.7770 H     1 <1>   0.3700 
 31 H       -1.9420    -7.8530     0.6020 H     1 <1>   0.0800 
 32 H       -2.5490    -8.2030    -0.9650 H     1 <1>   0.0800 
 33 H       -5.3530    -6.6270    -0.3960 H     1 <1>   0.0800 
 34 H       -3.2370    -7.8890     2.4490 H     1 <1>   0.0800 
 35 H       -4.9250    -8.2900     2.3990 H     1 <1>   0.0800 
 36 H       -4.4230    -6.6510     2.0840 H     1 <1>   0.0800 
 37 H       -4.8930    -9.3270    -1.6710 H     1 <1>   0.0800 
 38 H       -4.3760    -7.7620    -2.2800 H     1 <1>   0.0800 
 39 H       -6.0630    -8.1600    -2.2350 H     1 <1>   0.0800 
 40 H       -5.9250   -10.2540     0.4280 H     1 <1>   0.1500 
 41 H       -9.3550    -7.1180     1.4350 H     1 <1>   0.1500 
 42 H       -8.0330   -10.9770     1.4870 H     1 <1>   0.1500 
@<TRIPOS>BOND
  1   1   2  1   
  2   2   3  ar  
  3   2   4  ar  
  4   3   5  1   
  5   3   6  ar  
  6   4   7  ar  
  7   4  24  1   
  8   5   8  1   
  9   6   9  ar  
 10   6  25  1   
 11   7   9  ar  
 12   7  10  1   
 13   8  26  1   
 14   8  27  1   
 15   8  28  1   
 16   9  29  1   
 17  10  11  am  
 18  10  30  1   
 19  11  12  2   
 20  11  13  1   
 21  13  14  1   
 22  13  31  1   
 23  13  32  1   
 24  14  15  1   
 25  14  16  1   
 26  15  17  1   
 27  15  18  1   
 28  15  33  1   
 29  16  34  1   
 30  16  35  1   
 31  16  36  1   
 32  17  19  ar  
 33  17  20  ar  
 34  18  37  1   
 35  18  38  1   
 36  18  39  1   
 37  19  21  ar  
 38  20  22  ar  
 39  20  40  1   
 40  21  23  ar  
 41  21  41  1   
 42  22  23  ar  
 43  22  42  1   
@<TRIPOS>SUBSTRUCTURE
  1 ****  10 GROUP 4 **** **** 0

# MOE 2024.06 (io_trps.svl 2023.06)
