@<TRIPOS>MOLECULE
NONAME
50 52 1 0 0 
SMALL
USER_CHARGES


@<TRIPOS>ATOM
  1 S       -6.8410     0.3270     1.3520 S.o2  1 <1>   1.4470 
  2 O       -5.4690     0.1740     1.7860 O.2   1 <1>  -0.6500 
  3 O       -7.8620     0.0500     2.3430 O.2   1 <1>  -0.6500 
  4 N       -7.1110    -0.7710     0.0770 N.am  1 <1>  -0.8490 
  5 C       -7.0970     2.0260     0.7190 C.ar  1 <1>  -0.0090 
  6 C       -8.4980    -1.0240    -0.3830 C.3   1 <1>   0.2760 
  7 C       -6.3100    -2.0110     0.1660 C.3   1 <1>   0.1960 
  8 C       -6.5830     2.5660    -0.5060 C.ar  1 <1>   0.0000 
  9 C       -7.9260     2.8160     1.4860 C.ar  1 <1>  -0.1500 
 10 C       -9.3040    -2.0140     0.4900 C.3   1 <1>   0.1400 
 11 C       -9.2860     0.2650    -0.6280 C.3   1 <1>  -0.2400 
 12 C       -6.6400    -2.8950     1.3830 C.3   1 <1>  -0.1600 
 13 C       -7.1720     3.7620    -0.9840 C.ar  1 <1>   0.0000 
 14 C       -5.5380     2.0900    -1.3550 C.ar  1 <1>  -0.1430 
 15 C       -8.3870     4.0610     1.0670 C.ar  1 <1>  -0.1500 
 16 N       -8.8330    -3.4120     0.2540 N.am  1 <1>  -0.6600 
 17 C       -7.7780    -3.9030     1.1820 C.3   1 <1>   0.1400 
 18 C       -6.8830     4.2110    -2.2900 C.ar  1 <1>   0.1600 
 19 C       -8.0340     4.5120    -0.1650 C.ar  1 <1>  -0.1500 
 20 C       -5.3430     2.6420    -2.5940 C.ar  1 <1>   0.1600 
 21 C       -4.5280     1.0260    -0.9520 C.3   1 <1>  -0.0970 
 22 C       -9.2600    -4.0930    -0.8620 C.2   1 <1>   0.5690 
 23 N       -6.0260     3.6770    -3.0960 N.ar  1 <1>  -0.6200 
 24 O      -10.0680    -3.6090    -1.6220 O.2   1 <1>  -0.5700 
 25 C       -8.7190    -5.4900    -1.2200 C.3   1 <1>   0.1710 
 26 N       -7.3170    -5.5010    -1.7050 N.3   1 <1>  -0.9900 
 27 H       -8.4170    -1.4830    -1.3540 H     1 <1>   0.0800 
 28 H       -6.4240    -2.5850    -0.7390 H     1 <1>   0.0800 
 29 H       -5.2700    -1.7430     0.2310 H     1 <1>   0.0800 
 30 H       -8.2760     2.4690     2.4450 H     1 <1>   0.1500 
 31 H      -10.3410    -1.9570     0.2110 H     1 <1>   0.0800 
 32 H       -9.2430    -1.7620     1.5320 H     1 <1>   0.0800 
 33 H       -9.5450     0.7510     0.2940 H     1 <1>   0.0800 
 34 H      -10.2030     0.0240    -1.1350 H     1 <1>   0.0800 
 35 H       -8.7310     0.9290    -1.2650 H     1 <1>   0.0800 
 36 H       -5.7610    -3.4670     1.6160 H     1 <1>   0.0800 
 37 H       -6.8370    -2.3030     2.2560 H     1 <1>   0.0800 
 38 H       -9.0310     4.6350     1.7120 H     1 <1>   0.1500 
 39 H       -8.2270    -4.1280     2.1340 H     1 <1>   0.0800 
 40 H       -7.3500    -4.8140     0.8060 H     1 <1>   0.0800 
 41 H       -7.4210     5.0730    -2.6430 H     1 <1>   0.1500 
 42 H       -8.4090     5.4540    -0.5250 H     1 <1>   0.1500 
 43 H       -4.5750     2.2560    -3.2420 H     1 <1>   0.1500 
 44 H       -4.1610     1.2140     0.0390 H     1 <1>   0.0800 
 45 H       -3.6720     1.0440    -1.6010 H     1 <1>   0.0800 
 46 H       -4.9540     0.0490    -1.0250 H     1 <1>   0.0800 
 47 H       -9.3550    -5.9010    -1.9850 H     1 <1>   0.0800 
 48 H       -8.8040    -6.1230    -0.3550 H     1 <1>   0.0800 
 49 H       -7.2580    -4.8700    -2.5150 H     1 <1>   0.3600 
 50 H       -7.0870    -6.4420    -2.0470 H     1 <1>   0.3600 
@<TRIPOS>BOND
  1   1   2  2   
  2   1   3  2   
  3   1   4  am  
  4   1   5  1   
  5   4   6  1   
  6   4   7  1   
  7   5   8  ar  
  8   5   9  ar  
  9   6  10  1   
 10   6  11  1   
 11   6  27  1   
 12   7  12  1   
 13   7  28  1   
 14   7  29  1   
 15   8  13  ar  
 16   8  14  ar  
 17   9  15  ar  
 18   9  30  1   
 19  10  16  1   
 20  10  31  1   
 21  10  32  1   
 22  11  33  1   
 23  11  34  1   
 24  11  35  1   
 25  12  17  1   
 26  12  36  1   
 27  12  37  1   
 28  13  18  ar  
 29  13  19  ar  
 30  14  20  ar  
 31  14  21  1   
 32  15  19  ar  
 33  15  38  1   
 34  16  17  1   
 35  16  22  am  
 36  17  39  1   
 37  17  40  1   
 38  18  23  ar  
 39  18  41  1   
 40  19  42  1   
 41  20  23  ar  
 42  20  43  1   
 43  21  44  1   
 44  21  45  1   
 45  21  46  1   
 46  22  24  2   
 47  22  25  1   
 48  25  26  1   
 49  25  47  1   
 50  25  48  1   
 51  26  49  1   
 52  26  50  1   
@<TRIPOS>SUBSTRUCTURE
  1 ****   4 GROUP 4 **** **** 0

# MOE 2024.06 (io_trps.svl 2023.06)
