@<TRIPOS>MOLECULE
NONAME
46 47 1 0 0 
SMALL
USER_CHARGES


@<TRIPOS>ATOM
  1 S        0.1070     0.0720     0.7510 S.o2  1 <1>   1.3330 
  2 O       -0.7030    -1.1100     0.9100 O.2   1 <1>  -0.6500 
  3 O        0.7780     0.6720     1.8830 O.2   1 <1>  -0.6500 
  4 N        1.2890    -0.2330    -0.4280 N.am  1 <1>  -0.8490 
  5 C       -0.8680     1.3840     0.0080 C.3   1 <1>  -0.0550 
  6 C        0.7850    -1.0550    -1.5390 C.3   1 <1>   0.1160 
  7 C        2.4630    -0.9020     0.1500 C.3   1 <1>   0.1160 
  8 C       -0.0220     2.6090    -0.4230 C.3   1 <1>  -0.0800 
  9 C       -0.8100     3.7750    -1.0130 C.3   1 <1>   0.2000 
 10 C        0.8110     3.2370     0.7040 C.3   1 <1>   0.3430 
 11 O       -1.9700     3.9910    -0.2770 O.3   1 <1>  -0.6800 
 12 C        0.1420     4.9600    -0.8430 C.3   1 <1>   0.3430 
 13 N        0.8680     4.7120     0.4490 N.4   1 <1>  -0.9590 
 14 C        2.2680     5.2240     0.4600 C.3   1 <1>   0.3430 
 15 C        2.2690     6.7500     0.4260 C.3   1 <1>  -0.1600 
 16 C        3.7030     7.3060     0.4050 C.3   1 <1>   0.0960 
 17 N        3.6800     8.7590     0.1580 N.pl3 1 <1>   0.3140 
 18 N        3.1820     9.2610    -0.9860 N.2   1 <1>  -0.7070 
 19 C        4.1120     9.7370     0.9770 C.2   1 <1>  -0.3020 
 20 C        3.3130    10.5480    -0.8680 C.2   1 <1>   0.1390 
 21 C        3.8900    10.9080     0.3440 C.2   1 <1>  -0.1500 
 22 H       -1.3830     0.9980    -0.8510 H     1 <1>   0.0800 
 23 H       -1.6170     1.6850     0.7140 H     1 <1>   0.0800 
 24 H        1.5510    -1.1770    -2.2870 H     1 <1>   0.0800 
 25 H       -0.0650    -0.5850    -2.0010 H     1 <1>   0.0800 
 26 H        0.4890    -2.0300    -1.1850 H     1 <1>   0.0800 
 27 H        3.2050    -1.0800    -0.6100 H     1 <1>   0.0800 
 28 H        2.1790    -1.8430     0.5920 H     1 <1>   0.0800 
 29 H        2.9060    -0.2850     0.9140 H     1 <1>   0.0800 
 30 H        0.6750     2.2800    -1.1750 H     1 <1>   0.0800 
 31 H       -1.0910     3.6200    -2.0420 H     1 <1>   0.0800 
 32 H        1.7970     2.7970     0.7230 H     1 <1>   0.0800 
 33 H        0.3420     3.0500     1.6580 H     1 <1>   0.0800 
 34 H       -1.8120     4.0840     0.6820 H     1 <1>   0.4000 
 35 H       -0.3930     5.8960    -0.8400 H     1 <1>   0.0800 
 36 H        0.8460     4.9590    -1.6590 H     1 <1>   0.0800 
 37 H        0.3490     5.1870     1.2010 H     1 <1>   0.4500 
 38 H        2.7700     4.8890     1.3540 H     1 <1>   0.0800 
 39 H        2.8050     4.8390    -0.3930 H     1 <1>   0.0800 
 40 H        1.7580     7.1390     1.2890 H     1 <1>   0.0800 
 41 H        1.7640     7.0870    -0.4630 H     1 <1>   0.0800 
 42 H        4.2710     6.8560    -0.3890 H     1 <1>   0.0800 
 43 H        4.2020     7.1210     1.3390 H     1 <1>   0.0800 
 44 H        4.5460     9.5580     1.9440 H     1 <1>   0.1500 
 45 H        3.0080    11.2490    -1.6280 H     1 <1>   0.1500 
 46 H        4.1000    11.9100     0.6740 H     1 <1>   0.1500 
@<TRIPOS>BOND
  1   1   2  2   
  2   1   3  2   
  3   1   4  am  
  4   1   5  1   
  5   4   6  1   
  6   4   7  1   
  7   5   8  1   
  8   5  22  1   
  9   5  23  1   
 10   6  24  1   
 11   6  25  1   
 12   6  26  1   
 13   7  27  1   
 14   7  28  1   
 15   7  29  1   
 16   8   9  1   
 17   8  10  1   
 18   8  30  1   
 19   9  11  1   
 20   9  12  1   
 21   9  31  1   
 22  10  13  1   
 23  10  32  1   
 24  10  33  1   
 25  11  34  1   
 26  12  13  1   
 27  12  35  1   
 28  12  36  1   
 29  13  14  1   
 30  13  37  1   
 31  14  15  1   
 32  14  38  1   
 33  14  39  1   
 34  15  16  1   
 35  15  40  1   
 36  15  41  1   
 37  16  17  1   
 38  16  42  1   
 39  16  43  1   
 40  17  18  1   
 41  17  19  1   
 42  18  20  2   
 43  19  21  2   
 44  19  44  1   
 45  20  21  1   
 46  20  45  1   
 47  21  46  1   
@<TRIPOS>SUBSTRUCTURE
  1 ****  13 GROUP 4 **** **** 0

# MOE 2024.06 (io_trps.svl 2023.06)
