@<TRIPOS>MOLECULE
NONAME
49 51 1 0 0 
SMALL
USER_CHARGES


@<TRIPOS>ATOM
  1 O       -0.1130     0.9870    -0.6220 O.2   1 <1>  -0.5700 
  2 C       -0.3370     2.1690    -0.5000 C.2   1 <1>   0.5690 
  3 N       -1.3560     2.6770     0.2670 N.am  1 <1>  -0.6600 
  4 C        0.5660     3.1380    -1.2570 C.3   1 <1>   0.1810 
  5 C       -1.5840     4.1610     0.3470 C.3   1 <1>   0.3640 
  6 C       -2.2490     1.8630     1.1380 C.3   1 <1>   0.2200 
  7 O        0.7220     4.3480    -0.5650 O.3   1 <1>  -0.5600 
  8 C       -2.9520     4.4890    -0.2580 C.ar  1 <1>  -0.1440 
  9 C       -0.4940     5.0420    -0.3300 C.3   1 <1>   0.2610 
 10 C       -1.4370     1.1930     2.2450 C.3   1 <1>  -0.2400 
 11 C       -3.0520     0.8480     0.3230 C.3   1 <1>  -0.2400 
 12 C       -3.3390     3.9710    -1.4870 C.ar  1 <1>  -0.1500 
 13 C       -3.8260     5.3260     0.4220 C.ar  1 <1>  -0.1500 
 14 C       -0.2270     6.2960     0.5150 C.2   1 <1>   0.5690 
 15 C       -4.5770     4.2790    -2.0240 C.ar  1 <1>  -0.1500 
 16 C       -5.0640     5.6360    -0.1140 C.ar  1 <1>  -0.1500 
 17 O       -1.1510     6.9330     0.9640 O.2   1 <1>  -0.5700 
 18 N        1.0540     6.6730     0.7510 N.am  1 <1>  -0.7300 
 19 C       -5.4410     5.1120    -1.3370 C.ar  1 <1>  -0.1500 
 20 C        1.4820     7.8860     1.4700 C.3   1 <1>   0.3200 
 21 C        2.6110     8.5450     0.7060 C.2   1 <1>  -0.0400 
 22 O        3.7620     7.9370     0.5940 O.3   1 <1>  -0.0190 
 23 C        2.6990     9.7180     0.0600 C.2   1 <1>  -0.1500 
 24 N        4.6150     8.6400    -0.0920 N.2   1 <1>  -0.4100 
 25 C        4.0030     9.7180    -0.4270 C.2   1 <1>   0.1080 
 26 C        4.6240    10.8300    -1.2430 C.3   1 <1>  -0.0590 
 27 H        0.1560     3.3400    -2.2290 H     1 <1>   0.0800 
 28 H        1.5400     2.6990    -1.3720 H     1 <1>   0.0800 
 29 H       -1.6050     4.4190     1.3920 H     1 <1>   0.0800 
 30 H       -2.9600     2.5210     1.6110 H     1 <1>   0.0800 
 31 H       -0.8550     5.3730    -1.2870 H     1 <1>   0.0800 
 32 H       -0.7580     0.4670     1.8350 H     1 <1>   0.0800 
 33 H       -2.0970     0.6870     2.9250 H     1 <1>   0.0800 
 34 H       -0.8800     1.9300     2.7950 H     1 <1>   0.0800 
 35 H       -2.4120     0.1030    -0.1130 H     1 <1>   0.0800 
 36 H       -3.6000     1.3460    -0.4550 H     1 <1>   0.0800 
 37 H       -3.7560     0.3490     0.9620 H     1 <1>   0.0800 
 38 H       -2.6830     3.3150    -2.0320 H     1 <1>   0.1500 
 39 H       -3.5470     5.7510     1.3720 H     1 <1>   0.1500 
 40 H       -4.8690     3.8700    -2.9750 H     1 <1>   0.1500 
 41 H       -5.7330     6.2870     0.4220 H     1 <1>   0.1500 
 42 H        1.8070     6.1010     0.3510 H     1 <1>   0.3700 
 43 H       -6.4040     5.3530    -1.7530 H     1 <1>   0.1500 
 44 H        0.6560     8.5700     1.5620 H     1 <1>   0.0800 
 45 H        1.8190     7.6180     2.4560 H     1 <1>   0.0800 
 46 H        1.9640    10.4900    -0.0720 H     1 <1>   0.1500 
 47 H        4.0640    10.9760    -2.1480 H     1 <1>   0.0800 
 48 H        5.6370    10.5770    -1.4970 H     1 <1>   0.0800 
 49 H        4.6250    11.7420    -0.6740 H     1 <1>   0.0800 
@<TRIPOS>BOND
  1   1   2  2   
  2   2   3  am  
  3   2   4  1   
  4   3   5  1   
  5   3   6  1   
  6   4   7  1   
  7   4  27  1   
  8   4  28  1   
  9   5   8  1   
 10   5   9  1   
 11   5  29  1   
 12   6  10  1   
 13   6  11  1   
 14   6  30  1   
 15   7   9  1   
 16   8  12  ar  
 17   8  13  ar  
 18   9  14  1   
 19   9  31  1   
 20  10  32  1   
 21  10  33  1   
 22  10  34  1   
 23  11  35  1   
 24  11  36  1   
 25  11  37  1   
 26  12  15  ar  
 27  12  38  1   
 28  13  16  ar  
 29  13  39  1   
 30  14  17  2   
 31  14  18  am  
 32  15  19  ar  
 33  15  40  1   
 34  16  19  ar  
 35  16  41  1   
 36  18  20  1   
 37  18  42  1   
 38  19  43  1   
 39  20  21  1   
 40  20  44  1   
 41  20  45  1   
 42  21  22  1   
 43  21  23  2   
 44  22  24  1   
 45  23  25  1   
 46  23  46  1   
 47  24  25  2   
 48  25  26  1   
 49  26  47  1   
 50  26  48  1   
 51  26  49  1   
@<TRIPOS>SUBSTRUCTURE
  1 ****   9 GROUP 4 **** **** 0

# MOE 2024.06 (io_trps.svl 2023.06)
