@<TRIPOS>MOLECULE
NONAME
53 55 1 0 0 
SMALL
USER_CHARGES


@<TRIPOS>ATOM
  1 O        0.0520    -0.1910     1.5070 O.co2 1 <1>  -0.9000 
  2 C        0.8810    -0.3120     0.5990 C.2   1 <1>   0.9060 
  3 O        0.8670    -1.2820    -0.1710 O.co2 1 <1>  -0.9000 
  4 C        2.0110     0.7060     0.4300 C.3   1 <1>  -0.1060 
  5 C        3.3060    -0.1230     0.6930 C.3   1 <1>   0.2000 
  6 C        1.9470     1.8450     1.4880 C.3   1 <1>  -0.1600 
  7 C        1.9090     1.3040    -1.0130 C.3   1 <1>  -0.0160 
  8 O        3.9680    -0.4120    -0.4990 O.3   1 <1>  -0.6800 
  9 C        4.2850     0.5290     1.6990 C.3   1 <1>   0.1100 
 10 C        3.1990     2.7380     1.4720 C.3   1 <1>   0.1100 
 11 C        0.8230     2.3580    -1.2290 C.ar  1 <1>  -0.1430 
 12 N        4.4870     1.9860     1.4980 N.3   1 <1>  -0.8100 
 13 C       -0.5180     2.0120    -1.1600 C.ar  1 <1>  -0.1500 
 14 C        1.1650     3.6750    -1.5050 C.ar  1 <1>  -0.1500 
 15 C        5.3340     2.2200     0.2960 C.3   1 <1>   0.2540 
 16 C       -1.5010     2.9660    -1.3540 C.ar  1 <1>  -0.1500 
 17 C        0.1830     4.6310    -1.7020 C.ar  1 <1>  -0.1500 
 18 C        5.8980     3.6440     0.2120 C.cat 1 <1>   0.6560 
 19 C       -1.1520     4.2770    -1.6250 C.ar  1 <1>  -0.1500 
 20 N        6.0060     4.4290     1.2670 N.pl3 1 <1>  -0.7000 
 21 N        6.3420     4.2840    -0.8720 N.pl3 1 <1>  -0.7640 
 22 C        6.5340     5.6210     0.8740 C.2   1 <1>   0.1820 
 23 C        6.7470     5.5360    -0.4610 C.2   1 <1>   0.1820 
 24 C        6.3980     3.7680    -2.2690 C.3   1 <1>   0.2740 
 25 C        6.7760     6.7330     1.8750 C.3   1 <1>  -0.0720 
 26 C        7.3150     6.5610    -1.4270 C.3   1 <1>  -0.0720 
 27 H        3.0420    -1.0790     1.1160 H     1 <1>   0.0800 
 28 H        1.8380     1.4170     2.4700 H     1 <1>   0.0800 
 29 H        1.0670     2.4470     1.3420 H     1 <1>   0.0800 
 30 H        2.8420     1.7450    -1.2890 H     1 <1>   0.0800 
 31 H        1.7360     0.5090    -1.7180 H     1 <1>   0.0800 
 32 H        3.3460    -0.9680    -1.0220 H     1 <1>   0.4000 
 33 H        5.2260     0.0070     1.6750 H     1 <1>   0.0800 
 34 H        3.8820     0.3850     2.6870 H     1 <1>   0.0800 
 35 H        3.1600     3.3810     2.3350 H     1 <1>   0.0800 
 36 H        3.1540     3.3700     0.6020 H     1 <1>   0.0800 
 37 H       -0.8050     0.9940    -0.9470 H     1 <1>   0.1500 
 38 H        2.1970     3.9630    -1.5690 H     1 <1>   0.1500 
 39 H        6.1700     1.5440     0.3210 H     1 <1>   0.0800 
 40 H        4.7780     2.0100    -0.5930 H     1 <1>   0.0800 
 41 H       -2.5360     2.6790    -1.2890 H     1 <1>   0.1500 
 42 H        0.4550     5.6490    -1.9140 H     1 <1>   0.1500 
 43 H       -1.9190     5.0160    -1.7750 H     1 <1>   0.1500 
 44 H        5.6980     4.1120     2.1930 H     1 <1>   0.4500 
 45 H        7.4010     3.8530    -2.6500 H     1 <1>   0.0800 
 46 H        5.7350     4.3400    -2.8950 H     1 <1>   0.0800 
 47 H        6.1040     2.7330    -2.3100 H     1 <1>   0.0800 
 48 H        7.1990     7.5960     1.3960 H     1 <1>   0.0800 
 49 H        7.4560     6.3960     2.6370 H     1 <1>   0.0800 
 50 H        5.8480     7.0170     2.3370 H     1 <1>   0.0800 
 51 H        7.5610     7.4730    -0.9150 H     1 <1>   0.0800 
 52 H        6.5940     6.7850    -2.1920 H     1 <1>   0.0800 
 53 H        8.2080     6.1780    -1.8850 H     1 <1>   0.0800 
@<TRIPOS>BOND
  1   1   2  ar  
  2   2   3  ar  
  3   2   4  1   
  4   4   5  1   
  5   4   6  1   
  6   4   7  1   
  7   5   8  1   
  8   5   9  1   
  9   5  27  1   
 10   6  10  1   
 11   6  28  1   
 12   6  29  1   
 13   7  11  1   
 14   7  30  1   
 15   7  31  1   
 16   8  32  1   
 17   9  12  1   
 18   9  33  1   
 19   9  34  1   
 20  10  12  1   
 21  10  35  1   
 22  10  36  1   
 23  11  13  ar  
 24  11  14  ar  
 25  12  15  1   
 26  13  16  ar  
 27  13  37  1   
 28  14  17  ar  
 29  14  38  1   
 30  15  18  1   
 31  15  39  1   
 32  15  40  1   
 33  16  19  ar  
 34  16  41  1   
 35  17  19  ar  
 36  17  42  1   
 37  18  20  ar  
 38  18  21  ar  
 39  19  43  1   
 40  20  22  1   
 41  20  44  1   
 42  21  23  1   
 43  21  24  1   
 44  22  23  2   
 45  22  25  1   
 46  23  26  1   
 47  24  45  1   
 48  24  46  1   
 49  24  47  1   
 50  25  48  1   
 51  25  49  1   
 52  25  50  1   
 53  26  51  1   
 54  26  52  1   
 55  26  53  1   
@<TRIPOS>SUBSTRUCTURE
  1 ****  10 GROUP 4 **** **** 0

# MOE 2024.06 (io_trps.svl 2023.06)
