@<TRIPOS>MOLECULE
NONAME
42 44 1 0 0 
SMALL
USER_CHARGES


@<TRIPOS>ATOM
  1 S        0.2450    -1.1290     2.1910 S.3   1 <1>  -0.0800 
  2 C        0.0660    -2.7360     1.5100 C.2   1 <1>  -0.1100 
  3 C       -0.9620    -0.4860     1.0920 C.2   1 <1>  -0.1100 
  4 C       -0.8540    -2.7420     0.5260 C.2   1 <1>  -0.1810 
  5 C       -1.4370    -1.4540     0.2880 C.2   1 <1>  -0.1500 
  6 C       -1.2710    -3.9550    -0.2850 C.3   1 <1>   0.0210 
  7 C       -2.7040    -4.3710     0.0600 C.3   1 <1>  -0.0990 
  8 C       -3.0940    -5.6200    -0.6940 C.2   1 <1>   0.5690 
  9 O       -3.4430    -5.5270    -1.8440 O.2   1 <1>  -0.5700 
 10 N       -3.0320    -6.8130    -0.0570 N.am  1 <1>  -0.7300 
 11 C       -3.3570    -8.1180    -0.6740 C.3   1 <1>   0.2200 
 12 C       -4.6740    -8.6220    -0.1090 C.3   1 <1>  -0.0800 
 13 C       -2.3810    -9.1740    -0.1710 C.3   1 <1>   0.1200 
 14 C       -4.2330    -9.3120     1.1890 C.3   1 <1>   0.1200 
 15 C       -5.3690    -9.5940    -1.0820 C.3   1 <1>  -0.0170 
 16 O       -2.8620    -9.5690     1.0770 O.3   1 <1>  -0.5600 
 17 C       -6.6990   -10.0810    -0.5270 C.ar  1 <1>  -0.1430 
 18 C       -7.8150    -9.2700    -0.5020 C.ar  1 <1>  -0.1500 
 19 C       -6.8620   -11.3560    -0.0220 C.ar  1 <1>  -0.1500 
 20 C       -9.0040    -9.7550     0.0160 C.ar  1 <1>   0.1600 
 21 C       -8.0960   -11.7440     0.4730 C.ar  1 <1>   0.1600 
 22 N       -9.1710   -10.9730     0.5070 N.ar  1 <1>  -0.6200 
 23 H        0.6780    -3.5150     1.9270 H     1 <1>   0.1500 
 24 H       -1.1880     0.5630     1.1650 H     1 <1>   0.1500 
 25 H       -2.1820    -1.3140    -0.4760 H     1 <1>   0.1500 
 26 H       -1.1980    -3.7290    -1.3350 H     1 <1>   0.0800 
 27 H       -0.6010    -4.7710    -0.0760 H     1 <1>   0.0800 
 28 H       -3.3850    -3.5840    -0.2070 H     1 <1>   0.0800 
 29 H       -2.7880    -4.5420     1.1170 H     1 <1>   0.0800 
 30 H       -2.7440    -6.8740     0.9220 H     1 <1>   0.3700 
 31 H       -3.3550    -8.0370    -1.7490 H     1 <1>   0.0800 
 32 H       -5.3440    -7.8060     0.0980 H     1 <1>   0.0800 
 33 H       -1.3770    -8.8000    -0.0720 H     1 <1>   0.0800 
 34 H       -2.3870   -10.0370    -0.8130 H     1 <1>   0.0800 
 35 H       -4.7470   -10.2400     1.3680 H     1 <1>   0.0800 
 36 H       -4.3730    -8.6600     2.0340 H     1 <1>   0.0800 
 37 H       -4.7330   -10.4370    -1.2870 H     1 <1>   0.0800 
 38 H       -5.5520    -9.0910    -2.0160 H     1 <1>   0.0800 
 39 H       -7.7720    -8.2650    -0.8810 H     1 <1>   0.1500 
 40 H       -6.0440   -12.0520    -0.0080 H     1 <1>   0.1500 
 41 H       -9.8640    -9.1070     0.0270 H     1 <1>   0.1500 
 42 H       -8.2040   -12.7410     0.8640 H     1 <1>   0.1500 
@<TRIPOS>BOND
  1   1   2  1   
  2   1   3  1   
  3   2   4  2   
  4   2  23  1   
  5   3   5  2   
  6   3  24  1   
  7   4   5  1   
  8   4   6  1   
  9   5  25  1   
 10   6   7  1   
 11   6  26  1   
 12   6  27  1   
 13   7   8  1   
 14   7  28  1   
 15   7  29  1   
 16   8   9  2   
 17   8  10  am  
 18  10  11  1   
 19  10  30  1   
 20  11  12  1   
 21  11  13  1   
 22  11  31  1   
 23  12  14  1   
 24  12  15  1   
 25  12  32  1   
 26  13  16  1   
 27  13  33  1   
 28  13  34  1   
 29  14  16  1   
 30  14  35  1   
 31  14  36  1   
 32  15  17  1   
 33  15  37  1   
 34  15  38  1   
 35  17  18  ar  
 36  17  19  ar  
 37  18  20  ar  
 38  18  39  1   
 39  19  21  ar  
 40  19  40  1   
 41  20  22  ar  
 42  20  41  1   
 43  21  22  ar  
 44  21  42  1   
@<TRIPOS>SUBSTRUCTURE
  1 ****  10 GROUP 4 **** **** 0

# MOE 2024.06 (io_trps.svl 2023.06)
