@<TRIPOS>MOLECULE
NONAME
38 39 1 0 0 
SMALL
USER_CHARGES


@<TRIPOS>ATOM
  1 O       -2.5570     1.2630     2.6390 O.2   1 <1>  -0.5700 
  2 C       -2.8910     1.6550     1.5420 C.2   1 <1>   0.5690 
  3 N       -3.7710     0.9230     0.7840 N.am  1 <1>  -0.6600 
  4 C       -2.3270     2.9930     1.0870 C.3   1 <1>   0.0440 
  5 C       -4.4720    -0.2520     1.3800 C.3   1 <1>   0.3200 
  6 C       -3.9280     1.0360    -0.6990 C.3   1 <1>   0.1400 
  7 C       -1.3630     2.9110    -0.0890 C.ar  1 <1>   0.1660 
  8 C       -3.5960    -1.4880     1.2910 C.2   1 <1>   0.0060 
  9 C       -4.9180     2.1480    -1.0730 C.3   1 <1>   0.1200 
 10 N       -1.7660     3.5700    -1.1690 N.ar  1 <1>  -0.6200 
 11 C       -0.1620     2.2030    -0.0150 C.ar  1 <1>  -0.1440 
 12 N       -3.8640    -2.5500     0.5990 N.2   1 <1>  -0.5650 
 13 N       -2.4270    -1.5590     1.9610 N.pl3 1 <1>   0.0330 
 14 O       -4.3670     2.9470    -2.0630 O.3   1 <1>  -0.6800 
 15 C       -0.9600     3.5250    -2.2170 C.ar  1 <1>   0.1600 
 16 C        0.6580     2.1670    -1.1260 C.ar  1 <1>  -0.1500 
 17 C        0.3000     1.4610     1.2340 C.3   1 <1>  -0.0970 
 18 C       -2.8090    -3.3560     0.8310 C.2   1 <1>   0.0770 
 19 C       -1.9200    -2.7670     1.6610 C.2   1 <1>  -0.3020 
 20 C        0.2420     2.8460    -2.2480 C.ar  1 <1>  -0.1500 
 21 H       -1.8160     3.4550     1.9110 H     1 <1>   0.0800 
 22 H       -3.1510     3.6360     0.8420 H     1 <1>   0.0800 
 23 H       -5.3980    -0.4290     0.8620 H     1 <1>   0.0800 
 24 H       -4.7050    -0.0540     2.4120 H     1 <1>   0.0800 
 25 H       -4.2870     0.1010    -1.0940 H     1 <1>   0.0800 
 26 H       -2.9680     1.2100    -1.1510 H     1 <1>   0.0800 
 27 H       -5.1390     2.7770    -0.2290 H     1 <1>   0.0800 
 28 H       -5.8310     1.7300    -1.4580 H     1 <1>   0.0800 
 29 H       -2.0440    -0.8050     2.5480 H     1 <1>   0.2700 
 30 H       -3.4730     3.2740    -1.7780 H     1 <1>   0.4000 
 31 H       -1.2740     4.0570    -3.1000 H     1 <1>   0.1500 
 32 H        1.5910     1.6300    -1.1240 H     1 <1>   0.1500 
 33 H       -0.2100     0.5180     1.3080 H     1 <1>   0.0800 
 34 H        0.1050     2.0380     2.1200 H     1 <1>   0.0800 
 35 H        1.3570     1.2710     1.1950 H     1 <1>   0.0800 
 36 H       -2.7450    -4.3330     0.3810 H     1 <1>   0.1500 
 37 H       -0.9840    -3.1300     2.0430 H     1 <1>   0.1500 
 38 H        0.8430     2.8510    -3.1390 H     1 <1>   0.1500 
@<TRIPOS>BOND
  1   1   2  2   
  2   2   3  am  
  3   2   4  1   
  4   3   5  1   
  5   3   6  1   
  6   4   7  1   
  7   4  21  1   
  8   4  22  1   
  9   5   8  1   
 10   5  23  1   
 11   5  24  1   
 12   6   9  1   
 13   6  25  1   
 14   6  26  1   
 15   7  10  ar  
 16   7  11  ar  
 17   8  12  2   
 18   8  13  1   
 19   9  14  1   
 20   9  27  1   
 21   9  28  1   
 22  10  15  ar  
 23  11  16  ar  
 24  11  17  1   
 25  12  18  1   
 26  13  19  1   
 27  13  29  1   
 28  14  30  1   
 29  15  20  ar  
 30  15  31  1   
 31  16  20  ar  
 32  16  32  1   
 33  17  33  1   
 34  17  34  1   
 35  17  35  1   
 36  18  19  2   
 37  18  36  1   
 38  19  37  1   
 39  20  38  1   
@<TRIPOS>SUBSTRUCTURE
  1 ****   3 GROUP 4 **** **** 0

# MOE 2024.06 (io_trps.svl 2023.06)
