@<TRIPOS>MOLECULE
NONAME
36 38 1 0 0 
SMALL
USER_CHARGES


@<TRIPOS>ATOM
  1 O       -0.4560     0.2900    -0.4550 O.2   1 <1>  -0.5700 
  2 C       -1.4770     0.8410    -0.0920 C.2   1 <1>   0.7150 
  3 N       -2.6080     0.0840     0.1150 N.am  1 <1>  -0.6600 
  4 C       -1.4950     2.2630     0.1130 C.2   1 <1>  -0.2370 
  5 C       -3.9810     0.6060    -0.1080 C.3   1 <1>   0.1400 
  6 C       -2.5890    -1.3930    -0.0470 C.3   1 <1>   0.1400 
  7 N       -2.1520     2.8680     1.1490 N.pl3 1 <1>   0.0330 
  8 C       -0.8860     3.2530    -0.6160 C.2   1 <1>  -0.1500 
  9 C       -4.7960    -0.6010    -0.5720 C.3   1 <1>   0.2000 
 10 C       -4.0570    -1.8230    -0.0330 C.3   1 <1>  -0.0800 
 11 C       -1.9710     4.2070     1.0570 C.2   1 <1>  -0.3020 
 12 C       -1.1920     4.4760    -0.0250 C.2   1 <1>  -0.1500 
 13 O       -6.0880    -0.5690    -0.0710 O.3   1 <1>  -0.6800 
 14 C       -4.3520    -3.0970    -0.8440 C.3   1 <1>  -0.0170 
 15 C       -3.6830    -4.3200    -0.2390 C.ar  1 <1>   0.1670 
 16 N       -2.4010    -4.4930    -0.5180 N.ar  1 <1>  -0.6200 
 17 C       -4.4170    -5.1900     0.5660 C.ar  1 <1>   0.1600 
 18 C       -1.9080    -5.5780     0.0540 C.ar  1 <1>   0.1600 
 19 N       -3.9260    -6.2740     1.1430 N.ar  1 <1>  -0.6200 
 20 C       -2.6450    -6.4400     0.8580 C.ar  1 <1>   0.1600 
 21 H       -4.3680     0.9930     0.8180 H     1 <1>   0.0800 
 22 H       -3.9780     1.3750    -0.8610 H     1 <1>   0.0800 
 23 H       -2.1260    -1.6410    -0.9890 H     1 <1>   0.0800 
 24 H       -2.0310    -1.8590     0.7480 H     1 <1>   0.0800 
 25 H       -2.6690     2.3700     1.8820 H     1 <1>   0.2700 
 26 H       -0.2730     3.1160    -1.4910 H     1 <1>   0.1500 
 27 H       -4.8460    -0.6140    -1.6480 H     1 <1>   0.0800 
 28 H       -4.3310    -1.9830     0.9950 H     1 <1>   0.0800 
 29 H       -2.3930     4.9020     1.7610 H     1 <1>   0.1500 
 30 H       -0.8580     5.4390    -0.3750 H     1 <1>   0.1500 
 31 H       -6.0820    -0.5900     0.9050 H     1 <1>   0.4000 
 32 H       -4.0100    -2.9760    -1.8580 H     1 <1>   0.0800 
 33 H       -5.4160    -3.2530    -0.8810 H     1 <1>   0.0800 
 34 H       -5.4570    -4.9790     0.7430 H     1 <1>   0.1500 
 35 H       -0.8690    -5.7980    -0.1200 H     1 <1>   0.1500 
 36 H       -2.1550    -7.2990     1.2810 H     1 <1>   0.1500 
@<TRIPOS>BOND
  1   1   2  2   
  2   2   3  am  
  3   2   4  1   
  4   3   5  1   
  5   3   6  1   
  6   4   7  1   
  7   4   8  2   
  8   5   9  1   
  9   5  21  1   
 10   5  22  1   
 11   6  10  1   
 12   6  23  1   
 13   6  24  1   
 14   7  11  1   
 15   7  25  1   
 16   8  12  1   
 17   8  26  1   
 18   9  10  1   
 19   9  13  1   
 20   9  27  1   
 21  10  14  1   
 22  10  28  1   
 23  11  12  2   
 24  11  29  1   
 25  12  30  1   
 26  13  31  1   
 27  14  15  1   
 28  14  32  1   
 29  14  33  1   
 30  15  16  ar  
 31  15  17  ar  
 32  16  18  ar  
 33  17  19  ar  
 34  17  34  1   
 35  18  20  ar  
 36  18  35  1   
 37  19  20  ar  
 38  20  36  1   
@<TRIPOS>SUBSTRUCTURE
  1 ****   6 GROUP 4 **** **** 0

# MOE 2024.06 (io_trps.svl 2023.06)
