@<TRIPOS>MOLECULE
NONAME
33 34 1 0 0 
SMALL
USER_CHARGES


@<TRIPOS>ATOM
  1 S        1.9910     0.1840     1.9120 S.3   1 <1>  -0.0800 
  2 C        0.9920    -0.9090     0.9800 C.2   1 <1>   0.1980 
  3 C        2.0690     1.2430     0.5350 C.2   1 <1>  -0.1100 
  4 N        0.7540    -0.5150    -0.2100 N.2   1 <1>  -0.5650 
  5 C        0.5320    -2.1810     1.6850 C.3   1 <1>   0.5230 
  6 C        1.3620     0.7010    -0.4690 C.2   1 <1>   0.0460 
  7 N       -0.4670    -2.9450     0.8790 N.4   1 <1>  -0.9590 
  8 C        1.1680     1.2860    -1.8510 C.3   1 <1>  -0.0590 
  9 C       -0.6980    -4.3420     1.3580 C.3   1 <1>   0.3430 
 10 C       -1.7480    -2.2140     0.6470 C.3   1 <1>   0.3430 
 11 C       -1.4070    -5.1230     0.2480 C.3   1 <1>   0.2000 
 12 C       -2.5780    -2.9550    -0.4030 C.3   1 <1>  -0.1600 
 13 O       -0.6010    -5.0610    -0.8790 O.3   1 <1>  -0.6800 
 14 C       -2.7500    -4.4570    -0.0750 C.3   1 <1>  -0.1860 
 15 C       -3.4450    -5.2060    -1.1890 C.2   1 <1>   0.9060 
 16 O       -4.6100    -5.5520    -1.0120 O.co2 1 <1>  -0.9000 
 17 O       -2.8000    -5.4540    -2.2150 O.co2 1 <1>  -0.9000 
 18 H        2.6350     2.1530     0.6240 H     1 <1>   0.1500 
 19 H        0.1050    -1.9200     2.6370 H     1 <1>   0.0800 
 20 H        1.3970    -2.7980     1.8590 H     1 <1>   0.0800 
 21 H       -0.0690    -3.0740    -0.0710 H     1 <1>   0.4500 
 22 H        1.6830     2.2250    -1.9390 H     1 <1>   0.0800 
 23 H        0.1210     1.4430    -2.0360 H     1 <1>   0.0800 
 24 H        1.5530     0.6060    -2.5890 H     1 <1>   0.0800 
 25 H        0.2390    -4.8290     1.5730 H     1 <1>   0.0800 
 26 H       -1.3050    -4.3410     2.2470 H     1 <1>   0.0800 
 27 H       -2.3050    -2.1480     1.5670 H     1 <1>   0.0800 
 28 H       -1.5490    -1.2140     0.2940 H     1 <1>   0.0800 
 29 H       -1.5460    -6.1590     0.5100 H     1 <1>   0.0800 
 30 H       -3.5490    -2.4970    -0.4820 H     1 <1>   0.0800 
 31 H       -2.1030    -2.8480    -1.3650 H     1 <1>   0.0800 
 32 H       -1.2050    -5.2950    -1.6540 H     1 <1>   0.4000 
 33 H       -3.3820    -4.5450     0.7900 H     1 <1>   0.0800 
@<TRIPOS>BOND
  1   1   2  1   
  2   1   3  1   
  3   2   4  2   
  4   2   5  1   
  5   3   6  2   
  6   3  18  1   
  7   4   6  1   
  8   5   7  1   
  9   5  19  1   
 10   5  20  1   
 11   6   8  1   
 12   7   9  1   
 13   7  10  1   
 14   7  21  1   
 15   8  22  1   
 16   8  23  1   
 17   8  24  1   
 18   9  11  1   
 19   9  25  1   
 20   9  26  1   
 21  10  12  1   
 22  10  27  1   
 23  10  28  1   
 24  11  13  1   
 25  11  14  1   
 26  11  29  1   
 27  12  14  1   
 28  12  30  1   
 29  12  31  1   
 30  13  32  1   
 31  14  15  1   
 32  14  33  1   
 33  15  16  ar  
 34  15  17  ar  
@<TRIPOS>SUBSTRUCTURE
  1 ****   7 GROUP 4 **** **** 0

# MOE 2024.06 (io_trps.svl 2023.06)
