@<TRIPOS>MOLECULE
NONAME
48 49 1 0 0 
SMALL
USER_CHARGES


@<TRIPOS>ATOM
  1 S        2.3530    -1.2530    -2.1100 S.3   1 <1>  -0.4600 
  2 C        0.8290    -2.2130    -1.8990 C.3   1 <1>   0.2140 
  3 C        1.7910     0.2530    -2.9790 C.3   1 <1>   0.1310 
  4 C       -0.0860    -1.4380    -0.9690 C.ar  1 <1>  -0.1440 
  5 C        1.8650     1.4850    -2.0870 C.2   1 <1>   0.5690 
  6 C       -1.1760    -0.7350    -1.4560 C.ar  1 <1>  -0.1500 
  7 C        0.1750    -1.4330     0.3910 C.ar  1 <1>  -0.1500 
  8 O        2.5770     2.3960    -2.4380 O.2   1 <1>  -0.5700 
  9 N        1.1340     1.5580    -0.9460 N.am  1 <1>  -0.7300 
 10 C       -1.9950    -0.0240    -0.5950 C.ar  1 <1>  -0.1430 
 11 C       -0.6470    -0.7420     1.2630 C.ar  1 <1>  -0.1430 
 12 C        1.0980     2.7320    -0.0680 C.3   1 <1>   0.4000 
 13 C       -1.7290    -0.0370     0.7650 C.ar  1 <1>  -0.1500 
 14 C       -3.1790     0.7540    -1.1390 C.3   1 <1>  -0.0970 
 15 C       -0.3570    -0.7780     2.7510 C.3   1 <1>  -0.0970 
 16 C        1.4980     2.3060     1.3360 C.2   1 <1>  -0.3320 
 17 C       -0.3060     3.3490    -0.1550 C.3   1 <1>  -0.1600 
 18 N        2.6950     1.7430     1.6280 N.pl3 1 <1>   0.3140 
 19 C        0.8280     2.4030     2.5080 C.2   1 <1>  -0.1500 
 20 C       -0.3690     4.7830     0.3980 C.3   1 <1>  -0.2400 
 21 N        2.8100     1.4850     2.9440 N.2   1 <1>  -0.7070 
 22 C        3.7970     1.4190     0.7080 C.3   1 <1>   0.0160 
 23 C        1.6920     1.8870     3.4620 C.2   1 <1>   0.1390 
 24 H        1.1050    -3.1620    -1.4750 H     1 <1>   0.0800 
 25 H        0.3940    -2.3590    -2.8710 H     1 <1>   0.0800 
 26 H        0.7860     0.0930    -3.3170 H     1 <1>   0.0800 
 27 H        2.4390     0.3790    -3.8260 H     1 <1>   0.0800 
 28 H       -1.3940    -0.7380    -2.5100 H     1 <1>   0.1500 
 29 H        1.0240    -1.9720     0.7760 H     1 <1>   0.1500 
 30 H        0.5860     0.7540    -0.6080 H     1 <1>   0.3700 
 31 H        1.8090     3.4620    -0.4190 H     1 <1>   0.0800 
 32 H       -2.3680     0.5020     1.4410 H     1 <1>   0.1500 
 33 H       -2.9140     1.2410    -2.0600 H     1 <1>   0.0800 
 34 H       -3.4960     1.5050    -0.4380 H     1 <1>   0.0800 
 35 H       -4.0000     0.0840    -1.3220 H     1 <1>   0.0800 
 36 H        0.7040    -0.7370     2.9230 H     1 <1>   0.0800 
 37 H       -0.7410    -1.6890     3.1740 H     1 <1>   0.0800 
 38 H       -0.8150     0.0560     3.2490 H     1 <1>   0.0800 
 39 H       -1.0050     2.7250     0.3710 H     1 <1>   0.0800 
 40 H       -0.6030     3.3830    -1.1890 H     1 <1>   0.0800 
 41 H       -0.1540     2.7910     2.7040 H     1 <1>   0.1500 
 42 H       -0.0700     4.8150     1.4300 H     1 <1>   0.0800 
 43 H       -1.3720     5.1630     0.3200 H     1 <1>   0.0800 
 44 H        0.2840     5.4270    -0.1660 H     1 <1>   0.0800 
 45 H        3.9300     2.2220     0.0080 H     1 <1>   0.0800 
 46 H        3.5580     0.5130     0.1830 H     1 <1>   0.0800 
 47 H        4.6990     1.2800     1.2730 H     1 <1>   0.0800 
 48 H        1.4710     1.8210     4.5140 H     1 <1>   0.1500 
@<TRIPOS>BOND
  1   1   2  1   
  2   1   3  1   
  3   2   4  1   
  4   2  24  1   
  5   2  25  1   
  6   3   5  1   
  7   3  26  1   
  8   3  27  1   
  9   4   6  ar  
 10   4   7  ar  
 11   5   8  2   
 12   5   9  am  
 13   6  10  ar  
 14   6  28  1   
 15   7  11  ar  
 16   7  29  1   
 17   9  12  1   
 18   9  30  1   
 19  10  13  ar  
 20  10  14  1   
 21  11  13  ar  
 22  11  15  1   
 23  12  16  1   
 24  12  17  1   
 25  12  31  1   
 26  13  32  1   
 27  14  33  1   
 28  14  34  1   
 29  14  35  1   
 30  15  36  1   
 31  15  37  1   
 32  15  38  1   
 33  16  18  1   
 34  16  19  2   
 35  17  20  1   
 36  17  39  1   
 37  17  40  1   
 38  18  21  1   
 39  18  22  1   
 40  19  23  1   
 41  19  41  1   
 42  20  42  1   
 43  20  43  1   
 44  20  44  1   
 45  21  23  2   
 46  22  45  1   
 47  22  46  1   
 48  22  47  1   
 49  23  48  1   
@<TRIPOS>SUBSTRUCTURE
  1 ****   9 GROUP 4 **** **** 0

# MOE 2024.06 (io_trps.svl 2023.06)
