@<TRIPOS>MOLECULE
NONAME
48 50 1 0 0 
SMALL
USER_CHARGES


@<TRIPOS>ATOM
  1 S       -0.0110    -0.2520     1.5930 S.o2  1 <1>   1.5010 
  2 O       -0.7730     0.5820     2.4990 O.2   1 <1>  -0.6500 
  3 O        0.7780    -1.3230     2.1720 O.2   1 <1>  -0.6500 
  4 N       -1.1410    -1.0140     0.5780 N.am  1 <1>  -0.8490 
  5 C        1.0480     0.7910     0.5050 C.2   1 <1>   0.1640 
  6 C       -1.8710    -2.0810     1.2730 C.3   1 <1>   0.1960 
  7 C       -2.0770    -0.0690    -0.0440 C.3   1 <1>   0.1960 
  8 N        1.1970     0.6160    -0.8410 N.2   1 <1>  -0.5650 
  9 C        1.8220     1.8390     0.8910 C.2   1 <1>  -0.3020 
 10 C       -2.6890    -2.9060     0.2490 C.3   1 <1>   0.4230 
 11 C       -2.9210    -0.8110    -1.0910 C.3   1 <1>  -0.1600 
 12 C        2.0270     1.5330    -1.2090 C.2   1 <1>   0.0060 
 13 N        2.4490     2.3190    -0.1940 N.pl3 1 <1>   0.0480 
 14 N       -3.3770    -4.1210     0.8100 N.4   1 <1>  -0.9590 
 15 C       -3.7080    -1.9950    -0.4640 C.3   1 <1>  -0.1060 
 16 C        2.4830     1.7040    -2.6450 C.3   1 <1>  -0.0600 
 17 C        3.3920     3.4500    -0.2370 C.3   1 <1>   0.0160 
 18 C       -4.0180    -4.9340    -0.2550 C.3   1 <1>   0.3430 
 19 C       -2.5670    -4.9390     1.7510 C.3   1 <1>   0.2630 
 20 C       -4.7300    -1.4810     0.5670 C.2   1 <1>   0.9060 
 21 C       -4.4140    -2.7920    -1.5850 C.3   1 <1>  -0.1600 
 22 C       -5.0280    -4.0920    -1.0410 C.3   1 <1>  -0.1600 
 23 O       -5.2730    -0.3930     0.3880 O.co2 1 <1>  -0.9000 
 24 O       -4.9920    -2.1860     1.5560 O.co2 1 <1>  -0.9000 
 25 H       -1.1590    -2.7290     1.7490 H     1 <1>   0.0800 
 26 H       -2.5110    -1.6560     2.0310 H     1 <1>   0.0800 
 27 H       -2.7150     0.3790     0.7040 H     1 <1>   0.0800 
 28 H       -1.5330     0.7210    -0.5330 H     1 <1>   0.0800 
 29 H        1.9460     2.2490     1.8770 H     1 <1>   0.1500 
 30 H       -1.9830    -3.2440    -0.4900 H     1 <1>   0.0800 
 31 H       -3.6100    -0.1120    -1.5350 H     1 <1>   0.0800 
 32 H       -2.2650    -1.1570    -1.8700 H     1 <1>   0.0800 
 33 H       -4.1640    -3.6630     1.3460 H     1 <1>   0.4500 
 34 H        2.0080     0.9660    -3.2660 H     1 <1>   0.0800 
 35 H        3.5470     1.5760    -2.7120 H     1 <1>   0.0800 
 36 H        2.2150     2.6800    -3.0050 H     1 <1>   0.0800 
 37 H        3.5050     3.8630     0.7490 H     1 <1>   0.0800 
 38 H        3.0130     4.2060    -0.8990 H     1 <1>   0.0800 
 39 H        4.3470     3.1040    -0.5890 H     1 <1>   0.0800 
 40 H       -3.2630    -5.3080    -0.9260 H     1 <1>   0.0800 
 41 H       -4.5300    -5.7730     0.1870 H     1 <1>   0.0800 
 42 H       -1.6930    -5.3270     1.2530 H     1 <1>   0.0800 
 43 H       -3.1540    -5.7620     2.1240 H     1 <1>   0.0800 
 44 H       -2.2550    -4.3400     2.5910 H     1 <1>   0.0800 
 45 H       -5.1890    -2.1830    -2.0210 H     1 <1>   0.0800 
 46 H       -3.7090    -3.0330    -2.3620 H     1 <1>   0.0800 
 47 H       -5.4120    -4.6750    -1.8590 H     1 <1>   0.0800 
 48 H       -5.8610    -3.8580    -0.4000 H     1 <1>   0.0800 
@<TRIPOS>BOND
  1   1   2  2   
  2   1   3  2   
  3   1   4  am  
  4   1   5  1   
  5   4   6  1   
  6   4   7  1   
  7   5   8  1   
  8   5   9  2   
  9   6  10  1   
 10   6  25  1   
 11   6  26  1   
 12   7  11  1   
 13   7  27  1   
 14   7  28  1   
 15   8  12  2   
 16   9  13  1   
 17   9  29  1   
 18  10  14  1   
 19  10  15  1   
 20  10  30  1   
 21  11  15  1   
 22  11  31  1   
 23  11  32  1   
 24  12  13  1   
 25  12  16  1   
 26  13  17  1   
 27  14  18  1   
 28  14  19  1   
 29  14  33  1   
 30  15  20  1   
 31  15  21  1   
 32  16  34  1   
 33  16  35  1   
 34  16  36  1   
 35  17  37  1   
 36  17  38  1   
 37  17  39  1   
 38  18  22  1   
 39  18  40  1   
 40  18  41  1   
 41  19  42  1   
 42  19  43  1   
 43  19  44  1   
 44  20  23  ar  
 45  20  24  ar  
 46  21  22  1   
 47  21  45  1   
 48  21  46  1   
 49  22  47  1   
 50  22  48  1   
@<TRIPOS>SUBSTRUCTURE
  1 ****   4 GROUP 4 **** **** 0

# MOE 2024.06 (io_trps.svl 2023.06)
