@<TRIPOS>MOLECULE
NONAME
56 60 1 0 0 
SMALL
USER_CHARGES


@<TRIPOS>ATOM
  1 O        3.3090    -0.2780    -0.9200 O.3   1 <1>  -0.5600 
  2 C        3.0310    -1.0880     0.2100 C.3   1 <1>   0.4600 
  3 C        2.2190     0.1670    -1.7010 C.3   1 <1>   0.1200 
  4 C        1.9160    -2.0680    -0.1230 C.2   1 <1>  -0.3320 
  5 C        2.6710    -0.1740     1.3860 C.3   1 <1>  -0.1600 
  6 C        4.3380    -1.8250     0.5280 C.3   1 <1>  -0.1600 
  7 C        1.4820    -1.0150    -2.3470 C.3   1 <1>   0.0210 
  8 N        1.4490    -3.0930     0.6580 N.pl3 1 <1>   0.0330 
  9 C        1.2190    -2.0440    -1.2770 C.2   1 <1>  -0.1810 
 10 C        3.7720     0.8480     1.6960 C.3   1 <1>   0.3430 
 11 C        5.4160    -0.9300     1.1530 C.3   1 <1>   0.3430 
 12 C        0.4450    -3.7280    -0.0290 C.ar  1 <1>  -0.1520 
 13 C        0.2770    -3.0920    -1.2550 C.ar  1 <1>   0.0000 
 14 N        5.0470     0.5010     0.9890 N.4   1 <1>  -0.9590 
 15 C       -0.3460    -4.8240     0.3240 C.ar  1 <1>  -0.1500 
 16 C       -0.6930    -3.5560    -2.1490 C.ar  1 <1>  -0.1500 
 17 C        6.1650     1.4530     1.2380 C.3   1 <1>   0.4860 
 18 C       -1.2980    -5.2700    -0.5640 C.ar  1 <1>  -0.1500 
 19 C       -1.4710    -4.6360    -1.8010 C.ar  1 <1>  -0.1500 
 20 C        5.7160     2.8460     0.8610 C.ar  1 <1>  -0.1440 
 21 C        5.5050     3.8150     1.8170 C.ar  1 <1>   0.1600 
 22 C        5.4800     3.2020    -0.4480 C.ar  1 <1>   0.1600 
 23 N        5.0710     5.0100     1.5110 N.ar  1 <1>  -0.6200 
 24 N        5.0470     4.3900    -0.7790 N.ar  1 <1>  -0.6200 
 25 C        4.8570     5.2400     0.2250 C.ar  1 <1>   0.7200 
 26 N        4.4000     6.4780    -0.0560 N.pl3 1 <1>  -0.8690 
 27 C        4.4800     7.1080    -1.3830 C.3   1 <1>   0.2090 
 28 C        3.8390     8.4870    -1.2980 C.3   1 <1>  -0.2400 
 29 H        2.6010     0.8250    -2.4620 H     1 <1>   0.0800 
 30 H        1.5460     0.7220    -1.0710 H     1 <1>   0.0800 
 31 H        2.5070    -0.7790     2.2590 H     1 <1>   0.0800 
 32 H        1.7440     0.3330     1.1910 H     1 <1>   0.0800 
 33 H        4.7110    -2.2740    -0.3760 H     1 <1>   0.0800 
 34 H        4.1440    -2.6310     1.2110 H     1 <1>   0.0800 
 35 H        2.0800    -1.4450    -3.1300 H     1 <1>   0.0800 
 36 H        0.5540    -0.6750    -2.7710 H     1 <1>   0.0800 
 37 H        1.7670    -3.3750     1.5900 H     1 <1>   0.2700 
 38 H        3.9320     0.8950     2.7610 H     1 <1>   0.0800 
 39 H        3.4390     1.8210     1.3670 H     1 <1>   0.0800 
 40 H        6.3610    -1.1300     0.6740 H     1 <1>   0.0800 
 41 H        5.5130    -1.1590     2.2020 H     1 <1>   0.0800 
 42 H        4.7820     0.5730    -0.0140 H     1 <1>   0.4500 
 43 H       -0.2080    -5.3080     1.2740 H     1 <1>   0.1500 
 44 H       -0.8160    -3.0620    -3.0950 H     1 <1>   0.1500 
 45 H        7.0210     1.1810     0.6420 H     1 <1>   0.0800 
 46 H        6.4490     1.4270     2.2770 H     1 <1>   0.0800 
 47 H       -1.9200    -6.1120    -0.3170 H     1 <1>   0.1500 
 48 H       -2.2220    -5.0050    -2.4770 H     1 <1>   0.1500 
 49 H        5.6860     3.6130     2.8600 H     1 <1>   0.1500 
 50 H        5.6420     2.5000    -1.2500 H     1 <1>   0.1500 
 51 H        4.4420     7.1090     0.7420 H     1 <1>   0.4000 
 52 H        3.9580     6.5000    -2.1030 H     1 <1>   0.0800 
 53 H        5.5120     7.1910    -1.6820 H     1 <1>   0.0800 
 54 H        2.8110     8.3980    -0.9950 H     1 <1>   0.0800 
 55 H        3.8710     8.9590    -2.2630 H     1 <1>   0.0800 
 56 H        4.3700     9.1050    -0.5970 H     1 <1>   0.0800 
@<TRIPOS>BOND
  1   1   2  1   
  2   1   3  1   
  3   2   4  1   
  4   2   5  1   
  5   2   6  1   
  6   3   7  1   
  7   3  29  1   
  8   3  30  1   
  9   4   8  1   
 10   4   9  2   
 11   5  10  1   
 12   5  31  1   
 13   5  32  1   
 14   6  11  1   
 15   6  33  1   
 16   6  34  1   
 17   7   9  1   
 18   7  35  1   
 19   7  36  1   
 20   8  12  1   
 21   8  37  1   
 22   9  13  1   
 23  10  14  1   
 24  10  38  1   
 25  10  39  1   
 26  11  14  1   
 27  11  40  1   
 28  11  41  1   
 29  12  13  ar  
 30  12  15  ar  
 31  13  16  ar  
 32  14  17  1   
 33  14  42  1   
 34  15  18  ar  
 35  15  43  1   
 36  16  19  ar  
 37  16  44  1   
 38  17  20  1   
 39  17  45  1   
 40  17  46  1   
 41  18  19  ar  
 42  18  47  1   
 43  19  48  1   
 44  20  21  ar  
 45  20  22  ar  
 46  21  23  ar  
 47  21  49  1   
 48  22  24  ar  
 49  22  50  1   
 50  23  25  ar  
 51  24  25  ar  
 52  25  26  1   
 53  26  27  1   
 54  26  51  1   
 55  27  28  1   
 56  27  52  1   
 57  27  53  1   
 58  28  54  1   
 59  28  55  1   
 60  28  56  1   
@<TRIPOS>SUBSTRUCTURE
  1 ****   1 GROUP 4 **** **** 0

# MOE 2024.06 (io_trps.svl 2023.06)
