@<TRIPOS>MOLECULE
NONAME
44 45 1 0 0 
SMALL
USER_CHARGES


@<TRIPOS>ATOM
  1 CL      -0.0020     3.1690     1.4520 Cl    1 <1>  -0.1770 
  2 C        1.7130     2.9630     1.1540 C.ar  1 <1>   0.1770 
  3 C        2.3050     3.4040    -0.0230 C.ar  1 <1>   0.1660 
  4 C        2.4740     2.3550     2.1280 C.ar  1 <1>  -0.1500 
  5 N        3.6000     3.2840    -0.2820 N.ar  1 <1>  -0.6200 
  6 C        1.4780     4.0700    -1.1080 C.3   1 <1>  -0.0960 
  7 C        3.8150     2.2190     1.8540 C.ar  1 <1>  -0.1500 
  8 C        4.3400     2.6810     0.6480 C.ar  1 <1>   0.4100 
  9 N        5.6950     2.5190     0.3860 N.pl3 1 <1>  -0.8380 
 10 C        6.3700     3.4470    -0.5550 C.3   1 <1>   0.2090 
 11 C        6.1890     1.1160     0.2940 C.3   1 <1>   0.1290 
 12 C        6.4660     4.8240     0.1060 C.3   1 <1>  -0.1600 
 13 C        7.1350     5.8680    -0.7890 C.3   1 <1>   0.4230 
 14 N        7.3430     7.1040     0.0160 N.4   1 <1>  -0.9590 
 15 C        6.3210     6.1570    -2.0570 C.3   1 <1>  -0.2400 
 16 C        6.1170     7.8590     0.3860 C.3   1 <1>   0.3430 
 17 C        8.2660     8.0940    -0.5890 C.3   1 <1>   0.3430 
 18 C        6.6410     9.2100     0.8510 C.3   1 <1>  -0.1600 
 19 C        8.0200     9.3710     0.2030 C.3   1 <1>  -0.1600 
 20 H        2.0330     2.0110     3.0470 H     1 <1>   0.1500 
 21 H        0.5180     3.5980    -1.2000 H     1 <1>   0.0800 
 22 H        1.9790     3.9930    -2.0560 H     1 <1>   0.0800 
 23 H        1.3390     5.1080    -0.8720 H     1 <1>   0.0800 
 24 H        4.4750     1.7600     2.5650 H     1 <1>   0.1500 
 25 H        5.8100     3.4880    -1.4750 H     1 <1>   0.0800 
 26 H        7.3580     3.0810    -0.7780 H     1 <1>   0.0800 
 27 H        5.5360     0.4440     0.8240 H     1 <1>   0.0800 
 28 H        7.1740     1.0480     0.7230 H     1 <1>   0.0800 
 29 H        6.2280     0.8070    -0.7360 H     1 <1>   0.0800 
 30 H        7.0340     4.7080     1.0110 H     1 <1>   0.0800 
 31 H        5.4740     5.1520     0.3580 H     1 <1>   0.0800 
 32 H        8.1010     5.4870    -1.0840 H     1 <1>   0.0800 
 33 H        7.7710     6.8120     0.9030 H     1 <1>   0.4500 
 34 H        5.2910     6.3640    -1.8230 H     1 <1>   0.0800 
 35 H        6.3350     5.2970    -2.7010 H     1 <1>   0.0800 
 36 H        6.7340     6.9740    -2.6170 H     1 <1>   0.0800 
 37 H        5.5540     7.3580     1.1580 H     1 <1>   0.0800 
 38 H        5.4920     7.9980    -0.4810 H     1 <1>   0.0800 
 39 H        8.0080     8.2600    -1.6220 H     1 <1>   0.0800 
 40 H        9.2950     7.7750    -0.5240 H     1 <1>   0.0800 
 41 H        6.7260     9.2180     1.9240 H     1 <1>   0.0800 
 42 H        5.9650     9.9960     0.5570 H     1 <1>   0.0800 
 43 H        8.0570    10.2270    -0.4490 H     1 <1>   0.0800 
 44 H        8.7790     9.4870     0.9580 H     1 <1>   0.0800 
@<TRIPOS>BOND
  1   1   2  1   
  2   2   3  ar  
  3   2   4  ar  
  4   3   5  ar  
  5   3   6  1   
  6   4   7  ar  
  7   4  20  1   
  8   5   8  ar  
  9   6  21  1   
 10   6  22  1   
 11   6  23  1   
 12   7   8  ar  
 13   7  24  1   
 14   8   9  1   
 15   9  10  1   
 16   9  11  1   
 17  10  12  1   
 18  10  25  1   
 19  10  26  1   
 20  11  27  1   
 21  11  28  1   
 22  11  29  1   
 23  12  13  1   
 24  12  30  1   
 25  12  31  1   
 26  13  14  1   
 27  13  15  1   
 28  13  32  1   
 29  14  16  1   
 30  14  17  1   
 31  14  33  1   
 32  15  34  1   
 33  15  35  1   
 34  15  36  1   
 35  16  18  1   
 36  16  37  1   
 37  16  38  1   
 38  17  19  1   
 39  17  39  1   
 40  17  40  1   
 41  18  19  1   
 42  18  41  1   
 43  18  42  1   
 44  19  43  1   
 45  19  44  1   
@<TRIPOS>SUBSTRUCTURE
  1 ****  12 GROUP 4 **** **** 0

# MOE 2024.06 (io_trps.svl 2023.06)
