@<TRIPOS>MOLECULE
NONAME
35 36 1 0 0 
SMALL
USER_CHARGES


@<TRIPOS>ATOM
  1 S        0.2180     0.0930    -1.5590 S.o2  1 <1>   1.3330 
  2 O       -0.0690     1.4630    -1.9110 O.2   1 <1>  -0.6500 
  3 O        0.9400    -0.7500    -2.4840 O.2   1 <1>  -0.6500 
  4 N        1.1060     0.1210    -0.1180 N.am  1 <1>  -0.8490 
  5 C       -1.2900    -0.7490    -1.1110 C.3   1 <1>  -0.0550 
  6 C        0.6110     1.1610     0.8330 C.3   1 <1>   0.2570 
  7 C        2.5450     0.3330    -0.3650 C.3   1 <1>   0.1960 
  8 C       -0.9940    -2.1510    -0.5980 C.3   1 <1>   0.1200 
  9 C        1.4720     1.3250     2.0940 C.2   1 <1>   0.5690 
 10 C        3.3810     0.1990     0.9270 C.3   1 <1>   0.1400 
 11 O       -2.2150    -2.7400    -0.2180 O.3   1 <1>  -0.3630 
 12 O        0.9990     1.8120     3.0900 O.2   1 <1>  -0.5700 
 13 N        2.7690     0.9290     2.0700 N.am  1 <1>  -0.7300 
 14 C       -2.2610    -3.9860     0.3300 C.ar  1 <1>   0.0820 
 15 C       -3.4870    -4.4830     0.7620 C.ar  1 <1>   0.1900 
 16 C       -1.1380    -4.7970     0.4850 C.ar  1 <1>  -0.1500 
 17 F       -4.5660    -3.7510     0.6320 F     1 <1>  -0.1900 
 18 C       -3.6220    -5.7340     1.3330 C.ar  1 <1>  -0.1500 
 19 C       -1.2610    -6.0550     1.0570 C.ar  1 <1>  -0.1500 
 20 C       -2.4950    -6.5250     1.4810 C.ar  1 <1>  -0.1500 
 21 H       -1.9240    -0.8200    -1.9740 H     1 <1>   0.0800 
 22 H       -1.8050    -0.1950    -0.3520 H     1 <1>   0.0800 
 23 H       -0.3880     0.9180     1.1450 H     1 <1>   0.0800 
 24 H        0.5830     2.1210     0.3490 H     1 <1>   0.0800 
 25 H        2.6990     1.3090    -0.7940 H     1 <1>   0.0800 
 26 H        2.9080    -0.3940    -1.0730 H     1 <1>   0.0800 
 27 H       -0.3510    -2.1160     0.2650 H     1 <1>   0.0800 
 28 H       -0.5470    -2.7530    -1.3720 H     1 <1>   0.0800 
 29 H        4.3730     0.5780     0.7490 H     1 <1>   0.0800 
 30 H        3.4620    -0.8430     1.1840 H     1 <1>   0.0800 
 31 H        3.3020     1.0170     2.9380 H     1 <1>   0.3700 
 32 H       -0.1650    -4.4740     0.1690 H     1 <1>   0.1500 
 33 H       -4.5890    -6.0780     1.6540 H     1 <1>   0.1500 
 34 H       -0.3880    -6.6760     1.1730 H     1 <1>   0.1500 
 35 H       -2.5770    -7.5030     1.9230 H     1 <1>   0.1500 
@<TRIPOS>BOND
  1   1   2  2   
  2   1   3  2   
  3   1   4  am  
  4   1   5  1   
  5   4   6  1   
  6   4   7  1   
  7   5   8  1   
  8   5  21  1   
  9   5  22  1   
 10   6   9  1   
 11   6  23  1   
 12   6  24  1   
 13   7  10  1   
 14   7  25  1   
 15   7  26  1   
 16   8  11  1   
 17   8  27  1   
 18   8  28  1   
 19   9  12  2   
 20   9  13  am  
 21  10  13  1   
 22  10  29  1   
 23  10  30  1   
 24  11  14  1   
 25  13  31  1   
 26  14  15  ar  
 27  14  16  ar  
 28  15  17  1   
 29  15  18  ar  
 30  16  19  ar  
 31  16  32  1   
 32  18  20  ar  
 33  18  33  1   
 34  19  20  ar  
 35  19  34  1   
 36  20  35  1   
@<TRIPOS>SUBSTRUCTURE
  1 ****   8 GROUP 4 **** **** 0

# MOE 2024.06 (io_trps.svl 2023.06)
