@<TRIPOS>MOLECULE
NONAME
57 59 1 0 0 
SMALL
USER_CHARGES


@<TRIPOS>ATOM
  1 O       -0.3900     0.3590    -1.2530 O.2   1 <1>  -0.5700 
  2 C       -1.4470     0.9490    -1.3680 C.2   1 <1>   0.5440 
  3 N       -2.6210     0.2700    -1.1240 N.am  1 <1>  -0.6600 
  4 C       -1.4430     2.3540    -1.7290 C.ar  1 <1>   0.0860 
  5 C       -3.8970     0.9420    -0.7250 C.3   1 <1>   0.1400 
  6 C       -2.6600    -1.2100    -0.9190 C.3   1 <1>   0.1400 
  7 C       -0.6710     3.2680    -1.0190 C.ar  1 <1>  -0.1500 
  8 C       -2.2120     2.8360    -2.7870 C.ar  1 <1>  -0.1500 
  9 C       -4.3400     0.4850     0.6830 C.3   1 <1>   0.2950 
 10 C       -3.1780    -1.5560     0.4940 C.3   1 <1>   0.2000 
 11 C       -0.6690     4.6230    -1.3160 C.ar  1 <1>   0.1170 
 12 C       -2.2200     4.1810    -3.1070 C.ar  1 <1>  -0.1500 
 13 O       -4.3980    -0.9110     0.7290 O.3   1 <1>  -0.5600 
 14 C       -5.7180     1.0070     1.1270 C.3   1 <1>  -0.1950 
 15 C       -3.4270    -3.0570     0.6950 C.3   1 <1>  -0.1600 
 16 N        0.1280     5.4770    -0.5420 N.am  1 <1>  -0.5470 
 17 C       -1.4550     5.0690    -2.3740 C.ar  1 <1>  -0.1500 
 18 C       -6.9170     1.0700     0.2310 C.3   1 <1>  -0.2000 
 19 C       -6.2730     2.3380     0.7190 C.3   1 <1>  -0.2000 
 20 C       -2.1430    -3.8980     0.6160 C.3   1 <1>  -0.1600 
 21 C        0.1360     6.8330    -0.3660 C.2   1 <1>   0.5690 
 22 C       -2.4330    -5.3720     0.9170 C.3   1 <1>  -0.1600 
 23 O       -0.6250     7.5930    -0.9150 O.2   1 <1>  -0.5700 
 24 C        1.1720     7.4030     0.5980 C.3   1 <1>   0.1810 
 25 C       -1.1550    -6.2130     0.8360 C.3   1 <1>  -0.2400 
 26 O        1.8980     6.3780     1.2410 O.3   1 <1>  -0.5600 
 27 C        2.8580     6.8460     2.1340 C.3   1 <1>   0.0400 
 28 H       -3.7760     2.0090    -0.7170 H     1 <1>   0.0800 
 29 H       -4.6590     0.6950    -1.4410 H     1 <1>   0.0800 
 30 H       -3.3120    -1.6500    -1.6530 H     1 <1>   0.0800 
 31 H       -1.6810    -1.6330    -1.0570 H     1 <1>   0.0800 
 32 H       -0.0620     2.9020    -0.2120 H     1 <1>   0.1500 
 33 H       -2.8040     2.1450    -3.3620 H     1 <1>   0.1500 
 34 H       -3.6060     0.8120     1.4000 H     1 <1>   0.0800 
 35 H       -2.4700    -1.2130     1.2300 H     1 <1>   0.0800 
 36 H       -2.8190     4.5410    -3.9260 H     1 <1>   0.1500 
 37 H       -5.9060     0.7150     2.1460 H     1 <1>   0.1000 
 38 H       -3.8700    -3.1940     1.6660 H     1 <1>   0.0800 
 39 H       -4.1290    -3.4000    -0.0450 H     1 <1>   0.0800 
 40 H        0.8280     5.0230     0.0530 H     1 <1>   0.3700 
 41 H       -1.4680     6.1120    -2.6340 H     1 <1>   0.1500 
 42 H       -6.8220     0.7960    -0.8050 H     1 <1>   0.1000 
 43 H       -7.8690     0.7760     0.6400 H     1 <1>   0.1000 
 44 H       -6.7920     2.9250     1.4570 H     1 <1>   0.1000 
 45 H       -5.7640     2.9540    -0.0010 H     1 <1>   0.1000 
 46 H       -1.7110    -3.8210    -0.3670 H     1 <1>   0.0800 
 47 H       -1.4250    -3.5240     1.3270 H     1 <1>   0.0800 
 48 H       -2.8550    -5.4650     1.9030 H     1 <1>   0.0800 
 49 H       -3.1510    -5.7520     0.2100 H     1 <1>   0.0800 
 50 H        0.6710     7.9920     1.3450 H     1 <1>   0.0800 
 51 H        1.8590     8.0230     0.0500 H     1 <1>   0.0800 
 52 H       -0.4300    -5.8640     1.5500 H     1 <1>   0.0800 
 53 H       -0.7280    -6.1540    -0.1500 H     1 <1>   0.0800 
 54 H       -1.3790    -7.2430     1.0510 H     1 <1>   0.0800 
 55 H        3.3530     5.9950     2.5700 H     1 <1>   0.0800 
 56 H        2.3760     7.4190     2.9080 H     1 <1>   0.0800 
 57 H        3.5750     7.4500     1.6050 H     1 <1>   0.0800 
@<TRIPOS>BOND
  1   1   2  2   
  2   2   3  am  
  3   2   4  1   
  4   3   5  1   
  5   3   6  1   
  6   4   7  ar  
  7   4   8  ar  
  8   5   9  1   
  9   5  28  1   
 10   5  29  1   
 11   6  10  1   
 12   6  30  1   
 13   6  31  1   
 14   7  11  ar  
 15   7  32  1   
 16   8  12  ar  
 17   8  33  1   
 18   9  13  1   
 19   9  14  1   
 20   9  34  1   
 21  10  13  1   
 22  10  15  1   
 23  10  35  1   
 24  11  16  1   
 25  11  17  ar  
 26  12  17  ar  
 27  12  36  1   
 28  14  18  1   
 29  14  19  1   
 30  14  37  1   
 31  15  20  1   
 32  15  38  1   
 33  15  39  1   
 34  16  21  am  
 35  16  40  1   
 36  17  41  1   
 37  18  19  1   
 38  18  42  1   
 39  18  43  1   
 40  19  44  1   
 41  19  45  1   
 42  20  22  1   
 43  20  46  1   
 44  20  47  1   
 45  21  23  2   
 46  21  24  1   
 47  22  25  1   
 48  22  48  1   
 49  22  49  1   
 50  24  26  1   
 51  24  50  1   
 52  24  51  1   
 53  25  52  1   
 54  25  53  1   
 55  25  54  1   
 56  26  27  1   
 57  27  55  1   
 58  27  56  1   
 59  27  57  1   
@<TRIPOS>SUBSTRUCTURE
  1 ****   2 GROUP 4 **** **** 0

# MOE 2024.06 (io_trps.svl 2023.06)
