@<TRIPOS>MOLECULE
NONAME
43 44 1 0 0 
SMALL
USER_CHARGES


@<TRIPOS>ATOM
  1 S       -0.2350    -0.6550     0.2450 S.o2  1 <1>   1.3330 
  2 O       -0.2800     0.6910     0.7520 O.2   1 <1>  -0.6500 
  3 O        0.7980    -1.0760    -0.6660 O.2   1 <1>  -0.6500 
  4 N        0.0480    -1.5630     1.5970 N.am  1 <1>  -0.9780 
  5 C       -1.8600    -1.1840    -0.3110 C.3   1 <1>  -0.0550 
  6 C       -1.9400    -2.6730    -0.6950 C.3   1 <1>  -0.1600 
  7 C       -3.3680    -3.0760    -1.1010 C.3   1 <1>  -0.0990 
  8 C       -3.4560    -4.5250    -1.5370 C.2   1 <1>   0.5690 
  9 O       -3.7450    -4.7800    -2.6790 O.2   1 <1>  -0.5700 
 10 N       -3.2170    -5.4950    -0.6240 N.am  1 <1>  -0.7300 
 11 C       -3.2060    -6.9480    -0.9140 C.3   1 <1>   0.2200 
 12 C       -4.4140    -7.6430    -0.3000 C.3   1 <1>  -0.0800 
 13 C       -2.0810    -7.5950    -0.1180 C.3   1 <1>   0.1200 
 14 C       -3.9660    -7.9110     1.1420 C.3   1 <1>   0.1200 
 15 C       -5.7540    -6.8940    -0.4220 C.3   1 <1>  -0.0170 
 16 O       -2.5820    -7.7130     1.1790 O.3   1 <1>  -0.5600 
 17 C       -6.8940    -7.7270     0.1450 C.ar  1 <1>  -0.1430 
 18 C       -7.4960    -8.7270    -0.5910 C.ar  1 <1>  -0.1500 
 19 C       -7.3830    -7.5290     1.4200 C.ar  1 <1>  -0.1500 
 20 C       -8.5260    -9.4640    -0.0300 C.ar  1 <1>   0.1600 
 21 C       -8.4180    -8.3230     1.8870 C.ar  1 <1>   0.1600 
 22 N       -9.0000    -9.2880     1.1930 N.ar  1 <1>  -0.6200 
 23 H        0.2240    -0.8640     2.3170 H     1 <1>   0.4200 
 24 H        0.9510    -1.9930     1.4060 H     1 <1>   0.4200 
 25 H       -2.5690    -0.9850     0.4690 H     1 <1>   0.0800 
 26 H       -2.1400    -0.5930    -1.1620 H     1 <1>   0.0800 
 27 H       -1.2680    -2.8650    -1.5160 H     1 <1>   0.0800 
 28 H       -1.6200    -3.2740     0.1400 H     1 <1>   0.0800 
 29 H       -3.6980    -2.4590    -1.9190 H     1 <1>   0.0800 
 30 H       -4.0440    -2.9260    -0.2800 H     1 <1>   0.0800 
 31 H       -2.9750    -5.2670     0.3420 H     1 <1>   0.3700 
 32 H       -3.1140    -7.1270    -1.9720 H     1 <1>   0.0800 
 33 H       -4.5210    -8.5980    -0.7840 H     1 <1>   0.0800 
 34 H       -1.1800    -7.0060    -0.1100 H     1 <1>   0.0800 
 35 H       -1.8710    -8.5850    -0.4840 H     1 <1>   0.0800 
 36 H       -4.1840    -8.9210     1.4450 H     1 <1>   0.0800 
 37 H       -4.4120    -7.2190     1.8350 H     1 <1>   0.0800 
 38 H       -5.9500    -6.6800    -1.4590 H     1 <1>   0.0800 
 39 H       -5.7090    -5.9540     0.0970 H     1 <1>   0.0800 
 40 H       -7.1750    -8.9390    -1.5940 H     1 <1>   0.1500 
 41 H       -6.9720    -6.7670     2.0560 H     1 <1>   0.1500 
 42 H       -8.9840   -10.2400    -0.6190 H     1 <1>   0.1500 
 43 H       -8.7870    -8.1550     2.8840 H     1 <1>   0.1500 
@<TRIPOS>BOND
  1   1   2  2   
  2   1   3  2   
  3   1   4  am  
  4   1   5  1   
  5   4  23  1   
  6   4  24  1   
  7   5   6  1   
  8   5  25  1   
  9   5  26  1   
 10   6   7  1   
 11   6  27  1   
 12   6  28  1   
 13   7   8  1   
 14   7  29  1   
 15   7  30  1   
 16   8   9  2   
 17   8  10  am  
 18  10  11  1   
 19  10  31  1   
 20  11  12  1   
 21  11  13  1   
 22  11  32  1   
 23  12  14  1   
 24  12  15  1   
 25  12  33  1   
 26  13  16  1   
 27  13  34  1   
 28  13  35  1   
 29  14  16  1   
 30  14  36  1   
 31  14  37  1   
 32  15  17  1   
 33  15  38  1   
 34  15  39  1   
 35  17  18  ar  
 36  17  19  ar  
 37  18  20  ar  
 38  18  40  1   
 39  19  21  ar  
 40  19  41  1   
 41  20  22  ar  
 42  20  42  1   
 43  21  22  ar  
 44  21  43  1   
@<TRIPOS>SUBSTRUCTURE
  1 ****  10 GROUP 4 **** **** 0

# MOE 2024.06 (io_trps.svl 2023.06)
