@<TRIPOS>MOLECULE
NONAME
53 56 1 0 0 
SMALL
USER_CHARGES


@<TRIPOS>ATOM
  1 O        0.6100    -1.1730    -2.5960 O.2   1 <1>  -0.5700 
  2 C        1.0660    -1.5000    -1.5150 C.2   1 <1>   0.5440 
  3 N        1.4230    -0.5170    -0.6340 N.am  1 <1>  -0.5100 
  4 C        1.2440    -2.9030    -1.2050 C.ar  1 <1>   0.0860 
  5 C        2.5400    -0.6200     0.3610 C.3   1 <1>   0.2250 
  6 C        1.8980     0.8450    -1.0440 C.3   1 <1>   0.2250 
  7 C        0.7640    -3.4860    -0.0250 C.ar  1 <1>   0.0820 
  8 C        1.9060    -3.7360    -2.1080 C.ar  1 <1>  -0.1500 
  9 C        2.7100     0.9190     0.2760 C.3   1 <1>   0.2100 
 10 O        0.0970    -2.7430     0.8800 O.3   1 <1>  -0.3630 
 11 C        0.9710    -4.8320     0.2440 C.ar  1 <1>  -0.1500 
 12 C        2.1050    -5.0780    -1.8460 C.ar  1 <1>  -0.1500 
 13 N        4.1110     1.3690     0.1160 N.3   1 <1>  -0.7500 
 14 C       -1.2980    -2.9320     1.0000 C.3   1 <1>   0.1200 
 15 C        1.6400    -5.6290    -0.6640 C.ar  1 <1>  -0.1500 
 16 C        4.1690     2.7950    -0.2590 C.3   1 <1>   0.1100 
 17 C        4.8780     1.1600     1.3590 C.3   1 <1>   0.1100 
 18 C       -2.0250    -2.1290    -0.0810 C.3   1 <1>  -0.0170 
 19 C        5.6260     3.2830    -0.3520 C.3   1 <1>   0.1200 
 20 C        6.3140     1.6950     1.2190 C.3   1 <1>   0.1200 
 21 C       -3.5280    -2.2730     0.0940 C.ar  1 <1>  -0.1430 
 22 O        6.2990     3.0450     0.8510 O.3   1 <1>  -0.5600 
 23 C       -4.2160    -3.2790    -0.5670 C.ar  1 <1>  -0.1500 
 24 C       -4.2230    -1.4040     0.9220 C.ar  1 <1>  -0.1500 
 25 C       -5.5830    -3.4160    -0.4010 C.ar  1 <1>  -0.1500 
 26 C       -5.5900    -1.5410     1.0890 C.ar  1 <1>  -0.1500 
 27 C       -6.2720    -2.5470     0.4270 C.ar  1 <1>  -0.1500 
 28 H        3.3680    -1.1790    -0.0400 H     1 <1>   0.0000 
 29 H        2.1890    -0.9620     1.3180 H     1 <1>   0.0000 
 30 H        1.0860     1.5470    -1.0930 H     1 <1>   0.0000 
 31 H        2.5030     0.7950    -1.9320 H     1 <1>   0.0000 
 32 H        2.2660    -3.3130    -3.0310 H     1 <1>   0.1500 
 33 H        2.1920     1.4450     1.0600 H     1 <1>   0.0000 
 34 H        0.6100    -5.2500     1.1660 H     1 <1>   0.1500 
 35 H        2.6220    -5.6970    -2.5600 H     1 <1>   0.1500 
 36 H       -1.5890    -2.5840     1.9750 H     1 <1>   0.0800 
 37 H       -1.5250    -3.9810     0.9200 H     1 <1>   0.0800 
 38 H        1.8000    -6.6730    -0.4560 H     1 <1>   0.1500 
 39 H        3.6470     3.3920     0.4690 H     1 <1>   0.0800 
 40 H        3.6950     2.9380    -1.2150 H     1 <1>   0.0800 
 41 H        4.9210     0.1090     1.5870 H     1 <1>   0.0800 
 42 H        4.3970     1.6640     2.1810 H     1 <1>   0.0800 
 43 H       -1.7440    -2.4850    -1.0560 H     1 <1>   0.0800 
 44 H       -1.7490    -1.0920    -0.0080 H     1 <1>   0.0800 
 45 H        5.6550     4.3410    -0.5400 H     1 <1>   0.0800 
 46 H        6.1450     2.7730    -1.1450 H     1 <1>   0.0800 
 47 H        6.8530     1.1390     0.4710 H     1 <1>   0.0800 
 48 H        6.8360     1.6160     2.1560 H     1 <1>   0.0800 
 49 H       -3.6910    -3.9590    -1.2150 H     1 <1>   0.1500 
 50 H       -3.7020    -0.6180     1.4390 H     1 <1>   0.1500 
 51 H       -6.1110    -4.1980    -0.9180 H     1 <1>   0.1500 
 52 H       -6.1240    -0.8630     1.7320 H     1 <1>   0.1500 
 53 H       -7.3340    -2.6530     0.5560 H     1 <1>   0.1500 
@<TRIPOS>BOND
  1   1   2  2   
  2   2   3  am  
  3   2   4  1   
  4   3   5  1   
  5   3   6  1   
  6   4   7  ar  
  7   4   8  ar  
  8   5   9  1   
  9   5  28  1   
 10   5  29  1   
 11   6   9  1   
 12   6  30  1   
 13   6  31  1   
 14   7  10  1   
 15   7  11  ar  
 16   8  12  ar  
 17   8  32  1   
 18   9  13  1   
 19   9  33  1   
 20  10  14  1   
 21  11  15  ar  
 22  11  34  1   
 23  12  15  ar  
 24  12  35  1   
 25  13  16  1   
 26  13  17  1   
 27  14  18  1   
 28  14  36  1   
 29  14  37  1   
 30  15  38  1   
 31  16  19  1   
 32  16  39  1   
 33  16  40  1   
 34  17  20  1   
 35  17  41  1   
 36  17  42  1   
 37  18  21  1   
 38  18  43  1   
 39  18  44  1   
 40  19  22  1   
 41  19  45  1   
 42  19  46  1   
 43  20  22  1   
 44  20  47  1   
 45  20  48  1   
 46  21  23  ar  
 47  21  24  ar  
 48  23  25  ar  
 49  23  49  1   
 50  24  26  ar  
 51  24  50  1   
 52  25  27  ar  
 53  25  51  1   
 54  26  27  ar  
 55  26  52  1   
 56  27  53  1   
@<TRIPOS>SUBSTRUCTURE
  1 ****   3 GROUP 4 **** **** 0

# MOE 2024.06 (io_trps.svl 2023.06)
