@<TRIPOS>MOLECULE
NONAME
40 42 1 0 0 
SMALL
USER_CHARGES


@<TRIPOS>ATOM
  1 F        1.8760    -0.2120    -0.1900 F     1 <1>  -0.1900 
  2 C        2.2130    -1.4680    -0.3280 C.ar  1 <1>   0.1900 
  3 C        3.0140    -1.8700    -1.3830 C.ar  1 <1>   0.1900 
  4 C        1.7490    -2.3830     0.6000 C.ar  1 <1>  -0.1500 
  5 F        3.4470    -1.0000    -2.2570 F     1 <1>  -0.1900 
  6 C        3.3680    -3.1980    -1.5310 C.ar  1 <1>  -0.1500 
  7 C        2.0950    -3.7240     0.4590 C.ar  1 <1>  -0.1440 
  8 C        2.9050    -4.1220    -0.6040 C.ar  1 <1>  -0.1500 
  9 C        1.5880    -4.7480     1.4600 C.3   1 <1>   0.4870 
 10 N        0.5850    -5.6060     0.7840 N.4   1 <1>  -0.9590 
 11 C       -0.6230    -4.8860     0.2600 C.3   1 <1>   0.3430 
 12 C        0.0890    -6.7530     1.5780 C.3   1 <1>   0.3430 
 13 C       -1.8170    -5.8250     0.5110 C.3   1 <1>   0.2000 
 14 C       -1.1810    -7.1790     0.8350 C.3   1 <1>  -0.0800 
 15 O       -2.5370    -5.3860     1.6160 O.3   1 <1>  -0.6800 
 16 C       -0.9100    -7.9670    -0.4770 C.3   1 <1>  -0.0160 
 17 C        0.4360    -8.6780    -0.5360 C.ar  1 <1>   0.1670 
 18 N        1.4930    -7.9160    -0.7950 N.ar  1 <1>  -0.6200 
 19 C        0.5050   -10.0560    -0.3320 C.ar  1 <1>   0.1600 
 20 C        2.6080    -8.6330    -0.8660 C.ar  1 <1>   0.1600 
 21 N        1.6230   -10.7570    -0.3720 N.ar  1 <1>  -0.6200 
 22 C        2.6710   -10.0060    -0.6580 C.ar  1 <1>   0.1600 
 23 H        1.1320    -2.0320     1.4090 H     1 <1>   0.1500 
 24 H        3.9940    -3.4950    -2.3550 H     1 <1>   0.1500 
 25 H        3.1870    -5.1560    -0.7240 H     1 <1>   0.1500 
 26 H        1.1440    -4.2490     2.3060 H     1 <1>   0.0800 
 27 H        2.4130    -5.3480     1.8080 H     1 <1>   0.0800 
 28 H        1.0590    -6.0470    -0.0300 H     1 <1>   0.4500 
 29 H       -0.7810    -3.9480     0.7650 H     1 <1>   0.0800 
 30 H       -0.5060    -4.7060    -0.7960 H     1 <1>   0.0800 
 31 H        0.8170    -7.5480     1.6310 H     1 <1>   0.0800 
 32 H       -0.1620    -6.4330     2.5760 H     1 <1>   0.0800 
 33 H       -2.4960    -5.8540    -0.3250 H     1 <1>   0.0800 
 34 H       -1.8100    -7.7740     1.4750 H     1 <1>   0.0800 
 35 H       -2.0470    -5.4410     2.4580 H     1 <1>   0.4000 
 36 H       -0.9500    -7.3110    -1.3300 H     1 <1>   0.0800 
 37 H       -1.7020    -8.6830    -0.6190 H     1 <1>   0.0800 
 38 H       -0.3980   -10.6050    -0.1280 H     1 <1>   0.1500 
 39 H        3.5230    -8.1170    -1.1010 H     1 <1>   0.1500 
 40 H        3.6240   -10.5020    -0.7320 H     1 <1>   0.1500 
@<TRIPOS>BOND
  1   1   2  1   
  2   2   3  ar  
  3   2   4  ar  
  4   3   5  1   
  5   3   6  ar  
  6   4   7  ar  
  7   4  23  1   
  8   6   8  ar  
  9   6  24  1   
 10   7   8  ar  
 11   7   9  1   
 12   8  25  1   
 13   9  10  1   
 14   9  26  1   
 15   9  27  1   
 16  10  11  1   
 17  10  12  1   
 18  10  28  1   
 19  11  13  1   
 20  11  29  1   
 21  11  30  1   
 22  12  14  1   
 23  12  31  1   
 24  12  32  1   
 25  13  14  1   
 26  13  15  1   
 27  13  33  1   
 28  14  16  1   
 29  14  34  1   
 30  15  35  1   
 31  16  17  1   
 32  16  36  1   
 33  16  37  1   
 34  17  18  ar  
 35  17  19  ar  
 36  18  20  ar  
 37  19  21  ar  
 38  19  38  1   
 39  20  22  ar  
 40  20  39  1   
 41  21  22  ar  
 42  22  40  1   
@<TRIPOS>SUBSTRUCTURE
  1 ****  10 GROUP 4 **** **** 0

# MOE 2024.06 (io_trps.svl 2023.06)
