@<TRIPOS>MOLECULE
NONAME
45 47 1 0 0 
SMALL
USER_CHARGES


@<TRIPOS>ATOM
  1 O       -3.2230    -1.7540    -3.1000 O.co2 1 <1>  -0.9000 
  2 C       -3.4480    -0.6290    -2.6140 C.2   1 <1>   0.9790 
  3 O       -3.2270     0.3870    -3.2920 O.co2 1 <1>  -0.9000 
  4 C       -3.9960    -0.5330    -1.2690 C.ar  1 <1>  -0.1790 
  5 C       -4.0370    -1.6580    -0.4520 C.ar  1 <1>  -0.1500 
  6 C       -4.5210     0.6500    -0.7510 C.ar  1 <1>  -0.1500 
  7 C       -4.6310    -1.6390     0.7980 C.ar  1 <1>  -0.1440 
  8 C       -5.0870     0.6950     0.5100 C.ar  1 <1>  -0.1500 
  9 C       -5.1520    -0.4500     1.2850 C.ar  1 <1>  -0.1500 
 10 C       -4.7340    -2.9260     1.5910 C.3   1 <1>   0.4870 
 11 N       -5.2940    -3.9920     0.7110 N.4   1 <1>  -0.9590 
 12 C       -6.6140    -3.5910     0.1360 C.3   1 <1>   0.3430 
 13 C       -5.3610    -5.3030     1.4090 C.3   1 <1>   0.3430 
 14 C       -7.0890    -4.6560    -0.8480 C.3   1 <1>  -0.1600 
 15 C       -5.8420    -6.3820     0.4450 C.3   1 <1>  -0.1600 
 16 C       -7.2100    -6.0250    -0.1500 C.3   1 <1>   0.2800 
 17 O       -8.0710    -5.8830     0.9550 O.3   1 <1>  -0.5600 
 18 C       -7.7060    -7.1800    -1.0700 C.3   1 <1>   0.2000 
 19 C       -9.4470    -5.7360     0.7160 C.3   1 <1>   0.1200 
 20 O       -6.9820    -7.2350    -2.2530 O.3   1 <1>  -0.6800 
 21 C       -9.1900    -7.0710    -1.4170 C.3   1 <1>  -0.1600 
 22 C       -9.9850    -6.9040    -0.1180 C.3   1 <1>  -0.1600 
 23 H       -3.5940    -2.5580    -0.8450 H     1 <1>   0.1500 
 24 H       -4.4790     1.5380    -1.3630 H     1 <1>   0.1500 
 25 H       -5.4800     1.6260     0.8800 H     1 <1>   0.1500 
 26 H       -5.6100    -0.3970     2.2580 H     1 <1>   0.1500 
 27 H       -5.3740    -2.7770     2.4450 H     1 <1>   0.0800 
 28 H       -3.7530    -3.2070     1.9370 H     1 <1>   0.0800 
 29 H       -4.6490    -4.0670    -0.0880 H     1 <1>   0.4500 
 30 H       -6.5240    -2.6470    -0.3800 H     1 <1>   0.0800 
 31 H       -7.3390    -3.4820     0.9250 H     1 <1>   0.0800 
 32 H       -6.0520    -5.2400     2.2350 H     1 <1>   0.0800 
 33 H       -4.3900    -5.5710     1.7930 H     1 <1>   0.0800 
 34 H       -6.3860    -4.7130    -1.6600 H     1 <1>   0.0800 
 35 H       -8.0290    -4.3580    -1.2730 H     1 <1>   0.0800 
 36 H       -5.9160    -7.3170     0.9720 H     1 <1>   0.0800 
 37 H       -5.1190    -6.5150    -0.3410 H     1 <1>   0.0800 
 38 H       -7.5360    -8.1160    -0.5630 H     1 <1>   0.0800 
 39 H       -9.6200    -4.7970     0.2200 H     1 <1>   0.0800 
 40 H       -9.9420    -5.7090     1.6720 H     1 <1>   0.0800 
 41 H       -7.3400    -6.6070    -2.9100 H     1 <1>   0.4000 
 42 H       -9.5120    -7.9640    -1.9250 H     1 <1>   0.0800 
 43 H       -9.3680    -6.2230    -2.0540 H     1 <1>   0.0800 
 44 H      -11.0230    -6.7330    -0.3460 H     1 <1>   0.0800 
 45 H       -9.9260    -7.8050     0.4680 H     1 <1>   0.0800 
@<TRIPOS>BOND
  1   1   2  ar  
  2   2   3  ar  
  3   2   4  1   
  4   4   5  ar  
  5   4   6  ar  
  6   5   7  ar  
  7   5  23  1   
  8   6   8  ar  
  9   6  24  1   
 10   7   9  ar  
 11   7  10  1   
 12   8   9  ar  
 13   8  25  1   
 14   9  26  1   
 15  10  11  1   
 16  10  27  1   
 17  10  28  1   
 18  11  12  1   
 19  11  13  1   
 20  11  29  1   
 21  12  14  1   
 22  12  30  1   
 23  12  31  1   
 24  13  15  1   
 25  13  32  1   
 26  13  33  1   
 27  14  16  1   
 28  14  34  1   
 29  14  35  1   
 30  15  16  1   
 31  15  36  1   
 32  15  37  1   
 33  16  17  1   
 34  16  18  1   
 35  17  19  1   
 36  18  20  1   
 37  18  21  1   
 38  18  38  1   
 39  19  22  1   
 40  19  39  1   
 41  19  40  1   
 42  20  41  1   
 43  21  22  1   
 44  21  42  1   
 45  21  43  1   
 46  22  44  1   
 47  22  45  1   
@<TRIPOS>SUBSTRUCTURE
  1 ****  12 GROUP 4 **** **** 0

# MOE 2024.06 (io_trps.svl 2023.06)
