@<TRIPOS>MOLECULE
NONAME
49 52 1 0 0 
SMALL
USER_CHARGES


@<TRIPOS>ATOM
  1 O        0.3260     0.1770    -0.2330 O.3   1 <1>  -0.5600 
  2 C        1.5590    -0.4130    -0.5420 C.3   1 <1>   0.3440 
  3 C        0.2760     1.5670    -0.3740 C.3   1 <1>   0.2950 
  4 C        1.4690    -1.9190    -0.3510 C.ar  1 <1>  -0.1440 
  5 C        2.6580     0.1520     0.3890 C.3   1 <1>   0.3430 
  6 C       -1.1470     2.0120    -0.0380 C.3   1 <1>  -0.1950 
  7 C        1.3020     2.2310     0.5720 C.3   1 <1>   0.3430 
  8 C        2.1740    -2.7640    -1.1980 C.ar  1 <1>  -0.1500 
  9 C        0.7060    -2.4720     0.6700 C.ar  1 <1>  -0.1500 
 10 N        2.6940     1.6610     0.4200 N.4   1 <1>  -0.9590 
 11 C       -2.2380     1.9460    -1.0590 C.3   1 <1>  -0.2000 
 12 C       -1.7140     3.2780    -0.6000 C.3   1 <1>  -0.2000 
 13 C        2.1270    -4.1360    -1.0200 C.ar  1 <1>  -0.1500 
 14 C        0.6590    -3.8430     0.8480 C.ar  1 <1>  -0.1500 
 15 C        3.6130     2.1820     1.4620 C.3   1 <1>   0.5240 
 16 C        1.3710    -4.6760     0.0040 C.ar  1 <1>  -0.1500 
 17 C        3.7490     3.6640     1.2180 C.2   1 <1>  -0.1810 
 18 C        4.4470     4.3380     0.2740 C.2   1 <1>  -0.3320 
 19 C        3.1150     4.6490     1.9660 C.2   1 <1>   0.1390 
 20 N        4.2040     5.6540     0.4820 N.pl3 1 <1>   0.3140 
 21 C        5.3620     3.8210    -0.8290 C.3   1 <1>  -0.0600 
 22 N        3.3710     5.8340     1.5190 N.2   1 <1>  -0.7070 
 23 C        4.7440     6.8030    -0.2610 C.3   1 <1>   0.0160 
 24 H        1.7850    -0.1960    -1.5720 H     1 <1>   0.0800 
 25 H        0.4950     1.8130    -1.4000 H     1 <1>   0.0800 
 26 H        3.6130    -0.2360     0.0750 H     1 <1>   0.0800 
 27 H        2.4650    -0.2260     1.3790 H     1 <1>   0.0800 
 28 H       -1.4230     1.7620     0.9730 H     1 <1>   0.1000 
 29 H        0.9580     2.0870     1.5820 H     1 <1>   0.0800 
 30 H        1.3150     3.2930     0.3820 H     1 <1>   0.0800 
 31 H        2.7650    -2.3710    -2.0070 H     1 <1>   0.1500 
 32 H        0.1360    -1.8410     1.3310 H     1 <1>   0.1500 
 33 H        3.0670     2.0200    -0.4680 H     1 <1>   0.4500 
 34 H       -2.0060     1.6080    -2.0540 H     1 <1>   0.1000 
 35 H       -3.2200     1.6360    -0.7430 H     1 <1>   0.1000 
 36 H       -2.3540     3.8870     0.0170 H     1 <1>   0.1000 
 37 H       -1.1560     3.8650    -1.3090 H     1 <1>   0.1000 
 38 H        2.6740    -4.7870    -1.6800 H     1 <1>   0.1500 
 39 H        0.0640    -4.2650     1.6410 H     1 <1>   0.1500 
 40 H        3.2220     1.9950     2.4490 H     1 <1>   0.0800 
 41 H        4.5820     1.7180     1.3750 H     1 <1>   0.0800 
 42 H        1.3330    -5.7430     0.1420 H     1 <1>   0.1500 
 43 H        2.4780     4.4800     2.8190 H     1 <1>   0.1500 
 44 H        5.4490     2.7510    -0.7930 H     1 <1>   0.0800 
 45 H        6.3480     4.2390    -0.7130 H     1 <1>   0.0800 
 46 H        4.9820     4.1060    -1.7940 H     1 <1>   0.0800 
 47 H        4.4740     6.7160    -1.2960 H     1 <1>   0.0800 
 48 H        5.8120     6.8210    -0.1570 H     1 <1>   0.0800 
 49 H        4.3310     7.7090     0.1420 H     1 <1>   0.0800 
@<TRIPOS>BOND
  1   1   2  1   
  2   1   3  1   
  3   2   4  1   
  4   2   5  1   
  5   2  24  1   
  6   3   6  1   
  7   3   7  1   
  8   3  25  1   
  9   4   8  ar  
 10   4   9  ar  
 11   5  10  1   
 12   5  26  1   
 13   5  27  1   
 14   6  11  1   
 15   6  12  1   
 16   6  28  1   
 17   7  10  1   
 18   7  29  1   
 19   7  30  1   
 20   8  13  ar  
 21   8  31  1   
 22   9  14  ar  
 23   9  32  1   
 24  10  15  1   
 25  10  33  1   
 26  11  12  1   
 27  11  34  1   
 28  11  35  1   
 29  12  36  1   
 30  12  37  1   
 31  13  16  ar  
 32  13  38  1   
 33  14  16  ar  
 34  14  39  1   
 35  15  17  1   
 36  15  40  1   
 37  15  41  1   
 38  16  42  1   
 39  17  18  2   
 40  17  19  1   
 41  18  20  1   
 42  18  21  1   
 43  19  22  2   
 44  19  43  1   
 45  20  22  1   
 46  20  23  1   
 47  21  44  1   
 48  21  45  1   
 49  21  46  1   
 50  23  47  1   
 51  23  48  1   
 52  23  49  1   
@<TRIPOS>SUBSTRUCTURE
  1 ****  10 GROUP 4 **** **** 0

# MOE 2024.06 (io_trps.svl 2023.06)
