@<TRIPOS>MOLECULE
NONAME
54 56 1 0 0 
SMALL
USER_CHARGES


@<TRIPOS>ATOM
  1 O       -1.4400     0.6520    -1.8020 O.2   1 <1>  -0.5700 
  2 C       -2.4120     1.0370    -1.1950 C.2   1 <1>   0.5690 
  3 N       -3.6730     0.5910    -1.5250 N.am  1 <1>  -0.6600 
  4 C       -2.1960     2.0440    -0.0530 C.3   1 <1>  -0.0190 
  5 C       -3.8490    -0.5520    -2.4660 C.3   1 <1>   0.1400 
  6 C       -4.9610     1.1400    -1.0190 C.3   1 <1>   0.1400 
  7 C       -2.2930     3.4960    -0.5610 C.3   1 <1>  -0.1600 
  8 C       -0.8610     1.8350     0.7110 C.3   1 <1>  -0.1600 
  9 C       -4.5950    -1.6790    -1.7480 C.3   1 <1>  -0.1600 
 10 C       -5.7170     0.0400    -0.2720 C.3   1 <1>  -0.1600 
 11 C       -2.2860     4.5190     0.5950 C.3   1 <1>   0.2000 
 12 C       -0.4280     3.0540     1.5530 C.3   1 <1>  -0.1600 
 13 C       -5.9360    -1.1950    -1.1640 C.3   1 <1>   0.1000 
 14 O       -1.6040     5.6720     0.1660 O.3   1 <1>  -0.5600 
 15 C       -1.6060     3.9750     1.8790 C.3   1 <1>   0.2000 
 16 C       -6.6660    -2.2890    -0.3880 C.2   1 <1>   0.2980 
 17 C       -2.3360     6.5260    -0.6570 C.3   1 <1>   0.0400 
 18 O       -1.1300     5.0340     2.6250 O.3   1 <1>  -0.6800 
 19 O       -7.9290    -2.0930    -0.0990 O.3   1 <1>  -0.0190 
 20 N       -6.1780    -3.3910     0.0220 N.2   1 <1>  -0.5650 
 21 N       -8.2720    -3.1600     0.5540 N.2   1 <1>  -0.4100 
 22 C       -7.2440    -3.9110     0.6180 C.2   1 <1>   0.3350 
 23 C       -7.1650    -5.2790     1.3000 C.3   1 <1>   0.1010 
 24 C       -8.5280    -5.9880     1.3580 C.3   1 <1>  -0.2400 
 25 C       -6.5830    -5.1430     2.7140 C.3   1 <1>  -0.2400 
 26 H       -2.9750     1.8830     0.6670 H     1 <1>   0.0800 
 27 H       -4.4070    -0.2210    -3.3250 H     1 <1>   0.0800 
 28 H       -2.8970    -0.9190    -2.8110 H     1 <1>   0.0800 
 29 H       -4.8100     1.9850    -0.3740 H     1 <1>   0.0800 
 30 H       -5.5460     1.4760    -1.8580 H     1 <1>   0.0800 
 31 H       -3.1880     3.6220    -1.1400 H     1 <1>   0.0800 
 32 H       -1.4490     3.6760    -1.2070 H     1 <1>   0.0800 
 33 H       -0.9640     0.9740     1.3470 H     1 <1>   0.0800 
 34 H       -0.0650     1.6210     0.0180 H     1 <1>   0.0800 
 35 H       -4.7710    -2.4860    -2.4370 H     1 <1>   0.0800 
 36 H       -3.9660    -2.0560    -0.9590 H     1 <1>   0.0800 
 37 H       -5.1570    -0.2420     0.6040 H     1 <1>   0.0800 
 38 H       -6.6670     0.4230     0.0560 H     1 <1>   0.0800 
 39 H       -3.2950     4.7930     0.8540 H     1 <1>   0.0800 
 40 H        0.2980     3.6180     0.9920 H     1 <1>   0.0800 
 41 H        0.0380     2.7170     2.4630 H     1 <1>   0.0800 
 42 H       -6.5700    -0.9120    -1.9860 H     1 <1>   0.0800 
 43 H       -2.3180     3.4410     2.4840 H     1 <1>   0.0800 
 44 H       -1.7150     7.3720    -0.8950 H     1 <1>   0.0800 
 45 H       -3.2150     6.8600    -0.1330 H     1 <1>   0.0800 
 46 H       -2.6040     6.0130    -1.5640 H     1 <1>   0.0800 
 47 H       -0.8590     5.7190     1.9720 H     1 <1>   0.4000 
 48 H       -6.4990    -5.8900     0.7160 H     1 <1>   0.0800 
 49 H       -9.2220    -5.4210     1.9530 H     1 <1>   0.0800 
 50 H       -8.4230    -6.9680     1.7870 H     1 <1>   0.0800 
 51 H       -8.9310    -6.0880     0.3660 H     1 <1>   0.0800 
 52 H       -7.2230    -4.5300     3.3230 H     1 <1>   0.0800 
 53 H       -5.6120    -4.6820     2.6660 H     1 <1>   0.0800 
 54 H       -6.4810    -6.1090     3.1740 H     1 <1>   0.0800 
@<TRIPOS>BOND
  1   1   2  2   
  2   2   3  am  
  3   2   4  1   
  4   3   5  1   
  5   3   6  1   
  6   4   7  1   
  7   4   8  1   
  8   4  26  1   
  9   5   9  1   
 10   5  27  1   
 11   5  28  1   
 12   6  10  1   
 13   6  29  1   
 14   6  30  1   
 15   7  11  1   
 16   7  31  1   
 17   7  32  1   
 18   8  12  1   
 19   8  33  1   
 20   8  34  1   
 21   9  13  1   
 22   9  35  1   
 23   9  36  1   
 24  10  13  1   
 25  10  37  1   
 26  10  38  1   
 27  11  14  1   
 28  11  15  1   
 29  11  39  1   
 30  12  15  1   
 31  12  40  1   
 32  12  41  1   
 33  13  16  1   
 34  13  42  1   
 35  14  17  1   
 36  15  18  1   
 37  15  43  1   
 38  16  19  1   
 39  16  20  2   
 40  17  44  1   
 41  17  45  1   
 42  17  46  1   
 43  18  47  1   
 44  19  21  1   
 45  20  22  1   
 46  21  22  2   
 47  22  23  1   
 48  23  24  1   
 49  23  25  1   
 50  23  48  1   
 51  24  49  1   
 52  24  50  1   
 53  24  51  1   
 54  25  52  1   
 55  25  53  1   
 56  25  54  1   
@<TRIPOS>SUBSTRUCTURE
  1 ****  10 GROUP 4 **** **** 0

# MOE 2024.06 (io_trps.svl 2023.06)
