@<TRIPOS>MOLECULE
NONAME
51 53 1 0 0 
SMALL
USER_CHARGES


@<TRIPOS>ATOM
  1 O       -2.1750     0.1280     2.1540 O.2   1 <1>  -0.5700 
  2 C       -2.2690     0.6720     1.0800 C.2   1 <1>   0.5690 
  3 N       -2.3420    -0.0410    -0.0880 N.am  1 <1>  -0.6600 
  4 C       -2.2970     2.1950     1.0790 C.3   1 <1>   0.0440 
  5 C       -2.2370    -1.5410    -0.0630 C.3   1 <1>   0.3640 
  6 C       -2.5100     0.5820    -1.4420 C.3   1 <1>   0.1400 
  7 C       -1.0890     2.8040     0.3750 C.ar  1 <1>  -0.1440 
  8 C       -0.7970    -2.0210    -0.3200 C.ar  1 <1>  -0.1440 
  9 C       -3.2420    -2.2100    -1.0580 C.3   1 <1>   0.2000 
 10 C       -2.6680    -0.4630    -2.5560 C.3   1 <1>   0.1200 
 11 C       -1.2490     3.7760    -0.6020 C.ar  1 <1>   0.1600 
 12 C        0.1890     2.3870     0.6920 C.ar  1 <1>  -0.1500 
 13 C       -0.5160    -3.3670    -0.1140 C.ar  1 <1>  -0.1500 
 14 C        0.2410    -1.1880    -0.7320 C.ar  1 <1>  -0.1500 
 15 O       -3.6070    -1.4120    -2.1640 O.3   1 <1>  -0.5600 
 16 C       -4.5470    -2.5980    -0.3530 C.3   1 <1>   0.1200 
 17 N       -0.2640     4.3350    -1.2850 N.ar  1 <1>  -0.6200 
 18 C        1.2290     2.9660    -0.0030 C.ar  1 <1>  -0.1500 
 19 C        0.7490    -3.8830    -0.3360 C.ar  1 <1>   0.0830 
 20 C        1.5150    -1.6890    -0.9380 C.ar  1 <1>  -0.1500 
 21 O       -4.3280    -3.6660     0.5120 O.3   1 <1>  -0.6800 
 22 C        0.9520     3.9200    -0.9670 C.ar  1 <1>   0.1600 
 23 O        0.9150    -5.2180    -0.1580 O.3   1 <1>  -0.3630 
 24 C        1.7840    -3.0290    -0.7300 C.ar  1 <1>   0.0830 
 25 C        1.2790    -5.9670    -1.2980 C.3   1 <1>   0.0400 
 26 O        3.0600    -3.4480    -0.9100 O.3   1 <1>  -0.3630 
 27 C        3.7420    -3.8730     0.2500 C.3   1 <1>   0.0400 
 28 H       -3.2120     2.5200     0.6200 H     1 <1>   0.0800 
 29 H       -2.3090     2.5390     2.0970 H     1 <1>   0.0800 
 30 H       -2.4860    -1.8890     0.9250 H     1 <1>   0.0800 
 31 H       -3.3850     1.2080    -1.4370 H     1 <1>   0.0800 
 32 H       -1.6580     1.1970    -1.6700 H     1 <1>   0.0800 
 33 H       -2.8040    -3.1030    -1.4640 H     1 <1>   0.0800 
 34 H       -1.7360    -0.9580    -2.7690 H     1 <1>   0.0800 
 35 H       -3.0230     0.0040    -3.4580 H     1 <1>   0.0800 
 36 H       -2.2430     4.1140    -0.8430 H     1 <1>   0.1500 
 37 H        0.3710     1.6380     1.4460 H     1 <1>   0.1500 
 38 H       -1.2850    -4.0390     0.2240 H     1 <1>   0.1500 
 39 H        0.0820    -0.1380    -0.8890 H     1 <1>   0.1500 
 40 H       -5.2930    -2.8950    -1.0690 H     1 <1>   0.0800 
 41 H       -4.9140    -1.7690     0.2290 H     1 <1>   0.0800 
 42 H        2.2450     2.6820     0.2000 H     1 <1>   0.1500 
 43 H        2.3100    -1.0380    -1.2530 H     1 <1>   0.1500 
 44 H       -4.2940    -4.5110     0.0210 H     1 <1>   0.4000 
 45 H        1.7730     4.3650    -1.5040 H     1 <1>   0.1500 
 46 H        1.2260    -7.0100    -1.0450 H     1 <1>   0.0800 
 47 H        2.2810    -5.7120    -1.5890 H     1 <1>   0.0800 
 48 H        0.5910    -5.7440    -2.0940 H     1 <1>   0.0800 
 49 H        4.7580    -4.0960    -0.0190 H     1 <1>   0.0800 
 50 H        3.2650    -4.7530     0.6420 H     1 <1>   0.0800 
 51 H        3.7160    -3.0810     0.9770 H     1 <1>   0.0800 
@<TRIPOS>BOND
  1   1   2  2   
  2   2   3  am  
  3   2   4  1   
  4   3   5  1   
  5   3   6  1   
  6   4   7  1   
  7   4  28  1   
  8   4  29  1   
  9   5   8  1   
 10   5   9  1   
 11   5  30  1   
 12   6  10  1   
 13   6  31  1   
 14   6  32  1   
 15   7  11  ar  
 16   7  12  ar  
 17   8  13  ar  
 18   8  14  ar  
 19   9  15  1   
 20   9  16  1   
 21   9  33  1   
 22  10  15  1   
 23  10  34  1   
 24  10  35  1   
 25  11  17  ar  
 26  11  36  1   
 27  12  18  ar  
 28  12  37  1   
 29  13  19  ar  
 30  13  38  1   
 31  14  20  ar  
 32  14  39  1   
 33  16  21  1   
 34  16  40  1   
 35  16  41  1   
 36  17  22  ar  
 37  18  22  ar  
 38  18  42  1   
 39  19  23  1   
 40  19  24  ar  
 41  20  24  ar  
 42  20  43  1   
 43  21  44  1   
 44  22  45  1   
 45  23  25  1   
 46  24  26  1   
 47  25  46  1   
 48  25  47  1   
 49  25  48  1   
 50  26  27  1   
 51  27  49  1   
 52  27  50  1   
 53  27  51  1   
@<TRIPOS>SUBSTRUCTURE
  1 ****  14 GROUP 4 **** **** 0

# MOE 2024.06 (io_trps.svl 2023.06)
