@<TRIPOS>MOLECULE
NONAME
40 41 1 0 0 
SMALL
USER_CHARGES


@<TRIPOS>ATOM
  1 S        0.2460    -0.2150     0.5120 S.o2  1 <1>   1.3330 
  2 O        0.8320    -1.2050     1.3870 O.2   1 <1>  -0.6500 
  3 O       -0.3910     0.9520     1.0810 O.2   1 <1>  -0.6500 
  4 N       -0.8860    -1.0070    -0.4750 N.am  1 <1>  -0.8490 
  5 C        1.4620     0.3570    -0.6770 C.3   1 <1>  -0.0550 
  6 C       -2.2390    -0.9660     0.0890 C.3   1 <1>   0.1160 
  7 C       -0.5180    -2.3930    -0.7850 C.3   1 <1>   0.1160 
  8 C        2.6010     1.1880    -0.0530 C.3   1 <1>  -0.0800 
  9 C        3.4590     1.8300    -1.1310 C.3   1 <1>   0.2200 
 10 C        3.6260     0.3050     0.6590 C.3   1 <1>   0.1200 
 11 N        4.1550     3.0070    -0.5670 N.am  1 <1>  -0.7300 
 12 C        4.4710     0.7280    -1.4450 C.3   1 <1>   0.1200 
 13 O        4.5230    -0.1100    -0.3260 O.3   1 <1>  -0.5600 
 14 C        4.0370     4.2990    -0.9860 C.2   1 <1>   0.7160 
 15 O        3.2700     4.5520    -1.8960 O.2   1 <1>  -0.5700 
 16 C        4.8290     5.3380    -0.3440 C.2   1 <1>   0.1410 
 17 N        5.7250     5.0110     0.6930 N.2   1 <1>  -0.5650 
 18 C        4.7990     6.6530    -0.6530 C.2   1 <1>  -0.1100 
 19 C        6.3350     6.0330     1.1380 C.2   1 <1>   0.1980 
 20 S        5.9010     7.5320     0.3540 S.3   1 <1>  -0.0800 
 21 C        7.3670     6.1010     2.2400 C.3   1 <1>  -0.0600 
 22 H        1.8760    -0.4850    -1.1970 H     1 <1>   0.0800 
 23 H        0.9510     0.9660    -1.3970 H     1 <1>   0.0800 
 24 H       -2.9330    -1.4630    -0.5670 H     1 <1>   0.0800 
 25 H       -2.5610     0.0560     0.2040 H     1 <1>   0.0800 
 26 H       -2.2570    -1.4450     1.0540 H     1 <1>   0.0800 
 27 H       -1.2190    -2.8130    -1.4860 H     1 <1>   0.0800 
 28 H       -0.5160    -2.9920     0.1110 H     1 <1>   0.0800 
 29 H        0.4640    -2.4280    -1.2250 H     1 <1>   0.0800 
 30 H        2.1810     1.9280     0.6090 H     1 <1>   0.0800 
 31 H        2.8960     2.1140    -2.0040 H     1 <1>   0.0800 
 32 H        3.2030    -0.5620     1.1360 H     1 <1>   0.0800 
 33 H        4.1800     0.8740     1.3850 H     1 <1>   0.0800 
 34 H        4.8350     2.8340     0.1790 H     1 <1>   0.3700 
 35 H        5.4530     1.1170    -1.6470 H     1 <1>   0.0800 
 36 H        4.1370     0.1330    -2.2770 H     1 <1>   0.0800 
 37 H        4.2280     7.1950    -1.3860 H     1 <1>   0.1500 
 38 H        7.5420     5.1180     2.6360 H     1 <1>   0.0800 
 39 H        7.0160     6.7400     3.0290 H     1 <1>   0.0800 
 40 H        8.2890     6.4920     1.8510 H     1 <1>   0.0800 
@<TRIPOS>BOND
  1   1   2  2   
  2   1   3  2   
  3   1   4  am  
  4   1   5  1   
  5   4   6  1   
  6   4   7  1   
  7   5   8  1   
  8   5  22  1   
  9   5  23  1   
 10   6  24  1   
 11   6  25  1   
 12   6  26  1   
 13   7  27  1   
 14   7  28  1   
 15   7  29  1   
 16   8   9  1   
 17   8  10  1   
 18   8  30  1   
 19   9  11  1   
 20   9  12  1   
 21   9  31  1   
 22  10  13  1   
 23  10  32  1   
 24  10  33  1   
 25  11  14  am  
 26  11  34  1   
 27  12  13  1   
 28  12  35  1   
 29  12  36  1   
 30  14  15  2   
 31  14  16  1   
 32  16  17  1   
 33  16  18  2   
 34  17  19  2   
 35  18  20  1   
 36  18  37  1   
 37  19  20  1   
 38  19  21  1   
 39  21  38  1   
 40  21  39  1   
 41  21  40  1   
@<TRIPOS>SUBSTRUCTURE
  1 ****   8 GROUP 4 **** **** 0

# MOE 2024.06 (io_trps.svl 2023.06)
