@<TRIPOS>MOLECULE
NONAME
53 57 1 0 0 
SMALL
USER_CHARGES


@<TRIPOS>ATOM
  1 N        1.2370     0.8470     1.2680 N.ar  1 <1>  -0.6200 
  2 C        0.5120     1.8660     1.7150 C.ar  1 <1>   0.4760 
  3 C        1.7090     1.0200     0.0560 C.ar  1 <1>   0.1660 
  4 N        0.2400     3.0050     1.0920 N.ar  1 <1>  -0.6200 
  5 C       -0.0730     1.7230     3.0990 C.3   1 <1>  -0.0960 
  6 C        1.4990     2.1440    -0.6820 C.ar  1 <1>  -0.1440 
  7 C        2.5600     0.0130    -0.6800 C.3   1 <1>   0.1430 
  8 C        0.7400     3.1390    -0.1190 C.ar  1 <1>   0.1600 
  9 C        2.1790     2.0640    -2.0250 C.3   1 <1>  -0.0160 
 10 C        3.6560    -0.4810     0.2780 C.3   1 <1>   0.3430 
 11 C        1.6940    -1.1710    -1.1600 C.3   1 <1>  -0.1600 
 12 C        3.1160     0.8490    -1.8650 C.3   1 <1>  -0.1600 
 13 N        4.4760    -1.5920    -0.3210 N.4   1 <1>  -0.9590 
 14 C        2.5510    -2.3380    -1.6840 C.3   1 <1>  -0.1600 
 15 C        3.6240    -2.7630    -0.6770 C.3   1 <1>   0.3430 
 16 C        5.5930    -1.9780     0.5820 C.3   1 <1>   0.4860 
 17 C        6.5330    -0.7940     0.7200 C.ar  1 <1>  -0.1440 
 18 C        7.4080    -0.4670    -0.3060 C.ar  1 <1>  -0.1500 
 19 C        6.5230    -0.0240     1.8740 C.ar  1 <1>  -0.1500 
 20 C        8.2520     0.6220    -0.1820 C.ar  1 <1>  -0.1500 
 21 C        7.3680     1.0650     1.9950 C.ar  1 <1>  -0.1500 
 22 C        8.2420     1.4040     0.9680 C.ar  1 <1>  -0.0230 
 23 N        9.1070     2.5230     1.0920 N.pl3 1 <1>   0.3260 
 24 C        8.8220     3.7660     1.5650 C.2   1 <1>   0.0360 
 25 C       10.4150     2.6080     0.7590 C.2   1 <1>  -0.3020 
 26 N        9.8160     4.5930     1.5560 N.2   1 <1>  -0.5650 
 27 C       10.8250     3.8620     1.0460 C.2   1 <1>   0.0770 
 28 H        0.0220     0.7120     3.4490 H     1 <1>   0.0800 
 29 H       -1.1130     1.9880     3.0790 H     1 <1>   0.0800 
 30 H        0.4430     2.3800     3.7730 H     1 <1>   0.0800 
 31 H        0.5380     4.0500    -0.6570 H     1 <1>   0.1500 
 32 H        2.7260     2.9630    -2.2510 H     1 <1>   0.0800 
 33 H        1.4430     1.8830    -2.7910 H     1 <1>   0.0800 
 34 H        3.1830    -0.8280     1.1820 H     1 <1>   0.0800 
 35 H        4.2860     0.3540     0.5370 H     1 <1>   0.0800 
 36 H        1.0070    -0.8430    -1.9220 H     1 <1>   0.0800 
 37 H        1.1010    -1.5240    -0.3310 H     1 <1>   0.0800 
 38 H        3.1830     0.2910    -2.7820 H     1 <1>   0.0800 
 39 H        4.0960     1.2200    -1.6180 H     1 <1>   0.0800 
 40 H        4.9030    -1.2240    -1.1790 H     1 <1>   0.4500 
 41 H        3.0190    -2.0720    -2.6150 H     1 <1>   0.0800 
 42 H        1.9100    -3.1790    -1.8830 H     1 <1>   0.0800 
 43 H        3.1460    -3.1490     0.2100 H     1 <1>   0.0800 
 44 H        4.2280    -3.5480    -1.1060 H     1 <1>   0.0800 
 45 H        6.1340    -2.8140     0.1700 H     1 <1>   0.0800 
 46 H        5.2110    -2.2620     1.5500 H     1 <1>   0.0800 
 47 H        7.4510    -1.0540    -1.2080 H     1 <1>   0.1500 
 48 H        5.8640    -0.2600     2.6930 H     1 <1>   0.1500 
 49 H        8.9260     0.8680    -0.9860 H     1 <1>   0.1500 
 50 H        7.3530     1.6500     2.9000 H     1 <1>   0.1500 
 51 H        7.8360     4.0160     1.9120 H     1 <1>   0.1500 
 52 H       10.9670     1.7840     0.3500 H     1 <1>   0.1500 
 53 H       11.8080     4.2860     0.9140 H     1 <1>   0.1500 
@<TRIPOS>BOND
  1   1   2  ar  
  2   1   3  ar  
  3   2   4  ar  
  4   2   5  1   
  5   3   6  ar  
  6   3   7  1   
  7   4   8  ar  
  8   5  28  1   
  9   5  29  1   
 10   5  30  1   
 11   6   8  ar  
 12   6   9  1   
 13   7  10  1   
 14   7  11  1   
 15   7  12  1   
 16   8  31  1   
 17   9  12  1   
 18   9  32  1   
 19   9  33  1   
 20  10  13  1   
 21  10  34  1   
 22  10  35  1   
 23  11  14  1   
 24  11  36  1   
 25  11  37  1   
 26  12  38  1   
 27  12  39  1   
 28  13  15  1   
 29  13  16  1   
 30  13  40  1   
 31  14  15  1   
 32  14  41  1   
 33  14  42  1   
 34  15  43  1   
 35  15  44  1   
 36  16  17  1   
 37  16  45  1   
 38  16  46  1   
 39  17  18  ar  
 40  17  19  ar  
 41  18  20  ar  
 42  18  47  1   
 43  19  21  ar  
 44  19  48  1   
 45  20  22  ar  
 46  20  49  1   
 47  21  22  ar  
 48  21  50  1   
 49  22  23  1   
 50  23  24  1   
 51  23  25  1   
 52  24  26  2   
 53  24  51  1   
 54  25  27  2   
 55  25  52  1   
 56  26  27  1   
 57  27  53  1   
@<TRIPOS>SUBSTRUCTURE
  1 ****  10 GROUP 4 **** **** 0

# MOE 2024.06 (io_trps.svl 2023.06)
