@<TRIPOS>MOLECULE
NONAME
44 46 1 0 0 
SMALL
USER_CHARGES


@<TRIPOS>ATOM
  1 O       -0.5880    -0.0790     0.7940 O.2   1 <1>  -0.5700 
  2 C       -1.4190     0.7220     0.4090 C.2   1 <1>   0.5440 
  3 N       -2.5400     0.2560    -0.2550 N.am  1 <1>  -0.6600 
  4 C       -1.2120     2.1320     0.6820 C.ar  1 <1>   0.0860 
  5 C       -3.7680     1.0940    -0.4110 C.3   1 <1>   0.2200 
  6 C       -2.6030    -1.1760    -0.6810 C.3   1 <1>   0.0600 
  7 C       -1.2250     3.0830    -0.3360 C.ar  1 <1>  -0.1500 
  8 C       -1.0000     2.5850     1.9830 C.ar  1 <1>  -0.1500 
  9 C       -5.0430     0.4500     0.1280 C.3   1 <1>  -0.1600 
 10 C       -4.0980     1.4190    -1.8650 C.3   1 <1>  -0.1600 
 11 C       -1.0710     4.4320    -0.0750 C.ar  1 <1>   0.0830 
 12 C       -0.8350     3.9300     2.2600 C.ar  1 <1>  -0.1500 
 13 C       -6.1740     1.2320    -0.5530 C.3   1 <1>  -0.0800 
 14 C       -5.5730     1.8390    -1.8340 C.3   1 <1>  -0.0800 
 15 O       -1.1280     5.2680    -1.1400 O.3   1 <1>  -0.3630 
 16 C       -0.8740     4.8590     1.2350 C.ar  1 <1>  -0.1500 
 17 C       -6.6890     2.4120     0.2850 C.3   1 <1>  -0.1600 
 18 C       -5.7660     3.3590    -1.7280 C.3   1 <1>  -0.1600 
 19 C       -0.9190     6.6560    -0.9970 C.3   1 <1>   0.0400 
 20 C       -6.8880     3.5370    -0.7180 C.3   1 <1>   0.2000 
 21 O       -6.7730     4.7570    -0.0910 O.3   1 <1>  -0.6800 
 22 H       -3.6470     2.0250     0.1150 H     1 <1>   0.0800 
 23 H       -3.2150    -1.2910    -1.5560 H     1 <1>   0.0800 
 24 H       -3.0090    -1.7700     0.1190 H     1 <1>   0.0800 
 25 H       -1.6150    -1.5380    -0.9080 H     1 <1>   0.0800 
 26 H       -1.3560     2.7620    -1.3530 H     1 <1>   0.1500 
 27 H       -0.9650     1.8620     2.7810 H     1 <1>   0.1500 
 28 H       -5.1130    -0.5760    -0.1820 H     1 <1>   0.0800 
 29 H       -5.0930     0.5000     1.2010 H     1 <1>   0.0800 
 30 H       -3.4620     2.1890    -2.2610 H     1 <1>   0.0800 
 31 H       -4.0030     0.5390    -2.4740 H     1 <1>   0.0800 
 32 H       -0.6730     4.2530     3.2740 H     1 <1>   0.1500 
 33 H       -6.9940     0.5780    -0.8000 H     1 <1>   0.0800 
 34 H       -6.0920     1.4660    -2.7020 H     1 <1>   0.0800 
 35 H       -0.7480     5.8980     1.4730 H     1 <1>   0.1500 
 36 H       -5.9510     2.7010     1.0130 H     1 <1>   0.0800 
 37 H       -7.6100     2.1670     0.7830 H     1 <1>   0.0800 
 38 H       -6.0280     3.7890    -2.6790 H     1 <1>   0.0800 
 39 H       -4.8680     3.8240    -1.3590 H     1 <1>   0.0800 
 40 H       -0.9850     7.1060    -1.9710 H     1 <1>   0.0800 
 41 H        0.0600     6.8210    -0.5840 H     1 <1>   0.0800 
 42 H       -1.6820     7.0600    -0.3560 H     1 <1>   0.0800 
 43 H       -7.8540     3.4710    -1.1910 H     1 <1>   0.0800 
 44 H       -5.8910     4.8370     0.3170 H     1 <1>   0.4000 
@<TRIPOS>BOND
  1   1   2  2   
  2   2   3  am  
  3   2   4  1   
  4   3   5  1   
  5   3   6  1   
  6   4   7  ar  
  7   4   8  ar  
  8   5   9  1   
  9   5  10  1   
 10   5  22  1   
 11   6  23  1   
 12   6  24  1   
 13   6  25  1   
 14   7  11  ar  
 15   7  26  1   
 16   8  12  ar  
 17   8  27  1   
 18   9  13  1   
 19   9  28  1   
 20   9  29  1   
 21  10  14  1   
 22  10  30  1   
 23  10  31  1   
 24  11  15  1   
 25  11  16  ar  
 26  12  16  ar  
 27  12  32  1   
 28  13  14  1   
 29  13  17  1   
 30  13  33  1   
 31  14  18  1   
 32  14  34  1   
 33  15  19  1   
 34  16  35  1   
 35  17  20  1   
 36  17  36  1   
 37  17  37  1   
 38  18  20  1   
 39  18  38  1   
 40  18  39  1   
 41  19  40  1   
 42  19  41  1   
 43  19  42  1   
 44  20  21  1   
 45  20  43  1   
 46  21  44  1   
@<TRIPOS>SUBSTRUCTURE
  1 ****   5 GROUP 4 **** **** 0

# MOE 2024.06 (io_trps.svl 2023.06)
