@<TRIPOS>MOLECULE
NONAME
46 48 1 0 0 
SMALL
USER_CHARGES


@<TRIPOS>ATOM
  1 CL       3.8940     0.0850    -1.7450 Cl    1 <1>  -0.1770 
  2 C        3.3410    -1.0480    -0.5400 C.ar  1 <1>   0.1770 
  3 C        3.0760    -2.3520    -0.9150 C.ar  1 <1>  -0.1500 
  4 C        3.1770    -0.6150     0.7650 C.ar  1 <1>  -0.1500 
  5 C        2.6280    -3.2770     0.0280 C.ar  1 <1>   0.0860 
  6 C        2.7330    -1.5150     1.7200 C.ar  1 <1>  -0.1500 
  7 C        2.4680    -2.8180     1.3350 C.ar  1 <1>   0.1900 
  8 C        2.3430    -4.6440    -0.3340 C.2   1 <1>   0.5440 
  9 F        2.0330    -3.6440     2.2470 F     1 <1>  -0.1900 
 10 O        3.1930    -5.4980    -0.1750 O.2   1 <1>  -0.5700 
 11 N        1.1200    -5.0280    -0.8450 N.am  1 <1>  -0.6600 
 12 C        0.8920    -6.4400    -1.2500 C.3   1 <1>   0.1400 
 13 C       -0.1370    -4.2780    -0.5780 C.3   1 <1>   0.1400 
 14 C        0.1970    -7.1730    -0.0820 C.3   1 <1>   0.4230 
 15 C       -0.8700    -4.9790     0.5750 C.3   1 <1>  -0.1600 
 16 N        0.1020    -8.6810    -0.2650 N.4   1 <1>  -0.9590 
 17 C       -1.1480    -6.4910     0.3170 C.3   1 <1>   0.0000 
 18 C       -0.9040    -9.3420     0.6280 C.3   1 <1>   0.3430 
 19 C       -0.0750    -9.1520    -1.6780 C.3   1 <1>   0.2630 
 20 C       -1.6770    -7.1330     1.6340 C.3   1 <1>  -0.1600 
 21 C       -2.1920    -6.6580    -0.8250 C.3   1 <1>   0.1200 
 22 C       -1.1110    -8.5400     1.9110 C.3   1 <1>  -0.1600 
 23 O       -3.3280    -5.8990    -0.5970 O.3   1 <1>  -0.6800 
 24 H        3.2200    -2.6540    -1.9370 H     1 <1>   0.1500 
 25 H        3.3960     0.4070     1.0230 H     1 <1>   0.1500 
 26 H        2.5940    -1.2150     2.7440 H     1 <1>   0.1500 
 27 H        0.2920    -6.4510    -2.1410 H     1 <1>   0.0800 
 28 H        1.8310    -6.9160    -1.4740 H     1 <1>   0.0800 
 29 H        0.0730    -3.2560    -0.3100 H     1 <1>   0.0800 
 30 H       -0.7490    -4.2640    -1.4640 H     1 <1>   0.0800 
 31 H        0.8500    -7.0170     0.7620 H     1 <1>   0.0800 
 32 H       -0.2600    -4.8670     1.4550 H     1 <1>   0.0800 
 33 H       -1.7860    -4.4500     0.7740 H     1 <1>   0.0800 
 34 H        1.0240    -9.0250     0.0460 H     1 <1>   0.4500 
 35 H       -1.8510    -9.4180     0.1170 H     1 <1>   0.0800 
 36 H       -0.5780   -10.3410     0.8700 H     1 <1>   0.0800 
 37 H       -1.0040    -8.7870    -2.0850 H     1 <1>   0.0800 
 38 H       -0.0860   -10.2290    -1.7130 H     1 <1>   0.0800 
 39 H        0.7360    -8.8040    -2.2980 H     1 <1>   0.0800 
 40 H       -1.4290    -6.5170     2.4830 H     1 <1>   0.0800 
 41 H       -2.7510    -7.1880     1.6130 H     1 <1>   0.0800 
 42 H       -2.5060    -7.6810    -0.9270 H     1 <1>   0.0800 
 43 H       -1.7980    -6.3280    -1.7690 H     1 <1>   0.0800 
 44 H       -1.7890    -9.0710     2.5560 H     1 <1>   0.0800 
 45 H       -0.1730    -8.4660     2.4350 H     1 <1>   0.0800 
 46 H       -3.8030    -6.1750     0.2120 H     1 <1>   0.4000 
@<TRIPOS>BOND
  1   1   2  1   
  2   2   3  ar  
  3   2   4  ar  
  4   3   5  ar  
  5   3  24  1   
  6   4   6  ar  
  7   4  25  1   
  8   5   7  ar  
  9   5   8  1   
 10   6   7  ar  
 11   6  26  1   
 12   7   9  1   
 13   8  10  2   
 14   8  11  am  
 15  11  12  1   
 16  11  13  1   
 17  12  14  1   
 18  12  27  1   
 19  12  28  1   
 20  13  15  1   
 21  13  29  1   
 22  13  30  1   
 23  14  16  1   
 24  14  17  1   
 25  14  31  1   
 26  15  17  1   
 27  15  32  1   
 28  15  33  1   
 29  16  18  1   
 30  16  19  1   
 31  16  34  1   
 32  17  20  1   
 33  17  21  1   
 34  18  22  1   
 35  18  35  1   
 36  18  36  1   
 37  19  37  1   
 38  19  38  1   
 39  19  39  1   
 40  20  22  1   
 41  20  40  1   
 42  20  41  1   
 43  21  23  1   
 44  21  42  1   
 45  21  43  1   
 46  22  44  1   
 47  22  45  1   
 48  23  46  1   
@<TRIPOS>SUBSTRUCTURE
  1 ****  11 GROUP 4 **** **** 0

# MOE 2024.06 (io_trps.svl 2023.06)
