@<TRIPOS>MOLECULE
NONAME
36 37 1 0 0 
SMALL
USER_CHARGES


@<TRIPOS>ATOM
  1 F        0.2760    -0.8990     0.9360 F     1 <1>  -0.3400 
  2 C       -0.0540    -1.3770    -0.2610 C.3   1 <1>   0.7810 
  3 F       -1.3540    -1.1170    -0.3740 F     1 <1>  -0.3400 
  4 C        0.1940    -2.8910    -0.3170 C.2   1 <1>   0.1080 
  5 N        0.9660    -3.4790    -1.1920 N.2   1 <1>  -0.7070 
  6 C       -0.3700    -3.8080     0.5540 C.2   1 <1>  -0.1500 
  7 N        0.9090    -4.7840    -0.8870 N.pl3 1 <1>   0.3140 
  8 C        0.0930    -5.0310     0.1700 C.2   1 <1>  -0.2370 
  9 C        1.6720    -5.7620    -1.6800 C.3   1 <1>   0.0160 
 10 C       -0.1660    -6.3330     0.7140 C.2   1 <1>   0.7150 
 11 O        0.7090    -7.1830     0.7140 O.2   1 <1>  -0.5700 
 12 N       -1.3980    -6.6670     1.2200 N.am  1 <1>  -0.6600 
 13 C       -1.5550    -7.8750     2.0790 C.3   1 <1>   0.3200 
 14 C       -2.6760    -6.1360     0.6530 C.3   1 <1>   0.1400 
 15 C       -1.8200    -9.0960     1.2160 C.2   1 <1>   0.0060 
 16 C       -2.8650    -6.5870    -0.8010 C.3   1 <1>   0.1200 
 17 N       -2.9520    -9.7200     1.1320 N.2   1 <1>  -0.5650 
 18 N       -0.8540    -9.6200     0.4330 N.pl3 1 <1>   0.0330 
 19 O       -4.1360    -6.2320    -1.2260 O.3   1 <1>  -0.6800 
 20 C       -2.7070   -10.7100     0.2510 C.2   1 <1>   0.0770 
 21 C       -1.4300   -10.6630    -0.1890 C.2   1 <1>  -0.3020 
 22 H        0.4750    -0.8220    -1.0130 H     1 <1>   0.0800 
 23 H       -1.0330    -3.5710     1.3680 H     1 <1>   0.1500 
 24 H        2.1150    -5.2670    -2.5240 H     1 <1>   0.0800 
 25 H        1.0120    -6.5360    -2.0230 H     1 <1>   0.0800 
 26 H        2.4450    -6.1860    -1.0670 H     1 <1>   0.0800 
 27 H       -2.3740    -7.7330     2.7610 H     1 <1>   0.0800 
 28 H       -0.6640    -8.0320     2.6620 H     1 <1>   0.0800 
 29 H       -2.6810    -5.0630     0.6950 H     1 <1>   0.0800 
 30 H       -3.5020    -6.4980     1.2410 H     1 <1>   0.0800 
 31 H       -2.7700    -7.6550    -0.8980 H     1 <1>   0.0800 
 32 H       -2.1560    -6.0960    -1.4440 H     1 <1>   0.0800 
 33 H        0.1000    -9.2440     0.3410 H     1 <1>   0.2700 
 34 H       -4.8040    -6.8330    -0.8400 H     1 <1>   0.4000 
 35 H       -3.4740   -11.4150    -0.0250 H     1 <1>   0.1500 
 36 H       -0.9160   -11.2960    -0.8890 H     1 <1>   0.1500 
@<TRIPOS>BOND
  1   1   2  1   
  2   2   3  1   
  3   2   4  1   
  4   2  22  1   
  5   4   5  2   
  6   4   6  1   
  7   5   7  1   
  8   6   8  2   
  9   6  23  1   
 10   7   8  1   
 11   7   9  1   
 12   8  10  1   
 13   9  24  1   
 14   9  25  1   
 15   9  26  1   
 16  10  11  2   
 17  10  12  am  
 18  12  13  1   
 19  12  14  1   
 20  13  15  1   
 21  13  27  1   
 22  13  28  1   
 23  14  16  1   
 24  14  29  1   
 25  14  30  1   
 26  15  17  2   
 27  15  18  1   
 28  16  19  1   
 29  16  31  1   
 30  16  32  1   
 31  17  20  1   
 32  18  21  1   
 33  18  33  1   
 34  19  34  1   
 35  20  21  2   
 36  20  35  1   
 37  21  36  1   
@<TRIPOS>SUBSTRUCTURE
  1 ****  10 GROUP 4 **** **** 0

# MOE 2024.06 (io_trps.svl 2023.06)
