@<TRIPOS>MOLECULE
NONAME
52 55 1 0 0 
SMALL
USER_CHARGES


@<TRIPOS>ATOM
  1 S       -0.4830    -0.4610     1.4370 S.o2  1 <1>   1.5760 
  2 O        0.7300    -0.5510     2.2180 O.2   1 <1>  -0.6500 
  3 O       -1.7670    -0.3330     2.0890 O.2   1 <1>  -0.6500 
  4 N       -0.5610    -1.7710     0.3740 N.am  1 <1>  -0.8490 
  5 N       -0.2960     0.8050     0.3360 N.am  1 <1>  -0.8490 
  6 C       -1.7970    -1.7110    -0.4320 C.3   1 <1>   0.1960 
  7 C       -0.4360    -3.0380     1.0980 C.3   1 <1>   0.1960 
  8 C        1.0260     0.7740    -0.2960 C.3   1 <1>   0.1960 
  9 C       -0.5410     2.0950     0.9810 C.3   1 <1>   0.1960 
 10 C       -1.8670    -2.7620    -1.5510 C.3   1 <1>   0.2090 
 11 C        0.0430    -4.1480     0.1580 C.3   1 <1>  -0.1600 
 12 C        1.1130     1.8430    -1.3890 C.3   1 <1>  -0.1600 
 13 C       -0.5070     3.2200    -0.0590 C.3   1 <1>  -0.1600 
 14 N       -2.1900    -4.1220    -1.0220 N.pl3 1 <1>  -0.8210 
 15 C       -1.0900    -4.9620    -0.4740 C.3   1 <1>   0.2090 
 16 C        0.8210     3.2390    -0.8250 C.3   1 <1>  -0.1600 
 17 C       -3.5240    -4.4580    -0.7860 C.2   1 <1>   0.5990 
 18 N       -4.5160    -3.6610    -0.9430 N.2   1 <1>  -0.4100 
 19 N       -3.8630    -5.6840    -0.3720 N.2   1 <1>  -0.5650 
 20 O       -5.5320    -4.3860    -0.6230 O.3   1 <1>  -0.0190 
 21 C       -5.1410    -5.5850    -0.2860 C.2   1 <1>   0.4250 
 22 C       -6.0950    -6.5970     0.1140 C.ar  1 <1>   0.0530 
 23 C       -7.4640    -6.3290     0.1990 C.ar  1 <1>  -0.1500 
 24 C       -5.6770    -7.8900     0.4330 C.ar  1 <1>  -0.1500 
 25 C       -8.3680    -7.3020     0.5840 C.ar  1 <1>  -0.1500 
 26 C       -6.5760    -8.8680     0.8180 C.ar  1 <1>  -0.1500 
 27 C       -7.9250    -8.5750     0.8950 C.ar  1 <1>  -0.1500 
 28 H       -1.8550    -0.7460    -0.9050 H     1 <1>   0.0800 
 29 H       -2.6640    -1.8080     0.2000 H     1 <1>   0.0800 
 30 H       -1.3670    -3.2990     1.5770 H     1 <1>   0.0800 
 31 H        0.3090    -2.9320     1.8690 H     1 <1>   0.0800 
 32 H        1.1960    -0.1940    -0.7380 H     1 <1>   0.0800 
 33 H        1.7930     0.9420     0.4430 H     1 <1>   0.0800 
 34 H        0.2020     2.2700     1.7430 H     1 <1>   0.0800 
 35 H       -1.5110     2.0870     1.4510 H     1 <1>   0.0800 
 36 H       -0.9380    -2.7820    -2.0930 H     1 <1>   0.0800 
 37 H       -2.6340    -2.4700    -2.2470 H     1 <1>   0.0800 
 38 H        0.6400    -4.8350     0.7300 H     1 <1>   0.0800 
 39 H        0.6840    -3.7400    -0.6020 H     1 <1>   0.0800 
 40 H        0.4020     1.6050    -2.1620 H     1 <1>   0.0800 
 41 H        2.0950     1.8270    -1.8270 H     1 <1>   0.0800 
 42 H       -0.6560     4.1640     0.4330 H     1 <1>   0.0800 
 43 H       -1.3220     3.0760    -0.7470 H     1 <1>   0.0800 
 44 H       -1.4830    -5.6230     0.2800 H     1 <1>   0.0800 
 45 H       -0.6950    -5.5750    -1.2660 H     1 <1>   0.0800 
 46 H        0.7760     3.9580    -1.6250 H     1 <1>   0.0800 
 47 H        1.6150     3.5270    -0.1570 H     1 <1>   0.0800 
 48 H       -7.8310    -5.3450    -0.0380 H     1 <1>   0.1500 
 49 H       -4.6300    -8.1320     0.3760 H     1 <1>   0.1500 
 50 H       -9.4180    -7.0710     0.6420 H     1 <1>   0.1500 
 51 H       -6.2270    -9.8570     1.0580 H     1 <1>   0.1500 
 52 H       -8.6270    -9.3340     1.1950 H     1 <1>   0.1500 
@<TRIPOS>BOND
  1   1   2  2   
  2   1   3  2   
  3   1   4  am  
  4   1   5  am  
  5   4   6  1   
  6   4   7  1   
  7   5   8  1   
  8   5   9  1   
  9   6  10  1   
 10   6  28  1   
 11   6  29  1   
 12   7  11  1   
 13   7  30  1   
 14   7  31  1   
 15   8  12  1   
 16   8  32  1   
 17   8  33  1   
 18   9  13  1   
 19   9  34  1   
 20   9  35  1   
 21  10  14  1   
 22  10  36  1   
 23  10  37  1   
 24  11  15  1   
 25  11  38  1   
 26  11  39  1   
 27  12  16  1   
 28  12  40  1   
 29  12  41  1   
 30  13  16  1   
 31  13  42  1   
 32  13  43  1   
 33  14  15  1   
 34  14  17  1   
 35  15  44  1   
 36  15  45  1   
 37  16  46  1   
 38  16  47  1   
 39  17  18  2   
 40  17  19  1   
 41  18  20  1   
 42  19  21  2   
 43  20  21  1   
 44  21  22  1   
 45  22  23  ar  
 46  22  24  ar  
 47  23  25  ar  
 48  23  48  1   
 49  24  26  ar  
 50  24  49  1   
 51  25  27  ar  
 52  25  50  1   
 53  26  27  ar  
 54  26  51  1   
 55  27  52  1   
@<TRIPOS>SUBSTRUCTURE
  1 ****  14 GROUP 4 **** **** 0

# MOE 2024.06 (io_trps.svl 2023.06)
