@<TRIPOS>MOLECULE
NONAME
59 61 1 0 0 
SMALL
USER_CHARGES


@<TRIPOS>ATOM
  1 O       -0.5660     1.0020     1.2160 O.2   1 <1>  -0.5700 
  2 C       -0.4940     2.1570     0.8690 C.2   1 <1>   0.5690 
  3 N       -1.5630     3.0220     0.8880 N.am  1 <1>  -0.6600 
  4 C        0.8720     2.6410     0.3740 C.3   1 <1>   0.1810 
  5 C       -1.3910     4.4500     0.4550 C.3   1 <1>   0.3640 
  6 C       -2.8690     2.7180     1.5430 C.3   1 <1>   0.2200 
  7 O        1.0230     4.0390     0.4210 O.3   1 <1>  -0.5600 
  8 C       -2.5000     4.8530    -0.5190 C.ar  1 <1>  -0.1440 
  9 C       -0.0240     4.7370    -0.2150 C.3   1 <1>   0.2610 
 10 C       -2.6690     2.4560     3.0360 C.3   1 <1>  -0.2400 
 11 C       -3.5820     1.5570     0.8500 C.3   1 <1>  -0.2400 
 12 C       -2.7990     4.0710    -1.6270 C.ar  1 <1>  -0.1500 
 13 C       -3.2160     6.0230    -0.3080 C.ar  1 <1>  -0.1500 
 14 C        0.2890     6.2430    -0.2540 C.2   1 <1>   0.5690 
 15 C       -3.7960     4.4520    -2.5080 C.ar  1 <1>  -0.1500 
 16 C       -4.2140     6.4050    -1.1880 C.ar  1 <1>  -0.1500 
 17 O       -0.2110     6.9770     0.5730 O.2   1 <1>  -0.5700 
 18 N        1.1440     6.7720    -1.1990 N.am  1 <1>  -0.6600 
 19 C       -4.5030     5.6200    -2.2890 C.ar  1 <1>  -0.1500 
 20 C        1.3410     8.2470    -1.2910 C.3   1 <1>   0.1400 
 21 C        1.9160     5.9550    -2.1830 C.3   1 <1>   0.0600 
 22 C        2.2310     8.7410    -0.1330 C.3   1 <1>   0.3430 
 23 N        1.6940     9.9680     0.5410 N.4   1 <1>  -0.9590 
 24 C        2.6510    10.5570     1.5070 C.3   1 <1>   0.3430 
 25 C        0.4640     9.6950     1.3300 C.3   1 <1>   0.3430 
 26 C        1.7870    11.4260     2.4120 C.3   1 <1>  -0.1600 
 27 C        0.3670    10.8670     2.2950 C.3   1 <1>  -0.1600 
 28 H        1.0190     2.3130    -0.6390 H     1 <1>   0.0800 
 29 H        1.6400     2.2100     0.9900 H     1 <1>   0.0800 
 30 H       -1.4690     5.0540     1.3420 H     1 <1>   0.0800 
 31 H       -3.5120     3.5790     1.4580 H     1 <1>   0.0800 
 32 H       -0.0730     4.3860    -1.2290 H     1 <1>   0.0800 
 33 H       -2.1080     1.5530     3.1970 H     1 <1>   0.0800 
 34 H       -3.6240     2.3450     3.5160 H     1 <1>   0.0800 
 35 H       -2.1530     3.2800     3.4930 H     1 <1>   0.0800 
 36 H       -3.0420     0.6370     0.9750 H     1 <1>   0.0800 
 37 H       -3.6960     1.7620    -0.1980 H     1 <1>   0.0800 
 38 H       -4.5600     1.4280     1.2750 H     1 <1>   0.0800 
 39 H       -2.2630     3.1540    -1.8050 H     1 <1>   0.1500 
 40 H       -3.0020     6.6460     0.5440 H     1 <1>   0.1500 
 41 H       -4.0240     3.8380    -3.3630 H     1 <1>   0.1500 
 42 H       -4.7670     7.3120    -1.0160 H     1 <1>   0.1500 
 43 H       -5.2800     5.9160    -2.9730 H     1 <1>   0.1500 
 44 H        1.7950     8.4980    -2.2340 H     1 <1>   0.0800 
 45 H        0.3750     8.7200    -1.2510 H     1 <1>   0.0800 
 46 H        2.8880     6.3870    -2.3450 H     1 <1>   0.0800 
 47 H        1.3880     5.9220    -3.1220 H     1 <1>   0.0800 
 48 H        2.0590     4.9500    -1.8250 H     1 <1>   0.0800 
 49 H        3.2170     8.9420    -0.5200 H     1 <1>   0.0800 
 50 H        2.3130     7.9500     0.5950 H     1 <1>   0.0800 
 51 H        1.4660    10.6890    -0.1550 H     1 <1>   0.4500 
 52 H        3.1060     9.7740     2.0930 H     1 <1>   0.0800 
 53 H        3.4190    11.1310     1.0140 H     1 <1>   0.0800 
 54 H       -0.4090     9.6080     0.7030 H     1 <1>   0.0800 
 55 H        0.5860     8.7790     1.8870 H     1 <1>   0.0800 
 56 H        2.1500    11.3890     3.4250 H     1 <1>   0.0800 
 57 H        1.8180    12.4490     2.0760 H     1 <1>   0.0800 
 58 H       -0.3020    11.6110     1.8980 H     1 <1>   0.0800 
 59 H       -0.0150    10.5360     3.2460 H     1 <1>   0.0800 
@<TRIPOS>BOND
  1   1   2  2   
  2   2   3  am  
  3   2   4  1   
  4   3   5  1   
  5   3   6  1   
  6   4   7  1   
  7   4  28  1   
  8   4  29  1   
  9   5   8  1   
 10   5   9  1   
 11   5  30  1   
 12   6  10  1   
 13   6  11  1   
 14   6  31  1   
 15   7   9  1   
 16   8  12  ar  
 17   8  13  ar  
 18   9  14  1   
 19   9  32  1   
 20  10  33  1   
 21  10  34  1   
 22  10  35  1   
 23  11  36  1   
 24  11  37  1   
 25  11  38  1   
 26  12  15  ar  
 27  12  39  1   
 28  13  16  ar  
 29  13  40  1   
 30  14  17  2   
 31  14  18  am  
 32  15  19  ar  
 33  15  41  1   
 34  16  19  ar  
 35  16  42  1   
 36  18  20  1   
 37  18  21  1   
 38  19  43  1   
 39  20  22  1   
 40  20  44  1   
 41  20  45  1   
 42  21  46  1   
 43  21  47  1   
 44  21  48  1   
 45  22  23  1   
 46  22  49  1   
 47  22  50  1   
 48  23  24  1   
 49  23  25  1   
 50  23  51  1   
 51  24  26  1   
 52  24  52  1   
 53  24  53  1   
 54  25  27  1   
 55  25  54  1   
 56  25  55  1   
 57  26  27  1   
 58  26  56  1   
 59  26  57  1   
 60  27  58  1   
 61  27  59  1   
@<TRIPOS>SUBSTRUCTURE
  1 ****  14 GROUP 4 **** **** 0

# MOE 2024.06 (io_trps.svl 2023.06)
