@<TRIPOS>MOLECULE
NONAME
56 59 1 0 0 
SMALL
USER_CHARGES


@<TRIPOS>ATOM
  1 O       -0.9780     0.1570    -0.2260 O.2   1 <1>  -0.5700 
  2 C       -1.7730     0.9340    -0.7220 C.2   1 <1>   0.5440 
  3 N       -2.9690     0.4160    -1.1720 N.am  1 <1>  -0.6600 
  4 C       -1.4780     2.3540    -0.7810 C.ar  1 <1>   0.0860 
  5 C       -3.0870    -1.0520    -1.3740 C.3   1 <1>   0.1400 
  6 C       -4.2570     1.0700    -0.8150 C.3   1 <1>   0.1400 
  7 C       -0.7870     2.9910     0.2300 C.ar  1 <1>  -0.1500 
  8 C       -1.8920     3.1370    -1.8770 C.ar  1 <1>  -0.1500 
  9 C       -3.5480    -1.6920    -0.0460 C.3   1 <1>   0.4230 
 10 C       -4.7520     0.4570     0.5030 C.3   1 <1>  -0.1600 
 11 C       -0.5160     4.3640     0.2110 C.ar  1 <1>   0.3100 
 12 C       -1.6390     4.4820    -1.9280 C.ar  1 <1>  -0.1500 
 13 N       -3.5010    -3.2130    -0.0420 N.4   1 <1>  -0.9590 
 14 C       -4.9000    -1.0940     0.4530 C.3   1 <1>   0.0000 
 15 N        0.1520     4.9220     1.2510 N.ar  1 <1>  -0.6200 
 16 C       -0.9550     5.1330    -0.8920 C.ar  1 <1>   0.3100 
 17 C       -4.3090    -3.8470     1.0500 C.3   1 <1>   0.3430 
 18 C       -3.8010    -3.8750    -1.3540 C.3   1 <1>   0.2630 
 19 C       -5.1930    -1.6130     1.8920 C.3   1 <1>  -0.1600 
 20 C       -6.0520    -1.4950    -0.5120 C.3   1 <1>   0.1200 
 21 C        0.3500     6.1980     1.1430 C.ar  1 <1>   0.1660 
 22 N       -0.7360     6.4670    -0.9750 N.ar  1 <1>  -0.6200 
 23 C       -4.4420    -2.9100     2.2490 C.3   1 <1>  -0.1600 
 24 O       -7.2170    -0.8010    -0.2340 O.3   1 <1>  -0.6800 
 25 C       -0.0930     6.9690     0.0330 C.ar  1 <1>   0.1670 
 26 C        1.0990     6.8550     2.2910 C.3   1 <1>  -0.0970 
 27 C        0.1740     8.4640    -0.0250 C.3   1 <1>  -0.0970 
 28 H       -3.7800    -1.2380    -2.1730 H     1 <1>   0.0800 
 29 H       -2.1270    -1.4490    -1.6570 H     1 <1>   0.0800 
 30 H       -4.1260     2.1310    -0.6890 H     1 <1>   0.0800 
 31 H       -4.9770     0.9180    -1.6020 H     1 <1>   0.0800 
 32 H       -0.4350     2.4310     1.0780 H     1 <1>   0.1500 
 33 H       -2.4140     2.6550    -2.6870 H     1 <1>   0.1500 
 34 H       -2.8160    -1.3710     0.6780 H     1 <1>   0.0800 
 35 H       -4.0440     0.7310     1.2670 H     1 <1>   0.0800 
 36 H       -5.6840     0.9220     0.7720 H     1 <1>   0.0800 
 37 H       -1.9570     5.0780    -2.7640 H     1 <1>   0.1500 
 38 H       -2.5150    -3.4260     0.1780 H     1 <1>   0.4500 
 39 H       -5.2970    -4.0770     0.6860 H     1 <1>   0.0800 
 40 H       -3.8460    -4.7720     1.3580 H     1 <1>   0.0800 
 41 H       -4.8070    -3.6520    -1.6690 H     1 <1>   0.0800 
 42 H       -3.7010    -4.9450    -1.2630 H     1 <1>   0.0800 
 43 H       -3.1160    -3.5370    -2.1150 H     1 <1>   0.0800 
 44 H       -4.9190    -0.8730     2.6260 H     1 <1>   0.0800 
 45 H       -6.2490    -1.7760     2.0170 H     1 <1>   0.0800 
 46 H       -6.2780    -2.5440    -0.4440 H     1 <1>   0.0800 
 47 H       -5.8070    -1.2670    -1.5330 H     1 <1>   0.0800 
 48 H       -4.9710    -3.4170     3.0390 H     1 <1>   0.0800 
 49 H       -3.4600    -2.6790     2.6270 H     1 <1>   0.0800 
 50 H       -7.5790    -1.0210     0.6470 H     1 <1>   0.4000 
 51 H        2.0060     7.3040     1.9320 H     1 <1>   0.0800 
 52 H        1.3570     6.1240     3.0360 H     1 <1>   0.0800 
 53 H        0.4840     7.6050     2.7530 H     1 <1>   0.0800 
 54 H       -0.2890     8.9560     0.8100 H     1 <1>   0.0800 
 55 H       -0.2310     8.8820    -0.9300 H     1 <1>   0.0800 
 56 H        1.2320     8.6520    -0.0120 H     1 <1>   0.0800 
@<TRIPOS>BOND
  1   1   2  2   
  2   2   3  am  
  3   2   4  1   
  4   3   5  1   
  5   3   6  1   
  6   4   7  ar  
  7   4   8  ar  
  8   5   9  1   
  9   5  28  1   
 10   5  29  1   
 11   6  10  1   
 12   6  30  1   
 13   6  31  1   
 14   7  11  ar  
 15   7  32  1   
 16   8  12  ar  
 17   8  33  1   
 18   9  13  1   
 19   9  14  1   
 20   9  34  1   
 21  10  14  1   
 22  10  35  1   
 23  10  36  1   
 24  11  15  ar  
 25  11  16  ar  
 26  12  16  ar  
 27  12  37  1   
 28  13  17  1   
 29  13  18  1   
 30  13  38  1   
 31  14  19  1   
 32  14  20  1   
 33  15  21  ar  
 34  16  22  ar  
 35  17  23  1   
 36  17  39  1   
 37  17  40  1   
 38  18  41  1   
 39  18  42  1   
 40  18  43  1   
 41  19  23  1   
 42  19  44  1   
 43  19  45  1   
 44  20  24  1   
 45  20  46  1   
 46  20  47  1   
 47  21  25  ar  
 48  21  26  1   
 49  22  25  ar  
 50  23  48  1   
 51  23  49  1   
 52  24  50  1   
 53  25  27  1   
 54  26  51  1   
 55  26  52  1   
 56  26  53  1   
 57  27  54  1   
 58  27  55  1   
 59  27  56  1   
@<TRIPOS>SUBSTRUCTURE
  1 ****   2 GROUP 4 **** **** 0

# MOE 2024.06 (io_trps.svl 2023.06)
