@<TRIPOS>MOLECULE
NONAME
55 57 1 0 0 
SMALL
USER_CHARGES


@<TRIPOS>ATOM
  1 S        1.4280     4.1630     0.9810 S.o2  1 <1>   1.3330 
  2 O        1.9640     5.1960     0.1220 O.2   1 <1>  -0.6500 
  3 O        2.1460     3.9180     2.2080 O.2   1 <1>  -0.6500 
  4 N        1.4820     2.7190     0.0930 N.am  1 <1>  -0.8490 
  5 C       -0.3030     4.4070     1.3200 C.3   1 <1>  -0.1350 
  6 C        2.5000     1.7320     0.5080 C.3   1 <1>   0.1960 
  7 C        1.1610     2.7320    -1.3420 C.3   1 <1>   0.1960 
  8 C        3.9480     2.2690     0.4240 C.3   1 <1>   0.3430 
  9 C        2.2620     3.3020    -2.2570 C.3   1 <1>  -0.1600 
 10 N        4.1220     3.2930    -0.6580 N.4   1 <1>  -0.9590 
 11 C        3.6910     2.8200    -1.9960 C.3   1 <1>   0.3430 
 12 C        5.4590     3.9250    -0.6450 C.3   1 <1>   0.5230 
 13 C        5.2350     5.3960    -0.9160 C.2   1 <1>  -0.1400 
 14 S        5.1000     5.9010    -2.5910 S.3   1 <1>  -0.0800 
 15 C        5.0910     6.4500    -0.0900 C.2   1 <1>  -0.1500 
 16 C        4.8270     7.5650    -2.1140 C.2   1 <1>  -0.1100 
 17 C        4.8430     7.6880    -0.7720 C.2   1 <1>  -0.1810 
 18 C        4.6100     8.9840    -0.0180 C.3   1 <1>   0.5240 
 19 N        3.3870     8.8510     0.8200 N.4   1 <1>  -0.9590 
 20 C        2.1820     8.5220    -0.0030 C.3   1 <1>   0.3430 
 21 C        3.1830    10.0630     1.6640 C.3   1 <1>   0.3430 
 22 C        0.9780     8.2900     0.9130 C.3   1 <1>  -0.1600 
 23 C        1.9970     9.8480     2.6060 C.3   1 <1>  -0.1600 
 24 C        0.7210     9.4870     1.8360 C.3   1 <1>  -0.1600 
 25 H       -0.4450     5.2890     1.9120 H     1 <1>   0.0800 
 26 H       -0.6940     3.5680     1.8620 H     1 <1>   0.0800 
 27 H       -0.8550     4.5120     0.4070 H     1 <1>   0.0800 
 28 H        2.4130     0.8480    -0.1000 H     1 <1>   0.0800 
 29 H        2.3060     1.4270     1.5230 H     1 <1>   0.0800 
 30 H        0.2550     3.2960    -1.4960 H     1 <1>   0.0800 
 31 H        0.9490     1.7210    -1.6490 H     1 <1>   0.0800 
 32 H        4.6250     1.4440     0.2780 H     1 <1>   0.0800 
 33 H        4.1840     2.7200     1.3750 H     1 <1>   0.0800 
 34 H        2.2390     4.3760    -2.2360 H     1 <1>   0.0800 
 35 H        2.0080     3.0290    -3.2660 H     1 <1>   0.0800 
 36 H        3.4670     4.0660    -0.4300 H     1 <1>   0.4500 
 37 H        4.3360     3.2320    -2.7560 H     1 <1>   0.0800 
 38 H        3.7430     1.7450    -2.0550 H     1 <1>   0.0800 
 39 H        6.1100     3.4880    -1.3850 H     1 <1>   0.0800 
 40 H        5.9100     3.8160     0.3280 H     1 <1>   0.0800 
 41 H        5.1400     6.4000     0.9850 H     1 <1>   0.1500 
 42 H        4.6790     8.2770    -2.9090 H     1 <1>   0.1500 
 43 H        4.4890     9.7940    -0.7190 H     1 <1>   0.0800 
 44 H        5.4650     9.1950     0.6040 H     1 <1>   0.0800 
 45 H        3.5300     8.0490     1.4430 H     1 <1>   0.4500 
 46 H        2.3590     7.6290    -0.5830 H     1 <1>   0.0800 
 47 H        1.9680     9.3320    -0.6810 H     1 <1>   0.0800 
 48 H        2.9860    10.9170     1.0340 H     1 <1>   0.0800 
 49 H        4.0680    10.2660     2.2460 H     1 <1>   0.0800 
 50 H        1.1490     7.4080     1.5040 H     1 <1>   0.0800 
 51 H        0.1070     8.1100     0.3080 H     1 <1>   0.0800 
 52 H        1.8280    10.7490     3.1700 H     1 <1>   0.0800 
 53 H        2.2340     9.0690     3.3100 H     1 <1>   0.0800 
 54 H       -0.0710     9.2540     2.5290 H     1 <1>   0.0800 
 55 H        0.4020    10.3330     1.2490 H     1 <1>   0.0800 
@<TRIPOS>BOND
  1   1   2  2   
  2   1   3  2   
  3   1   4  am  
  4   1   5  1   
  5   4   6  1   
  6   4   7  1   
  7   5  25  1   
  8   5  26  1   
  9   5  27  1   
 10   6   8  1   
 11   6  28  1   
 12   6  29  1   
 13   7   9  1   
 14   7  30  1   
 15   7  31  1   
 16   8  10  1   
 17   8  32  1   
 18   8  33  1   
 19   9  11  1   
 20   9  34  1   
 21   9  35  1   
 22  10  11  1   
 23  10  12  1   
 24  10  36  1   
 25  11  37  1   
 26  11  38  1   
 27  12  13  1   
 28  12  39  1   
 29  12  40  1   
 30  13  14  1   
 31  13  15  2   
 32  14  16  1   
 33  15  17  1   
 34  15  41  1   
 35  16  17  2   
 36  16  42  1   
 37  17  18  1   
 38  18  19  1   
 39  18  43  1   
 40  18  44  1   
 41  19  20  1   
 42  19  21  1   
 43  19  45  1   
 44  20  22  1   
 45  20  46  1   
 46  20  47  1   
 47  21  23  1   
 48  21  48  1   
 49  21  49  1   
 50  22  24  1   
 51  22  50  1   
 52  22  51  1   
 53  23  24  1   
 54  23  52  1   
 55  23  53  1   
 56  24  54  1   
 57  24  55  1   
@<TRIPOS>SUBSTRUCTURE
  1 ****   2 GROUP 4 **** **** 0

# MOE 2024.06 (io_trps.svl 2023.06)
