@<TRIPOS>MOLECULE
NONAME
51 54 1 0 0 
SMALL
USER_CHARGES


@<TRIPOS>ATOM
  1 O       -1.3840    -0.3190     2.5040 O.2   1 <1>  -0.5700 
  2 C       -1.8120     0.6740     1.9360 C.2   1 <1>   0.5650 
  3 N       -2.3290     0.6610     0.6120 N.pl3 1 <1>   0.5610 
  4 C       -1.7840     1.9350     2.6030 C.2   1 <1>  -0.1360 
  5 N       -2.4770    -0.3690    -0.2830 N.2   1 <1>  -0.7070 
  6 C       -2.7700     1.8310     0.0390 C.2   1 <1>  -0.0680 
  7 C       -2.2180     3.0880     2.0250 C.2   1 <1>  -0.0380 
  8 C       -2.9930     0.1650    -1.3420 C.2   1 <1>   0.1080 
  9 N       -2.7260     3.0510     0.7390 N.pl3 1 <1>  -0.5840 
 10 C       -3.2010     1.5330    -1.2070 C.2   1 <1>  -0.1500 
 11 C       -2.1400     4.4340     2.7410 C.3   1 <1>   0.4810 
 12 C       -3.3180    -0.6500    -2.5730 C.3   1 <1>  -0.0590 
 13 N       -1.1230     5.2760     2.0470 N.4   1 <1>  -0.9590 
 14 C        0.2580     4.7450     2.2430 C.3   1 <1>   0.3430 
 15 C       -1.2320     6.7120     2.4260 C.3   1 <1>   0.3430 
 16 C        1.2230     5.5260     1.3590 C.3   1 <1>  -0.1600 
 17 C       -0.2880     7.5410     1.5560 C.3   1 <1>  -0.1600 
 18 C        1.1640     7.0400     1.6360 C.3   1 <1>   0.1000 
 19 C        2.0390     7.8280     0.6680 C.2   1 <1>   0.2980 
 20 O        2.4100     9.0350     1.0100 O.3   1 <1>  -0.0190 
 21 N        2.4440     7.4300    -0.4700 N.2   1 <1>  -0.5650 
 22 N        3.1130     9.4430     0.0010 N.2   1 <1>  -0.4100 
 23 C        3.1310     8.4990    -0.8570 C.2   1 <1>   0.3350 
 24 C        3.8380     8.5270    -2.2150 C.3   1 <1>   0.1010 
 25 C        5.0200     9.5090    -2.2450 C.3   1 <1>  -0.2400 
 26 C        2.8450     8.8680    -3.3340 C.3   1 <1>  -0.2400 
 27 H       -1.3880     1.9030     3.6020 H     1 <1>   0.1500 
 28 H       -3.1940     3.8490     0.2840 H     1 <1>   0.4000 
 29 H       -3.6180     2.1830    -1.9540 H     1 <1>   0.1500 
 30 H       -1.8660     4.2930     3.7740 H     1 <1>   0.0800 
 31 H       -3.1080     4.9080     2.7060 H     1 <1>   0.0800 
 32 H       -4.0210    -1.4210    -2.3170 H     1 <1>   0.0800 
 33 H       -2.4220    -1.1100    -2.9460 H     1 <1>   0.0800 
 34 H       -3.7410    -0.0280    -3.3400 H     1 <1>   0.0800 
 35 H       -1.3210     5.1880     1.0400 H     1 <1>   0.4500 
 36 H        0.2990     3.7010     1.9740 H     1 <1>   0.0800 
 37 H        0.5490     4.8420     3.2770 H     1 <1>   0.0800 
 38 H       -0.9710     6.8390     3.4650 H     1 <1>   0.0800 
 39 H       -2.2430     7.0610     2.2850 H     1 <1>   0.0800 
 40 H        0.9910     5.3260     0.3270 H     1 <1>   0.0800 
 41 H        2.2260     5.1740     1.5320 H     1 <1>   0.0800 
 42 H       -0.3270     8.5680     1.8750 H     1 <1>   0.0800 
 43 H       -0.6250     7.5120     0.5340 H     1 <1>   0.0800 
 44 H        1.5410     7.2180     2.6300 H     1 <1>   0.0800 
 45 H        4.2260     7.5390    -2.3950 H     1 <1>   0.0800 
 46 H        4.6760    10.5170    -2.0910 H     1 <1>   0.0800 
 47 H        5.5290     9.4570    -3.1900 H     1 <1>   0.0800 
 48 H        5.7200     9.2650    -1.4650 H     1 <1>   0.0800 
 49 H        2.4310     9.8490    -3.1790 H     1 <1>   0.0800 
 50 H        2.0410     8.1540    -3.3420 H     1 <1>   0.0800 
 51 H        3.3340     8.8430    -4.2920 H     1 <1>   0.0800 
@<TRIPOS>BOND
  1   1   2  2   
  2   2   3  1   
  3   2   4  1   
  4   3   5  1   
  5   3   6  1   
  6   4   7  2   
  7   4  27  1   
  8   5   8  2   
  9   6   9  1   
 10   6  10  2   
 11   7   9  1   
 12   7  11  1   
 13   8  10  1   
 14   8  12  1   
 15   9  28  1   
 16  10  29  1   
 17  11  13  1   
 18  11  30  1   
 19  11  31  1   
 20  12  32  1   
 21  12  33  1   
 22  12  34  1   
 23  13  14  1   
 24  13  15  1   
 25  13  35  1   
 26  14  16  1   
 27  14  36  1   
 28  14  37  1   
 29  15  17  1   
 30  15  38  1   
 31  15  39  1   
 32  16  18  1   
 33  16  40  1   
 34  16  41  1   
 35  17  18  1   
 36  17  42  1   
 37  17  43  1   
 38  18  19  1   
 39  18  44  1   
 40  19  20  1   
 41  19  21  2   
 42  20  22  1   
 43  21  23  1   
 44  22  23  2   
 45  23  24  1   
 46  24  25  1   
 47  24  26  1   
 48  24  45  1   
 49  25  46  1   
 50  25  47  1   
 51  25  48  1   
 52  26  49  1   
 53  26  50  1   
 54  26  51  1   
@<TRIPOS>SUBSTRUCTURE
  1 ****  14 GROUP 4 **** **** 0

# MOE 2024.06 (io_trps.svl 2023.06)
