@<TRIPOS>MOLECULE
NONAME
48 49 1 0 0 
SMALL
USER_CHARGES


@<TRIPOS>ATOM
  1 S        1.2120    -1.2810     2.3460 S.o2  1 <1>   1.4470 
  2 O        0.8890    -0.6430     3.5980 O.2   1 <1>  -0.6500 
  3 O        2.3720    -2.1380     2.2430 O.2   1 <1>  -0.6500 
  4 N       -0.1100    -2.2550     2.0120 N.am  1 <1>  -0.9140 
  5 C        1.1410    -0.1010     0.9720 C.ar  1 <1>  -0.0090 
  6 C        0.1200    -3.2320     0.9550 C.3   1 <1>   0.2760 
  7 C        2.2500     0.1540     0.1740 C.ar  1 <1>  -0.1500 
  8 C       -0.0450     0.5560     0.6700 C.ar  1 <1>  -0.1500 
  9 C       -1.2020    -3.5750     0.2880 C.3   1 <1>  -0.0800 
 10 C        0.4790    -4.5820     1.5670 C.3   1 <1>   0.1200 
 11 C        2.1780     1.0240    -0.9010 C.ar  1 <1>  -0.1430 
 12 C       -0.1400     1.4190    -0.4070 C.ar  1 <1>  -0.1430 
 13 C       -1.7860    -4.6510     1.2140 C.3   1 <1>   0.1200 
 14 C       -2.1250    -2.3630     0.0450 C.3   1 <1>  -0.0550 
 15 O       -0.7340    -5.0930     2.0260 O.3   1 <1>  -0.5600 
 16 C        0.9770     1.6500    -1.1900 C.ar  1 <1>  -0.1500 
 17 C        3.4010     1.2860    -1.7610 C.3   1 <1>  -0.0970 
 18 C       -1.4650     2.0940    -0.7170 C.3   1 <1>  -0.0970 
 19 S       -3.5790    -2.7570    -0.9170 S.o2  1 <1>   1.3330 
 20 O       -4.4550    -3.5980    -0.1320 O.2   1 <1>  -0.6500 
 21 O       -3.1320    -3.2020    -2.2170 O.2   1 <1>  -0.6500 
 22 N       -4.3270    -1.2430    -1.0980 N.am  1 <1>  -0.8490 
 23 C       -5.1440    -0.8580     0.0580 C.3   1 <1>   0.1160 
 24 C       -5.1300    -1.1670    -2.3220 C.3   1 <1>   0.1160 
 25 H       -0.2650    -2.7930     2.8670 H     1 <1>   0.4200 
 26 H        0.8510    -2.8870     0.2410 H     1 <1>   0.0800 
 27 H        3.1800    -0.3410     0.3980 H     1 <1>   0.1500 
 28 H       -0.9090     0.3810     1.2880 H     1 <1>   0.1500 
 29 H       -0.9890    -4.0390    -0.6600 H     1 <1>   0.0800 
 30 H        1.1780    -4.5090     2.3810 H     1 <1>   0.0800 
 31 H        0.8590    -5.2540     0.8170 H     1 <1>   0.0800 
 32 H       -2.1780    -5.4880     0.6610 H     1 <1>   0.0800 
 33 H       -2.5510    -4.2540     1.8590 H     1 <1>   0.0800 
 34 H       -1.5680    -1.6110    -0.4790 H     1 <1>   0.0800 
 35 H       -2.4290    -1.9480     0.9860 H     1 <1>   0.0800 
 36 H        0.9150     2.3200    -2.0300 H     1 <1>   0.1500 
 37 H        3.3970     2.3000    -2.1180 H     1 <1>   0.0800 
 38 H        3.4020     0.6210    -2.6050 H     1 <1>   0.0800 
 39 H        4.3020     1.1310    -1.1950 H     1 <1>   0.0800 
 40 H       -1.3680     2.7700    -1.5470 H     1 <1>   0.0800 
 41 H       -1.8020     2.6510     0.1390 H     1 <1>   0.0800 
 42 H       -2.2050     1.3530    -0.9640 H     1 <1>   0.0800 
 43 H       -5.5240     0.1410    -0.0740 H     1 <1>   0.0800 
 44 H       -4.5520    -0.8790     0.9570 H     1 <1>   0.0800 
 45 H       -5.9740    -1.5360     0.1760 H     1 <1>   0.0800 
 46 H       -5.5780    -0.1930    -2.4160 H     1 <1>   0.0800 
 47 H       -5.9050    -1.9150    -2.3090 H     1 <1>   0.0800 
 48 H       -4.5040    -1.3330    -3.1840 H     1 <1>   0.0800 
@<TRIPOS>BOND
  1   1   2  2   
  2   1   3  2   
  3   1   4  am  
  4   1   5  1   
  5   4   6  1   
  6   4  25  1   
  7   5   7  ar  
  8   5   8  ar  
  9   6   9  1   
 10   6  10  1   
 11   6  26  1   
 12   7  11  ar  
 13   7  27  1   
 14   8  12  ar  
 15   8  28  1   
 16   9  13  1   
 17   9  14  1   
 18   9  29  1   
 19  10  15  1   
 20  10  30  1   
 21  10  31  1   
 22  11  16  ar  
 23  11  17  1   
 24  12  16  ar  
 25  12  18  1   
 26  13  15  1   
 27  13  32  1   
 28  13  33  1   
 29  14  19  1   
 30  14  34  1   
 31  14  35  1   
 32  16  36  1   
 33  17  37  1   
 34  17  38  1   
 35  17  39  1   
 36  18  40  1   
 37  18  41  1   
 38  18  42  1   
 39  19  20  2   
 40  19  21  2   
 41  19  22  am  
 42  22  23  1   
 43  22  24  1   
 44  23  43  1   
 45  23  44  1   
 46  23  45  1   
 47  24  46  1   
 48  24  47  1   
 49  24  48  1   
@<TRIPOS>SUBSTRUCTURE
  1 ****  14 GROUP 4 **** **** 0

# MOE 2024.06 (io_trps.svl 2023.06)
