@<TRIPOS>MOLECULE
NONAME
51 53 1 0 0 
SMALL
USER_CHARGES


@<TRIPOS>ATOM
  1 O        1.2350     1.5970    -1.4350 O.3   1 <1>  -0.0190 
  2 N        2.0960     0.6260    -1.3850 N.2   1 <1>  -0.4100 
  3 C        0.7360     1.8640    -0.2570 C.2   1 <1>  -0.0400 
  4 C        2.1350     0.2420    -0.1600 C.2   1 <1>   0.1080 
  5 C        1.2780     1.0110     0.6240 C.2   1 <1>  -0.1500 
  6 C       -0.2540     3.0020    -0.0990 C.3   1 <1>   0.0200 
  7 C        2.9980    -0.8910     0.3500 C.3   1 <1>  -0.0590 
  8 C        0.2470     4.2530    -0.8460 C.3   1 <1>  -0.0800 
  9 C       -0.5220     5.5450    -0.5860 C.3   1 <1>   0.2000 
 10 C        1.7010     4.6070    -0.5180 C.3   1 <1>   0.3430 
 11 O       -0.6940     5.7070     0.7940 O.3   1 <1>  -0.5600 
 12 C        0.4790     6.6000    -1.0580 C.3   1 <1>   0.3430 
 13 N        1.8270     6.0940    -0.6340 N.4   1 <1>  -0.9590 
 14 C       -2.0230     5.7560     1.2230 C.3   1 <1>   0.0400 
 15 C        2.2320     6.6800     0.6770 C.3   1 <1>   0.4860 
 16 C        2.3890     8.1780     0.5320 C.ar  1 <1>  -0.1440 
 17 C        3.4930     8.7100    -0.1120 C.ar  1 <1>   0.1600 
 18 C        1.4350     9.0420     1.0390 C.ar  1 <1>  -0.1500 
 19 N        3.7040     9.9950    -0.3130 N.ar  1 <1>  -0.6200 
 20 C        1.6520    10.3850     0.8460 C.ar  1 <1>  -0.1500 
 21 C        2.7840    10.8260     0.1670 C.ar  1 <1>   0.4100 
 22 N        2.9830    12.1800    -0.0310 N.pl3 1 <1>  -0.8380 
 23 C        4.3730    12.7060    -0.1200 C.3   1 <1>   0.1290 
 24 C        1.9860    12.9490    -0.8200 C.3   1 <1>   0.1290 
 25 H        1.1200     0.9080     1.6820 H     1 <1>   0.1500 
 26 H       -1.2060     2.6990    -0.4980 H     1 <1>   0.0800 
 27 H       -0.3790     3.2000     0.9510 H     1 <1>   0.0800 
 28 H        3.6230    -0.5460     1.1530 H     1 <1>   0.0800 
 29 H        3.6230    -1.2620    -0.4430 H     1 <1>   0.0800 
 30 H        2.3760    -1.6920     0.7040 H     1 <1>   0.0800 
 31 H        0.2030     4.0460    -1.9020 H     1 <1>   0.0800 
 32 H       -1.4650     5.6040    -1.1060 H     1 <1>   0.0800 
 33 H        2.3730     4.0990    -1.1930 H     1 <1>   0.0800 
 34 H        1.9230     4.2940     0.4900 H     1 <1>   0.0800 
 35 H        0.2480     7.5680    -0.6470 H     1 <1>   0.0800 
 36 H        0.4410     6.6590    -2.1330 H     1 <1>   0.0800 
 37 H        2.5280     6.3540    -1.3400 H     1 <1>   0.4500 
 38 H       -2.0280     5.8610     2.2940 H     1 <1>   0.0800 
 39 H       -2.5240     4.8430     0.9490 H     1 <1>   0.0800 
 40 H       -2.5130     6.6050     0.7770 H     1 <1>   0.0800 
 41 H        1.4830     6.4650     1.4230 H     1 <1>   0.0800 
 42 H        3.1660     6.2530     1.0030 H     1 <1>   0.0800 
 43 H        4.2550     8.0510    -0.4920 H     1 <1>   0.1500 
 44 H        0.5620     8.6930     1.5670 H     1 <1>   0.1500 
 45 H        0.9630    11.1180     1.2220 H     1 <1>   0.1500 
 46 H        4.3920    13.7460     0.1510 H     1 <1>   0.0800 
 47 H        4.7450    12.5880    -1.1230 H     1 <1>   0.0800 
 48 H        5.0140    12.1620     0.5530 H     1 <1>   0.0800 
 49 H        1.7850    13.8870    -0.3320 H     1 <1>   0.0800 
 50 H        1.0660    12.3990    -0.9090 H     1 <1>   0.0800 
 51 H        2.3690    13.1390    -1.8080 H     1 <1>   0.0800 
@<TRIPOS>BOND
  1   1   2  1   
  2   1   3  1   
  3   2   4  2   
  4   3   5  2   
  5   3   6  1   
  6   4   5  1   
  7   4   7  1   
  8   5  25  1   
  9   6   8  1   
 10   6  26  1   
 11   6  27  1   
 12   7  28  1   
 13   7  29  1   
 14   7  30  1   
 15   8   9  1   
 16   8  10  1   
 17   8  31  1   
 18   9  11  1   
 19   9  12  1   
 20   9  32  1   
 21  10  13  1   
 22  10  33  1   
 23  10  34  1   
 24  11  14  1   
 25  12  13  1   
 26  12  35  1   
 27  12  36  1   
 28  13  15  1   
 29  13  37  1   
 30  14  38  1   
 31  14  39  1   
 32  14  40  1   
 33  15  16  1   
 34  15  41  1   
 35  15  42  1   
 36  16  17  ar  
 37  16  18  ar  
 38  17  19  ar  
 39  17  43  1   
 40  18  20  ar  
 41  18  44  1   
 42  19  21  ar  
 43  20  21  ar  
 44  20  45  1   
 45  21  22  1   
 46  22  23  1   
 47  22  24  1   
 48  23  46  1   
 49  23  47  1   
 50  23  48  1   
 51  24  49  1   
 52  24  50  1   
 53  24  51  1   
@<TRIPOS>SUBSTRUCTURE
  1 ****  13 GROUP 4 **** **** 0

# MOE 2024.06 (io_trps.svl 2023.06)
