@<TRIPOS>MOLECULE
NONAME
42 42 1 0 0 
SMALL
USER_CHARGES


@<TRIPOS>ATOM
  1 S        0.0120    -0.0290    -1.2780 S.o2  1 <1>   1.5760 
  2 O        0.6790    -0.7200    -2.3560 O.2   1 <1>  -0.6500 
  3 O       -1.1270     0.8280    -1.4990 O.2   1 <1>  -0.6500 
  4 N        1.1450     0.8070    -0.3610 N.am  1 <1>  -0.8490 
  5 N       -0.4660    -1.1260    -0.1230 N.am  1 <1>  -0.9140 
  6 C        1.4250     2.1240    -0.9510 C.3   1 <1>   0.1960 
  7 C        2.3760     0.0420    -0.1670 C.3   1 <1>   0.1960 
  8 C       -1.4390    -2.0750    -0.6500 C.3   1 <1>   0.1960 
  9 C        2.6700     2.8190    -0.3510 C.3   1 <1>  -0.0800 
 10 C        3.2400     0.7040     0.9180 C.3   1 <1>  -0.1600 
 11 C       -1.8360    -3.0780     0.4340 C.3   1 <1>   0.1200 
 12 C        3.0430     2.2270     1.0200 C.3   1 <1>  -0.1600 
 13 C        2.4430     4.3350    -0.2800 C.3   1 <1>   0.1200 
 14 O       -2.8220    -3.9160    -0.0790 O.3   1 <1>  -0.5600 
 15 O        3.6260     4.9530     0.1110 O.3   1 <1>  -0.5600 
 16 C       -3.2410    -4.9020     0.8030 C.3   1 <1>   0.1200 
 17 C        3.5230     6.3330     0.2530 C.3   1 <1>   0.0400 
 18 C       -4.3150    -5.7210     0.0980 C.3   1 <1>  -0.2400 
 19 H       -0.9450    -0.5220     0.5370 H     1 <1>   0.4200 
 20 H        0.5570     2.7430    -0.7950 H     1 <1>   0.0800 
 21 H        1.5670     2.0260    -2.0150 H     1 <1>   0.0800 
 22 H        2.9200    -0.0010    -1.0980 H     1 <1>   0.0800 
 23 H        2.1490    -0.9680     0.1310 H     1 <1>   0.0800 
 24 H       -1.0060    -2.6130    -1.4780 H     1 <1>   0.0800 
 25 H       -2.3160    -1.5500    -0.9920 H     1 <1>   0.0800 
 26 H        3.4900     2.6510    -1.0280 H     1 <1>   0.0800 
 27 H        4.2720     0.4870     0.7030 H     1 <1>   0.0800 
 28 H        3.0130     0.2580     1.8700 H     1 <1>   0.0800 
 29 H       -2.2370    -2.5660     1.2910 H     1 <1>   0.0800 
 30 H       -0.9850    -3.6740     0.7130 H     1 <1>   0.0800 
 31 H        2.2420     2.4290     1.7110 H     1 <1>   0.0800 
 32 H        3.9370     2.6890     1.4040 H     1 <1>   0.0800 
 33 H        1.6760     4.5660     0.4410 H     1 <1>   0.0800 
 34 H        2.1640     4.7200    -1.2460 H     1 <1>   0.0800 
 35 H       -3.6410    -4.4330     1.6870 H     1 <1>   0.0800 
 36 H       -2.3990    -5.5220     1.0600 H     1 <1>   0.0800 
 37 H        4.4850     6.7100     0.5530 H     1 <1>   0.0800 
 38 H        2.7930     6.5580     1.0110 H     1 <1>   0.0800 
 39 H        3.2400     6.7670    -0.6900 H     1 <1>   0.0800 
 40 H       -5.1440    -5.0900    -0.1670 H     1 <1>   0.0800 
 41 H       -4.6680    -6.4990     0.7490 H     1 <1>   0.0800 
 42 H       -3.9100    -6.1720    -0.7900 H     1 <1>   0.0800 
@<TRIPOS>BOND
  1   1   2  2   
  2   1   3  2   
  3   1   4  am  
  4   1   5  am  
  5   4   6  1   
  6   4   7  1   
  7   5   8  1   
  8   5  19  1   
  9   6   9  1   
 10   6  20  1   
 11   6  21  1   
 12   7  10  1   
 13   7  22  1   
 14   7  23  1   
 15   8  11  1   
 16   8  24  1   
 17   8  25  1   
 18   9  12  1   
 19   9  13  1   
 20   9  26  1   
 21  10  12  1   
 22  10  27  1   
 23  10  28  1   
 24  11  14  1   
 25  11  29  1   
 26  11  30  1   
 27  12  31  1   
 28  12  32  1   
 29  13  15  1   
 30  13  33  1   
 31  13  34  1   
 32  14  16  1   
 33  15  17  1   
 34  16  18  1   
 35  16  35  1   
 36  16  36  1   
 37  17  37  1   
 38  17  38  1   
 39  17  39  1   
 40  18  40  1   
 41  18  41  1   
 42  18  42  1   
@<TRIPOS>SUBSTRUCTURE
  1 ****   4 GROUP 4 **** **** 0

# MOE 2024.06 (io_trps.svl 2023.06)
