@<TRIPOS>MOLECULE
NONAME
48 50 1 0 0 
SMALL
USER_CHARGES


@<TRIPOS>ATOM
  1 S        0.4360     0.4850    -1.5750 S.o2  1 <1>   1.3330 
  2 O       -0.3040     1.4150    -2.3980 O.2   1 <1>  -0.6500 
  3 O        0.6520    -0.8670    -2.0410 O.2   1 <1>  -0.6500 
  4 N       -0.3690     0.3940    -0.0800 N.am  1 <1>  -0.8490 
  5 C        2.0320     1.1900    -1.1580 C.3   1 <1>  -0.0550 
  6 C       -0.9760     1.6650     0.3290 C.3   1 <1>   0.1160 
  7 C       -1.3830    -0.6650    -0.0650 C.3   1 <1>   0.1160 
  8 C        2.9460     0.2480    -0.3430 C.3   1 <1>  -0.0800 
  9 C        4.3600     0.7610    -0.1210 C.3   1 <1>   0.2200 
 10 C        2.4720    -0.0590     1.0830 C.3   1 <1>   0.1200 
 11 N        4.3490     2.1940     0.2590 N.am  1 <1>  -0.7300 
 12 C        4.7640    -0.0630     1.0930 C.3   1 <1>   0.1200 
 13 O        3.6170    -0.1250     1.8850 O.3   1 <1>  -0.5600 
 14 C        4.5990     3.2390    -0.5850 C.2   1 <1>   0.5440 
 15 O        4.7550     2.9820    -1.7630 O.2   1 <1>  -0.5700 
 16 C        4.6450     4.5950    -0.0770 C.ar  1 <1>   0.0860 
 17 C        5.4880     5.5700    -0.6530 C.ar  1 <1>   0.0000 
 18 C        3.8670     4.9990     1.0020 C.ar  1 <1>  -0.1500 
 19 C        5.5350     6.8670    -0.1420 C.ar  1 <1>  -0.1520 
 20 C        6.4000     5.5480    -1.7300 C.2   1 <1>  -0.1500 
 21 C        3.9140     6.2980     1.5100 C.ar  1 <1>  -0.1500 
 22 N        6.4360     7.5990    -0.8780 N.pl3 1 <1>   0.0480 
 23 C        4.7450     7.2370     0.9470 C.ar  1 <1>  -0.1500 
 24 C        6.9520     6.7800    -1.8380 C.2   1 <1>  -0.3020 
 25 C        6.7800     9.0150    -0.6740 C.3   1 <1>   0.0160 
 26 H        2.5400     1.4320    -2.0720 H     1 <1>   0.0800 
 27 H        1.8860     2.1080    -0.6260 H     1 <1>   0.0800 
 28 H       -1.3910     1.5750     1.3180 H     1 <1>   0.0800 
 29 H       -1.7600     1.9470    -0.3560 H     1 <1>   0.0800 
 30 H       -0.2340     2.4450     0.3410 H     1 <1>   0.0800 
 31 H       -1.8680    -0.7050     0.8950 H     1 <1>   0.0800 
 32 H       -0.9220    -1.6210    -0.2470 H     1 <1>   0.0800 
 33 H       -2.1210    -0.4870    -0.8290 H     1 <1>   0.0800 
 34 H        3.0180    -0.6890    -0.8690 H     1 <1>   0.0800 
 35 H        5.0060     0.5940    -0.9670 H     1 <1>   0.0800 
 36 H        1.9480    -0.9980     1.1370 H     1 <1>   0.0800 
 37 H        1.8490     0.7270     1.4730 H     1 <1>   0.0800 
 38 H        4.2400     2.3560     1.2620 H     1 <1>   0.3700 
 39 H        5.5710     0.3780     1.6500 H     1 <1>   0.0800 
 40 H        5.0220    -1.0670     0.8040 H     1 <1>   0.0800 
 41 H        3.1970     4.2990     1.4680 H     1 <1>   0.1500 
 42 H        6.5930     4.6820    -2.3400 H     1 <1>   0.1500 
 43 H        3.2930     6.5610     2.3490 H     1 <1>   0.1500 
 44 H        4.7890     8.2400     1.3320 H     1 <1>   0.1500 
 45 H        7.6840     7.1200    -2.5490 H     1 <1>   0.1500 
 46 H        7.5110     9.3170    -1.4010 H     1 <1>   0.0800 
 47 H        7.1820     9.1420     0.3140 H     1 <1>   0.0800 
 48 H        5.8950     9.6130    -0.7850 H     1 <1>   0.0800 
@<TRIPOS>BOND
  1   1   2  2   
  2   1   3  2   
  3   1   4  am  
  4   1   5  1   
  5   4   6  1   
  6   4   7  1   
  7   5   8  1   
  8   5  26  1   
  9   5  27  1   
 10   6  28  1   
 11   6  29  1   
 12   6  30  1   
 13   7  31  1   
 14   7  32  1   
 15   7  33  1   
 16   8   9  1   
 17   8  10  1   
 18   8  34  1   
 19   9  11  1   
 20   9  12  1   
 21   9  35  1   
 22  10  13  1   
 23  10  36  1   
 24  10  37  1   
 25  11  14  am  
 26  11  38  1   
 27  12  13  1   
 28  12  39  1   
 29  12  40  1   
 30  14  15  2   
 31  14  16  1   
 32  16  17  ar  
 33  16  18  ar  
 34  17  19  ar  
 35  17  20  1   
 36  18  21  ar  
 37  18  41  1   
 38  19  22  1   
 39  19  23  ar  
 40  20  24  2   
 41  20  42  1   
 42  21  23  ar  
 43  21  43  1   
 44  22  24  1   
 45  22  25  1   
 46  23  44  1   
 47  24  45  1   
 48  25  46  1   
 49  25  47  1   
 50  25  48  1   
@<TRIPOS>SUBSTRUCTURE
  1 ****  14 GROUP 4 **** **** 0

# MOE 2024.06 (io_trps.svl 2023.06)
