@<TRIPOS>MOLECULE
NONAME
44 46 1 0 0 
SMALL
USER_CHARGES


@<TRIPOS>ATOM
  1 O       -1.9320     0.2910    -1.0150 O.co2 1 <1>  -0.9000 
  2 C       -2.0470     0.4000     0.2080 C.2   1 <1>   0.9060 
  3 O       -2.2890    -0.6000     0.8980 O.co2 1 <1>  -0.9000 
  4 C       -2.2210     1.7780     0.8190 C.3   1 <1>   0.0140 
  5 O       -3.4580     1.8720     1.5310 O.3   1 <1>  -0.3630 
  6 C       -4.5160     2.5200     1.0000 C.ar  1 <1>   0.0830 
  7 C       -5.2620     2.0350    -0.0760 C.ar  1 <1>  -0.1440 
  8 C       -4.8900     3.7010     1.6180 C.ar  1 <1>  -0.1500 
  9 C       -6.3710     2.7530    -0.4940 C.ar  1 <1>  -0.1500 
 10 C       -4.9300     0.7590    -0.8350 C.3   1 <1>   0.4870 
 11 C       -5.9960     4.4040     1.1810 C.ar  1 <1>  -0.1500 
 12 C       -6.7720     3.9400     0.1200 C.ar  1 <1>   0.0000 
 13 N       -4.8790    -0.4230     0.0600 N.4   1 <1>  -0.9590 
 14 C       -7.9500     4.6530    -0.3380 C.ar  1 <1>   0.3100 
 15 C       -4.6170    -1.7090    -0.6430 C.3   1 <1>   0.3430 
 16 C       -5.9440    -0.5990     1.0630 C.3   1 <1>   0.3430 
 17 N       -8.1650     4.7240    -1.6540 N.ar  1 <1>  -0.6200 
 18 C       -8.8260     5.2290     0.5830 C.ar  1 <1>  -0.1500 
 19 C       -5.5710    -2.7230    -0.0030 C.3   1 <1>   0.2000 
 20 C       -5.9490    -2.0970     1.3330 C.3   1 <1>  -0.1600 
 21 C       -9.2400     5.3840    -2.0490 C.ar  1 <1>   0.1600 
 22 C       -9.9450     5.9120     0.1610 C.ar  1 <1>  -0.1500 
 23 O       -6.7270    -2.8240    -0.7680 O.3   1 <1>  -0.6800 
 24 C      -10.1480     5.9880    -1.1990 C.ar  1 <1>  -0.1500 
 25 H       -2.1940     2.5280     0.0510 H     1 <1>   0.0800 
 26 H       -1.4250     1.9470     1.5180 H     1 <1>   0.0800 
 27 H       -4.3060     4.0630     2.4450 H     1 <1>   0.1500 
 28 H       -6.9580     2.4030    -1.3260 H     1 <1>   0.1500 
 29 H       -3.9900     0.8810    -1.3450 H     1 <1>   0.0800 
 30 H       -5.6810     0.5980    -1.5880 H     1 <1>   0.0800 
 31 H       -6.2540     5.3270     1.6680 H     1 <1>   0.1500 
 32 H       -3.9870    -0.3060     0.6040 H     1 <1>   0.4500 
 33 H       -4.7840    -1.6360    -1.7040 H     1 <1>   0.0800 
 34 H       -3.5920    -1.9980    -0.4660 H     1 <1>   0.0800 
 35 H       -5.7350    -0.0260     1.9530 H     1 <1>   0.0800 
 36 H       -6.8910    -0.2920     0.6500 H     1 <1>   0.0800 
 37 H       -8.6280     5.1350     1.6350 H     1 <1>   0.1500 
 38 H       -5.1340    -3.7030     0.0870 H     1 <1>   0.0800 
 39 H       -6.8920    -2.4500     1.7120 H     1 <1>   0.0800 
 40 H       -5.1820    -2.3130     2.0570 H     1 <1>   0.0800 
 41 H       -9.4090     5.4490    -3.1110 H     1 <1>   0.1500 
 42 H      -10.6290     6.3640     0.8590 H     1 <1>   0.1500 
 43 H       -7.1680    -1.9590    -0.8650 H     1 <1>   0.4000 
 44 H      -11.0010     6.5080    -1.5970 H     1 <1>   0.1500 
@<TRIPOS>BOND
  1   1   2  ar  
  2   2   3  ar  
  3   2   4  1   
  4   4   5  1   
  5   4  25  1   
  6   4  26  1   
  7   5   6  1   
  8   6   7  ar  
  9   6   8  ar  
 10   7   9  ar  
 11   7  10  1   
 12   8  11  ar  
 13   8  27  1   
 14   9  12  ar  
 15   9  28  1   
 16  10  13  1   
 17  10  29  1   
 18  10  30  1   
 19  11  12  ar  
 20  11  31  1   
 21  12  14  1   
 22  13  15  1   
 23  13  16  1   
 24  13  32  1   
 25  14  17  ar  
 26  14  18  ar  
 27  15  19  1   
 28  15  33  1   
 29  15  34  1   
 30  16  20  1   
 31  16  35  1   
 32  16  36  1   
 33  17  21  ar  
 34  18  22  ar  
 35  18  37  1   
 36  19  20  1   
 37  19  23  1   
 38  19  38  1   
 39  20  39  1   
 40  20  40  1   
 41  21  24  ar  
 42  21  41  1   
 43  22  24  ar  
 44  22  42  1   
 45  23  43  1   
 46  24  44  1   
@<TRIPOS>SUBSTRUCTURE
  1 ****   7 GROUP 4 **** **** 0

# MOE 2024.06 (io_trps.svl 2023.06)
