@<TRIPOS>MOLECULE
NONAME
47 49 1 0 0 
SMALL
USER_CHARGES


@<TRIPOS>ATOM
  1 S        0.2520     0.2210     0.8330 S.o2  1 <1>   1.4470 
  2 O       -0.1730    -0.8500     1.7060 O.2   1 <1>  -0.6500 
  3 O        0.6660     1.4800     1.4080 O.2   1 <1>  -0.6500 
  4 N       -1.0550     0.5910    -0.1840 N.am  1 <1>  -0.8490 
  5 C        1.5330    -0.4340    -0.3010 C.ar  1 <1>  -0.0090 
  6 C       -2.3200     0.6740     0.5670 C.3   1 <1>   0.1960 
  7 C       -0.8310     1.8200    -0.9530 C.3   1 <1>   0.1960 
  8 C        2.9130    -0.4020    -0.0360 C.ar  1 <1>  -0.1440 
  9 C        1.1150    -1.0270    -1.4920 C.ar  1 <1>  -0.1500 
 10 C       -3.5450     0.8390    -0.3660 C.3   1 <1>   0.0000 
 11 C       -1.9600     2.0190    -1.9670 C.3   1 <1>  -0.1600 
 12 C        3.8030    -0.9120    -0.9820 C.ar  1 <1>  -0.1500 
 13 C        3.4870     0.1790     1.2740 C.3   1 <1>   1.1640 
 14 C        2.0060    -1.5360    -2.4160 C.ar  1 <1>  -0.1500 
 15 C       -4.8210     0.9340     0.4980 C.3   1 <1>   0.2000 
 16 C       -3.3270     2.0720    -1.2720 C.3   1 <1>  -0.1600 
 17 C       -3.7810    -0.4480    -1.1780 C.3   1 <1>  -0.1600 
 18 C        3.3580    -1.4720    -2.1620 C.ar  1 <1>  -0.1500 
 19 F        3.5010     1.5040     1.2680 F     1 <1>  -0.3400 
 20 F        2.8220    -0.2040     2.3530 F     1 <1>  -0.3400 
 21 F        4.7450    -0.1900     1.4890 F     1 <1>  -0.3400 
 22 O       -5.8630     1.4770    -0.2610 O.3   1 <1>  -0.5600 
 23 C       -5.1760    -0.5180     0.8420 C.3   1 <1>  -0.1600 
 24 C       -4.5590    -1.3940    -0.2570 C.3   1 <1>  -0.1600 
 25 C       -6.8810     2.0790     0.4750 C.3   1 <1>   0.0400 
 26 H       -2.4470    -0.2230     1.1490 H     1 <1>   0.0800 
 27 H       -2.2700     1.5030     1.2520 H     1 <1>   0.0800 
 28 H       -0.7880     2.6690    -0.2890 H     1 <1>   0.0800 
 29 H        0.1070     1.7570    -1.4780 H     1 <1>   0.0800 
 30 H        0.0620    -1.0990    -1.7110 H     1 <1>   0.1500 
 31 H       -1.7960     2.9360    -2.5050 H     1 <1>   0.0800 
 32 H       -1.9390     1.2130    -2.6790 H     1 <1>   0.0800 
 33 H        4.8680    -0.8850    -0.8130 H     1 <1>   0.1500 
 34 H        1.6460    -1.9810    -3.3290 H     1 <1>   0.1500 
 35 H       -4.6660     1.5440     1.3720 H     1 <1>   0.0800 
 36 H       -4.1060     2.1360    -2.0140 H     1 <1>   0.0800 
 37 H       -3.3820     2.9630    -0.6710 H     1 <1>   0.0800 
 38 H       -4.3990    -0.2200    -2.0290 H     1 <1>   0.0800 
 39 H       -2.8670    -0.8930    -1.5290 H     1 <1>   0.0800 
 40 H        4.0620    -1.8620    -2.8780 H     1 <1>   0.1500 
 41 H       -4.7310    -0.7770     1.7860 H     1 <1>   0.0800 
 42 H       -6.2380    -0.6680     0.9140 H     1 <1>   0.0800 
 43 H       -3.8930    -2.1180     0.1800 H     1 <1>   0.0800 
 44 H       -5.3220    -1.9130    -0.8120 H     1 <1>   0.0800 
 45 H       -7.6300     2.4260    -0.2150 H     1 <1>   0.0800 
 46 H       -6.4770     2.9140     1.0200 H     1 <1>   0.0800 
 47 H       -7.3140     1.3600     1.1480 H     1 <1>   0.0800 
@<TRIPOS>BOND
  1   1   2  2   
  2   1   3  2   
  3   1   4  am  
  4   1   5  1   
  5   4   6  1   
  6   4   7  1   
  7   5   8  ar  
  8   5   9  ar  
  9   6  10  1   
 10   6  26  1   
 11   6  27  1   
 12   7  11  1   
 13   7  28  1   
 14   7  29  1   
 15   8  12  ar  
 16   8  13  1   
 17   9  14  ar  
 18   9  30  1   
 19  10  15  1   
 20  10  16  1   
 21  10  17  1   
 22  11  16  1   
 23  11  31  1   
 24  11  32  1   
 25  12  18  ar  
 26  12  33  1   
 27  13  19  1   
 28  13  20  1   
 29  13  21  1   
 30  14  18  ar  
 31  14  34  1   
 32  15  22  1   
 33  15  23  1   
 34  15  35  1   
 35  16  36  1   
 36  16  37  1   
 37  17  24  1   
 38  17  38  1   
 39  17  39  1   
 40  18  40  1   
 41  22  25  1   
 42  23  24  1   
 43  23  41  1   
 44  23  42  1   
 45  24  43  1   
 46  24  44  1   
 47  25  45  1   
 48  25  46  1   
 49  25  47  1   
@<TRIPOS>SUBSTRUCTURE
  1 ****   4 GROUP 4 **** **** 0

# MOE 2024.06 (io_trps.svl 2023.06)
