@<TRIPOS>MOLECULE
NONAME
44 46 1 0 0 
SMALL
USER_CHARGES


@<TRIPOS>ATOM
  1 S        0.3400     0.4370     1.3990 S.3   1 <1>  -0.0800 
  2 C        0.9690    -0.7880     0.2870 C.2   1 <1>  -0.0450 
  3 C        1.3110     1.7000     0.6830 C.2   1 <1>  -0.1100 
  4 C        1.8660    -0.1920    -0.5480 C.2   1 <1>  -0.1810 
  5 C        0.4980    -2.1470     0.4350 C.2   1 <1>   0.7150 
  6 C        2.0530     1.2040    -0.3220 C.2   1 <1>  -0.1500 
  7 C        2.6560    -0.8710    -1.6550 C.3   1 <1>  -0.0590 
  8 O        1.2390    -3.0880     0.1950 O.2   1 <1>  -0.5700 
  9 N       -0.7910    -2.4480     0.8170 N.am  1 <1>  -0.6600 
 10 C       -1.1260    -3.8050     1.3360 C.3   1 <1>   0.1400 
 11 C       -1.9650    -1.7380     0.2350 C.3   1 <1>   0.1400 
 12 C       -1.6240    -4.6750     0.1580 C.3   1 <1>   0.4230 
 13 C       -2.5340    -2.5880    -0.9120 C.3   1 <1>  -0.1600 
 14 N       -1.8820    -6.1130     0.5100 N.4   1 <1>  -0.9590 
 15 C       -2.8870    -4.0370    -0.4630 C.3   1 <1>  -0.1060 
 16 C       -2.2360    -6.9200    -0.6840 C.3   1 <1>   0.3430 
 17 C       -0.8300    -6.7570     1.3400 C.3   1 <1>   0.2630 
 18 C       -4.0060    -4.0230     0.5970 C.2   1 <1>   0.9060 
 19 C       -3.3200    -4.8520    -1.7050 C.3   1 <1>  -0.1600 
 20 C       -3.4750    -6.3440    -1.3730 C.3   1 <1>  -0.1600 
 21 O       -4.0480    -4.9380     1.4370 O.co2 1 <1>  -0.9000 
 22 O       -4.8260    -3.1070     0.6020 O.co2 1 <1>  -0.9000 
 23 H        1.2260     2.6900     1.0930 H     1 <1>   0.1500 
 24 H        2.7380     1.7790    -0.9220 H     1 <1>   0.1500 
 25 H        2.4770    -0.3730    -2.5900 H     1 <1>   0.0800 
 26 H        2.3750    -1.9020    -1.7610 H     1 <1>   0.0800 
 27 H        3.7070    -0.8250    -1.4330 H     1 <1>   0.0800 
 28 H       -0.2450    -4.2330     1.7780 H     1 <1>   0.0800 
 29 H       -1.8800    -3.7160     2.0990 H     1 <1>   0.0800 
 30 H       -2.7120    -1.5910     0.9980 H     1 <1>   0.0800 
 31 H       -1.6810    -0.7720    -0.1430 H     1 <1>   0.0800 
 32 H       -0.8440    -4.6550    -0.5830 H     1 <1>   0.0800 
 33 H       -3.4180    -2.1030    -1.2900 H     1 <1>   0.0800 
 34 H       -1.8140    -2.6070    -1.7120 H     1 <1>   0.0800 
 35 H       -2.7690    -6.0190     1.0770 H     1 <1>   0.4500 
 36 H       -1.4090    -6.9230    -1.3750 H     1 <1>   0.0800 
 37 H       -2.4390    -7.9370    -0.3890 H     1 <1>   0.0800 
 38 H        0.1140    -6.7470     0.8200 H     1 <1>   0.0800 
 39 H       -1.1020    -7.7770     1.5550 H     1 <1>   0.0800 
 40 H       -0.7200    -6.2330     2.2740 H     1 <1>   0.0800 
 41 H       -4.2570    -4.4670    -2.0740 H     1 <1>   0.0800 
 42 H       -2.5880    -4.7420    -2.4870 H     1 <1>   0.0800 
 43 H       -3.6640    -6.8930    -2.2780 H     1 <1>   0.0800 
 44 H       -4.3300    -6.4870    -0.7320 H     1 <1>   0.0800 
@<TRIPOS>BOND
  1   1   2  1   
  2   1   3  1   
  3   2   4  2   
  4   2   5  1   
  5   3   6  2   
  6   3  23  1   
  7   4   6  1   
  8   4   7  1   
  9   5   8  2   
 10   5   9  am  
 11   6  24  1   
 12   7  25  1   
 13   7  26  1   
 14   7  27  1   
 15   9  10  1   
 16   9  11  1   
 17  10  12  1   
 18  10  28  1   
 19  10  29  1   
 20  11  13  1   
 21  11  30  1   
 22  11  31  1   
 23  12  14  1   
 24  12  15  1   
 25  12  32  1   
 26  13  15  1   
 27  13  33  1   
 28  13  34  1   
 29  14  16  1   
 30  14  17  1   
 31  14  35  1   
 32  15  18  1   
 33  15  19  1   
 34  16  20  1   
 35  16  36  1   
 36  16  37  1   
 37  17  38  1   
 38  17  39  1   
 39  17  40  1   
 40  18  21  ar  
 41  18  22  ar  
 42  19  20  1   
 43  19  41  1   
 44  19  42  1   
 45  20  43  1   
 46  20  44  1   
@<TRIPOS>SUBSTRUCTURE
  1 ****   9 GROUP 4 **** **** 0

# MOE 2024.06 (io_trps.svl 2023.06)
