@<TRIPOS>MOLECULE
NONAME
49 51 1 0 0 
SMALL
USER_CHARGES


@<TRIPOS>ATOM
  1 S        0.0470     0.2650    -0.3640 S.o2  1 <1>   1.3330 
  2 O        0.2260     0.3370    -1.7950 O.2   1 <1>  -0.6500 
  3 O       -1.2650     0.4370     0.2120 O.2   1 <1>  -0.6500 
  4 N        1.0880     1.4310     0.3120 N.am  1 <1>  -0.8490 
  5 C        0.7180    -1.2690     0.2420 C.3   1 <1>  -0.1350 
  6 C        2.2210     1.7180    -0.5910 C.3   1 <1>   0.1960 
  7 C        0.3220     2.6060     0.7530 C.3   1 <1>   0.1960 
  8 C        3.4170     2.3580     0.1370 C.3   1 <1>   0.3430 
  9 C        1.1650     3.6730     1.4520 C.3   1 <1>  -0.1600 
 10 N        3.3700     3.8580     0.2670 N.4   1 <1>  -0.9590 
 11 C        2.0180     4.4630     0.4680 C.3   1 <1>   0.3430 
 12 C        4.0800     4.5250    -0.8640 C.3   1 <1>   0.4860 
 13 C        4.2260     5.9960    -0.5370 C.ar  1 <1>  -0.1440 
 14 C        5.1360     6.4140     0.4100 C.ar  1 <1>  -0.1500 
 15 C        3.4170     6.9350    -1.1970 C.ar  1 <1>  -0.1500 
 16 C        5.2330     7.7720     0.7230 C.ar  1 <1>   0.0000 
 17 C        3.5080     8.2740    -0.8980 C.ar  1 <1>  -0.1500 
 18 C        4.4190     8.6940     0.0740 C.ar  1 <1>  -0.1520 
 19 C        6.0320     8.5050     1.6230 C.2   1 <1>  -0.1500 
 20 N        4.7110     9.9480     0.5610 N.pl3 1 <1>   0.0480 
 21 C        5.6930     9.8090     1.5010 C.2   1 <1>  -0.3020 
 22 C        4.0920    11.2250     0.1490 C.3   1 <1>   0.0960 
 23 C        4.7900    11.7840    -1.0950 C.3   1 <1>  -0.2400 
 24 H        0.1310    -2.0900    -0.1190 H     1 <1>   0.0800 
 25 H        0.6990    -1.2820     1.3140 H     1 <1>   0.0800 
 26 H        1.7280    -1.3980    -0.0920 H     1 <1>   0.0800 
 27 H        1.9040     2.3170    -1.4290 H     1 <1>   0.0800 
 28 H        2.5780     0.7820    -0.9880 H     1 <1>   0.0800 
 29 H       -0.4220     2.2820     1.4640 H     1 <1>   0.0800 
 30 H       -0.2050     3.0330    -0.0860 H     1 <1>   0.0800 
 31 H        4.3200     2.0830    -0.3830 H     1 <1>   0.0800 
 32 H        3.4690     1.9150     1.1180 H     1 <1>   0.0800 
 33 H        1.7420     3.2550     2.2580 H     1 <1>   0.0800 
 34 H        0.4720     4.3680     1.8930 H     1 <1>   0.0800 
 35 H        3.9110     4.1110     1.1050 H     1 <1>   0.4500 
 36 H        2.1410     5.4680     0.8430 H     1 <1>   0.0800 
 37 H        1.4980     4.5300    -0.4740 H     1 <1>   0.0800 
 38 H        3.5260     4.4030    -1.7810 H     1 <1>   0.0800 
 39 H        5.0600     4.0950    -0.9950 H     1 <1>   0.0800 
 40 H        5.7890     5.7350     0.9280 H     1 <1>   0.1500 
 41 H        2.7170     6.6160    -1.9510 H     1 <1>   0.1500 
 42 H        2.8930     8.9990    -1.4020 H     1 <1>   0.1500 
 43 H        6.7720     8.0730     2.2730 H     1 <1>   0.1500 
 44 H        6.0970    10.6540     2.0300 H     1 <1>   0.1500 
 45 H        4.1720    11.9240     0.9610 H     1 <1>   0.0800 
 46 H        3.0490    11.0570    -0.0520 H     1 <1>   0.0800 
 47 H        5.8300    11.9620    -0.8880 H     1 <1>   0.0800 
 48 H        4.3340    12.7150    -1.3820 H     1 <1>   0.0800 
 49 H        4.7040    11.0930    -1.9140 H     1 <1>   0.0800 
@<TRIPOS>BOND
  1   1   2  2   
  2   1   3  2   
  3   1   4  am  
  4   1   5  1   
  5   4   6  1   
  6   4   7  1   
  7   5  24  1   
  8   5  25  1   
  9   5  26  1   
 10   6   8  1   
 11   6  27  1   
 12   6  28  1   
 13   7   9  1   
 14   7  29  1   
 15   7  30  1   
 16   8  10  1   
 17   8  31  1   
 18   8  32  1   
 19   9  11  1   
 20   9  33  1   
 21   9  34  1   
 22  10  11  1   
 23  10  12  1   
 24  10  35  1   
 25  11  36  1   
 26  11  37  1   
 27  12  13  1   
 28  12  38  1   
 29  12  39  1   
 30  13  14  ar  
 31  13  15  ar  
 32  14  16  ar  
 33  14  40  1   
 34  15  17  ar  
 35  15  41  1   
 36  16  18  ar  
 37  16  19  1   
 38  17  18  ar  
 39  17  42  1   
 40  18  20  1   
 41  19  21  2   
 42  19  43  1   
 43  20  21  1   
 44  20  22  1   
 45  21  44  1   
 46  22  23  1   
 47  22  45  1   
 48  22  46  1   
 49  23  47  1   
 50  23  48  1   
 51  23  49  1   
@<TRIPOS>SUBSTRUCTURE
  1 ****  11 GROUP 4 **** **** 0

# MOE 2024.06 (io_trps.svl 2023.06)
