@<TRIPOS>MOLECULE
NONAME
54 56 1 0 0 
SMALL
USER_CHARGES


@<TRIPOS>ATOM
  1 O       -1.0380    -1.8190     1.8940 O.2   1 <1>  -0.5700 
  2 C       -2.0120    -2.0530     1.2100 C.2   1 <1>   0.7060 
  3 O       -2.4990    -3.2940     1.2020 O.3   1 <1>  -0.2330 
  4 C       -2.6660    -1.0670     0.4140 C.2   1 <1>  -0.1360 
  5 C       -3.5770    -3.6490     0.4700 C.ar  1 <1>   0.0820 
  6 C       -3.7530    -1.3520    -0.3430 C.2   1 <1>  -0.1670 
  7 C       -4.2460    -2.7050    -0.3280 C.ar  1 <1>   0.0280 
  8 C       -3.9910    -4.9690     0.5370 C.ar  1 <1>  -0.1500 
  9 C       -4.4760    -0.3150    -1.2090 C.3   1 <1>  -0.0220 
 10 C       -5.3520    -3.1580    -1.0550 C.ar  1 <1>  -0.1500 
 11 C       -5.0920    -5.3920    -0.1940 C.ar  1 <1>   0.0830 
 12 C       -3.8820     1.0980    -1.1630 C.3   1 <1>  -0.2400 
 13 C       -5.7640    -4.4730    -0.9890 C.ar  1 <1>  -0.1500 
 14 O       -5.5720    -6.6570    -0.1960 O.3   1 <1>  -0.3620 
 15 C       -5.0520    -7.7010     0.6170 C.3   1 <1>   0.2610 
 16 C       -5.3420    -9.0860    -0.0010 C.2   1 <1>   0.5690 
 17 C       -5.5890    -7.5400     2.0490 C.3   1 <1>  -0.2400 
 18 O       -4.3880    -9.8270    -0.0820 O.2   1 <1>  -0.5700 
 19 N       -6.5860    -9.5090    -0.4260 N.am  1 <1>  -0.6600 
 20 C       -6.6990   -10.7390    -1.2650 C.3   1 <1>   0.3200 
 21 C       -7.8680    -8.7500    -0.2620 C.3   1 <1>   0.1400 
 22 C       -7.4640   -11.8210    -0.5280 C.2   1 <1>  -0.3320 
 23 C       -8.6740    -9.2480     0.9450 C.3   1 <1>   0.1200 
 24 N       -7.0210   -12.4730     0.5670 N.pl3 1 <1>   0.0480 
 25 C       -8.6810   -12.3360    -0.8130 C.2   1 <1>   0.0770 
 26 O       -9.6450    -8.3080     1.2660 O.3   1 <1>  -0.6800 
 27 C       -8.0140   -13.3360     0.8750 C.2   1 <1>   0.0360 
 28 C       -5.7360   -12.3130     1.2710 C.3   1 <1>   0.0160 
 29 N       -9.0280   -13.2850     0.0730 N.2   1 <1>  -0.5650 
 30 H       -2.2200    -0.0950     0.4730 H     1 <1>   0.1500 
 31 H       -3.4320    -5.6340     1.1640 H     1 <1>   0.1500 
 32 H       -5.5040    -0.2560    -0.8920 H     1 <1>   0.0800 
 33 H       -4.4650    -0.6500    -2.2320 H     1 <1>   0.0800 
 34 H       -5.9020    -2.4820    -1.6830 H     1 <1>   0.1500 
 35 H       -3.9130     1.4880    -0.1610 H     1 <1>   0.0800 
 36 H       -4.4530     1.7530    -1.7970 H     1 <1>   0.0800 
 37 H       -2.8650     1.0920    -1.5130 H     1 <1>   0.0800 
 38 H       -6.6150    -4.8050    -1.5570 H     1 <1>   0.1500 
 39 H       -3.9830    -7.6030     0.6250 H     1 <1>   0.0800 
 40 H       -6.6610    -7.5290     2.0570 H     1 <1>   0.0800 
 41 H       -5.2280    -6.6280     2.4870 H     1 <1>   0.0800 
 42 H       -5.2480    -8.3600     2.6550 H     1 <1>   0.0800 
 43 H       -5.7290   -11.1140    -1.5400 H     1 <1>   0.0800 
 44 H       -7.2140   -10.4930    -2.1780 H     1 <1>   0.0800 
 45 H       -8.4670    -8.8600    -1.1500 H     1 <1>   0.0800 
 46 H       -7.6690    -7.7050    -0.1390 H     1 <1>   0.0800 
 47 H       -8.0450    -9.3900     1.8050 H     1 <1>   0.0800 
 48 H       -9.1790   -10.1700     0.7160 H     1 <1>   0.0800 
 49 H       -9.3420   -12.0690    -1.6220 H     1 <1>   0.1500 
 50 H       -9.2440    -7.4900     1.6180 H     1 <1>   0.4000 
 51 H       -7.9480   -14.0030     1.7160 H     1 <1>   0.1500 
 52 H       -4.9320   -12.3480     0.5590 H     1 <1>   0.0800 
 53 H       -5.6140   -13.1030     1.9880 H     1 <1>   0.0800 
 54 H       -5.7250   -11.3640     1.7750 H     1 <1>   0.0800 
@<TRIPOS>BOND
  1   1   2  2   
  2   2   3  1   
  3   2   4  1   
  4   3   5  1   
  5   4   6  2   
  6   4  30  1   
  7   5   7  ar  
  8   5   8  ar  
  9   6   7  1   
 10   6   9  1   
 11   7  10  ar  
 12   8  11  ar  
 13   8  31  1   
 14   9  12  1   
 15   9  32  1   
 16   9  33  1   
 17  10  13  ar  
 18  10  34  1   
 19  11  13  ar  
 20  11  14  1   
 21  12  35  1   
 22  12  36  1   
 23  12  37  1   
 24  13  38  1   
 25  14  15  1   
 26  15  16  1   
 27  15  17  1   
 28  15  39  1   
 29  16  18  2   
 30  16  19  am  
 31  17  40  1   
 32  17  41  1   
 33  17  42  1   
 34  19  20  1   
 35  19  21  1   
 36  20  22  1   
 37  20  43  1   
 38  20  44  1   
 39  21  23  1   
 40  21  45  1   
 41  21  46  1   
 42  22  24  1   
 43  22  25  2   
 44  23  26  1   
 45  23  47  1   
 46  23  48  1   
 47  24  27  1   
 48  24  28  1   
 49  25  29  1   
 50  25  49  1   
 51  26  50  1   
 52  27  29  2   
 53  27  51  1   
 54  28  52  1   
 55  28  53  1   
 56  28  54  1   
@<TRIPOS>SUBSTRUCTURE
  1 ****  14 GROUP 4 **** **** 0

# MOE 2024.06 (io_trps.svl 2023.06)
