@<TRIPOS>MOLECULE
NONAME
38 40 1 0 0 
SMALL
USER_CHARGES


@<TRIPOS>ATOM
  1 O       -0.3640    -0.7400     0.2510 O.3   1 <1>  -0.5600 
  2 C        0.4970    -0.1360    -0.6690 C.3   1 <1>   0.1200 
  3 C       -1.5020     0.0440     0.4600 C.3   1 <1>   0.1200 
  4 C        0.1440     1.3490    -0.6810 C.3   1 <1>   0.2890 
  5 C       -1.3590     1.2800    -0.4290 C.3   1 <1>  -0.0800 
  6 N        0.8710     2.0260     0.4200 N.pl3 1 <1>  -0.8690 
  7 C       -2.0310     2.5390     0.1500 C.3   1 <1>  -0.0170 
  8 C        1.0650     3.3860     0.4730 C.ar  1 <1>   0.4100 
  9 C       -3.5360     2.3460     0.2620 C.ar  1 <1>  -0.1440 
 10 N        0.7810     3.9650     1.6410 N.ar  1 <1>  -0.3100 
 11 C        1.5170     4.1070    -0.6160 C.ar  1 <1>  -0.1500 
 12 C       -4.3690     2.4480    -0.8340 C.ar  1 <1>  -0.1500 
 13 C       -4.1450     2.0580     1.4660 C.ar  1 <1>  -0.1500 
 14 N        0.9020     5.2630     1.7820 N.ar  1 <1>  -0.3100 
 15 C        1.6520     5.4660    -0.4680 C.ar  1 <1>  -0.1500 
 16 C       -5.7320     2.2550    -0.6780 C.ar  1 <1>   0.1600 
 17 C       -5.5190     1.8840     1.5140 C.ar  1 <1>   0.1600 
 18 C        1.3260     6.0000     0.7620 C.ar  1 <1>   0.1670 
 19 N       -6.3270     1.9720     0.4700 N.ar  1 <1>  -0.6200 
 20 C        1.4430     7.4900     1.0100 C.3   1 <1>  -0.0970 
 21 H        1.5180    -0.3130    -0.3790 H     1 <1>   0.0800 
 22 H        0.3060    -0.5780    -1.6310 H     1 <1>   0.0800 
 23 H       -2.3780    -0.5320     0.2150 H     1 <1>   0.0800 
 24 H       -1.5220     0.3100     1.5030 H     1 <1>   0.0800 
 25 H        0.3800     1.8020    -1.6280 H     1 <1>   0.0800 
 26 H       -1.8330     1.0510    -1.3660 H     1 <1>   0.0800 
 27 H        0.6480     1.6190     1.3340 H     1 <1>   0.4000 
 28 H       -1.8270     3.3850    -0.4830 H     1 <1>   0.0800 
 29 H       -1.6340     2.7620     1.1240 H     1 <1>   0.0800 
 30 H        1.7620     3.6170    -1.5370 H     1 <1>   0.1500 
 31 H       -3.9730     2.6760    -1.8060 H     1 <1>   0.1500 
 32 H       -3.5670     1.9700     2.3680 H     1 <1>   0.1500 
 33 H        2.0000     6.0830    -1.2760 H     1 <1>   0.1500 
 34 H       -6.3660     2.3380    -1.5430 H     1 <1>   0.1500 
 35 H       -5.9760     1.6600     2.4620 H     1 <1>   0.1500 
 36 H        1.7920     8.0040     0.1340 H     1 <1>   0.0800 
 37 H        2.1340     7.6660     1.8150 H     1 <1>   0.0800 
 38 H        0.4830     7.8850     1.2880 H     1 <1>   0.0800 
@<TRIPOS>BOND
  1   1   2  1   
  2   1   3  1   
  3   2   4  1   
  4   2  21  1   
  5   2  22  1   
  6   3   5  1   
  7   3  23  1   
  8   3  24  1   
  9   4   5  1   
 10   4   6  1   
 11   4  25  1   
 12   5   7  1   
 13   5  26  1   
 14   6   8  1   
 15   6  27  1   
 16   7   9  1   
 17   7  28  1   
 18   7  29  1   
 19   8  10  ar  
 20   8  11  ar  
 21   9  12  ar  
 22   9  13  ar  
 23  10  14  ar  
 24  11  15  ar  
 25  11  30  1   
 26  12  16  ar  
 27  12  31  1   
 28  13  17  ar  
 29  13  32  1   
 30  14  18  ar  
 31  15  18  ar  
 32  15  33  1   
 33  16  19  ar  
 34  16  34  1   
 35  17  19  ar  
 36  17  35  1   
 37  18  20  1   
 38  20  36  1   
 39  20  37  1   
 40  20  38  1   
@<TRIPOS>SUBSTRUCTURE
  1 ****   7 GROUP 4 **** **** 0

# MOE 2024.06 (io_trps.svl 2023.06)
