@<TRIPOS>MOLECULE
NONAME
47 49 1 0 0 
SMALL
USER_CHARGES


@<TRIPOS>ATOM
  1 S        0.4110    -0.1940    -1.2630 S.3   1 <1>  -0.0800 
  2 C        1.6300    -0.4670    -0.0270 C.2   1 <1>  -0.1400 
  3 C       -0.7580    -1.1700    -0.3910 C.2   1 <1>  -0.1100 
  4 C        1.1380    -1.2490     0.9530 C.2   1 <1>  -0.1500 
  5 C        2.9920     0.1700    -0.2260 C.3   1 <1>   0.0200 
  6 C       -0.2210    -1.6490     0.7460 C.2   1 <1>  -0.1500 
  7 C        2.9280     1.6930    -0.0500 C.3   1 <1>  -0.1600 
  8 C        4.3110     2.3470    -0.2370 C.3   1 <1>  -0.0990 
  9 C        4.3280     3.8660    -0.0760 C.2   1 <1>   0.5690 
 10 O        3.3110     4.4140     0.2790 O.2   1 <1>  -0.5700 
 11 N        5.4780     4.5780    -0.3210 N.am  1 <1>  -0.6600 
 12 C        6.8070     3.9750    -0.6590 C.3   1 <1>   0.1400 
 13 C        5.4670     6.0670    -0.2400 C.3   1 <1>   0.1400 
 14 C        7.8780     4.3050     0.3910 C.3   1 <1>   0.1400 
 15 C        6.0550     6.5210     1.1000 C.3   1 <1>  -0.1600 
 16 N        8.3210     5.7260     0.2790 N.am  1 <1>  -0.6600 
 17 C        7.5730     6.7470     1.0700 C.3   1 <1>   0.1400 
 18 C        9.3640     6.0690    -0.5820 C.2   1 <1>   0.5440 
 19 O        9.6340     5.2450    -1.4520 O.2   1 <1>  -0.5700 
 20 C       10.0930     7.3190    -0.5250 C.ar  1 <1>   0.3960 
 21 N       10.2860     7.9660     0.6580 N.ar  1 <1>  -0.6200 
 22 C       10.5940     7.8570    -1.7210 C.ar  1 <1>   0.1600 
 23 C       10.9290     9.0950     0.5320 C.ar  1 <1>   0.1600 
 24 N       11.2330     8.9920    -1.8580 N.ar  1 <1>  -0.6200 
 25 C       11.3970     9.6350    -0.6890 C.ar  1 <1>   0.1390 
 26 O       11.9750    10.7330    -0.7040 O.3   1 <1>  -0.8290 
 27 H       -1.7330    -1.2820    -0.8290 H     1 <1>   0.1500 
 28 H        1.6770    -1.5690     1.8270 H     1 <1>   0.1500 
 29 H        3.3510    -0.0740    -1.2110 H     1 <1>   0.0800 
 30 H        3.6770    -0.2450     0.4920 H     1 <1>   0.0800 
 31 H       -0.7270    -2.2740     1.4610 H     1 <1>   0.1500 
 32 H        2.5530     1.9200     0.9340 H     1 <1>   0.0800 
 33 H        2.2400     2.1100    -0.7660 H     1 <1>   0.0800 
 34 H        4.6670     2.1140    -1.2230 H     1 <1>   0.0800 
 35 H        4.9920     1.9310     0.4820 H     1 <1>   0.0800 
 36 H        7.1310     4.3340    -1.6210 H     1 <1>   0.0800 
 37 H        6.7320     2.9070    -0.7280 H     1 <1>   0.0800 
 38 H        4.4540     6.4260    -0.3190 H     1 <1>   0.0800 
 39 H        6.0220     6.4870    -1.0630 H     1 <1>   0.0800 
 40 H        8.7290     3.6660     0.2280 H     1 <1>   0.0800 
 41 H        7.5070     4.1040     1.3800 H     1 <1>   0.0800 
 42 H        5.7940     5.8190     1.8710 H     1 <1>   0.0800 
 43 H        5.5990     7.4570     1.3690 H     1 <1>   0.0800 
 44 H        7.9600     6.7670     2.0750 H     1 <1>   0.0800 
 45 H        7.7450     7.7170     0.6380 H     1 <1>   0.0800 
 46 H       10.4360     7.2920    -2.6200 H     1 <1>   0.1500 
 47 H       11.1350     9.6880     1.4020 H     1 <1>   0.1500 
@<TRIPOS>BOND
  1   1   2  1   
  2   1   3  1   
  3   2   4  2   
  4   2   5  1   
  5   3   6  2   
  6   3  27  1   
  7   4   6  1   
  8   4  28  1   
  9   5   7  1   
 10   5  29  1   
 11   5  30  1   
 12   6  31  1   
 13   7   8  1   
 14   7  32  1   
 15   7  33  1   
 16   8   9  1   
 17   8  34  1   
 18   8  35  1   
 19   9  10  2   
 20   9  11  am  
 21  11  12  1   
 22  11  13  1   
 23  12  14  1   
 24  12  36  1   
 25  12  37  1   
 26  13  15  1   
 27  13  38  1   
 28  13  39  1   
 29  14  16  1   
 30  14  40  1   
 31  14  41  1   
 32  15  17  1   
 33  15  42  1   
 34  15  43  1   
 35  16  17  1   
 36  16  18  am  
 37  17  44  1   
 38  17  45  1   
 39  18  19  2   
 40  18  20  1   
 41  20  21  ar  
 42  20  22  ar  
 43  21  23  ar  
 44  22  24  ar  
 45  22  46  1   
 46  23  25  ar  
 47  23  47  1   
 48  24  25  ar  
 49  25  26  1   
@<TRIPOS>SUBSTRUCTURE
  1 ****  11 GROUP 4 **** **** 0

# MOE 2024.06 (io_trps.svl 2023.06)
