@<TRIPOS>MOLECULE
NONAME
38 39 1 0 0 
SMALL
USER_CHARGES


@<TRIPOS>ATOM
  1 O        1.7330    -0.9370     2.1190 O.co2 1 <1>  -0.9000 
  2 C        2.5460    -0.8910     1.1990 C.2   1 <1>   0.9060 
  3 O        3.0530    -1.8890     0.6730 O.co2 1 <1>  -0.9000 
  4 C        2.9740     0.4660     0.6900 C.3   1 <1>  -0.1860 
  5 C        4.5020     0.5730     0.7370 C.3   1 <1>   0.2000 
  6 C        2.4080     0.7720    -0.7220 C.3   1 <1>  -0.1600 
  7 O        5.0350    -0.3790    -0.1160 O.3   1 <1>  -0.6800 
  8 C        4.9640     1.9630     0.2590 C.3   1 <1>   0.3430 
  9 C        3.4010     1.4990    -1.6340 C.3   1 <1>   0.3430 
 10 N        4.1180     2.5500    -0.8560 N.4   1 <1>  -0.9590 
 11 C        4.9270     3.4230    -1.7380 C.3   1 <1>   0.4860 
 12 C        5.4640     4.5800    -0.9170 C.ar  1 <1>  -0.1440 
 13 C        6.7820     4.5760    -0.4860 C.ar  1 <1>  -0.1500 
 14 C        4.6400     5.6440    -0.5830 C.ar  1 <1>  -0.1500 
 15 C        7.2990     5.6080     0.2920 C.ar  1 <1>   0.0280 
 16 C        5.1360     6.6830     0.1830 C.ar  1 <1>  -0.1500 
 17 C        6.4490     6.6610     0.6150 C.ar  1 <1>  -0.1500 
 18 C        8.6750     5.5640     0.7340 C.2   1 <1>  -0.1780 
 19 C        9.2520     6.2830     1.7110 C.2   1 <1>  -0.3000 
 20 H        2.5770     1.1890     1.3790 H     1 <1>   0.0800 
 21 H        4.8730     0.3630     1.7270 H     1 <1>   0.0800 
 22 H        1.4990     1.3400    -0.6290 H     1 <1>   0.0800 
 23 H        2.1460    -0.1540    -1.2060 H     1 <1>   0.0800 
 24 H        4.4980    -1.2180     0.0480 H     1 <1>   0.4000 
 25 H        5.9890     1.8710    -0.0590 H     1 <1>   0.0800 
 26 H        4.9430     2.6390     1.0980 H     1 <1>   0.0800 
 27 H        2.8750     1.9290    -2.4700 H     1 <1>   0.0800 
 28 H        4.1160     0.7840    -2.0100 H     1 <1>   0.0800 
 29 H        3.4040     3.1300    -0.4030 H     1 <1>   0.4500 
 30 H        5.7430     2.8620    -2.1640 H     1 <1>   0.0800 
 31 H        4.3190     3.8070    -2.5410 H     1 <1>   0.0800 
 32 H        7.4340     3.7610    -0.7480 H     1 <1>   0.1500 
 33 H        3.6150     5.6820    -0.9120 H     1 <1>   0.1500 
 34 H        4.5030     7.5160     0.4420 H     1 <1>   0.1500 
 35 H        6.8170     7.4800     1.2050 H     1 <1>   0.1500 
 36 H        9.2830     4.8580     0.1950 H     1 <1>   0.1500 
 37 H       10.2900     6.1930     1.9810 H     1 <1>   0.1500 
 38 H        8.7450     7.0100     2.3190 H     1 <1>   0.1500 
@<TRIPOS>BOND
  1   1   2  ar  
  2   2   3  ar  
  3   2   4  1   
  4   4   5  1   
  5   4   6  1   
  6   4  20  1   
  7   5   7  1   
  8   5   8  1   
  9   5  21  1   
 10   6   9  1   
 11   6  22  1   
 12   6  23  1   
 13   7  24  1   
 14   8  10  1   
 15   8  25  1   
 16   8  26  1   
 17   9  10  1   
 18   9  27  1   
 19   9  28  1   
 20  10  11  1   
 21  10  29  1   
 22  11  12  1   
 23  11  30  1   
 24  11  31  1   
 25  12  13  ar  
 26  12  14  ar  
 27  13  15  ar  
 28  13  32  1   
 29  14  16  ar  
 30  14  33  1   
 31  15  17  ar  
 32  15  18  1   
 33  16  17  ar  
 34  16  34  1   
 35  17  35  1   
 36  18  19  2   
 37  18  36  1   
 38  19  37  1   
 39  19  38  1   
@<TRIPOS>SUBSTRUCTURE
  1 ****   8 GROUP 4 **** **** 0

# MOE 2024.06 (io_trps.svl 2023.06)
