@<TRIPOS>MOLECULE
NONAME
49 52 1 0 0 
SMALL
USER_CHARGES


@<TRIPOS>ATOM
  1 F       -0.5080    -0.2270     0.3510 F     1 <1>  -0.1900 
  2 C       -1.6760    -0.8050     0.2880 C.ar  1 <1>   0.1900 
  3 C       -2.7920    -0.0370     0.0770 C.ar  1 <1>  -0.1500 
  4 C       -1.7340    -2.1850     0.4380 C.ar  1 <1>  -0.1500 
  5 C       -4.0570    -0.6470     0.0060 C.ar  1 <1>   0.0000 
  6 C       -2.9620    -2.8000     0.3730 C.ar  1 <1>  -0.1500 
  7 C       -4.1280    -2.0480     0.1590 C.ar  1 <1>   0.3610 
  8 C       -5.2780     0.0640    -0.2120 C.ar  1 <1>  -0.1440 
  9 N       -5.3640    -2.6640     0.0930 N.ar  1 <1>  -0.1790 
 10 C       -6.4550    -0.6200    -0.2660 C.ar  1 <1>  -0.1500 
 11 C       -5.2610     1.5790    -0.3830 C.3   1 <1>  -0.0970 
 12 C       -6.5180    -2.0280    -0.1110 C.ar  1 <1>   0.4610 
 13 N       -7.6650    -2.7320    -0.1620 N.pl3 1 <1>  -0.8380 
 14 C       -9.0280    -2.1430    -0.3790 C.3   1 <1>   0.2090 
 15 C       -7.8260    -4.2080    -0.0100 C.3   1 <1>   0.2090 
 16 C      -10.0330    -3.2980    -0.2370 C.3   1 <1>   0.2000 
 17 C       -9.2000    -4.5270    -0.5940 C.3   1 <1>  -0.0800 
 18 O      -10.4320    -3.4080     1.1000 O.3   1 <1>  -0.5600 
 19 C       -9.7690    -5.8850    -0.1340 C.3   1 <1>   0.0200 
 20 C      -11.5520    -2.6560     1.4500 C.3   1 <1>   0.0400 
 21 C       -8.7370    -6.9880    -0.2920 C.2   1 <1>  -0.0400 
 22 O       -8.0470    -7.0940    -1.3960 O.3   1 <1>  -0.0190 
 23 C       -8.3280    -7.9530     0.5440 C.2   1 <1>  -0.1500 
 24 N       -7.1840    -8.0650    -1.3360 N.2   1 <1>  -0.4100 
 25 C       -7.3390    -8.6100    -0.1830 C.2   1 <1>   0.1080 
 26 C       -6.5520    -9.8050     0.3070 C.3   1 <1>  -0.0590 
 27 H       -2.6790     1.0260    -0.0320 H     1 <1>   0.1500 
 28 H       -0.8230    -2.7370     0.6010 H     1 <1>   0.1500 
 29 H       -3.0200    -3.8680     0.4870 H     1 <1>   0.1500 
 30 H       -5.4180    -3.6700     0.2040 H     1 <1>   0.4570 
 31 H       -7.3770    -0.0950    -0.4300 H     1 <1>   0.1500 
 32 H       -6.2540     1.9640    -0.5370 H     1 <1>   0.0800 
 33 H       -4.6630     1.8520    -1.2340 H     1 <1>   0.0800 
 34 H       -4.8550     2.0490     0.4950 H     1 <1>   0.0800 
 35 H       -9.2360    -1.3620     0.3320 H     1 <1>   0.0800 
 36 H       -9.0830    -1.7460    -1.3780 H     1 <1>   0.0800 
 37 H       -7.0590    -4.7540    -0.5340 H     1 <1>   0.0800 
 38 H       -7.8130    -4.4620     1.0380 H     1 <1>   0.0800 
 39 H      -10.8990    -3.1900    -0.8690 H     1 <1>   0.0800 
 40 H       -9.0910    -4.5580    -1.6650 H     1 <1>   0.0800 
 41 H      -10.6380    -6.1250    -0.7200 H     1 <1>   0.0800 
 42 H      -10.0670    -5.8470     0.8990 H     1 <1>   0.0800 
 43 H      -11.7440    -2.8110     2.4980 H     1 <1>   0.0800 
 44 H      -12.4000    -2.9920     0.8770 H     1 <1>   0.0800 
 45 H      -11.3620    -1.6130     1.2700 H     1 <1>   0.0800 
 46 H       -8.6560    -8.1910     1.5400 H     1 <1>   0.1500 
 47 H       -6.0460    -9.5630     1.2240 H     1 <1>   0.0800 
 48 H       -5.8220   -10.0920    -0.4280 H     1 <1>   0.0800 
 49 H       -7.2150   -10.6330     0.4770 H     1 <1>   0.0800 
@<TRIPOS>BOND
  1   1   2  1   
  2   2   3  ar  
  3   2   4  ar  
  4   3   5  ar  
  5   3  27  1   
  6   4   6  ar  
  7   4  28  1   
  8   5   7  ar  
  9   5   8  ar  
 10   6   7  ar  
 11   6  29  1   
 12   7   9  ar  
 13   8  10  ar  
 14   8  11  1   
 15   9  12  ar  
 16   9  30  1   
 17  10  12  ar  
 18  10  31  1   
 19  11  32  1   
 20  11  33  1   
 21  11  34  1   
 22  12  13  1   
 23  13  14  1   
 24  13  15  1   
 25  14  16  1   
 26  14  35  1   
 27  14  36  1   
 28  15  17  1   
 29  15  37  1   
 30  15  38  1   
 31  16  17  1   
 32  16  18  1   
 33  16  39  1   
 34  17  19  1   
 35  17  40  1   
 36  18  20  1   
 37  19  21  1   
 38  19  41  1   
 39  19  42  1   
 40  20  43  1   
 41  20  44  1   
 42  20  45  1   
 43  21  22  1   
 44  21  23  2   
 45  22  24  1   
 46  23  25  1   
 47  23  46  1   
 48  24  25  2   
 49  25  26  1   
 50  26  47  1   
 51  26  48  1   
 52  26  49  1   
@<TRIPOS>SUBSTRUCTURE
  1 ****   9 GROUP 4 **** **** 0

# MOE 2024.06 (io_trps.svl 2023.06)
