@<TRIPOS>MOLECULE
NONAME
45 47 1 0 0 
SMALL
USER_CHARGES


@<TRIPOS>ATOM
  1 S        0.5810     0.2560    -1.2280 S.o2  1 <1>   1.3330 
  2 O        1.7480    -0.5970    -1.2910 O.2   1 <1>  -0.6500 
  3 O       -0.0750     0.6570    -2.4510 O.2   1 <1>  -0.6500 
  4 N       -0.5910    -0.5380    -0.2850 N.am  1 <1>  -0.8490 
  5 C        0.9720     1.7240    -0.2610 C.3   1 <1>  -0.0550 
  6 C       -1.9480    -0.0120    -0.4750 C.3   1 <1>   0.1160 
  7 C       -0.5910    -1.9880    -0.5050 C.3   1 <1>   0.1160 
  8 C        1.9630     1.5610     0.9140 C.3   1 <1>  -0.0800 
  9 C        3.3970     1.2680     0.4660 C.3   1 <1>   0.2200 
 10 C        1.6610     0.4530     1.9280 C.3   1 <1>   0.1200 
 11 N        4.2660     2.4140     0.8090 N.am  1 <1>  -0.7300 
 12 C        3.7730     0.0290     1.2770 C.3   1 <1>   0.1200 
 13 O        2.9050     0.0200     2.3650 O.3   1 <1>  -0.5600 
 14 C        4.4440     3.5370     0.0550 C.2   1 <1>   0.7160 
 15 O        3.8360     3.6210    -1.0010 O.2   1 <1>  -0.5700 
 16 C        5.3210     4.5940     0.5390 C.2   1 <1>   0.2030 
 17 N        5.9790     4.5940     1.6940 N.2   1 <1>  -0.7070 
 18 C        5.5990     5.7810    -0.1500 C.2   1 <1>  -0.1810 
 19 N        6.6570     5.7590     1.7260 N.pl3 1 <1>   0.3000 
 20 C        6.4280     6.4770     0.6140 C.2   1 <1>  -0.3320 
 21 C        5.2720     6.4860    -1.4350 C.3   1 <1>   0.0210 
 22 C        6.8440     7.7970     0.0300 C.3   1 <1>   0.0200 
 23 C        6.0170     7.8380    -1.2810 C.3   1 <1>  -0.1600 
 24 H        1.3880     2.4570    -0.9260 H     1 <1>   0.0800 
 25 H        0.0590     2.1380     0.1180 H     1 <1>   0.0800 
 26 H       -2.6280    -0.4840     0.2140 H     1 <1>   0.0800 
 27 H       -2.2870    -0.1970    -1.4820 H     1 <1>   0.0800 
 28 H       -1.9660     1.0490    -0.2960 H     1 <1>   0.0800 
 29 H       -1.3370    -2.4600     0.1110 H     1 <1>   0.0800 
 30 H        0.3700    -2.4010    -0.2430 H     1 <1>   0.0800 
 31 H       -0.7910    -2.2100    -1.5400 H     1 <1>   0.0800 
 32 H        1.9530     2.4880     1.4620 H     1 <1>   0.0800 
 33 H        3.4800     1.0630    -0.5880 H     1 <1>   0.0800 
 34 H        1.1690    -0.3950     1.4910 H     1 <1>   0.0800 
 35 H        1.0960     0.8080     2.7730 H     1 <1>   0.0800 
 36 H        4.6990     2.4160     1.7370 H     1 <1>   0.3700 
 37 H        4.7910     0.0440     1.6240 H     1 <1>   0.0800 
 38 H        3.5910    -0.8640     0.7040 H     1 <1>   0.0800 
 39 H        7.2600     6.0330     2.5110 H     1 <1>   0.2700 
 40 H        5.6460     5.9220    -2.2720 H     1 <1>   0.0800 
 41 H        4.2090     6.6260    -1.5330 H     1 <1>   0.0800 
 42 H        6.5840     8.6120     0.6820 H     1 <1>   0.0800 
 43 H        7.9000     7.8040    -0.1760 H     1 <1>   0.0800 
 44 H        5.2980     8.6360    -1.2260 H     1 <1>   0.0800 
 45 H        6.6590     8.0100    -2.1260 H     1 <1>   0.0800 
@<TRIPOS>BOND
  1   1   2  2   
  2   1   3  2   
  3   1   4  am  
  4   1   5  1   
  5   4   6  1   
  6   4   7  1   
  7   5   8  1   
  8   5  24  1   
  9   5  25  1   
 10   6  26  1   
 11   6  27  1   
 12   6  28  1   
 13   7  29  1   
 14   7  30  1   
 15   7  31  1   
 16   8   9  1   
 17   8  10  1   
 18   8  32  1   
 19   9  11  1   
 20   9  12  1   
 21   9  33  1   
 22  10  13  1   
 23  10  34  1   
 24  10  35  1   
 25  11  14  am  
 26  11  36  1   
 27  12  13  1   
 28  12  37  1   
 29  12  38  1   
 30  14  15  2   
 31  14  16  1   
 32  16  17  2   
 33  16  18  1   
 34  17  19  1   
 35  18  20  2   
 36  18  21  1   
 37  19  20  1   
 38  19  39  1   
 39  20  22  1   
 40  21  23  1   
 41  21  40  1   
 42  21  41  1   
 43  22  23  1   
 44  22  42  1   
 45  22  43  1   
 46  23  44  1   
 47  23  45  1   
@<TRIPOS>SUBSTRUCTURE
  1 ****  11 GROUP 4 **** **** 0

# MOE 2024.06 (io_trps.svl 2023.06)
