@<TRIPOS>MOLECULE
NONAME
35 36 1 0 0 
SMALL
USER_CHARGES


@<TRIPOS>ATOM
  1 F        0.1240     1.4980     1.2670 F     1 <1>  -0.1900 
  2 C       -1.0570     2.0640     1.3650 C.ar  1 <1>   0.1900 
  3 C       -1.2380     3.3490     0.8660 C.ar  1 <1>   0.1000 
  4 C       -2.0900     1.3690     1.9600 C.ar  1 <1>   0.1600 
  5 N       -0.2380     4.1030     0.2590 N.pl3 1 <1>  -0.8690 
  6 C       -2.5160     3.8530     1.0350 C.ar  1 <1>  -0.1500 
  7 N       -3.3190     1.8540     2.1100 N.ar  1 <1>  -0.6200 
  8 C        0.0180     3.9490    -1.1960 C.3   1 <1>   0.4690 
  9 C       -3.4950     3.0860     1.6450 C.ar  1 <1>   0.1600 
 10 C        1.0200     5.0070    -1.6460 C.2   1 <1>   0.0070 
 11 C       -1.2750     4.0250    -2.0100 C.3   1 <1>  -0.2400 
 12 N        2.0810     4.7230    -2.3240 N.2   1 <1>  -0.3380 
 13 N        0.9360     6.3240    -1.4030 N.pl3 1 <1>   0.0480 
 14 N        2.7260     5.8660    -2.5500 N.2   1 <1>  -0.3380 
 15 C        2.0320     6.7990    -1.9980 C.2   1 <1>   0.0370 
 16 C       -0.0650     7.1240    -0.6630 C.3   1 <1>   0.0960 
 17 C        0.4070     7.3810     0.7650 C.3   1 <1>   0.1200 
 18 O       -0.5160     8.2300     1.3670 O.3   1 <1>  -0.5600 
 19 C       -0.2470     8.4970     2.7060 C.3   1 <1>   0.0400 
 20 H       -1.9010     0.3760     2.3270 H     1 <1>   0.1500 
 21 H        0.6710     3.9540     0.7150 H     1 <1>   0.4000 
 22 H       -2.7410     4.8460     0.6940 H     1 <1>   0.1500 
 23 H        0.4640     2.9820    -1.3610 H     1 <1>   0.0800 
 24 H       -4.4800     3.5070     1.7600 H     1 <1>   0.1500 
 25 H       -1.8070     4.9360    -1.8160 H     1 <1>   0.0800 
 26 H       -1.9070     3.1860    -1.7850 H     1 <1>   0.0800 
 27 H       -1.0340     3.9870    -3.0570 H     1 <1>   0.0800 
 28 H        2.2930     7.8410    -2.0070 H     1 <1>   0.1500 
 29 H       -1.0000     6.5990    -0.6370 H     1 <1>   0.0800 
 30 H       -0.2020     8.0600    -1.1730 H     1 <1>   0.0800 
 31 H        1.3680     7.8650     0.7700 H     1 <1>   0.0800 
 32 H        0.4450     6.4610     1.3230 H     1 <1>   0.0800 
 33 H       -1.0070     9.1630     3.0740 H     1 <1>   0.0800 
 34 H        0.7180     8.9670     2.7900 H     1 <1>   0.0800 
 35 H       -0.2710     7.5760     3.2640 H     1 <1>   0.0800 
@<TRIPOS>BOND
  1   1   2  1   
  2   2   3  ar  
  3   2   4  ar  
  4   3   5  1   
  5   3   6  ar  
  6   4   7  ar  
  7   4  20  1   
  8   5   8  1   
  9   5  21  1   
 10   6   9  ar  
 11   6  22  1   
 12   7   9  ar  
 13   8  10  1   
 14   8  11  1   
 15   8  23  1   
 16   9  24  1   
 17  10  12  2   
 18  10  13  1   
 19  11  25  1   
 20  11  26  1   
 21  11  27  1   
 22  12  14  1   
 23  13  15  1   
 24  13  16  1   
 25  14  15  2   
 26  15  28  1   
 27  16  17  1   
 28  16  29  1   
 29  16  30  1   
 30  17  18  1   
 31  17  31  1   
 32  17  32  1   
 33  18  19  1   
 34  19  33  1   
 35  19  34  1   
 36  19  35  1   
@<TRIPOS>SUBSTRUCTURE
  1 ****   5 GROUP 4 **** **** 0

# MOE 2024.06 (io_trps.svl 2023.06)
