@<TRIPOS>MOLECULE
NONAME
46 49 1 0 0 
SMALL
USER_CHARGES


@<TRIPOS>ATOM
  1 O       -0.0440     1.6100    -1.9520 O.2   1 <1>  -0.5700 
  2 C        1.0410     1.5910    -1.3930 C.2   1 <1>   0.7160 
  3 N        1.2430     2.4290    -0.2920 N.am  1 <1>  -0.6600 
  4 C        2.0590     0.6920    -1.9540 C.2   1 <1>   0.2030 
  5 C        0.1880     3.1750     0.4980 C.3   1 <1>   0.2200 
  6 C        2.6150     2.5500     0.3040 C.3   1 <1>   0.1400 
  7 N        3.1990     0.2770    -1.4160 N.2   1 <1>  -0.7070 
  8 C        1.9150     0.1090    -3.2240 C.2   1 <1>  -0.1500 
  9 C        0.5000     4.6940     0.6990 C.3   1 <1>   0.1380 
 10 C       -1.3070     2.9890     0.1690 C.3   1 <1>  -0.1600 
 11 C        2.7410     3.6450     1.3770 C.3   1 <1>  -0.1600 
 12 N        3.7580    -0.5410    -2.3180 N.pl3 1 <1>   0.3000 
 13 C        3.0010    -0.6600    -3.4210 C.2   1 <1>  -0.3020 
 14 C        0.1290     5.5970    -0.5160 C.2   1 <1>  -0.2760 
 15 C       -0.2900     5.0400     2.0000 C.3   1 <1>   0.1200 
 16 C        2.0130     4.9230     0.9430 C.3   1 <1>  -0.1600 
 17 C       -2.1680     4.0120     0.9280 C.3   1 <1>   0.1200 
 18 C        0.0580     5.1700    -1.7840 C.2   1 <1>  -0.2880 
 19 C       -0.0940     7.0930    -0.2610 C.3   1 <1>  -0.0220 
 20 O       -1.5380     4.3900     2.1160 O.3   1 <1>  -0.5600 
 21 C       -0.2110     6.0630    -2.9850 C.3   1 <1>   0.2580 
 22 C       -0.6660     7.8090    -1.4950 C.3   1 <1>   0.1200 
 23 O        0.0020     7.4010    -2.6460 O.3   1 <1>  -0.5600 
 24 H        0.2660     2.7370     1.4790 H     1 <1>   0.0800 
 25 H        2.8970     1.6070     0.7410 H     1 <1>   0.0800 
 26 H        3.3090     2.7710    -0.4910 H     1 <1>   0.0800 
 27 H        1.0770     0.2700    -3.8810 H     1 <1>   0.1500 
 28 H       -1.6100     1.9930     0.4350 H     1 <1>   0.0800 
 29 H       -1.5140     3.1360    -0.8720 H     1 <1>   0.0800 
 30 H        2.3450     3.2850     2.3100 H     1 <1>   0.0800 
 31 H        3.7840     3.8560     1.5340 H     1 <1>   0.0800 
 32 H        4.6570    -1.0110    -2.1550 H     1 <1>   0.2700 
 33 H        3.2730    -1.2720    -4.2630 H     1 <1>   0.1500 
 34 H       -0.4430     6.0900     2.1370 H     1 <1>   0.0800 
 35 H        0.2820     4.7060     2.8480 H     1 <1>   0.0800 
 36 H        2.4720     5.2510     0.0240 H     1 <1>   0.0800 
 37 H        2.1660     5.7050     1.6650 H     1 <1>   0.0800 
 38 H       -3.1270     3.5910     1.1760 H     1 <1>   0.0800 
 39 H       -2.3240     4.8990     0.3370 H     1 <1>   0.0800 
 40 H        0.2060     4.1510    -2.0840 H     1 <1>   0.1500 
 41 H        0.8350     7.5550     0.0160 H     1 <1>   0.0800 
 42 H       -0.8030     7.2600     0.5240 H     1 <1>   0.0800 
 43 H       -1.2220     5.9470    -3.3340 H     1 <1>   0.0800 
 44 H        0.4680     5.8250    -3.7840 H     1 <1>   0.0800 
 45 H       -0.5470     8.8740    -1.4020 H     1 <1>   0.0800 
 46 H       -1.7120     7.5830    -1.6150 H     1 <1>   0.0800 
@<TRIPOS>BOND
  1   1   2  2   
  2   2   3  am  
  3   2   4  1   
  4   3   5  1   
  5   3   6  1   
  6   4   7  2   
  7   4   8  1   
  8   5   9  1   
  9   5  10  1   
 10   5  24  1   
 11   6  11  1   
 12   6  25  1   
 13   6  26  1   
 14   7  12  1   
 15   8  13  2   
 16   8  27  1   
 17   9  14  1   
 18   9  15  1   
 19   9  16  1   
 20  10  17  1   
 21  10  28  1   
 22  10  29  1   
 23  11  16  1   
 24  11  30  1   
 25  11  31  1   
 26  12  13  1   
 27  12  32  1   
 28  13  33  1   
 29  14  18  2   
 30  14  19  1   
 31  15  20  1   
 32  15  34  1   
 33  15  35  1   
 34  16  36  1   
 35  16  37  1   
 36  17  20  1   
 37  17  38  1   
 38  17  39  1   
 39  18  21  1   
 40  18  40  1   
 41  19  22  1   
 42  19  41  1   
 43  19  42  1   
 44  21  23  1   
 45  21  43  1   
 46  21  44  1   
 47  22  23  1   
 48  22  45  1   
 49  22  46  1   
@<TRIPOS>SUBSTRUCTURE
  1 ****   3 GROUP 4 **** **** 0

# MOE 2024.06 (io_trps.svl 2023.06)
