@<TRIPOS>MOLECULE
Untitled Document
52 54 1 0 0 
SMALL
USER_CHARGES


@<TRIPOS>ATOM
  1 O        1.5280    -1.4790     2.0460 O.3   1 <1>  -0.3630 
  2 C        2.2430    -1.2340     0.9100 C.ar  1 <1>   0.0830 
  3 C        0.2270    -2.0210     2.0380 C.3   1 <1>   0.0400 
  4 C        1.8650    -1.5160    -0.4140 C.ar  1 <1>   0.0830 
  5 C        3.4750    -0.6420     1.1370 C.ar  1 <1>  -0.1500 
  6 O        0.6900    -2.0920    -0.7470 O.3   1 <1>  -0.5330 
  7 C        2.7210    -1.1990    -1.4560 C.ar  1 <1>  -0.1500 
  8 C        4.3370    -0.3290     0.0970 C.ar  1 <1>  -0.1440 
  9 C        3.9480    -0.6110    -1.2050 C.ar  1 <1>  -0.1500 
 10 C        5.6840     0.2970     0.4140 C.3   1 <1>   0.3430 
 11 O        5.9410     1.3130    -0.5040 O.3   1 <1>  -0.6800 
 12 C        6.8100    -0.7570     0.3280 C.3   1 <1>   0.3430 
 13 N        8.1160    -0.1270    -0.0580 N.4   1 <1>  -0.9060 
 14 C        9.0720    -1.0180    -0.7330 C.3   1 <1>   0.4230 
 15 C       10.4550    -0.3620    -0.6610 C.3   1 <1>  -0.1600 
 16 C        8.6040    -1.2260    -2.1730 C.3   1 <1>  -0.2400 
 17 C       11.5780    -1.2450    -1.2340 C.3   1 <1>   0.0960 
 18 N       12.8840    -0.6230    -0.9510 N.pl3 1 <1>   0.0480 
 19 C       13.5580    -0.6520     0.2290 C.ar  1 <1>  -0.1520 
 20 C       13.5900     0.2200    -1.7500 C.2   1 <1>   0.0360 
 21 C       14.6370     0.1960     0.0570 C.ar  1 <1>   0.2270 
 22 C       13.3550    -1.3230     1.4400 C.ar  1 <1>  -0.1500 
 23 N       14.6330     0.7280    -1.1950 N.2   1 <1>  -0.5650 
 24 C       15.5360     0.4030     1.1010 C.ar  1 <1>  -0.1500 
 25 C       14.2500    -1.1130     2.4660 C.ar  1 <1>  -0.1500 
 26 C       15.3390    -0.2490     2.2990 C.ar  1 <1>  -0.1500 
 27 H       -0.1180    -2.0800     3.0540 H     1 <1>   0.0800 
 28 H        0.2610    -3.0050     1.6060 H     1 <1>   0.0800 
 29 H       -0.4170    -1.3730     1.4690 H     1 <1>   0.0800 
 30 H        3.7400    -0.4320     2.1590 H     1 <1>   0.1500 
 31 H        0.5740    -2.2040    -1.7070 H     1 <1>   0.4500 
 32 H        2.4370    -1.4090    -2.4720 H     1 <1>   0.1500 
 33 H        4.5900    -0.3750    -2.0380 H     1 <1>   0.1500 
 34 H        5.6660     0.7430     1.3950 H     1 <1>   0.0800 
 35 H        5.1300     1.8620    -0.5980 H     1 <1>   0.4000 
 36 H        6.5190    -1.4750    -0.4200 H     1 <1>   0.0800 
 37 H        6.8950    -1.2830     1.2650 H     1 <1>   0.0800 
 38 H        8.5470     0.3230     0.7570 H     1 <1>   0.4500 
 39 H        7.8500     0.6500    -0.6910 H     1 <1>   0.4500 
 40 H        9.1060    -1.9670    -0.2180 H     1 <1>   0.0800 
 41 H       10.6860    -0.1640     0.3720 H     1 <1>   0.0800 
 42 H       10.4450     0.5730    -1.1960 H     1 <1>   0.0800 
 43 H        8.5910    -0.2960    -2.7150 H     1 <1>   0.0800 
 44 H        7.6230    -1.6650    -2.2060 H     1 <1>   0.0800 
 45 H        9.2650    -1.9020    -2.6860 H     1 <1>   0.0800 
 46 H       11.4780    -1.3550    -2.3000 H     1 <1>   0.0800 
 47 H       11.5670    -2.2220    -0.7840 H     1 <1>   0.0800 
 48 H       13.2840     0.4360    -2.7590 H     1 <1>   0.1500 
 49 H       12.5250    -1.9920     1.5660 H     1 <1>   0.1500 
 50 H       16.3640     1.0680     0.9430 H     1 <1>   0.1500 
 51 H       14.1240    -1.6140     3.4110 H     1 <1>   0.1500 
 52 H       16.0240    -0.1010     3.1150 H     1 <1>   0.1500 
@<TRIPOS>BOND
  1   1   2  1   
  2   1   3  1   
  3   2   4  ar  
  4   2   5  ar  
  5   3  27  1   
  6   3  28  1   
  7   3  29  1   
  8   4   6  1   
  9   4   7  ar  
 10   5   8  ar  
 11   5  30  1   
 12   6  31  1   
 13   7   9  ar  
 14   7  32  1   
 15   8   9  ar  
 16   8  10  1   
 17   9  33  1   
 18  10  11  1   
 19  10  12  1   
 20  10  34  1   
 21  11  35  1   
 22  12  13  1   
 23  12  36  1   
 24  12  37  1   
 25  13  14  1   
 26  13  38  1   
 27  13  39  1   
 28  14  15  1   
 29  14  16  1   
 30  14  40  1   
 31  15  17  1   
 32  15  41  1   
 33  15  42  1   
 34  16  43  1   
 35  16  44  1   
 36  16  45  1   
 37  17  18  1   
 38  17  46  1   
 39  17  47  1   
 40  18  19  1   
 41  18  20  1   
 42  19  21  ar  
 43  19  22  ar  
 44  20  23  2   
 45  20  48  1   
 46  21  23  1   
 47  21  24  ar  
 48  22  25  ar  
 49  22  49  1   
 50  24  26  ar  
 51  24  50  1   
 52  25  26  ar  
 53  25  51  1   
 54  26  52  1   
@<TRIPOS>SUBSTRUCTURE
  1 ****  13 GROUP 4 **** **** 0

# MOE 2024.06 (io_trps.svl 2023.06)
