@<TRIPOS>MOLECULE
NONAME
42 44 1 0 0 
SMALL
USER_CHARGES


@<TRIPOS>ATOM
  1 CL       1.0990     0.6260     2.8480 Cl    1 <1>  -0.1770 
  2 C        1.8400     1.0660     1.3300 C.ar  1 <1>   0.1770 
  3 C        2.2920     0.0760     0.4630 C.ar  1 <1>   0.0860 
  4 C        1.9430     2.4130     1.0300 C.ar  1 <1>  -0.1500 
  5 C        2.8450     0.5070    -0.7400 C.ar  1 <1>   0.1770 
  6 C        2.1940    -1.3200     0.7920 C.2   1 <1>   0.5440 
  7 C        2.5070     2.8090    -0.1710 C.ar  1 <1>  -0.1500 
  8 CL       3.4070    -0.6610    -1.9100 Cl    1 <1>  -0.1770 
  9 C        2.9590     1.8480    -1.0610 C.ar  1 <1>  -0.1500 
 10 O        3.0780    -1.8500     1.4350 O.2   1 <1>  -0.5700 
 11 N        1.1200    -2.0710     0.3820 N.am  1 <1>  -0.6600 
 12 C        0.0320    -1.6200    -0.5190 C.3   1 <1>   0.1400 
 13 C        0.9620    -3.5060     0.6960 C.3   1 <1>   0.1400 
 14 C       -0.8730    -2.8450    -0.7220 C.3   1 <1>   0.2000 
 15 C        0.0370    -4.0370    -0.4010 C.3   1 <1>  -0.0800 
 16 O       -1.9250    -2.8200     0.2010 O.3   1 <1>  -0.5600 
 17 C       -0.7060    -5.3260    -0.0080 C.3   1 <1>   0.0200 
 18 C       -3.0410    -2.0810    -0.1850 C.3   1 <1>   0.0400 
 19 C        0.2120    -6.5300     0.1250 C.2   1 <1>  -0.0400 
 20 O       -0.2970    -7.6670     0.5210 O.3   1 <1>  -0.0190 
 21 C        1.5240    -6.7240    -0.0870 C.2   1 <1>  -0.1500 
 22 N        0.6010    -8.6080     0.5870 N.2   1 <1>  -0.4100 
 23 C        1.7090    -8.0670     0.2270 C.2   1 <1>   0.1080 
 24 C        3.0310    -8.7980     0.1590 C.3   1 <1>  -0.0590 
 25 H        1.5840     3.1440     1.7330 H     1 <1>   0.1500 
 26 H        2.5940     3.8560    -0.4120 H     1 <1>   0.1500 
 27 H        3.3980     2.1360    -2.0000 H     1 <1>   0.1500 
 28 H       -0.5060    -0.7960    -0.0870 H     1 <1>   0.0800 
 29 H        0.4600    -1.3260    -1.4610 H     1 <1>   0.0800 
 30 H        1.9140    -4.0070     0.7050 H     1 <1>   0.0800 
 31 H        0.4980    -3.5980     1.6630 H     1 <1>   0.0800 
 32 H       -1.2760    -2.9060    -1.7190 H     1 <1>   0.0800 
 33 H        0.6380    -4.2330    -1.2710 H     1 <1>   0.0800 
 34 H       -1.4490    -5.5490    -0.7540 H     1 <1>   0.0800 
 35 H       -1.2190    -5.1810     0.9270 H     1 <1>   0.0800 
 36 H       -3.7640    -2.1330     0.6090 H     1 <1>   0.0800 
 37 H       -3.4580    -2.5090    -1.0800 H     1 <1>   0.0800 
 38 H       -2.7590    -1.0560    -0.3490 H     1 <1>   0.0800 
 39 H        2.2850    -6.0440    -0.4190 H     1 <1>   0.1500 
 40 H        3.4140    -8.7650    -0.8440 H     1 <1>   0.0800 
 41 H        2.8970    -9.8250     0.4480 H     1 <1>   0.0800 
 42 H        3.7360    -8.3370     0.8250 H     1 <1>   0.0800 
@<TRIPOS>BOND
  1   1   2  1   
  2   2   3  ar  
  3   2   4  ar  
  4   3   5  ar  
  5   3   6  1   
  6   4   7  ar  
  7   4  25  1   
  8   5   8  1   
  9   5   9  ar  
 10   6  10  2   
 11   6  11  am  
 12   7   9  ar  
 13   7  26  1   
 14   9  27  1   
 15  11  12  1   
 16  11  13  1   
 17  12  14  1   
 18  12  28  1   
 19  12  29  1   
 20  13  15  1   
 21  13  30  1   
 22  13  31  1   
 23  14  15  1   
 24  14  16  1   
 25  14  32  1   
 26  15  17  1   
 27  15  33  1   
 28  16  18  1   
 29  17  19  1   
 30  17  34  1   
 31  17  35  1   
 32  18  36  1   
 33  18  37  1   
 34  18  38  1   
 35  19  20  1   
 36  19  21  2   
 37  20  22  1   
 38  21  23  1   
 39  21  39  1   
 40  22  23  2   
 41  23  24  1   
 42  24  40  1   
 43  24  41  1   
 44  24  42  1   
@<TRIPOS>SUBSTRUCTURE
  1 ****  11 GROUP 4 **** **** 0

# MOE 2024.06 (io_trps.svl 2023.06)
