@<TRIPOS>MOLECULE
NONAME
58 60 1 0 0 
SMALL
USER_CHARGES


@<TRIPOS>ATOM
  1 O       -1.4730     0.2670    -0.1960 O.2   1 <1>  -0.5700 
  2 C       -2.3850     1.0490    -0.3990 C.2   1 <1>   0.5440 
  3 N       -3.5900     0.5160    -0.8060 N.am  1 <1>  -0.6600 
  4 C       -2.2020     2.4710    -0.1670 C.ar  1 <1>   0.0860 
  5 C       -3.6170    -0.8580    -1.3680 C.3   1 <1>   0.1400 
  6 C       -4.8580     0.9070    -0.1320 C.3   1 <1>   0.1400 
  7 C       -1.3340     2.9270     0.8240 C.ar  1 <1>  -0.1500 
  8 C       -2.8820     3.4280    -0.9170 C.ar  1 <1>  -0.1500 
  9 C       -3.8160    -1.8570    -0.2070 C.3   1 <1>   0.4230 
 10 C       -5.1020    -0.0690     1.0280 C.3   1 <1>  -0.1600 
 11 C       -1.1510     4.2830     1.0690 C.ar  1 <1>   0.0830 
 12 C       -2.7330     4.7830    -0.6870 C.ar  1 <1>   0.0830 
 13 N       -3.6390    -3.3150    -0.6050 N.4   1 <1>  -0.9590 
 14 C       -5.1220    -1.5670     0.5950 C.3   1 <1>   0.0000 
 15 O       -0.3070     4.7380     2.0410 O.3   1 <1>  -0.3620 
 16 C       -1.8460     5.2220     0.3040 C.ar  1 <1>   0.0830 
 17 O       -3.4820     5.5970    -1.4810 O.3   1 <1>  -0.3630 
 18 C       -4.2150    -4.2910     0.3760 C.3   1 <1>   0.3430 
 19 C       -4.0760    -3.6650    -1.9970 C.3   1 <1>   0.2630 
 20 C       -5.1460    -2.4550     1.8750 C.3   1 <1>  -0.1600 
 21 C       -6.3690    -1.8560    -0.2890 C.3   1 <1>   0.1200 
 22 C        0.4320     3.8590     2.8600 C.3   1 <1>   0.0400 
 23 O       -1.6480     6.5470     0.5250 O.3   1 <1>  -0.3630 
 24 C       -4.0780     6.7570    -0.9410 C.3   1 <1>   0.0400 
 25 C       -4.2430    -3.7010     1.7850 C.3   1 <1>  -0.1600 
 26 O       -7.5370    -1.4230     0.3150 O.3   1 <1>  -0.6800 
 27 C       -0.4700     7.0920    -0.0250 C.3   1 <1>   0.0400 
 28 H       -4.4060    -0.9210    -2.0930 H     1 <1>   0.0800 
 29 H       -2.6820    -1.0550    -1.8640 H     1 <1>   0.0800 
 30 H       -4.7910     1.9110     0.2530 H     1 <1>   0.0800 
 31 H       -5.6720     0.8770    -0.8370 H     1 <1>   0.0800 
 32 H       -0.8060     2.1870     1.3940 H     1 <1>   0.1500 
 33 H       -3.5470     3.1150    -1.7010 H     1 <1>   0.1500 
 34 H       -3.0130    -1.6370     0.4790 H     1 <1>   0.0800 
 35 H       -4.3180     0.0920     1.7470 H     1 <1>   0.0800 
 36 H       -6.0230     0.1990     1.5170 H     1 <1>   0.0800 
 37 H       -2.6160    -3.4540    -0.5730 H     1 <1>   0.4500 
 38 H       -5.2240    -4.5410     0.0910 H     1 <1>   0.0800 
 39 H       -3.6340    -5.2000     0.3720 H     1 <1>   0.0800 
 40 H       -5.1340    -3.4980    -2.1140 H     1 <1>   0.0800 
 41 H       -3.8670    -4.7020    -2.2030 H     1 <1>   0.0800 
 42 H       -3.5480    -3.0660    -2.7210 H     1 <1>   0.0800 
 43 H       -4.8250    -1.8910     2.7350 H     1 <1>   0.0800 
 44 H       -6.1520    -2.7710     2.0870 H     1 <1>   0.0800 
 45 H       -6.4790    -2.9070    -0.4840 H     1 <1>   0.0800 
 46 H       -6.3100    -1.3400    -1.2300 H     1 <1>   0.0800 
 47 H        1.0200     4.4520     3.5390 H     1 <1>   0.0800 
 48 H        1.0800     3.2640     2.2410 H     1 <1>   0.0800 
 49 H       -0.2500     3.2400     3.4150 H     1 <1>   0.0800 
 50 H       -4.9180     7.0210    -1.5570 H     1 <1>   0.0800 
 51 H       -3.3580     7.5560    -0.9510 H     1 <1>   0.0800 
 52 H       -4.4050     6.5540     0.0640 H     1 <1>   0.0800 
 53 H       -4.6010    -4.4460     2.4740 H     1 <1>   0.0800 
 54 H       -3.2380    -3.4540     2.0830 H     1 <1>   0.0800 
 55 H       -7.7190    -1.8920     1.1530 H     1 <1>   0.4000 
 56 H       -0.4570     8.1450     0.1870 H     1 <1>   0.0800 
 57 H       -0.4760     6.9270    -1.0880 H     1 <1>   0.0800 
 58 H        0.3820     6.6150     0.4250 H     1 <1>   0.0800 
@<TRIPOS>BOND
  1   1   2  2   
  2   2   3  am  
  3   2   4  1   
  4   3   5  1   
  5   3   6  1   
  6   4   7  ar  
  7   4   8  ar  
  8   5   9  1   
  9   5  28  1   
 10   5  29  1   
 11   6  10  1   
 12   6  30  1   
 13   6  31  1   
 14   7  11  ar  
 15   7  32  1   
 16   8  12  ar  
 17   8  33  1   
 18   9  13  1   
 19   9  14  1   
 20   9  34  1   
 21  10  14  1   
 22  10  35  1   
 23  10  36  1   
 24  11  15  1   
 25  11  16  ar  
 26  12  16  ar  
 27  12  17  1   
 28  13  18  1   
 29  13  19  1   
 30  13  37  1   
 31  14  20  1   
 32  14  21  1   
 33  15  22  1   
 34  16  23  1   
 35  17  24  1   
 36  18  25  1   
 37  18  38  1   
 38  18  39  1   
 39  19  40  1   
 40  19  41  1   
 41  19  42  1   
 42  20  25  1   
 43  20  43  1   
 44  20  44  1   
 45  21  26  1   
 46  21  45  1   
 47  21  46  1   
 48  22  47  1   
 49  22  48  1   
 50  22  49  1   
 51  23  27  1   
 52  24  50  1   
 53  24  51  1   
 54  24  52  1   
 55  25  53  1   
 56  25  54  1   
 57  26  55  1   
 58  27  56  1   
 59  27  57  1   
 60  27  58  1   
@<TRIPOS>SUBSTRUCTURE
  1 ****   2 GROUP 4 **** **** 0

# MOE 2024.06 (io_trps.svl 2023.06)
