@<TRIPOS>MOLECULE
NONAME
55 58 1 0 0 
SMALL
USER_CHARGES


@<TRIPOS>ATOM
  1 F       -1.8660    -1.4610     2.6280 F     1 <1>  -0.1900 
  2 C       -2.5390    -1.5530     1.5110 C.ar  1 <1>   0.1900 
  3 C       -1.8570    -1.7710     0.3230 C.ar  1 <1>  -0.1440 
  4 C       -3.9140    -1.4250     1.5690 C.ar  1 <1>  -0.1500 
  5 C       -2.6050    -1.8630    -0.8410 C.ar  1 <1>  -0.1500 
  6 C       -0.3430    -1.9100     0.2900 C.3   1 <1>  -0.0960 
  7 C       -4.6510    -1.5140     0.3980 C.ar  1 <1>  -0.1430 
  8 C       -3.9860    -1.7370    -0.8010 C.ar  1 <1>  -0.1500 
  9 C       -6.1700    -1.3610     0.4200 C.3   1 <1>   0.0450 
 10 C       -6.9690    -2.6350     0.1450 C.2   1 <1>   0.5690 
 11 O       -6.3770    -3.6730    -0.0430 O.2   1 <1>  -0.5700 
 12 N       -8.3430    -2.5950     0.1100 N.am  1 <1>  -0.6600 
 13 C       -9.1860    -1.3740     0.3120 C.3   1 <1>   0.1400 
 14 C       -9.1090    -3.8610    -0.1140 C.3   1 <1>   0.1400 
 15 C      -10.1060    -1.1200    -0.9040 C.3   1 <1>   0.1440 
 16 C      -10.5810    -3.6010    -0.4780 C.3   1 <1>  -0.1600 
 17 C      -11.1740    -0.1400    -0.4520 C.ar  1 <1>   0.1670 
 18 C      -10.7030    -2.4360    -1.4720 C.3   1 <1>  -0.1600 
 19 C       -9.3770    -0.3140    -2.0130 C.3   1 <1>  -0.1600 
 20 N      -12.1880    -0.4310     0.3240 N.ar  1 <1>  -0.6200 
 21 C      -10.9440     1.1140    -0.9320 C.ar  1 <1>  -0.1440 
 22 C       -9.6970     1.1730    -1.7780 C.3   1 <1>  -0.0170 
 23 C      -13.0020     0.5890     0.6070 C.ar  1 <1>   0.7200 
 24 C      -11.8320     2.1010    -0.5890 C.ar  1 <1>   0.1600 
 25 N      -12.8640     1.8490     0.1810 N.ar  1 <1>  -0.6200 
 26 N      -14.0840     0.3160     1.4210 N.pl3 1 <1>  -0.8380 
 27 C      -14.5470    -1.0750     1.6820 C.3   1 <1>   0.1290 
 28 C      -14.8980     1.3970     2.0420 C.3   1 <1>   0.1290 
 29 H       -4.3860    -1.2620     2.5200 H     1 <1>   0.1500 
 30 H       -2.1200    -2.0380    -1.7850 H     1 <1>   0.1500 
 31 H       -0.0410    -2.7450     0.8970 H     1 <1>   0.0800 
 32 H        0.1140    -1.0170     0.6780 H     1 <1>   0.0800 
 33 H        0.0090    -2.0700    -0.7130 H     1 <1>   0.0800 
 34 H       -4.5460    -1.8230    -1.7150 H     1 <1>   0.1500 
 35 H       -6.4380    -0.6300    -0.3190 H     1 <1>   0.0800 
 36 H       -6.4700    -0.9850     1.3790 H     1 <1>   0.0800 
 37 H       -8.5920    -0.5010     0.5050 H     1 <1>   0.0800 
 38 H       -9.7970    -1.5360     1.1840 H     1 <1>   0.0800 
 39 H       -9.0520    -4.4720     0.7700 H     1 <1>   0.0800 
 40 H       -8.6420    -4.4040    -0.9190 H     1 <1>   0.0800 
 41 H      -11.1410    -3.3770     0.4140 H     1 <1>   0.0800 
 42 H      -11.0020    -4.4940    -0.9050 H     1 <1>   0.0800 
 43 H      -10.1740    -2.7210    -2.3650 H     1 <1>   0.0800 
 44 H      -11.7350    -2.2880    -1.7410 H     1 <1>   0.0800 
 45 H       -9.7810    -0.5810    -2.9740 H     1 <1>   0.0800 
 46 H       -8.3190    -0.5050    -2.0290 H     1 <1>   0.0800 
 47 H       -9.8690     1.6920    -2.7050 H     1 <1>   0.0800 
 48 H       -8.9080     1.6540    -1.2280 H     1 <1>   0.0800 
 49 H      -11.6960     3.1070    -0.9460 H     1 <1>   0.1500 
 50 H      -14.2830    -1.7220     0.8640 H     1 <1>   0.0800 
 51 H      -15.6160    -1.0940     1.7960 H     1 <1>   0.0800 
 52 H      -14.0860    -1.4430     2.5820 H     1 <1>   0.0800 
 53 H      -14.2950     2.2700     2.2190 H     1 <1>   0.0800 
 54 H      -15.2960     1.0650     2.9850 H     1 <1>   0.0800 
 55 H      -15.7080     1.6590     1.3850 H     1 <1>   0.0800 
@<TRIPOS>BOND
  1   1   2  1   
  2   2   3  ar  
  3   2   4  ar  
  4   3   5  ar  
  5   3   6  1   
  6   4   7  ar  
  7   4  29  1   
  8   5   8  ar  
  9   5  30  1   
 10   6  31  1   
 11   6  32  1   
 12   6  33  1   
 13   7   8  ar  
 14   7   9  1   
 15   8  34  1   
 16   9  10  1   
 17   9  35  1   
 18   9  36  1   
 19  10  11  2   
 20  10  12  am  
 21  12  13  1   
 22  12  14  1   
 23  13  15  1   
 24  13  37  1   
 25  13  38  1   
 26  14  16  1   
 27  14  39  1   
 28  14  40  1   
 29  15  17  1   
 30  15  18  1   
 31  15  19  1   
 32  16  18  1   
 33  16  41  1   
 34  16  42  1   
 35  17  20  ar  
 36  17  21  ar  
 37  18  43  1   
 38  18  44  1   
 39  19  22  1   
 40  19  45  1   
 41  19  46  1   
 42  20  23  ar  
 43  21  22  1   
 44  21  24  ar  
 45  22  47  1   
 46  22  48  1   
 47  23  25  ar  
 48  23  26  1   
 49  24  25  ar  
 50  24  49  1   
 51  26  27  1   
 52  26  28  1   
 53  27  50  1   
 54  27  51  1   
 55  27  52  1   
 56  28  53  1   
 57  28  54  1   
 58  28  55  1   
@<TRIPOS>SUBSTRUCTURE
  1 ****  13 GROUP 4 **** **** 0

# MOE 2024.06 (io_trps.svl 2023.06)
