@<TRIPOS>MOLECULE
NONAME
59 62 1 0 0 
SMALL
USER_CHARGES


@<TRIPOS>ATOM
  1 S       -0.3550     0.4660     0.8330 S.3   1 <1>  -0.4600 
  2 C       -1.7010     1.6330     0.5540 C.3   1 <1>   0.0700 
  3 C        0.8600     0.9400    -0.4120 C.3   1 <1>   0.0700 
  4 C       -1.1230     3.0420     0.7030 C.3   1 <1>  -0.1600 
  5 C        1.2050     2.4130    -0.1790 C.3   1 <1>  -0.1600 
  6 C       -0.0220     3.3230    -0.3380 C.3   1 <1>   0.4230 
  7 N        0.4300     4.7560    -0.3130 N.4   1 <1>  -0.9590 
  8 C        0.8870     5.2070     1.0460 C.3   1 <1>   0.3430 
  9 C       -0.6140     5.6530    -0.9100 C.3   1 <1>   0.3430 
 10 C        1.3950     6.6510     0.9920 C.3   1 <1>  -0.1600 
 11 C       -0.1120     7.0990    -0.9690 C.3   1 <1>  -0.1600 
 12 C        0.3030     7.5550     0.4270 C.3   1 <1>   0.2890 
 13 N        0.6860     8.9820     0.4550 N.pl3 1 <1>  -0.8690 
 14 C        1.6220     9.8010    -0.0430 C.ar  1 <1>   0.7710 
 15 N        1.5020    11.0560     0.3280 N.ar  1 <1>  -0.6200 
 16 N        2.6040     9.3700    -0.8560 N.ar  1 <1>  -0.1790 
 17 C        2.3950    11.9270    -0.1050 C.ar  1 <1>   0.4100 
 18 C        3.5270    10.2350    -1.3440 C.ar  1 <1>   0.2110 
 19 N        2.2790    13.2130     0.3170 N.pl3 1 <1>  -0.8380 
 20 C        3.4310    11.5330    -0.9750 C.ar  1 <1>  -0.1500 
 21 C        3.4320    14.1560     0.5040 C.3   1 <1>   0.2090 
 22 C        0.9730    13.8160     0.7280 C.3   1 <1>   0.2090 
 23 C        3.2080    15.4420    -0.3080 C.3   1 <1>   0.2000 
 24 C        0.7200    15.0940    -0.0840 C.3   1 <1>  -0.1600 
 25 O        4.2260    16.3420    -0.0470 O.3   1 <1>  -0.6800 
 26 C        1.8720    16.1070     0.0420 C.3   1 <1>  -0.1600 
 27 H       -2.4530     1.4280     1.2970 H     1 <1>   0.0800 
 28 H       -2.0970     1.4460    -0.4300 H     1 <1>   0.0800 
 29 H        0.4230     0.7630    -1.3800 H     1 <1>   0.0800 
 30 H        1.7170     0.3020    -0.2750 H     1 <1>   0.0800 
 31 H       -0.7380     3.1310     1.7030 H     1 <1>   0.0800 
 32 H       -1.9360     3.7340     0.5870 H     1 <1>   0.0800 
 33 H        1.9580     2.6860    -0.8950 H     1 <1>   0.0800 
 34 H        1.6220     2.5010     0.8090 H     1 <1>   0.0800 
 35 H       -0.4400     3.1210    -1.3120 H     1 <1>   0.0800 
 36 H        1.2460     4.7810    -0.9360 H     1 <1>   0.4500 
 37 H        1.6740     4.5630     1.4080 H     1 <1>   0.0800 
 38 H        0.0660     5.1490     1.7440 H     1 <1>   0.0800 
 39 H       -1.5100     5.6160    -0.3110 H     1 <1>   0.0800 
 40 H       -0.8660     5.3180    -1.9040 H     1 <1>   0.0800 
 41 H        2.2910     6.6910     0.4020 H     1 <1>   0.0800 
 42 H        1.6350     6.9640     1.9940 H     1 <1>   0.0800 
 43 H       -0.9140     7.7230    -1.3240 H     1 <1>   0.0800 
 44 H        0.7020     7.1670    -1.6660 H     1 <1>   0.0800 
 45 H       -0.5600     7.4580     1.0690 H     1 <1>   0.0800 
 46 H        0.0440     9.5270     1.0500 H     1 <1>   0.4000 
 47 H        2.6110     8.3870    -1.0850 H     1 <1>   0.4570 
 48 H        4.2990     9.8740    -2.0070 H     1 <1>   0.1500 
 49 H        4.1190    12.2700    -1.3430 H     1 <1>   0.1500 
 50 H        4.3610    13.7030     0.2140 H     1 <1>   0.0800 
 51 H        3.4980    14.4050     1.5490 H     1 <1>   0.0800 
 52 H        1.0030    14.0460     1.7790 H     1 <1>   0.0800 
 53 H        0.1600    13.1300     0.5600 H     1 <1>   0.0800 
 54 H        3.2460    15.2090    -1.3580 H     1 <1>   0.0800 
 55 H       -0.1950    15.5490     0.2510 H     1 <1>   0.0800 
 56 H        0.5880    14.8230    -1.1170 H     1 <1>   0.0800 
 57 H        4.0960    16.7630     0.8240 H     1 <1>   0.4000 
 58 H        1.6960    16.9350    -0.6220 H     1 <1>   0.0800 
 59 H        1.9000    16.4720     1.0540 H     1 <1>   0.0800 
@<TRIPOS>BOND
  1   1   2  1   
  2   1   3  1   
  3   2   4  1   
  4   2  27  1   
  5   2  28  1   
  6   3   5  1   
  7   3  29  1   
  8   3  30  1   
  9   4   6  1   
 10   4  31  1   
 11   4  32  1   
 12   5   6  1   
 13   5  33  1   
 14   5  34  1   
 15   6   7  1   
 16   6  35  1   
 17   7   8  1   
 18   7   9  1   
 19   7  36  1   
 20   8  10  1   
 21   8  37  1   
 22   8  38  1   
 23   9  11  1   
 24   9  39  1   
 25   9  40  1   
 26  10  12  1   
 27  10  41  1   
 28  10  42  1   
 29  11  12  1   
 30  11  43  1   
 31  11  44  1   
 32  12  13  1   
 33  12  45  1   
 34  13  14  1   
 35  13  46  1   
 36  14  15  ar  
 37  14  16  ar  
 38  15  17  ar  
 39  16  18  ar  
 40  16  47  1   
 41  17  19  1   
 42  17  20  ar  
 43  18  20  ar  
 44  18  48  1   
 45  19  21  1   
 46  19  22  1   
 47  20  49  1   
 48  21  23  1   
 49  21  50  1   
 50  21  51  1   
 51  22  24  1   
 52  22  52  1   
 53  22  53  1   
 54  23  25  1   
 55  23  26  1   
 56  23  54  1   
 57  24  26  1   
 58  24  55  1   
 59  24  56  1   
 60  25  57  1   
 61  26  58  1   
 62  26  59  1   
@<TRIPOS>SUBSTRUCTURE
  1 ****  13 GROUP 4 **** **** 0

# MOE 2024.06 (io_trps.svl 2023.06)
