@<TRIPOS>MOLECULE
NONAME
59 61 1 0 0 
SMALL
USER_CHARGES


@<TRIPOS>ATOM
  1 O       -0.9390     0.3880    -1.1740 O.2   1 <1>  -0.5700 
  2 C       -0.6840     1.4640    -0.6870 C.2   1 <1>   0.5690 
  3 N       -1.6580     2.3200    -0.2480 N.am  1 <1>  -0.6600 
  4 C        0.7850     1.8780    -0.6000 C.3   1 <1>   0.1810 
  5 C       -1.3220     3.6490     0.3610 C.3   1 <1>   0.3640 
  6 C       -3.1020     1.9420    -0.2430 C.3   1 <1>   0.0600 
  7 O        1.0330     2.8880     0.3490 O.3   1 <1>  -0.5600 
  8 C       -2.1670     4.7390    -0.3230 C.ar  1 <1>  -0.1430 
  9 C        0.1860     4.0160     0.2430 C.3   1 <1>   0.2610 
 10 C       -3.0560     5.5620     0.3710 C.ar  1 <1>  -0.1430 
 11 C       -2.0400     4.9020    -1.6990 C.ar  1 <1>  -0.1500 
 12 C        0.6130     5.0860     1.2660 C.2   1 <1>   0.5690 
 13 C       -3.7550     6.5450    -0.3140 C.ar  1 <1>  -0.1500 
 14 C       -3.3190     5.4310     1.8670 C.3   1 <1>  -0.0960 
 15 C       -2.7460     5.8800    -2.3740 C.ar  1 <1>  -0.1500 
 16 O       -0.0730     5.2700     2.2450 O.2   1 <1>  -0.5700 
 17 N        1.7630     5.8320     1.0930 N.am  1 <1>  -0.6600 
 18 C       -3.6010     6.7090    -1.6780 C.ar  1 <1>  -0.1500 
 19 C        2.7950     5.5910     0.0410 C.3   1 <1>   0.1400 
 20 C        2.1450     6.8800     2.0910 C.3   1 <1>   0.1400 
 21 C        3.2240     6.9130    -0.6290 C.3   1 <1>   0.3430 
 22 C        2.5660     8.1830     1.3920 C.3   1 <1>   0.3430 
 23 N        3.6590     7.9640     0.3680 N.4   1 <1>  -0.9590 
 24 C        4.1650     9.2210    -0.2540 C.3   1 <1>   0.5030 
 25 C        4.6820    10.1500     0.8480 C.3   1 <1>  -0.2400 
 26 C        3.0650     9.9270    -1.0540 C.3   1 <1>  -0.2400 
 27 C        5.3400     8.8820    -1.1760 C.3   1 <1>  -0.2400 
 28 H        1.1130     2.2240    -1.5630 H     1 <1>   0.0800 
 29 H        1.3730     1.0210    -0.3240 H     1 <1>   0.0800 
 30 H       -1.5670     3.5810     1.4040 H     1 <1>   0.0800 
 31 H       -3.5140     2.0830     0.7400 H     1 <1>   0.0800 
 32 H       -3.2270     0.9100    -0.5230 H     1 <1>   0.0800 
 33 H       -3.6440     2.5540    -0.9430 H     1 <1>   0.0800 
 34 H        0.3450     4.4290    -0.7330 H     1 <1>   0.0800 
 35 H       -1.3930     4.2550    -2.2650 H     1 <1>   0.1500 
 36 H       -4.4350     7.1920     0.2110 H     1 <1>   0.1500 
 37 H       -4.2150     5.9570     2.1440 H     1 <1>   0.0800 
 38 H       -2.5060     5.8500     2.4300 H     1 <1>   0.0800 
 39 H       -3.4520     4.4020     2.1450 H     1 <1>   0.0800 
 40 H       -2.6360     5.9920    -3.4390 H     1 <1>   0.1500 
 41 H       -4.1540     7.4740    -2.1950 H     1 <1>   0.1500 
 42 H        3.6520     5.1210     0.4930 H     1 <1>   0.0800 
 43 H        2.4290     4.9210    -0.7160 H     1 <1>   0.0800 
 44 H        1.3210     7.0990     2.7480 H     1 <1>   0.0800 
 45 H        2.9520     6.5120     2.7000 H     1 <1>   0.0800 
 46 H        2.3930     7.2850    -1.2050 H     1 <1>   0.0800 
 47 H        4.0280     6.6980    -1.3130 H     1 <1>   0.0800 
 48 H        2.8950     8.8780     2.1460 H     1 <1>   0.0800 
 49 H        1.6970     8.6040     0.9130 H     1 <1>   0.0800 
 50 H        4.4600     7.5770     0.8780 H     1 <1>   0.4500 
 51 H        5.1690    11.0030     0.4080 H     1 <1>   0.0800 
 52 H        5.4020     9.6500     1.4710 H     1 <1>   0.0800 
 53 H        3.8850    10.5350     1.4570 H     1 <1>   0.0800 
 54 H        3.4600    10.8290    -1.4880 H     1 <1>   0.0800 
 55 H        2.2380    10.2110    -0.4290 H     1 <1>   0.0800 
 56 H        2.7070     9.3170    -1.8620 H     1 <1>   0.0800 
 57 H        5.7980     9.7890    -1.5310 H     1 <1>   0.0800 
 58 H        5.0260     8.3380    -2.0470 H     1 <1>   0.0800 
 59 H        6.0940     8.3210    -0.6530 H     1 <1>   0.0800 
@<TRIPOS>BOND
  1   1   2  2   
  2   2   3  am  
  3   2   4  1   
  4   3   5  1   
  5   3   6  1   
  6   4   7  1   
  7   4  28  1   
  8   4  29  1   
  9   5   8  1   
 10   5   9  1   
 11   5  30  1   
 12   6  31  1   
 13   6  32  1   
 14   6  33  1   
 15   7   9  1   
 16   8  10  ar  
 17   8  11  ar  
 18   9  12  1   
 19   9  34  1   
 20  10  13  ar  
 21  10  14  1   
 22  11  15  ar  
 23  11  35  1   
 24  12  16  2   
 25  12  17  am  
 26  13  18  ar  
 27  13  36  1   
 28  14  37  1   
 29  14  38  1   
 30  14  39  1   
 31  15  18  ar  
 32  15  40  1   
 33  17  19  1   
 34  17  20  1   
 35  18  41  1   
 36  19  21  1   
 37  19  42  1   
 38  19  43  1   
 39  20  22  1   
 40  20  44  1   
 41  20  45  1   
 42  21  23  1   
 43  21  46  1   
 44  21  47  1   
 45  22  23  1   
 46  22  48  1   
 47  22  49  1   
 48  23  24  1   
 49  23  50  1   
 50  24  25  1   
 51  24  26  1   
 52  24  27  1   
 53  25  51  1   
 54  25  52  1   
 55  25  53  1   
 56  26  54  1   
 57  26  55  1   
 58  26  56  1   
 59  27  57  1   
 60  27  58  1   
 61  27  59  1   
@<TRIPOS>SUBSTRUCTURE
  1 ****  12 GROUP 4 **** **** 0

# MOE 2024.06 (io_trps.svl 2023.06)
