@<TRIPOS>MOLECULE
NONAME
41 43 1 0 0 
SMALL
USER_CHARGES


@<TRIPOS>ATOM
  1 CL       0.0220     0.0260     0.7110 Cl    1 <1>  -0.1770 
  2 C       -0.9860    -1.3930     0.6010 C.ar  1 <1>   0.1770 
  3 C       -2.3140    -1.2530     0.2390 C.ar  1 <1>  -0.1500 
  4 C       -0.4340    -2.6390     0.8810 C.ar  1 <1>  -0.1500 
  5 C       -3.0620    -2.4120     0.1690 C.ar  1 <1>   0.0400 
  6 C       -1.2180    -3.7810     0.8000 C.ar  1 <1>  -0.1500 
  7 S       -4.7490    -2.5940    -0.2520 S.3   1 <1>  -0.0800 
  8 C       -2.5570    -3.6730     0.4380 C.ar  1 <1>   0.2270 
  9 C       -4.6060    -4.3430    -0.0250 C.2   1 <1>   0.4620 
 10 N       -3.4370    -4.7350     0.3230 N.2   1 <1>  -0.5650 
 11 N       -5.7130    -5.1280    -0.2300 N.pl3 1 <1>  -0.8220 
 12 C       -7.0660    -4.6360    -0.5790 C.3   1 <1>   0.2090 
 13 C       -5.7060    -6.5890     0.0020 C.3   1 <1>   0.2090 
 14 C       -7.9090    -5.9050    -0.7070 C.3   1 <1>   0.2000 
 15 C       -7.1850    -6.9670     0.1190 C.3   1 <1>  -0.0800 
 16 O       -9.1980    -5.7310    -0.2270 O.3   1 <1>  -0.6800 
 17 C       -7.5170    -8.3930    -0.3500 C.3   1 <1>  -0.0550 
 18 S       -6.7510    -9.6630     0.6540 S.o2  1 <1>   1.3330 
 19 O       -7.2470    -9.5150     2.0030 O.2   1 <1>  -0.6500 
 20 O       -5.3260    -9.6590     0.4080 O.2   1 <1>  -0.6500 
 21 N       -7.3870   -11.0960     0.0030 N.am  1 <1>  -0.8490 
 22 C       -7.4780   -12.1660     1.0010 C.3   1 <1>   0.1160 
 23 C       -6.6580   -11.5750    -1.1770 C.3   1 <1>   0.1160 
 24 H       -2.7390    -0.2900     0.0230 H     1 <1>   0.1500 
 25 H        0.6030    -2.7060     1.1590 H     1 <1>   0.1500 
 26 H       -0.8150    -4.7540     1.0110 H     1 <1>   0.1500 
 27 H       -7.4320    -4.0060     0.2140 H     1 <1>   0.0800 
 28 H       -7.0420    -4.0950    -1.5090 H     1 <1>   0.0800 
 29 H       -5.2410    -7.0740    -0.8410 H     1 <1>   0.0800 
 30 H       -5.1590    -6.8350     0.8980 H     1 <1>   0.0800 
 31 H       -7.9700    -6.1890    -1.7440 H     1 <1>   0.0800 
 32 H       -7.4560    -6.8580     1.1550 H     1 <1>   0.0800 
 33 H       -9.1820    -5.5240     0.7280 H     1 <1>   0.4000 
 34 H       -7.2140    -8.5130    -1.3710 H     1 <1>   0.0800 
 35 H       -8.5820    -8.5240    -0.3080 H     1 <1>   0.0800 
 36 H       -7.8990   -13.0530     0.5600 H     1 <1>   0.0800 
 37 H       -8.1170   -11.8600     1.8130 H     1 <1>   0.0800 
 38 H       -6.5020   -12.3940     1.3960 H     1 <1>   0.0800 
 39 H       -7.1590   -12.4310    -1.5970 H     1 <1>   0.0800 
 40 H       -5.6510   -11.8530    -0.9110 H     1 <1>   0.0800 
 41 H       -6.6170   -10.8040    -1.9270 H     1 <1>   0.0800 
@<TRIPOS>BOND
  1   1   2  1   
  2   2   3  ar  
  3   2   4  ar  
  4   3   5  ar  
  5   3  24  1   
  6   4   6  ar  
  7   4  25  1   
  8   5   7  1   
  9   5   8  ar  
 10   6   8  ar  
 11   6  26  1   
 12   7   9  1   
 13   8  10  1   
 14   9  10  2   
 15   9  11  1   
 16  11  12  1   
 17  11  13  1   
 18  12  14  1   
 19  12  27  1   
 20  12  28  1   
 21  13  15  1   
 22  13  29  1   
 23  13  30  1   
 24  14  15  1   
 25  14  16  1   
 26  14  31  1   
 27  15  17  1   
 28  15  32  1   
 29  16  33  1   
 30  17  18  1   
 31  17  34  1   
 32  17  35  1   
 33  18  19  2   
 34  18  20  2   
 35  18  21  am  
 36  21  22  1   
 37  21  23  1   
 38  22  36  1   
 39  22  37  1   
 40  22  38  1   
 41  23  39  1   
 42  23  40  1   
 43  23  41  1   
@<TRIPOS>SUBSTRUCTURE
  1 ****  13 GROUP 4 **** **** 0

# MOE 2024.06 (io_trps.svl 2023.06)
