@<TRIPOS>MOLECULE
NONAME
60 64 1 0 0 
SMALL
USER_CHARGES


@<TRIPOS>ATOM
  1 O       -1.3190     3.1400    -2.1850 O.2   1 <1>  -0.5700 
  2 C       -1.0260     3.4090    -1.0340 C.2   1 <1>   0.7160 
  3 N       -2.0430     3.6540    -0.1340 N.am  1 <1>  -0.6600 
  4 C        0.3630     3.4660    -0.6390 C.2   1 <1>  -0.0860 
  5 C       -3.4640     3.7780    -0.6060 C.3   1 <1>   0.1400 
  6 C       -1.8170     3.6570     1.3420 C.3   1 <1>   0.1400 
  7 C        1.3780     2.5830    -1.0290 C.2   1 <1>   0.1080 
  8 C        1.0230     4.3480     0.1650 C.2   1 <1>  -0.3020 
  9 C       -4.2770     4.7090     0.3130 C.3   1 <1>   0.1440 
 10 C       -3.0900     3.2650     2.1010 C.3   1 <1>  -0.1600 
 11 N        2.5280     2.8770    -0.5140 N.2   1 <1>  -0.7070 
 12 C        1.1960     1.3960    -1.9500 C.3   1 <1>  -0.0590 
 13 N        2.3100     3.9760     0.2210 N.pl3 1 <1>   0.3140 
 14 C       -5.6950     4.8820    -0.2030 C.ar  1 <1>   0.1660 
 15 C       -4.3010     4.1590     1.7620 C.3   1 <1>  -0.1600 
 16 C       -3.7350     6.1650     0.2650 C.3   1 <1>  -0.1600 
 17 C        3.3990     4.6440     0.9600 C.3   1 <1>   0.0960 
 18 N       -6.4930     3.9070    -0.5660 N.ar  1 <1>  -0.6200 
 19 C       -6.0600     6.1910    -0.2450 C.ar  1 <1>  -0.1430 
 20 C       -4.9560     7.1000     0.2300 C.3   1 <1>  -0.0170 
 21 C        3.9730     5.8140     0.1490 C.3   1 <1>  -0.1600 
 22 C       -7.7110     4.2750    -0.9890 C.ar  1 <1>   0.6200 
 23 C       -7.3220     6.4880    -0.6890 C.ar  1 <1>   0.1600 
 24 C        5.1030     6.5190     0.9070 C.3   1 <1>  -0.2400 
 25 N       -8.1520     5.5390    -1.0610 N.ar  1 <1>  -0.6200 
 26 C       -8.6260     3.2180    -1.4010 C.ar  1 <1>   0.0000 
 27 C      -10.0120     3.3630    -1.2860 C.ar  1 <1>  -0.1500 
 28 C       -8.1620     2.0100    -1.9300 C.ar  1 <1>  -0.1500 
 29 C      -10.8840     2.3630    -1.6750 C.ar  1 <1>  -0.1500 
 30 C       -9.0280     1.0050    -2.3210 C.ar  1 <1>  -0.1500 
 31 C      -10.3930     1.1790    -2.1950 C.ar  1 <1>  -0.1500 
 32 H       -3.9150     2.8010    -0.6160 H     1 <1>   0.0800 
 33 H       -3.4870     4.1590    -1.6130 H     1 <1>   0.0800 
 34 H       -1.5050     4.6400     1.6470 H     1 <1>   0.0800 
 35 H       -1.0310     2.9620     1.5890 H     1 <1>   0.0800 
 36 H        0.6400     5.2100     0.6760 H     1 <1>   0.1500 
 37 H       -2.9040     3.2960     3.1600 H     1 <1>   0.0800 
 38 H       -3.3230     2.2440     1.8500 H     1 <1>   0.0800 
 39 H        0.3730     0.7930    -1.6160 H     1 <1>   0.0800 
 40 H        2.0890     0.7970    -1.9580 H     1 <1>   0.0800 
 41 H        0.9980     1.7410    -2.9470 H     1 <1>   0.0800 
 42 H       -5.1900     3.5670     1.9030 H     1 <1>   0.0800 
 43 H       -4.3600     4.9750     2.4590 H     1 <1>   0.0800 
 44 H       -3.1810     6.3070    -0.6480 H     1 <1>   0.0800 
 45 H       -3.0820     6.3930     1.0880 H     1 <1>   0.0800 
 46 H        4.1670     3.9170     1.1530 H     1 <1>   0.0800 
 47 H        3.0110     4.9930     1.8990 H     1 <1>   0.0800 
 48 H       -4.8020     7.9270    -0.4410 H     1 <1>   0.0800 
 49 H       -5.1860     7.4640     1.2160 H     1 <1>   0.0800 
 50 H        3.1920     6.5240    -0.0630 H     1 <1>   0.0800 
 51 H        4.3540     5.4390    -0.7870 H     1 <1>   0.0800 
 52 H       -7.6570     7.5090    -0.7410 H     1 <1>   0.1500 
 53 H        4.7430     6.9190     1.8390 H     1 <1>   0.0800 
 54 H        5.4910     7.3300     0.3150 H     1 <1>   0.0800 
 55 H        5.9060     5.8320     1.1100 H     1 <1>   0.0800 
 56 H      -10.4120     4.2770    -0.8830 H     1 <1>   0.1500 
 57 H       -7.1020     1.8560    -2.0370 H     1 <1>   0.1500 
 58 H      -11.9460     2.5060    -1.5740 H     1 <1>   0.1500 
 59 H       -8.6380     0.0870    -2.7250 H     1 <1>   0.1500 
 60 H      -11.0700     0.3990    -2.4990 H     1 <1>   0.1500 
@<TRIPOS>BOND
  1   1   2  2   
  2   2   3  am  
  3   2   4  1   
  4   3   5  1   
  5   3   6  1   
  6   4   7  1   
  7   4   8  2   
  8   5   9  1   
  9   5  32  1   
 10   5  33  1   
 11   6  10  1   
 12   6  34  1   
 13   6  35  1   
 14   7  11  2   
 15   7  12  1   
 16   8  13  1   
 17   8  36  1   
 18   9  14  1   
 19   9  15  1   
 20   9  16  1   
 21  10  15  1   
 22  10  37  1   
 23  10  38  1   
 24  11  13  1   
 25  12  39  1   
 26  12  40  1   
 27  12  41  1   
 28  13  17  1   
 29  14  18  ar  
 30  14  19  ar  
 31  15  42  1   
 32  15  43  1   
 33  16  20  1   
 34  16  44  1   
 35  16  45  1   
 36  17  21  1   
 37  17  46  1   
 38  17  47  1   
 39  18  22  ar  
 40  19  20  1   
 41  19  23  ar  
 42  20  48  1   
 43  20  49  1   
 44  21  24  1   
 45  21  50  1   
 46  21  51  1   
 47  22  25  ar  
 48  22  26  1   
 49  23  25  ar  
 50  23  52  1   
 51  24  53  1   
 52  24  54  1   
 53  24  55  1   
 54  26  27  ar  
 55  26  28  ar  
 56  27  29  ar  
 57  27  56  1   
 58  28  30  ar  
 59  28  57  1   
 60  29  31  ar  
 61  29  58  1   
 62  30  31  ar  
 63  30  59  1   
 64  31  60  1   
@<TRIPOS>SUBSTRUCTURE
  1 ****   5 GROUP 4 **** **** 0

# MOE 2024.06 (io_trps.svl 2023.06)
