@<TRIPOS>MOLECULE
NONAME
46 49 1 0 0 
SMALL
USER_CHARGES


@<TRIPOS>ATOM
  1 O       -0.7890     0.0350     0.8600 O.2   1 <1>  -0.5700 
  2 C       -1.7370     0.7680     0.6220 C.2   1 <1>   0.7160 
  3 N       -3.0030     0.2520     0.8410 N.am  1 <1>  -0.6600 
  4 C       -1.4760     2.1180     0.1310 C.2   1 <1>   0.2030 
  5 C       -4.2830     0.9240     0.5150 C.3   1 <1>   0.1400 
  6 C       -3.2320    -1.1150     1.3550 C.3   1 <1>   0.1400 
  7 N       -2.3220     3.0850    -0.0900 N.2   1 <1>  -0.4100 
  8 C       -0.2080     2.5900    -0.1840 C.2   1 <1>  -0.1500 
  9 C       -5.3830    -0.1170     0.7710 C.3   1 <1>  -0.0800 
 10 C       -4.6690    -1.4700     0.9740 C.3   1 <1>  -0.0800 
 11 O       -1.7000     4.1520    -0.5280 O.3   1 <1>  -0.0190 
 12 C       -0.4240     3.8450    -0.5820 C.2   1 <1>  -0.0400 
 13 C       -6.5420    -0.1240    -0.2610 C.3   1 <1>   0.4240 
 14 C       -4.7420    -2.3660    -0.2740 C.3   1 <1>  -0.1600 
 15 C        0.5570     4.8960    -1.0560 C.3   1 <1>  -0.0600 
 16 O       -6.0390     0.0550    -1.5380 O.3   1 <1>  -0.6800 
 17 C       -7.5290     1.0210     0.0440 C.ar  1 <1>  -0.1430 
 18 C       -7.1860    -1.5230    -0.2940 C.3   1 <1>  -0.1600 
 19 C       -6.1990    -2.6460    -0.6960 C.3   1 <1>  -0.1600 
 20 C       -8.5790     0.8530     0.9430 C.ar  1 <1>  -0.1500 
 21 C       -7.3790     2.2710    -0.5520 C.ar  1 <1>  -0.1500 
 22 C       -9.4520     1.8890     1.2260 C.ar  1 <1>  -0.1500 
 23 C       -8.2490     3.3090    -0.2700 C.ar  1 <1>  -0.1500 
 24 C       -9.2890     3.1200     0.6190 C.ar  1 <1>  -0.1500 
 25 H       -4.4250     1.7850     1.1470 H     1 <1>   0.0800 
 26 H       -4.2550     1.2510    -0.5090 H     1 <1>   0.0800 
 27 H       -2.5220    -1.8100     0.9370 H     1 <1>   0.0800 
 28 H       -3.1220    -1.1020     2.4260 H     1 <1>   0.0800 
 29 H        0.7050     2.0280    -0.1060 H     1 <1>   0.1500 
 30 H       -5.8170     0.1340     1.7230 H     1 <1>   0.0800 
 31 H       -5.1220    -2.0060     1.7910 H     1 <1>   0.0800 
 32 H       -4.2130    -1.8850    -1.0790 H     1 <1>   0.0800 
 33 H       -4.2410    -3.3010    -0.0840 H     1 <1>   0.0800 
 34 H        1.5580     4.5050    -1.0460 H     1 <1>   0.0800 
 35 H        0.5110     5.7550    -0.4110 H     1 <1>   0.0800 
 36 H        0.3100     5.1990    -2.0580 H     1 <1>   0.0800 
 37 H       -5.4920    -0.7220    -1.7490 H     1 <1>   0.4000 
 38 H       -7.5530    -1.7530     0.6890 H     1 <1>   0.0800 
 39 H       -8.0340    -1.5150    -0.9560 H     1 <1>   0.0800 
 40 H       -6.5310    -3.5650    -0.2450 H     1 <1>   0.0800 
 41 H       -6.2310    -2.7890    -1.7630 H     1 <1>   0.0800 
 42 H       -8.7360    -0.0840     1.4430 H     1 <1>   0.1500 
 43 H       -6.5760     2.4480    -1.2470 H     1 <1>   0.1500 
 44 H      -10.2600     1.7390     1.9210 H     1 <1>   0.1500 
 45 H       -8.1120     4.2650    -0.7460 H     1 <1>   0.1500 
 46 H       -9.9670     3.9260     0.8370 H     1 <1>   0.1500 
@<TRIPOS>BOND
  1   1   2  2   
  2   2   3  am  
  3   2   4  1   
  4   3   5  1   
  5   3   6  1   
  6   4   7  2   
  7   4   8  1   
  8   5   9  1   
  9   5  25  1   
 10   5  26  1   
 11   6  10  1   
 12   6  27  1   
 13   6  28  1   
 14   7  11  1   
 15   8  12  2   
 16   8  29  1   
 17   9  10  1   
 18   9  13  1   
 19   9  30  1   
 20  10  14  1   
 21  10  31  1   
 22  11  12  1   
 23  12  15  1   
 24  13  16  1   
 25  13  17  1   
 26  13  18  1   
 27  14  19  1   
 28  14  32  1   
 29  14  33  1   
 30  15  34  1   
 31  15  35  1   
 32  15  36  1   
 33  16  37  1   
 34  17  20  ar  
 35  17  21  ar  
 36  18  19  1   
 37  18  38  1   
 38  18  39  1   
 39  19  40  1   
 40  19  41  1   
 41  20  22  ar  
 42  20  42  1   
 43  21  23  ar  
 44  21  43  1   
 45  22  24  ar  
 46  22  44  1   
 47  23  24  ar  
 48  23  45  1   
 49  24  46  1   
@<TRIPOS>SUBSTRUCTURE
  1 ****   5 GROUP 4 **** **** 0

# MOE 2024.06 (io_trps.svl 2023.06)
