@<TRIPOS>MOLECULE
NONAME
49 50 1 0 0 
SMALL
USER_CHARGES


@<TRIPOS>ATOM
  1 F       -2.3600     0.5840     2.4640 F     1 <1>  -0.3400 
  2 C       -3.1960     1.5990     2.6400 C.3   1 <1>   1.1640 
  3 F       -2.5760     2.4620     3.4370 F     1 <1>  -0.3400 
  4 F       -4.2210     1.1220     3.3370 F     1 <1>  -0.3400 
  5 C       -3.6310     2.2200     1.3000 C.ar  1 <1>  -0.1440 
  6 C       -2.9830     3.3330     0.7800 C.ar  1 <1>  -0.1500 
  7 C       -4.6820     1.6660     0.5740 C.ar  1 <1>  -0.1500 
  8 C       -3.3640     3.8940    -0.4320 C.ar  1 <1>   0.1170 
  9 C       -5.0870     2.2050    -0.6430 C.ar  1 <1>  -0.1440 
 10 N       -2.7150     5.0090    -0.9740 N.am  1 <1>  -0.5470 
 11 C       -4.4120     3.3150    -1.1340 C.ar  1 <1>  -0.1500 
 12 C       -6.2510     1.5740    -1.4260 C.3   1 <1>   1.1640 
 13 C       -2.2210     6.1040    -0.3370 C.2   1 <1>   0.6900 
 14 F       -5.8490     0.5460    -2.1590 F     1 <1>  -0.3400 
 15 F       -7.2120     1.1180    -0.6340 F     1 <1>  -0.3400 
 16 F       -6.8320     2.4260    -2.2630 F     1 <1>  -0.3400 
 17 O       -2.3720     6.2780     0.8550 O.2   1 <1>  -0.5700 
 18 N       -1.5930     7.0530    -1.0710 N.am  1 <1>  -0.7300 
 19 C       -0.7630     8.1660    -0.5250 C.3   1 <1>   0.2200 
 20 C       -1.6240     9.3800    -0.0610 C.3   1 <1>   0.4230 
 21 C        0.2240     8.5730    -1.6280 C.3   1 <1>  -0.1600 
 22 N       -2.5800     9.0150     1.0400 N.4   1 <1>  -0.9590 
 23 C       -0.7490    10.5870     0.3280 C.3   1 <1>  -0.1600 
 24 C        1.0770     9.7820    -1.2210 C.3   1 <1>  -0.1600 
 25 C       -3.8030     9.8680     1.0450 C.3   1 <1>   0.2630 
 26 C       -1.9800     8.9060     2.4060 C.3   1 <1>   0.2630 
 27 C        0.2010    10.9720    -0.8130 C.3   1 <1>  -0.1600 
 28 H       -2.1620     3.7770     1.3180 H     1 <1>   0.1500 
 29 H       -5.1920     0.7980     0.9640 H     1 <1>   0.1500 
 30 H       -2.7050     5.0540    -1.9890 H     1 <1>   0.3700 
 31 H       -4.7040     3.7480    -2.0760 H     1 <1>   0.1500 
 32 H       -1.3700     6.8150    -2.0390 H     1 <1>   0.3700 
 33 H       -0.1980     7.8020     0.3170 H     1 <1>   0.0800 
 34 H       -2.2020     9.6770    -0.9200 H     1 <1>   0.0800 
 35 H        0.8790     7.7470    -1.8480 H     1 <1>   0.0800 
 36 H       -0.3170     8.8240    -2.5250 H     1 <1>   0.0800 
 37 H       -2.8620     8.0340     0.8150 H     1 <1>   0.4500 
 38 H       -1.3720    11.4330     0.5590 H     1 <1>   0.0800 
 39 H       -0.1470    10.3560     1.1880 H     1 <1>   0.0800 
 40 H        1.7220     9.5110    -0.4010 H     1 <1>   0.0800 
 41 H        1.7090    10.0690    -2.0450 H     1 <1>   0.0800 
 42 H       -3.5490    10.8850     1.2940 H     1 <1>   0.0800 
 43 H       -4.5100     9.5000     1.7710 H     1 <1>   0.0800 
 44 H       -4.2720     9.8540     0.0740 H     1 <1>   0.0800 
 45 H       -1.6520     9.8700     2.7550 H     1 <1>   0.0800 
 46 H       -1.1380     8.2320     2.3880 H     1 <1>   0.0800 
 47 H       -2.7070     8.5140     3.0990 H     1 <1>   0.0800 
 48 H       -0.3650    11.3120    -1.6650 H     1 <1>   0.0800 
 49 H        0.8320    11.7880    -0.4980 H     1 <1>   0.0800 
@<TRIPOS>BOND
  1   1   2  1   
  2   2   3  1   
  3   2   4  1   
  4   2   5  1   
  5   5   6  ar  
  6   5   7  ar  
  7   6   8  ar  
  8   6  28  1   
  9   7   9  ar  
 10   7  29  1   
 11   8  10  1   
 12   8  11  ar  
 13   9  11  ar  
 14   9  12  1   
 15  10  13  am  
 16  10  30  1   
 17  11  31  1   
 18  12  14  1   
 19  12  15  1   
 20  12  16  1   
 21  13  17  2   
 22  13  18  am  
 23  18  19  1   
 24  18  32  1   
 25  19  20  1   
 26  19  21  1   
 27  19  33  1   
 28  20  22  1   
 29  20  23  1   
 30  20  34  1   
 31  21  24  1   
 32  21  35  1   
 33  21  36  1   
 34  22  25  1   
 35  22  26  1   
 36  22  37  1   
 37  23  27  1   
 38  23  38  1   
 39  23  39  1   
 40  24  27  1   
 41  24  40  1   
 42  24  41  1   
 43  25  42  1   
 44  25  43  1   
 45  25  44  1   
 46  26  45  1   
 47  26  46  1   
 48  26  47  1   
 49  27  48  1   
 50  27  49  1   
@<TRIPOS>SUBSTRUCTURE
  1 ****  10 GROUP 4 **** **** 0

# MOE 2024.06 (io_trps.svl 2023.06)
