@<TRIPOS>MOLECULE
NONAME
41 42 1 0 0 
SMALL
USER_CHARGES


@<TRIPOS>ATOM
  1 CL       0.3160     1.7360     1.7960 Cl    1 <1>  -0.1770 
  2 C        1.8800     2.1530     1.1440 C.ar  1 <1>   0.1770 
  3 C        2.0330     2.2790    -0.2230 C.ar  1 <1>  -0.1500 
  4 C        2.9420     2.3530     2.0060 C.ar  1 <1>  -0.1500 
  5 C        3.2750     2.6120    -0.7370 C.ar  1 <1>  -0.1500 
  6 C        4.1810     2.6860     1.4860 C.ar  1 <1>  -0.1500 
  7 C        4.3530     2.8170     0.1140 C.ar  1 <1>  -0.1430 
  8 C        5.7120     3.1890    -0.4550 C.3   1 <1>  -0.0160 
  9 C        5.8100     4.7080    -0.6340 C.3   1 <1>  -0.1600 
 10 C        7.1820     5.1310    -1.1840 C.3   1 <1>  -0.0990 
 11 C        7.2620     6.6280    -1.4160 C.2   1 <1>   0.5690 
 12 O        7.2450     7.0330    -2.5520 O.2   1 <1>  -0.5700 
 13 N        7.3570     7.4360    -0.3170 N.am  1 <1>  -0.4940 
 14 C        7.3660     8.8510    -0.2450 C.2   1 <1>  -0.0880 
 15 N        8.1820     9.5750     0.5680 N.pl3 1 <1>   0.3140 
 16 C        6.6060     9.7530    -0.9130 C.2   1 <1>  -0.1810 
 17 N        7.9630    10.9020     0.4440 N.2   1 <1>  -0.7070 
 18 C        9.2460     9.0620     1.4550 C.3   1 <1>   0.0960 
 19 C        7.0240    10.9940    -0.4470 C.2   1 <1>   0.1390 
 20 C        5.5200     9.5220    -1.9480 C.3   1 <1>  -0.0590 
 21 C        8.6840     8.6560     2.8240 C.3   1 <1>  -0.2400 
 22 H        1.1920     2.1180    -0.8720 H     1 <1>   0.1500 
 23 H        2.7960     2.2490     3.0660 H     1 <1>   0.1500 
 24 H        3.3990     2.7130    -1.8010 H     1 <1>   0.1500 
 25 H        5.0100     2.8430     2.1550 H     1 <1>   0.1500 
 26 H        5.8500     2.6980    -1.4030 H     1 <1>   0.0800 
 27 H        6.4870     2.8440     0.2070 H     1 <1>   0.0800 
 28 H        5.6310     5.1880     0.3120 H     1 <1>   0.0800 
 29 H        5.0420     5.0320    -1.3160 H     1 <1>   0.0800 
 30 H        7.3600     4.6360    -2.1230 H     1 <1>   0.0800 
 31 H        7.9630     4.8390    -0.5060 H     1 <1>   0.0800 
 32 H        7.4080     6.9520     0.5770 H     1 <1>   0.3700 
 33 H        9.9790     9.8400     1.5770 H     1 <1>   0.0800 
 34 H        9.7190     8.2250     0.9750 H     1 <1>   0.0800 
 35 H        6.6200    11.9340    -0.7800 H     1 <1>   0.1500 
 36 H        5.0740     8.5540    -1.8110 H     1 <1>   0.0800 
 37 H        5.9460     9.5680    -2.9340 H     1 <1>   0.0800 
 38 H        4.7530    10.2700    -1.8580 H     1 <1>   0.0800 
 39 H        8.2290     9.5080     3.2980 H     1 <1>   0.0800 
 40 H        9.4800     8.3020     3.4540 H     1 <1>   0.0800 
 41 H        7.9530     7.8760     2.7200 H     1 <1>   0.0800 
@<TRIPOS>BOND
  1   1   2  1   
  2   2   3  ar  
  3   2   4  ar  
  4   3   5  ar  
  5   3  22  1   
  6   4   6  ar  
  7   4  23  1   
  8   5   7  ar  
  9   5  24  1   
 10   6   7  ar  
 11   6  25  1   
 12   7   8  1   
 13   8   9  1   
 14   8  26  1   
 15   8  27  1   
 16   9  10  1   
 17   9  28  1   
 18   9  29  1   
 19  10  11  1   
 20  10  30  1   
 21  10  31  1   
 22  11  12  2   
 23  11  13  am  
 24  13  14  1   
 25  13  32  1   
 26  14  15  1   
 27  14  16  2   
 28  15  17  1   
 29  15  18  1   
 30  16  19  1   
 31  16  20  1   
 32  17  19  2   
 33  18  21  1   
 34  18  33  1   
 35  18  34  1   
 36  19  35  1   
 37  20  36  1   
 38  20  37  1   
 39  20  38  1   
 40  21  39  1   
 41  21  40  1   
 42  21  41  1   
@<TRIPOS>SUBSTRUCTURE
  1 ****   9 GROUP 4 **** **** 0

# MOE 2024.06 (io_trps.svl 2023.06)
