@<TRIPOS>MOLECULE
NONAME
46 48 1 0 0 
SMALL
USER_CHARGES


@<TRIPOS>ATOM
  1 O        1.2630    -0.4230    -0.8460 O.co2 1 <1>  -0.9000 
  2 C        0.3000    -1.0130    -0.3380 C.2   1 <1>   0.9060 
  3 O       -0.7730    -0.4400    -0.1090 O.co2 1 <1>  -0.9000 
  4 C        0.4750    -2.4550     0.1160 C.3   1 <1>   0.0140 
  5 O        0.1410    -3.4150    -0.8880 O.3   1 <1>  -0.3630 
  6 C        0.1900    -4.7440    -0.6320 C.ar  1 <1>   0.0830 
  7 C        0.5980    -5.2850     0.5830 C.ar  1 <1>  -0.1500 
  8 C       -0.1970    -5.5900    -1.6570 C.ar  1 <1>  -0.1500 
  9 C        0.6030    -6.6570     0.7650 C.ar  1 <1>  -0.1500 
 10 C       -0.1920    -6.9610    -1.4740 C.ar  1 <1>  -0.1500 
 11 C        0.2030    -7.5030    -0.2600 C.ar  1 <1>  -0.1440 
 12 C        0.1810    -9.0090    -0.0570 C.3   1 <1>   0.2540 
 13 N       -1.2010    -9.5200    -0.1560 N.3   1 <1>  -0.8100 
 14 C       -1.2680   -10.9870    -0.0100 C.3   1 <1>   0.1100 
 15 C       -2.1150    -8.8530     0.8050 C.3   1 <1>   0.1100 
 16 C       -2.6740   -11.5180    -0.3930 C.3   1 <1>   0.4230 
 17 C       -3.4740    -9.5760     0.9600 C.3   1 <1>   0.3430 
 18 N       -3.7610   -10.4830    -0.2000 N.4   1 <1>  -0.9590 
 19 C       -3.0390   -12.8110     0.3450 C.3   1 <1>  -0.1600 
 20 C       -5.1590   -11.0140    -0.1450 C.3   1 <1>   0.3430 
 21 C       -4.3490   -13.4200    -0.1920 C.3   1 <1>  -0.1600 
 22 C       -5.2620   -12.3680    -0.8480 C.3   1 <1>  -0.1600 
 23 H       -0.1630    -2.6160     0.9620 H     1 <1>   0.0800 
 24 H        1.5020    -2.5980     0.3890 H     1 <1>   0.0800 
 25 H        0.9120    -4.6500     1.3900 H     1 <1>   0.1500 
 26 H       -0.5030    -5.1580    -2.5930 H     1 <1>   0.1500 
 27 H        0.9210    -7.0580     1.7110 H     1 <1>   0.1500 
 28 H       -0.5000    -7.6060    -2.2780 H     1 <1>   0.1500 
 29 H        0.5990    -9.2600     0.9030 H     1 <1>   0.0800 
 30 H        0.7890    -9.4690    -0.8180 H     1 <1>   0.0800 
 31 H       -1.0330   -11.2590     1.0060 H     1 <1>   0.0800 
 32 H       -0.5390   -11.4550    -0.6500 H     1 <1>   0.0800 
 33 H       -2.3000    -7.8460     0.4670 H     1 <1>   0.0800 
 34 H       -1.6490    -8.7820     1.7740 H     1 <1>   0.0800 
 35 H       -2.6370   -11.7580    -1.4430 H     1 <1>   0.0800 
 36 H       -4.2530    -8.8380     1.0620 H     1 <1>   0.0800 
 37 H       -3.4540   -10.1560     1.8670 H     1 <1>   0.0800 
 38 H       -3.6530    -9.8780    -1.0260 H     1 <1>   0.4500 
 39 H       -3.1350   -12.6030     1.3960 H     1 <1>   0.0800 
 40 H       -2.2470   -13.5300     0.2310 H     1 <1>   0.0800 
 41 H       -5.8380   -10.3090    -0.5980 H     1 <1>   0.0800 
 42 H       -5.4520   -11.1470     0.8840 H     1 <1>   0.0800 
 43 H       -4.8680   -13.8990     0.6220 H     1 <1>   0.0800 
 44 H       -4.1260   -14.1840    -0.9190 H     1 <1>   0.0800 
 45 H       -5.0040   -12.2460    -1.8860 H     1 <1>   0.0800 
 46 H       -6.2820   -12.7120    -0.8130 H     1 <1>   0.0800 
@<TRIPOS>BOND
  1   1   2  ar  
  2   2   3  ar  
  3   2   4  1   
  4   4   5  1   
  5   4  23  1   
  6   4  24  1   
  7   5   6  1   
  8   6   7  ar  
  9   6   8  ar  
 10   7   9  ar  
 11   7  25  1   
 12   8  10  ar  
 13   8  26  1   
 14   9  11  ar  
 15   9  27  1   
 16  10  11  ar  
 17  10  28  1   
 18  11  12  1   
 19  12  13  1   
 20  12  29  1   
 21  12  30  1   
 22  13  14  1   
 23  13  15  1   
 24  14  16  1   
 25  14  31  1   
 26  14  32  1   
 27  15  17  1   
 28  15  33  1   
 29  15  34  1   
 30  16  18  1   
 31  16  19  1   
 32  16  35  1   
 33  17  18  1   
 34  17  36  1   
 35  17  37  1   
 36  18  20  1   
 37  18  38  1   
 38  19  21  1   
 39  19  39  1   
 40  19  40  1   
 41  20  22  1   
 42  20  41  1   
 43  20  42  1   
 44  21  22  1   
 45  21  43  1   
 46  21  44  1   
 47  22  45  1   
 48  22  46  1   
@<TRIPOS>SUBSTRUCTURE
  1 ****  11 GROUP 4 **** **** 0

# MOE 2024.06 (io_trps.svl 2023.06)
