@<TRIPOS>MOLECULE
NONAME
48 50 1 0 0 
SMALL
USER_CHARGES


@<TRIPOS>ATOM
  1 O       -1.5060     1.8250    -1.9300 O.co2 1 <1>  -0.9000 
  2 C       -0.9640     1.7280    -0.8200 C.2   1 <1>   0.9060 
  3 O       -0.0510     0.9220    -0.6090 O.co2 1 <1>  -0.9000 
  4 C       -1.5630     2.4490     0.4220 C.3   1 <1>   0.4600 
  5 N       -2.8950     1.9000     0.9050 N.4   1 <1>  -0.9590 
  6 C       -1.6890     3.9750     0.3670 C.ar  1 <1>  -0.1430 
  7 C       -2.7790     0.4320     1.1720 C.3   1 <1>   0.3430 
  8 C       -3.9530     2.0780    -0.1270 C.3   1 <1>   0.3430 
  9 C       -2.0860     4.6570    -0.7780 C.ar  1 <1>  -0.1500 
 10 C       -1.4160     4.7020     1.5190 C.ar  1 <1>  -0.1500 
 11 C       -3.9370    -0.2480     0.4290 C.3   1 <1>   0.0000 
 12 C       -4.8870     0.9020     0.0830 C.3   1 <1>  -0.1600 
 13 C       -2.2260     6.0350    -0.7730 C.ar  1 <1>   0.0830 
 14 C       -1.5340     6.0810     1.5280 C.ar  1 <1>  -0.1500 
 15 C       -4.6290    -1.3650     1.2130 C.3   1 <1>  -0.1600 
 16 C       -3.4590    -0.9630    -0.8420 C.3   1 <1>  -0.1600 
 17 O       -2.6600     6.6210    -1.9160 O.3   1 <1>  -0.3620 
 18 C       -1.9240     6.7570     0.3860 C.ar  1 <1>   0.0830 
 19 C       -5.3220    -2.2200     0.1510 C.3   1 <1>  -0.1600 
 20 C       -4.5190    -2.0280    -1.1420 C.3   1 <1>  -0.1600 
 21 C       -3.9040     7.2830    -1.8610 C.3   1 <1>   0.0400 
 22 O       -1.9850     8.1090     0.4510 O.3   1 <1>  -0.3630 
 23 C       -1.0500     8.8130    -0.3360 C.3   1 <1>   0.0400 
 24 H       -0.8410     2.2440     1.1920 H     1 <1>   0.0800 
 25 H       -3.1640     2.4070     1.7490 H     1 <1>   0.4500 
 26 H       -2.8580     0.2450     2.2300 H     1 <1>   0.0800 
 27 H       -1.8370     0.0400     0.8180 H     1 <1>   0.0800 
 28 H       -3.5280     2.0120    -1.1160 H     1 <1>   0.0800 
 29 H       -4.4550     3.0260    -0.0240 H     1 <1>   0.0800 
 30 H       -2.2940     4.1310    -1.6950 H     1 <1>   0.1500 
 31 H       -1.1010     4.2040     2.4200 H     1 <1>   0.1500 
 32 H       -5.4770     0.7110    -0.7960 H     1 <1>   0.0800 
 33 H       -5.5460     1.1220     0.9030 H     1 <1>   0.0800 
 34 H       -1.3160     6.6440     2.4180 H     1 <1>   0.1500 
 35 H       -5.3230    -1.0000     1.9500 H     1 <1>   0.0800 
 36 H       -3.8860    -1.9700     1.7060 H     1 <1>   0.0800 
 37 H       -2.5210    -1.4580    -0.6480 H     1 <1>   0.0800 
 38 H       -3.3090    -0.2950    -1.6740 H     1 <1>   0.0800 
 39 H       -6.3290    -1.8690     0.0010 H     1 <1>   0.0800 
 40 H       -5.3580    -3.2560     0.4440 H     1 <1>   0.0800 
 41 H       -4.0500    -2.9470    -1.4500 H     1 <1>   0.0800 
 42 H       -5.1700    -1.6920    -1.9310 H     1 <1>   0.0800 
 43 H       -4.1710     7.5790    -2.8600 H     1 <1>   0.0800 
 44 H       -3.8210     8.1520    -1.2340 H     1 <1>   0.0800 
 45 H       -4.6410     6.6060    -1.4680 H     1 <1>   0.0800 
 46 H       -1.1490     9.8610    -0.1190 H     1 <1>   0.0800 
 47 H       -1.2510     8.6340    -1.3770 H     1 <1>   0.0800 
 48 H       -0.0600     8.4750    -0.0840 H     1 <1>   0.0800 
@<TRIPOS>BOND
  1   1   2  ar  
  2   2   3  ar  
  3   2   4  1   
  4   4   5  1   
  5   4   6  1   
  6   4  24  1   
  7   5   7  1   
  8   5   8  1   
  9   5  25  1   
 10   6   9  ar  
 11   6  10  ar  
 12   7  11  1   
 13   7  26  1   
 14   7  27  1   
 15   8  12  1   
 16   8  28  1   
 17   8  29  1   
 18   9  13  ar  
 19   9  30  1   
 20  10  14  ar  
 21  10  31  1   
 22  11  12  1   
 23  11  15  1   
 24  11  16  1   
 25  12  32  1   
 26  12  33  1   
 27  13  17  1   
 28  13  18  ar  
 29  14  18  ar  
 30  14  34  1   
 31  15  19  1   
 32  15  35  1   
 33  15  36  1   
 34  16  20  1   
 35  16  37  1   
 36  16  38  1   
 37  17  21  1   
 38  18  22  1   
 39  19  20  1   
 40  19  39  1   
 41  19  40  1   
 42  20  41  1   
 43  20  42  1   
 44  21  43  1   
 45  21  44  1   
 46  21  45  1   
 47  22  23  1   
 48  23  46  1   
 49  23  47  1   
 50  23  48  1   
@<TRIPOS>SUBSTRUCTURE
  1 ****   4 GROUP 4 **** **** 0

# MOE 2024.06 (io_trps.svl 2023.06)
