@<TRIPOS>MOLECULE
NONAME
44 46 1 0 0 
SMALL
USER_CHARGES


@<TRIPOS>ATOM
  1 O       -1.0780    -0.2570     0.0860 O.3   1 <1>  -0.2800 
  2 C       -0.9010     0.9990     0.3810 C.2   1 <1>   0.4780 
  3 C       -0.9650    -0.8750     1.2150 C.2   1 <1>   0.2980 
  4 N       -0.6770     1.1430     1.6480 N.2   1 <1>  -0.3380 
  5 C       -0.9600     2.0240    -0.6280 C.2   1 <1>   0.1400 
  6 N       -0.7190    -0.0750     2.1820 N.2   1 <1>  -0.3380 
  7 C       -1.1150    -2.3920     1.2900 C.3   1 <1>   0.2900 
  8 O       -1.1830     1.7230    -1.9040 O.3   1 <1>  -0.2800 
  9 C       -0.8170     3.3740    -0.5220 C.2   1 <1>  -0.1500 
 10 N       -2.4900    -2.8730     0.9990 N.3   1 <1>  -0.8100 
 11 C       -1.1880     2.8350    -2.6070 C.2   1 <1>  -0.0100 
 12 C       -0.9660     3.9000    -1.8070 C.2   1 <1>  -0.1500 
 13 C       -2.5210    -4.3380     0.9100 C.3   1 <1>   0.1100 
 14 C       -3.4500    -2.3540     1.9930 C.3   1 <1>   0.0300 
 15 C       -3.8130    -4.8120     0.2420 C.3   1 <1>  -0.1600 
 16 C       -3.7210    -6.2960    -0.1330 C.3   1 <1>   0.0960 
 17 N       -5.0050    -6.7830    -0.6710 N.pl3 1 <1>   0.3140 
 18 N       -5.9070    -7.3750     0.1330 N.2   1 <1>  -0.7070 
 19 C       -5.4500    -6.7220    -1.9480 C.2   1 <1>  -0.3320 
 20 C       -6.8990    -7.6750    -0.6430 C.2   1 <1>   0.1080 
 21 C       -6.6730    -7.2920    -1.9590 C.2   1 <1>  -0.1500 
 22 C       -4.6870    -6.1190    -3.1160 C.3   1 <1>  -0.0600 
 23 C       -8.1430    -8.3630    -0.1330 C.3   1 <1>  -0.0590 
 24 H       -0.8200    -2.7200     2.2710 H     1 <1>   0.0800 
 25 H       -0.4330    -2.8190     0.5760 H     1 <1>   0.0800 
 26 H       -0.6270     3.9410     0.3720 H     1 <1>   0.1500 
 27 H       -1.3560     2.7810    -3.6690 H     1 <1>   0.1500 
 28 H       -0.9100     4.9410    -2.0730 H     1 <1>   0.1500 
 29 H       -2.4210    -4.7760     1.8900 H     1 <1>   0.0800 
 30 H       -1.6900    -4.6660     0.3070 H     1 <1>   0.0800 
 31 H       -3.4160    -1.2780     2.0200 H     1 <1>   0.0800 
 32 H       -3.2240    -2.7340     2.9750 H     1 <1>   0.0800 
 33 H       -4.4540    -2.6360     1.7300 H     1 <1>   0.0800 
 34 H       -3.9860    -4.2310    -0.6460 H     1 <1>   0.0800 
 35 H       -4.6410    -4.6830     0.9160 H     1 <1>   0.0800 
 36 H       -3.4880    -6.8820     0.7380 H     1 <1>   0.0800 
 37 H       -2.9560    -6.4550    -0.8690 H     1 <1>   0.0800 
 38 H       -7.3460    -7.4320    -2.7840 H     1 <1>   0.1500 
 39 H       -4.4880    -5.0780    -2.9340 H     1 <1>   0.0800 
 40 H       -5.2680    -6.2020    -4.0170 H     1 <1>   0.0800 
 41 H       -3.7560    -6.6360    -3.2610 H     1 <1>   0.0800 
 42 H       -8.6080    -7.7490     0.6160 H     1 <1>   0.0800 
 43 H       -7.8750    -9.3060     0.3050 H     1 <1>   0.0800 
 44 H       -8.8370    -8.5290    -0.9360 H     1 <1>   0.0800 
@<TRIPOS>BOND
  1   1   2  1   
  2   1   3  1   
  3   2   4  2   
  4   2   5  1   
  5   3   6  2   
  6   3   7  1   
  7   4   6  1   
  8   5   8  1   
  9   5   9  2   
 10   7  10  1   
 11   7  24  1   
 12   7  25  1   
 13   8  11  1   
 14   9  12  1   
 15   9  26  1   
 16  10  13  1   
 17  10  14  1   
 18  11  12  2   
 19  11  27  1   
 20  12  28  1   
 21  13  15  1   
 22  13  29  1   
 23  13  30  1   
 24  14  31  1   
 25  14  32  1   
 26  14  33  1   
 27  15  16  1   
 28  15  34  1   
 29  15  35  1   
 30  16  17  1   
 31  16  36  1   
 32  16  37  1   
 33  17  18  1   
 34  17  19  1   
 35  18  20  2   
 36  19  21  2   
 37  19  22  1   
 38  20  21  1   
 39  20  23  1   
 40  21  38  1   
 41  22  39  1   
 42  22  40  1   
 43  22  41  1   
 44  23  42  1   
 45  23  43  1   
 46  23  44  1   
@<TRIPOS>SUBSTRUCTURE
  1 ****  10 GROUP 4 **** **** 0

# MOE 2024.06 (io_trps.svl 2023.06)
