@<TRIPOS>MOLECULE
NONAME
51 53 1 0 0 
SMALL
USER_CHARGES


@<TRIPOS>ATOM
  1 O        1.1800     0.5760     1.4380 O.2   1 <1>  -0.5700 
  2 C        1.9460     0.2260     0.5600 C.2   1 <1>   0.5440 
  3 N        2.1150     1.0350    -0.5420 N.am  1 <1>  -0.6600 
  4 C        2.6670    -1.0220     0.7000 C.ar  1 <1>   0.0860 
  5 C        2.3710     0.4740    -1.9110 C.3   1 <1>   0.1400 
  6 C        2.0660     2.5130    -0.3900 C.3   1 <1>   0.1400 
  7 C        4.0400    -1.1010     0.5300 C.ar  1 <1>  -0.1500 
  8 C        2.0460    -2.2170     1.0230 C.ar  1 <1>  -0.1500 
  9 C        3.2750     1.3460    -2.7980 C.3   1 <1>   0.1400 
 10 C        3.4830     3.0530    -0.1480 C.3   1 <1>  -0.1600 
 11 C        4.6950    -2.3100     0.6560 C.ar  1 <1>   0.1660 
 12 C        2.7850    -3.3810     1.1310 C.ar  1 <1>   0.1660 
 13 N        4.4960     1.7830    -2.0650 N.am  1 <1>  -0.6600 
 14 C        4.3820     3.1040    -1.3910 C.3   1 <1>   0.1400 
 15 N        4.0920    -3.4490     0.9470 N.ar  1 <1>  -0.6200 
 16 C        6.1930    -2.3810     0.4560 C.3   1 <1>  -0.0970 
 17 C        2.1030    -4.6860     1.4810 C.3   1 <1>  -0.0970 
 18 C        5.6300     0.9840    -2.0280 C.2   1 <1>   0.7160 
 19 O        5.7120     0.0910    -2.8570 O.2   1 <1>  -0.5700 
 20 C        6.7040     1.1330    -1.0490 C.2   1 <1>   0.2030 
 21 N        6.6210     1.6420     0.1710 N.2   1 <1>  -0.7070 
 22 C        8.0110     0.6840    -1.2790 C.2   1 <1>  -0.1500 
 23 N        7.8390     1.5140     0.7090 N.pl3 1 <1>   0.3140 
 24 C        8.6990     0.9400    -0.1510 C.2   1 <1>  -0.3020 
 25 C        8.1310     1.9340     2.0940 C.3   1 <1>   0.0960 
 26 C        7.9480     0.7640     3.0700 C.3   1 <1>  -0.2400 
 27 H        1.4260     0.3450    -2.4070 H     1 <1>   0.0800 
 28 H        2.8220    -0.4990    -1.8310 H     1 <1>   0.0800 
 29 H        1.4500     2.7640     0.4580 H     1 <1>   0.0800 
 30 H        1.6200     2.9660    -1.2570 H     1 <1>   0.0800 
 31 H        4.5860    -0.2050     0.3030 H     1 <1>   0.1500 
 32 H        0.9850    -2.2200     1.1900 H     1 <1>   0.1500 
 33 H        2.7270     2.2050    -3.1400 H     1 <1>   0.0800 
 34 H        3.5510     0.7830    -3.6740 H     1 <1>   0.0800 
 35 H        3.9620     2.4730     0.6210 H     1 <1>   0.0800 
 36 H        3.3950     4.0550     0.2290 H     1 <1>   0.0800 
 37 H        5.3580     3.4600    -1.1090 H     1 <1>   0.0800 
 38 H        3.9800     3.8150    -2.0910 H     1 <1>   0.0800 
 39 H        6.6220    -1.3990     0.3950 H     1 <1>   0.0800 
 40 H        6.4080    -2.9150    -0.4510 H     1 <1>   0.0800 
 41 H        6.6420    -2.9030     1.2820 H     1 <1>   0.0800 
 42 H        1.0460    -4.5480     1.6170 H     1 <1>   0.0800 
 43 H        2.5240    -5.0750     2.3900 H     1 <1>   0.0800 
 44 H        2.2650    -5.3970     0.6930 H     1 <1>   0.0800 
 45 H        8.3510     0.2240    -2.1910 H     1 <1>   0.1500 
 46 H        9.7290     0.7460     0.0880 H     1 <1>   0.1500 
 47 H        7.4610     2.7340     2.3500 H     1 <1>   0.0800 
 48 H        9.1390     2.3020     2.1360 H     1 <1>   0.0800 
 49 H        6.9340     0.4030     3.0250 H     1 <1>   0.0800 
 50 H        8.1500     1.0910     4.0740 H     1 <1>   0.0800 
 51 H        8.6210    -0.0380     2.8270 H     1 <1>   0.0800 
@<TRIPOS>BOND
  1   1   2  2   
  2   2   3  am  
  3   2   4  1   
  4   3   5  1   
  5   3   6  1   
  6   4   7  ar  
  7   4   8  ar  
  8   5   9  1   
  9   5  27  1   
 10   5  28  1   
 11   6  10  1   
 12   6  29  1   
 13   6  30  1   
 14   7  11  ar  
 15   7  31  1   
 16   8  12  ar  
 17   8  32  1   
 18   9  13  1   
 19   9  33  1   
 20   9  34  1   
 21  10  14  1   
 22  10  35  1   
 23  10  36  1   
 24  11  15  ar  
 25  11  16  1   
 26  12  15  ar  
 27  12  17  1   
 28  13  14  1   
 29  13  18  am  
 30  14  37  1   
 31  14  38  1   
 32  16  39  1   
 33  16  40  1   
 34  16  41  1   
 35  17  42  1   
 36  17  43  1   
 37  17  44  1   
 38  18  19  2   
 39  18  20  1   
 40  20  21  2   
 41  20  22  1   
 42  21  23  1   
 43  22  24  2   
 44  22  45  1   
 45  23  24  1   
 46  23  25  1   
 47  24  46  1   
 48  25  26  1   
 49  25  47  1   
 50  25  48  1   
 51  26  49  1   
 52  26  50  1   
 53  26  51  1   
@<TRIPOS>SUBSTRUCTURE
  1 ****   7 GROUP 4 **** **** 0

# MOE 2024.06 (io_trps.svl 2023.06)
