@<TRIPOS>MOLECULE
NONAME
46 48 1 0 0 
SMALL
USER_CHARGES


@<TRIPOS>ATOM
  1 O       -3.4860    -0.3250    -2.8180 O.2   1 <1>  -0.5700 
  2 C       -3.2350    -0.8400    -1.7580 C.2   1 <1>   0.5690 
  3 N       -2.7250    -0.1270    -0.7100 N.am  1 <1>  -0.6600 
  4 C       -3.5330    -2.3110    -1.6090 C.3   1 <1>  -0.0190 
  5 C       -2.3930    -0.7480     0.6030 C.3   1 <1>   0.2200 
  6 C       -2.3850     1.3230    -0.8490 C.3   1 <1>   0.0600 
  7 C       -2.2640    -3.1440    -1.3320 C.3   1 <1>   0.1200 
  8 C       -4.6980    -2.4950    -0.6320 C.3   1 <1>   0.3430 
  9 C       -1.3110    -1.8430     0.4360 C.3   1 <1>   0.1200 
 10 C       -3.6780    -1.2220     1.3350 C.3   1 <1>   0.3430 
 11 O       -1.8340    -3.0700     0.0010 O.3   1 <1>  -0.5600 
 12 N       -4.2840    -2.4960     0.8180 N.4   1 <1>  -0.9590 
 13 C       -5.3310    -3.0500     1.7190 C.3   1 <1>   0.4860 
 14 C       -5.5100    -4.5040     1.3540 C.ar  1 <1>  -0.1440 
 15 C       -6.4770    -4.8430     0.4300 C.ar  1 <1>  -0.1500 
 16 C       -4.6930    -5.4940     1.8710 C.ar  1 <1>  -0.1500 
 17 C       -6.6120    -6.1310    -0.0780 C.ar  1 <1>  -0.1790 
 18 C       -4.8400    -6.7920     1.4240 C.ar  1 <1>  -0.1500 
 19 C       -5.7740    -7.1290     0.4540 C.ar  1 <1>   0.0820 
 20 C       -7.5550    -6.2470    -1.1670 C.2   1 <1>   0.9790 
 21 O       -5.7420    -8.4390     0.0990 O.3   1 <1>  -0.3620 
 22 O       -7.3230    -5.6110    -2.2110 O.co2 1 <1>  -0.9000 
 23 O       -8.6280    -6.8610    -1.0530 O.co2 1 <1>  -0.9000 
 24 C       -6.7420    -9.0690    -0.6710 C.3   1 <1>   0.0400 
 25 H       -3.8990    -2.6330    -2.5680 H     1 <1>   0.0800 
 26 H       -1.9550     0.0230     1.2130 H     1 <1>   0.0800 
 27 H       -2.9160     1.9000    -0.1120 H     1 <1>   0.0800 
 28 H       -2.6550     1.6920    -1.8240 H     1 <1>   0.0800 
 29 H       -1.3260     1.4660    -0.7180 H     1 <1>   0.0800 
 30 H       -1.4560    -2.8380    -1.9760 H     1 <1>   0.0800 
 31 H       -2.4730    -4.1820    -1.5330 H     1 <1>   0.0800 
 32 H       -5.1490    -3.4430    -0.8730 H     1 <1>   0.0800 
 33 H       -5.4390    -1.7320    -0.8080 H     1 <1>   0.0800 
 34 H       -0.8490    -2.0300     1.3890 H     1 <1>   0.0800 
 35 H       -0.5420    -1.5240    -0.2480 H     1 <1>   0.0800 
 36 H       -4.4070    -0.4300     1.2930 H     1 <1>   0.0800 
 37 H       -3.4210    -1.3700     2.3700 H     1 <1>   0.0800 
 38 H       -3.5090    -3.1900     0.8240 H     1 <1>   0.4500 
 39 H       -5.0220    -2.9780     2.7480 H     1 <1>   0.0800 
 40 H       -6.2600    -2.5170     1.5930 H     1 <1>   0.0800 
 41 H       -7.1420    -4.0920     0.0310 H     1 <1>   0.1500 
 42 H       -3.9380    -5.2740     2.6060 H     1 <1>   0.1500 
 43 H       -4.2140    -7.5720     1.8190 H     1 <1>   0.1500 
 44 H       -6.5100   -10.1150    -0.7300 H     1 <1>   0.0800 
 45 H       -6.7510    -8.6440    -1.6590 H     1 <1>   0.0800 
 46 H       -7.6920    -8.9350    -0.1850 H     1 <1>   0.0800 
@<TRIPOS>BOND
  1   1   2  2   
  2   2   3  am  
  3   2   4  1   
  4   3   5  1   
  5   3   6  1   
  6   4   7  1   
  7   4   8  1   
  8   4  25  1   
  9   5   9  1   
 10   5  10  1   
 11   5  26  1   
 12   6  27  1   
 13   6  28  1   
 14   6  29  1   
 15   7  11  1   
 16   7  30  1   
 17   7  31  1   
 18   8  12  1   
 19   8  32  1   
 20   8  33  1   
 21   9  11  1   
 22   9  34  1   
 23   9  35  1   
 24  10  12  1   
 25  10  36  1   
 26  10  37  1   
 27  12  13  1   
 28  12  38  1   
 29  13  14  1   
 30  13  39  1   
 31  13  40  1   
 32  14  15  ar  
 33  14  16  ar  
 34  15  17  ar  
 35  15  41  1   
 36  16  18  ar  
 37  16  42  1   
 38  17  19  ar  
 39  17  20  1   
 40  18  19  ar  
 41  18  43  1   
 42  19  21  1   
 43  20  22  ar  
 44  20  23  ar  
 45  21  24  1   
 46  24  44  1   
 47  24  45  1   
 48  24  46  1   
@<TRIPOS>SUBSTRUCTURE
  1 ****   8 GROUP 4 **** **** 0

# MOE 2024.06 (io_trps.svl 2023.06)
