@<TRIPOS>MOLECULE
NONAME
44 46 1 0 0 
SMALL
USER_CHARGES


@<TRIPOS>ATOM
  1 O       -0.7020    -1.4740     0.1380 O.2   1 <1>  -0.5700 
  2 C        0.2290    -2.2310     0.2060 C.2   1 <1>   0.5690 
  3 N        0.0700    -3.5230     0.5590 N.am  1 <1>  -0.7300 
  4 C        1.6350    -1.7600    -0.0950 C.3   1 <1>  -0.0990 
  5 C        1.1850    -4.4810     0.6760 C.3   1 <1>   0.1400 
  6 C        2.3870    -2.8060    -0.9440 C.3   1 <1>  -0.0800 
  7 C        2.1720    -4.2730    -0.4930 C.3   1 <1>  -0.0800 
  8 C        3.9030    -2.5740    -0.9760 C.3   1 <1>  -0.1600 
  9 C        3.5710    -4.8390    -0.2120 C.3   1 <1>  -0.1600 
 10 C        4.5030    -3.9740    -1.0580 C.3   1 <1>   0.4230 
 11 N        5.9290    -4.0240    -0.6420 N.4   1 <1>  -0.9590 
 12 C        6.2470    -3.5810     0.7460 C.3   1 <1>   0.4860 
 13 C        6.5800    -5.3290    -0.9660 C.3   1 <1>   0.2630 
 14 C        6.9770    -2.2670     0.6020 C.ar  1 <1>  -0.1440 
 15 C        8.0810    -2.2090    -0.2300 C.ar  1 <1>  -0.1500 
 16 C        6.5530    -1.1170     1.2490 C.ar  1 <1>  -0.1500 
 17 C        8.7500    -1.0190    -0.4920 C.ar  1 <1>  -0.1790 
 18 C        7.2240     0.0750     1.0370 C.ar  1 <1>  -0.1500 
 19 C        9.8500    -1.0020    -1.4450 C.2   1 <1>   0.9790 
 20 C        8.3050     0.1220     0.1730 C.ar  1 <1>  -0.1500 
 21 O       10.5710    -0.0010    -1.5770 O.co2 1 <1>  -0.9000 
 22 O       10.0520    -2.0050    -2.1570 O.co2 1 <1>  -0.9000 
 23 H       -0.8780    -3.8290     0.7990 H     1 <1>   0.3700 
 24 H        1.5920    -0.8200    -0.6140 H     1 <1>   0.0800 
 25 H        2.1280    -1.6030     0.8460 H     1 <1>   0.0800 
 26 H        1.6730    -4.3130     1.6210 H     1 <1>   0.0800 
 27 H        0.8010    -5.4880     0.6640 H     1 <1>   0.0800 
 28 H        2.0090    -2.7260    -1.9510 H     1 <1>   0.0800 
 29 H        1.7670    -4.8060    -1.3390 H     1 <1>   0.0800 
 30 H        4.2050    -2.0760    -0.0740 H     1 <1>   0.0800 
 31 H        4.1870    -1.9740    -1.8220 H     1 <1>   0.0800 
 32 H        3.6300    -5.8760    -0.4910 H     1 <1>   0.0800 
 33 H        3.7950    -4.7330     0.8330 H     1 <1>   0.0800 
 34 H        4.4220    -4.3000    -2.0830 H     1 <1>   0.0800 
 35 H        6.4130    -3.3050    -1.2120 H     1 <1>   0.4500 
 36 H        5.3510    -3.4460     1.3270 H     1 <1>   0.0800 
 37 H        6.8860    -4.2940     1.2410 H     1 <1>   0.0800 
 38 H        6.1500    -6.1220    -0.3760 H     1 <1>   0.0800 
 39 H        7.6380    -5.2780    -0.7620 H     1 <1>   0.0800 
 40 H        6.4490    -5.5610    -2.0110 H     1 <1>   0.0800 
 41 H        8.4590    -3.0940    -0.7150 H     1 <1>   0.1500 
 42 H        5.7070    -1.1280     1.9150 H     1 <1>   0.1500 
 43 H        6.9090     0.9740     1.5370 H     1 <1>   0.1500 
 44 H        8.8240     1.0500    -0.0030 H     1 <1>   0.1500 
@<TRIPOS>BOND
  1   1   2  2   
  2   2   3  am  
  3   2   4  1   
  4   3   5  1   
  5   3  23  1   
  6   4   6  1   
  7   4  24  1   
  8   4  25  1   
  9   5   7  1   
 10   5  26  1   
 11   5  27  1   
 12   6   7  1   
 13   6   8  1   
 14   6  28  1   
 15   7   9  1   
 16   7  29  1   
 17   8  10  1   
 18   8  30  1   
 19   8  31  1   
 20   9  10  1   
 21   9  32  1   
 22   9  33  1   
 23  10  11  1   
 24  10  34  1   
 25  11  12  1   
 26  11  13  1   
 27  11  35  1   
 28  12  14  1   
 29  12  36  1   
 30  12  37  1   
 31  13  38  1   
 32  13  39  1   
 33  13  40  1   
 34  14  15  ar  
 35  14  16  ar  
 36  15  17  ar  
 37  15  41  1   
 38  16  18  ar  
 39  16  42  1   
 40  17  19  1   
 41  17  20  ar  
 42  18  20  ar  
 43  18  43  1   
 44  19  21  ar  
 45  19  22  ar  
 46  20  44  1   
@<TRIPOS>SUBSTRUCTURE
  1 ****   8 GROUP 4 **** **** 0

# MOE 2024.06 (io_trps.svl 2023.06)
