@<TRIPOS>MOLECULE
NONAME
44 45 1 0 0 
SMALL
USER_CHARGES


@<TRIPOS>ATOM
  1 F        0.7270    -1.3030     0.6970 F     1 <1>  -0.1900 
  2 C        0.2620    -2.4750     0.3510 C.ar  1 <1>   0.1900 
  3 C       -0.1530    -3.3460     1.3390 C.ar  1 <1>  -0.1500 
  4 C        0.2020    -2.8000    -0.9890 C.ar  1 <1>  -0.1500 
  5 C       -0.6480    -4.5900     0.9790 C.ar  1 <1>  -0.1440 
  6 C       -0.2910    -4.0430    -1.3420 C.ar  1 <1>  -0.1500 
  7 C       -0.7210    -4.9480    -0.3730 C.ar  1 <1>   0.1170 
  8 C       -1.1090    -5.5440     2.0760 C.3   1 <1>  -0.0960 
  9 N       -1.2160    -6.2160    -0.7160 N.am  1 <1>  -0.5470 
 10 C       -1.6690    -6.7730    -1.8770 C.2   1 <1>   0.5690 
 11 O       -1.7380    -6.1960    -2.9360 O.2   1 <1>  -0.5700 
 12 C       -2.1120    -8.2340    -1.7890 C.3   1 <1>   0.1710 
 13 N       -2.4920    -8.6660    -0.3970 N.3   1 <1>  -0.8100 
 14 C       -2.5340   -10.1460    -0.2130 C.3   1 <1>   0.1900 
 15 C       -3.8060    -8.0570    -0.0870 C.3   1 <1>   0.1100 
 16 C       -2.9650   -10.4710     1.2350 C.3   1 <1>  -0.1600 
 17 C       -1.1600   -10.7900    -0.4920 C.3   1 <1>  -0.0990 
 18 C       -4.2030    -8.3120     1.3640 C.3   1 <1>  -0.1600 
 19 C       -4.2880    -9.8120     1.6300 C.3   1 <1>  -0.1600 
 20 C       -1.1600   -12.2790    -0.2320 C.2   1 <1>   0.5690 
 21 O       -1.8830   -12.9950    -0.8730 O.2   1 <1>  -0.5700 
 22 N       -0.3500   -12.7970     0.7070 N.am  1 <1>  -0.8000 
 23 H       -0.0850    -3.0420     2.3680 H     1 <1>   0.1500 
 24 H        0.5330    -2.0980    -1.7320 H     1 <1>   0.1500 
 25 H       -0.3360    -4.3050    -2.3830 H     1 <1>   0.1500 
 26 H       -0.9610    -5.1130     3.0490 H     1 <1>   0.0800 
 27 H       -0.5550    -6.4640     2.0270 H     1 <1>   0.0800 
 28 H       -2.1560    -5.7560     1.9580 H     1 <1>   0.0800 
 29 H       -1.3520    -6.8650     0.0650 H     1 <1>   0.3700 
 30 H       -1.2810    -8.7980    -2.1570 H     1 <1>   0.0800 
 31 H       -2.9350    -8.3940    -2.4640 H     1 <1>   0.0800 
 32 H       -3.2590   -10.5670    -0.8920 H     1 <1>   0.0800 
 33 H       -4.5600    -8.4650    -0.7410 H     1 <1>   0.0800 
 34 H       -3.7730    -6.9920    -0.2470 H     1 <1>   0.0800 
 35 H       -2.1940   -10.1480     1.9120 H     1 <1>   0.0800 
 36 H       -3.0820   -11.5340     1.3560 H     1 <1>   0.0800 
 37 H       -0.4100   -10.3150     0.1110 H     1 <1>   0.0800 
 38 H       -0.8920   -10.6870    -1.5240 H     1 <1>   0.0800 
 39 H       -5.1570    -7.8560     1.5600 H     1 <1>   0.0800 
 40 H       -3.4780    -7.8610     2.0180 H     1 <1>   0.0800 
 41 H       -4.4950    -9.9930     2.6700 H     1 <1>   0.0800 
 42 H       -5.0880   -10.2380     1.0480 H     1 <1>   0.0800 
 43 H       -0.3550   -13.8060     0.8630 H     1 <1>   0.3700 
 44 H        0.2890   -12.2500     1.2820 H     1 <1>   0.3700 
@<TRIPOS>BOND
  1   1   2  1   
  2   2   3  ar  
  3   2   4  ar  
  4   3   5  ar  
  5   3  23  1   
  6   4   6  ar  
  7   4  24  1   
  8   5   7  ar  
  9   5   8  1   
 10   6   7  ar  
 11   6  25  1   
 12   7   9  1   
 13   8  26  1   
 14   8  27  1   
 15   8  28  1   
 16   9  10  am  
 17   9  29  1   
 18  10  11  2   
 19  10  12  1   
 20  12  13  1   
 21  12  30  1   
 22  12  31  1   
 23  13  14  1   
 24  13  15  1   
 25  14  16  1   
 26  14  17  1   
 27  14  32  1   
 28  15  18  1   
 29  15  33  1   
 30  15  34  1   
 31  16  19  1   
 32  16  35  1   
 33  16  36  1   
 34  17  20  1   
 35  17  37  1   
 36  17  38  1   
 37  18  19  1   
 38  18  39  1   
 39  18  40  1   
 40  19  41  1   
 41  19  42  1   
 42  20  21  2   
 43  20  22  am  
 44  22  43  1   
 45  22  44  1   
@<TRIPOS>SUBSTRUCTURE
  1 ****   9 GROUP 4 **** **** 0

# MOE 2024.06 (io_trps.svl 2023.06)
