@<TRIPOS>MOLECULE
NONAME
33 34 1 0 0 
SMALL
USER_CHARGES


@<TRIPOS>ATOM
  1 CL       0.2520    -0.1480     0.6420 Cl    1 <1>  -0.1770 
  2 C        1.5730     0.9400     0.2900 C.ar  1 <1>   0.1770 
  3 C        2.1040     1.7360     1.2930 C.ar  1 <1>   0.1600 
  4 C        2.0770     0.9990    -0.9920 C.ar  1 <1>  -0.1500 
  5 N        3.1050     2.5960     1.1270 N.ar  1 <1>  -0.6200 
  6 C        3.1130     1.8850    -1.1610 C.ar  1 <1>   0.1900 
  7 C        3.6150     2.6620    -0.1020 C.ar  1 <1>   0.4100 
  8 F        3.6380     2.0020    -2.3580 F     1 <1>  -0.1900 
  9 N        4.6650     3.5420    -0.2950 N.pl3 1 <1>  -0.8690 
 10 C        5.0210     4.5960     0.6890 C.3   1 <1>   0.2890 
 11 C        4.0220     5.7650     0.5950 C.3   1 <1>   0.1400 
 12 C        6.3730     5.1930     0.2910 C.3   1 <1>  -0.0990 
 13 N        4.6840     6.7230    -0.3120 N.am  1 <1>  -0.6600 
 14 C        5.9850     6.4070    -0.5050 C.2   1 <1>   0.5690 
 15 C        3.9520     7.8370    -0.9540 C.3   1 <1>   0.1400 
 16 O        6.7590     6.9980    -1.2160 O.2   1 <1>  -0.5700 
 17 C        3.5880     8.8930     0.0920 C.3   1 <1>  -0.1600 
 18 C        2.8620    10.0820    -0.5460 C.3   1 <1>  -0.2400 
 19 H        1.6800     1.6590     2.2790 H     1 <1>   0.1500 
 20 H        1.6890     0.4000    -1.7930 H     1 <1>   0.1500 
 21 H        4.8270     3.8150    -1.2700 H     1 <1>   0.4000 
 22 H        5.0490     4.1750     1.6810 H     1 <1>   0.0800 
 23 H        3.8910     6.2210     1.5600 H     1 <1>   0.0800 
 24 H        3.0710     5.4440     0.2080 H     1 <1>   0.0800 
 25 H        6.9760     4.5150    -0.2830 H     1 <1>   0.0800 
 26 H        6.9110     5.5170     1.1610 H     1 <1>   0.0800 
 27 H        3.0640     7.4550    -1.4270 H     1 <1>   0.0800 
 28 H        4.5760     8.2800    -1.7130 H     1 <1>   0.0800 
 29 H        4.4900     9.2440     0.5640 H     1 <1>   0.0800 
 30 H        2.9530     8.4580     0.8430 H     1 <1>   0.0800 
 31 H        3.4880    10.5490    -1.2870 H     1 <1>   0.0800 
 32 H        2.6210    10.8130     0.2060 H     1 <1>   0.0800 
 33 H        1.9490     9.7600    -1.0150 H     1 <1>   0.0800 
@<TRIPOS>BOND
  1   1   2  1   
  2   2   3  ar  
  3   2   4  ar  
  4   3   5  ar  
  5   3  19  1   
  6   4   6  ar  
  7   4  20  1   
  8   5   7  ar  
  9   6   7  ar  
 10   6   8  1   
 11   7   9  1   
 12   9  10  1   
 13   9  21  1   
 14  10  11  1   
 15  10  12  1   
 16  10  22  1   
 17  11  13  1   
 18  11  23  1   
 19  11  24  1   
 20  12  14  1   
 21  12  25  1   
 22  12  26  1   
 23  13  14  am  
 24  13  15  1   
 25  14  16  2   
 26  15  17  1   
 27  15  27  1   
 28  15  28  1   
 29  17  18  1   
 30  17  29  1   
 31  17  30  1   
 32  18  31  1   
 33  18  32  1   
 34  18  33  1   
@<TRIPOS>SUBSTRUCTURE
  1 ****   9 GROUP 4 **** **** 0

# MOE 2024.06 (io_trps.svl 2023.06)
