@<TRIPOS>MOLECULE
NONAME
52 54 1 0 0 
SMALL
USER_CHARGES


@<TRIPOS>ATOM
  1 O        4.5380    -1.3190    -1.6260 O.2   1 <1>  -0.5700 
  2 C        3.4960    -1.1210    -1.0290 C.2   1 <1>   0.5440 
  3 N        2.6750    -0.1210    -1.5090 N.am  1 <1>  -0.6600 
  4 C        3.2070    -1.8310     0.2000 C.ar  1 <1>   0.0860 
  5 C        2.8980     0.4520    -2.8780 C.3   1 <1>   0.1400 
  6 C        1.9080     0.7630    -0.5930 C.3   1 <1>   0.1400 
  7 C        2.0010    -2.4720     0.4350 C.ar  1 <1>  -0.1500 
  8 C        4.1220    -1.8970     1.2380 C.ar  1 <1>  -0.1500 
  9 C        4.1900     1.2960    -2.9530 C.3   1 <1>   0.3430 
 10 C        2.8500     1.7600     0.0990 C.3   1 <1>  -0.1600 
 11 C        1.7690    -3.1010     1.6440 C.ar  1 <1>   0.1670 
 12 C        3.7990    -2.5440     2.4140 C.ar  1 <1>   0.1660 
 13 N        4.6860     1.6810    -1.5950 N.4   1 <1>  -0.9590 
 14 C        3.7770     2.5740    -0.8200 C.3   1 <1>   0.3430 
 15 N        2.6410    -3.1400     2.6340 N.ar  1 <1>  -0.6200 
 16 C        0.4530    -3.8020     1.9020 C.3   1 <1>  -0.0970 
 17 C        4.8000    -2.5960     3.5490 C.3   1 <1>  -0.0970 
 18 C        6.1230     2.0680    -1.5530 C.3   1 <1>   0.5230 
 19 C        6.7150     1.7070    -0.1960 C.2   1 <1>   0.0060 
 20 N        6.0850     1.0630     0.7270 N.2   1 <1>  -0.3380 
 21 N        7.9600     2.0010     0.1940 N.pl3 1 <1>   0.0330 
 22 N        6.9160     0.9280     1.7550 N.2   1 <1>  -0.3380 
 23 C        8.0260     1.4890     1.4230 C.2   1 <1>   0.0060 
 24 C        9.2580     1.5590     2.3070 C.3   1 <1>   0.0200 
 25 C        9.6070     3.0050     2.6770 C.3   1 <1>  -0.2400 
 26 H        2.0550     1.0560    -3.1640 H     1 <1>   0.0800 
 27 H        2.9660    -0.3530    -3.5900 H     1 <1>   0.0800 
 28 H        1.4030     0.1720     0.1530 H     1 <1>   0.0800 
 29 H        1.1510     1.2920    -1.1470 H     1 <1>   0.0800 
 30 H        1.2490    -2.4760    -0.3320 H     1 <1>   0.1500 
 31 H        5.0880    -1.4370     1.1230 H     1 <1>   0.1500 
 32 H        4.0260     2.1680    -3.5640 H     1 <1>   0.0800 
 33 H        4.9380     0.6900    -3.4380 H     1 <1>   0.0800 
 34 H        3.4380     1.2370     0.8310 H     1 <1>   0.0800 
 35 H        2.2420     2.4540     0.6510 H     1 <1>   0.0800 
 36 H        4.6760     0.7800    -1.0740 H     1 <1>   0.4500 
 37 H        4.3640     3.2310    -0.1980 H     1 <1>   0.0800 
 38 H        3.1920     3.1810    -1.4910 H     1 <1>   0.0800 
 39 H       -0.2030    -3.7280     1.0550 H     1 <1>   0.0800 
 40 H       -0.0270    -3.3590     2.7560 H     1 <1>   0.0800 
 41 H        0.6370    -4.8400     2.1110 H     1 <1>   0.0800 
 42 H        5.6930    -2.0490     3.3060 H     1 <1>   0.0800 
 43 H        5.0600    -3.6190     3.7510 H     1 <1>   0.0800 
 44 H        4.3630    -2.1690     4.4330 H     1 <1>   0.0800 
 45 H        6.2280     3.1240    -1.7400 H     1 <1>   0.0800 
 46 H        6.6620     1.5260    -2.3120 H     1 <1>   0.0800 
 47 H        8.7110     2.4920    -0.2980 H     1 <1>   0.2700 
 48 H       10.0900     1.0960     1.8050 H     1 <1>   0.0800 
 49 H        9.0700     1.0010     3.2090 H     1 <1>   0.0800 
 50 H        9.8510     3.5780     1.8020 H     1 <1>   0.0800 
 51 H       10.4520     3.0190     3.3420 H     1 <1>   0.0800 
 52 H        8.7730     3.4670     3.1770 H     1 <1>   0.0800 
@<TRIPOS>BOND
  1   1   2  2   
  2   2   3  am  
  3   2   4  1   
  4   3   5  1   
  5   3   6  1   
  6   4   7  ar  
  7   4   8  ar  
  8   5   9  1   
  9   5  26  1   
 10   5  27  1   
 11   6  10  1   
 12   6  28  1   
 13   6  29  1   
 14   7  11  ar  
 15   7  30  1   
 16   8  12  ar  
 17   8  31  1   
 18   9  13  1   
 19   9  32  1   
 20   9  33  1   
 21  10  14  1   
 22  10  34  1   
 23  10  35  1   
 24  11  15  ar  
 25  11  16  1   
 26  12  15  ar  
 27  12  17  1   
 28  13  14  1   
 29  13  18  1   
 30  13  36  1   
 31  14  37  1   
 32  14  38  1   
 33  16  39  1   
 34  16  40  1   
 35  16  41  1   
 36  17  42  1   
 37  17  43  1   
 38  17  44  1   
 39  18  19  1   
 40  18  45  1   
 41  18  46  1   
 42  19  20  2   
 43  19  21  1   
 44  20  22  1   
 45  21  23  1   
 46  21  47  1   
 47  22  23  2   
 48  23  24  1   
 49  24  25  1   
 50  24  48  1   
 51  24  49  1   
 52  25  50  1   
 53  25  51  1   
 54  25  52  1   
@<TRIPOS>SUBSTRUCTURE
  1 ****  20 GROUP 4 **** **** 0

# MOE 2024.06 (io_trps.svl 2023.06)
