@<TRIPOS>MOLECULE
NONAME
48 49 1 0 0 
SMALL
USER_CHARGES


@<TRIPOS>ATOM
  1 CL      -1.0060    -0.2800    -1.5100 Cl    1 <1>  -0.1770 
  2 C       -1.9350    -1.0360    -0.2350 C.ar  1 <1>   0.1770 
  3 C       -2.3050    -2.3750    -0.3320 C.ar  1 <1>   0.0820 
  4 C       -2.2920    -0.2670     0.8540 C.ar  1 <1>  -0.1500 
  5 O       -1.9350    -3.1010    -1.4090 O.3   1 <1>  -0.3630 
  6 C       -3.0780    -2.9710     0.6740 C.ar  1 <1>   0.0860 
  7 C       -3.0320    -0.8630     1.8550 C.ar  1 <1>   0.1770 
  8 C       -0.6480    -3.6790    -1.3760 C.3   1 <1>   0.0400 
  9 C       -3.5080    -4.3540     0.6160 C.2   1 <1>   0.5440 
 10 C       -3.4160    -2.1870     1.7790 C.ar  1 <1>  -0.1500 
 11 CL      -3.4990     0.0800     3.2450 Cl    1 <1>  -0.1770 
 12 O       -3.2660    -5.0680     1.5670 O.2   1 <1>  -0.5700 
 13 N       -4.2150    -4.8950    -0.4390 N.am  1 <1>  -0.6600 
 14 C       -4.0740    -6.3640    -0.7130 C.3   1 <1>   0.3210 
 15 C       -4.8410    -4.0700    -1.5290 C.3   1 <1>   0.1400 
 16 C       -5.2190    -7.1920    -0.1280 C.2   1 <1>   0.0460 
 17 C       -6.3620    -4.2850    -1.6780 C.3   1 <1>   0.3430 
 18 N       -6.4190    -7.2770    -0.7450 N.2   1 <1>  -0.5650 
 19 C       -5.2080    -7.9510     0.9940 C.2   1 <1>  -0.3320 
 20 N       -7.0640    -4.4720    -0.3690 N.4   1 <1>  -0.9590 
 21 C       -7.0920    -8.0990    -0.0050 C.2   1 <1>   0.0360 
 22 N       -6.4140    -8.5370     1.0740 N.pl3 1 <1>   0.0330 
 23 C       -4.1200    -8.1980     2.0290 C.3   1 <1>  -0.0600 
 24 C       -8.4940    -4.8330    -0.5790 C.3   1 <1>   0.2630 
 25 C       -6.9070    -3.3480     0.5980 C.3   1 <1>   0.2630 
 26 H       -2.0000     0.7650     0.9230 H     1 <1>   0.1500 
 27 H       -0.4980    -4.2240    -2.2910 H     1 <1>   0.0800 
 28 H       -0.5850    -4.3480    -0.5350 H     1 <1>   0.0800 
 29 H        0.0890    -2.9000    -1.2910 H     1 <1>   0.0800 
 30 H       -3.9760    -2.6210     2.5900 H     1 <1>   0.1500 
 31 H       -3.1460    -6.7150    -0.2990 H     1 <1>   0.0800 
 32 H       -4.0270    -6.5370    -1.7740 H     1 <1>   0.0800 
 33 H       -4.3580    -4.2920    -2.4650 H     1 <1>   0.0800 
 34 H       -4.6800    -3.0250    -1.3390 H     1 <1>   0.0800 
 35 H       -6.5110    -5.1700    -2.2760 H     1 <1>   0.0800 
 36 H       -6.7880    -3.4540    -2.2140 H     1 <1>   0.0800 
 37 H       -6.5960    -5.3230     0.0230 H     1 <1>   0.4500 
 38 H       -8.0980    -8.4240    -0.2100 H     1 <1>   0.1500 
 39 H       -6.7380    -9.1970     1.7880 H     1 <1>   0.2700 
 40 H       -3.2070    -7.7010     1.7560 H     1 <1>   0.0800 
 41 H       -3.9170    -9.2500     2.1150 H     1 <1>   0.0800 
 42 H       -4.4290    -7.8220     2.9880 H     1 <1>   0.0800 
 43 H       -9.0250    -4.0170    -1.0400 H     1 <1>   0.0800 
 44 H       -8.9600    -5.0650     0.3640 H     1 <1>   0.0800 
 45 H       -8.5630    -5.7010    -1.2160 H     1 <1>   0.0800 
 46 H       -7.3470    -2.4480     0.2020 H     1 <1>   0.0800 
 47 H       -5.8640    -3.1710     0.7960 H     1 <1>   0.0800 
 48 H       -7.3920    -3.5920     1.5300 H     1 <1>   0.0800 
@<TRIPOS>BOND
  1   1   2  1   
  2   2   3  ar  
  3   2   4  ar  
  4   3   5  1   
  5   3   6  ar  
  6   4   7  ar  
  7   4  26  1   
  8   5   8  1   
  9   6   9  1   
 10   6  10  ar  
 11   7  10  ar  
 12   7  11  1   
 13   8  27  1   
 14   8  28  1   
 15   8  29  1   
 16   9  12  2   
 17   9  13  am  
 18  10  30  1   
 19  13  14  1   
 20  13  15  1   
 21  14  16  1   
 22  14  31  1   
 23  14  32  1   
 24  15  17  1   
 25  15  33  1   
 26  15  34  1   
 27  16  18  1   
 28  16  19  2   
 29  17  20  1   
 30  17  35  1   
 31  17  36  1   
 32  18  21  2   
 33  19  22  1   
 34  19  23  1   
 35  20  24  1   
 36  20  25  1   
 37  20  37  1   
 38  21  22  1   
 39  21  38  1   
 40  22  39  1   
 41  23  40  1   
 42  23  41  1   
 43  23  42  1   
 44  24  43  1   
 45  24  44  1   
 46  24  45  1   
 47  25  46  1   
 48  25  47  1   
 49  25  48  1   
@<TRIPOS>SUBSTRUCTURE
  1 ****   9 GROUP 4 **** **** 0

# MOE 2024.06 (io_trps.svl 2023.06)
