@<TRIPOS>MOLECULE
NONAME
20 20 1 0 0 
SMALL
USER_CHARGES


@<TRIPOS>ATOM
  1 O       -3.0870     0.5480     0.8430 O.co2 1 <1>  -0.9000 
  2 C       -2.8960     1.5370     0.1140 C.2   1 <1>   0.9060 
  3 O       -1.7940     2.0400    -0.1000 O.co2 1 <1>  -0.9000 
  4 C       -4.1670     2.1100    -0.5420 C.3   1 <1>   0.3170 
  5 N       -5.3470     1.2410    -0.1960 N.4   1 <1>  -0.9060 
  6 C       -4.5460     3.5070    -0.0440 C.3   1 <1>  -0.1600 
  7 C       -6.3410     2.0250     0.5290 C.3   1 <1>   0.4230 
  8 C       -6.0620     3.4650     0.1220 C.3   1 <1>  -0.1600 
  9 C       -7.7380     1.5440     0.1640 C.3   1 <1>  -0.2400 
 10 H       -4.0190     2.1250    -1.6060 H     1 <1>   0.0800 
 11 H       -5.7060     0.7440    -1.0100 H     1 <1>   0.4500 
 12 H       -4.8850     0.5450     0.4390 H     1 <1>   0.4500 
 13 H       -4.0710     3.6860     0.9070 H     1 <1>   0.0800 
 14 H       -4.2210     4.2680    -0.7320 H     1 <1>   0.0800 
 15 H       -6.1690     1.9180     1.5890 H     1 <1>   0.0800 
 16 H       -6.5410     3.6880    -0.8160 H     1 <1>   0.0800 
 17 H       -6.4070     4.1610     0.8660 H     1 <1>   0.0800 
 18 H       -7.9160     1.6350    -0.8930 H     1 <1>   0.0800 
 19 H       -8.4690     2.1390     0.6820 H     1 <1>   0.0800 
 20 H       -7.8690     0.5200     0.4650 H     1 <1>   0.0800 
@<TRIPOS>BOND
  1   1   2  ar  
  2   2   3  ar  
  3   2   4  1   
  4   4   5  1   
  5   4   6  1   
  6   4  10  1   
  7   5   7  1   
  8   5  11  1   
  9   5  12  1   
 10   6   8  1   
 11   6  13  1   
 12   6  14  1   
 13   7   8  1   
 14   7   9  1   
 15   7  15  1   
 16   8  16  1   
 17   8  17  1   
 18   9  18  1   
 19   9  19  1   
 20   9  20  1   
@<TRIPOS>SUBSTRUCTURE
  1 ****   4 GROUP 4 **** **** 0

# MOE 2024.06 (io_trps.svl 2023.06)
