@<TRIPOS>MOLECULE
NONAME
58 62 1 0 0 
SMALL
USER_CHARGES


@<TRIPOS>ATOM
  1 O       -1.2850    -1.1890     2.0550 O.2   1 <1>  -0.5700 
  2 C       -0.6690    -1.9170     1.3140 C.2   1 <1>   0.5690 
  3 N        0.6840    -1.7730     1.1220 N.am  1 <1>  -0.6600 
  4 C       -1.4980    -2.9720     0.5580 C.3   1 <1>   0.4040 
  5 C        1.4490    -0.6860     1.8240 C.3   1 <1>   0.1400 
  6 C        1.5730    -2.6370     0.2770 C.3   1 <1>   0.1400 
  7 N       -2.3420    -2.4040    -0.5660 N.4   1 <1>  -0.9590 
  8 C        2.7030    -1.2460     2.5140 C.3   1 <1>   0.1200 
  9 C        2.8160    -3.0860     1.0650 C.3   1 <1>   0.1200 
 10 C       -3.4480    -1.5400    -0.0070 C.3   1 <1>   0.3430 
 11 C       -2.8960    -3.4760    -1.4410 C.3   1 <1>   0.3430 
 12 O        3.4720    -1.9790     1.6050 O.3   1 <1>  -0.5600 
 13 C       -4.2670    -0.8590    -1.1180 C.3   1 <1>   0.1430 
 14 C       -3.6500    -2.8430    -2.6130 C.3   1 <1>  -0.1600 
 15 C       -5.4440    -0.1450    -0.4940 C.ar  1 <1>   0.1670 
 16 C       -4.7730    -1.9060    -2.1350 C.3   1 <1>  -0.1600 
 17 C       -3.4970     0.3000    -1.8070 C.3   1 <1>  -0.1600 
 18 N       -6.2490    -0.6750     0.3910 N.ar  1 <1>  -0.6200 
 19 C       -5.5720     1.1240    -0.9630 C.ar  1 <1>  -0.1440 
 20 C       -4.4970     1.4630    -1.9640 C.3   1 <1>  -0.0170 
 21 C       -7.2480     0.1190     0.8090 C.ar  1 <1>   0.6200 
 22 C       -6.6120     1.8750    -0.4800 C.ar  1 <1>   0.1600 
 23 N       -7.4520     1.3800     0.4000 N.ar  1 <1>  -0.6200 
 24 C       -8.1850    -0.4310     1.7760 C.ar  1 <1>   0.0000 
 25 C       -9.5390    -0.0840     1.7570 C.ar  1 <1>  -0.1500 
 26 C       -7.7780    -1.3300     2.7660 C.ar  1 <1>  -0.1500 
 27 C      -10.4370    -0.6060     2.6700 C.ar  1 <1>  -0.1500 
 28 C       -8.6700    -1.8560     3.6820 C.ar  1 <1>  -0.1500 
 29 C      -10.0040    -1.4950     3.6360 C.ar  1 <1>  -0.1500 
 30 H       -2.1400    -3.4540     1.2750 H     1 <1>   0.0800 
 31 H       -0.8320    -3.7180     0.1670 H     1 <1>   0.0800 
 32 H        0.8360    -0.1980     2.5630 H     1 <1>   0.0800 
 33 H        1.7500     0.0570     1.1060 H     1 <1>   0.0800 
 34 H        1.9000    -2.0720    -0.5800 H     1 <1>   0.0800 
 35 H        1.0580    -3.5090    -0.0760 H     1 <1>   0.0800 
 36 H       -1.7410    -1.7940    -1.1350 H     1 <1>   0.4500 
 37 H        2.4350    -1.8840     3.3380 H     1 <1>   0.0800 
 38 H        3.3130    -0.4410     2.8860 H     1 <1>   0.0800 
 39 H        3.5100    -3.5890     0.4150 H     1 <1>   0.0800 
 40 H        2.5480    -3.7530     1.8660 H     1 <1>   0.0800 
 41 H       -3.0430    -0.7770     0.6380 H     1 <1>   0.0800 
 42 H       -4.1150    -2.1450     0.5850 H     1 <1>   0.0800 
 43 H       -3.5730    -4.0970    -0.8750 H     1 <1>   0.0800 
 44 H       -2.1000    -4.0980    -1.8200 H     1 <1>   0.0800 
 45 H       -4.0820    -3.6270    -3.2120 H     1 <1>   0.0800 
 46 H       -2.9580    -2.3120    -3.2420 H     1 <1>   0.0800 
 47 H       -5.2300    -1.4140    -2.9770 H     1 <1>   0.0800 
 48 H       -5.5390    -2.5010    -1.6650 H     1 <1>   0.0800 
 49 H       -3.0760     0.0230    -2.7570 H     1 <1>   0.0800 
 50 H       -2.7010     0.6370    -1.1650 H     1 <1>   0.0800 
 51 H       -4.9190     1.4760    -2.9550 H     1 <1>   0.0800 
 52 H       -4.0400     2.4150    -1.7510 H     1 <1>   0.0800 
 53 H       -6.7610     2.8880    -0.8160 H     1 <1>   0.1500 
 54 H       -9.8920     0.6080     1.0120 H     1 <1>   0.1500 
 55 H       -6.7430    -1.6180     2.8190 H     1 <1>   0.1500 
 56 H      -11.4740    -0.3190     2.6290 H     1 <1>   0.1500 
 57 H       -8.3290    -2.5460     4.4340 H     1 <1>   0.1500 
 58 H      -10.7010    -1.9030     4.3480 H     1 <1>   0.1500 
@<TRIPOS>BOND
  1   1   2  2   
  2   2   3  am  
  3   2   4  1   
  4   3   5  1   
  5   3   6  1   
  6   4   7  1   
  7   4  30  1   
  8   4  31  1   
  9   5   8  1   
 10   5  32  1   
 11   5  33  1   
 12   6   9  1   
 13   6  34  1   
 14   6  35  1   
 15   7  10  1   
 16   7  11  1   
 17   7  36  1   
 18   8  12  1   
 19   8  37  1   
 20   8  38  1   
 21   9  12  1   
 22   9  39  1   
 23   9  40  1   
 24  10  13  1   
 25  10  41  1   
 26  10  42  1   
 27  11  14  1   
 28  11  43  1   
 29  11  44  1   
 30  13  15  1   
 31  13  16  1   
 32  13  17  1   
 33  14  16  1   
 34  14  45  1   
 35  14  46  1   
 36  15  18  ar  
 37  15  19  ar  
 38  16  47  1   
 39  16  48  1   
 40  17  20  1   
 41  17  49  1   
 42  17  50  1   
 43  18  21  ar  
 44  19  20  1   
 45  19  22  ar  
 46  20  51  1   
 47  20  52  1   
 48  21  23  ar  
 49  21  24  1   
 50  22  23  ar  
 51  22  53  1   
 52  24  25  ar  
 53  24  26  ar  
 54  25  27  ar  
 55  25  54  1   
 56  26  28  ar  
 57  26  55  1   
 58  27  29  ar  
 59  27  56  1   
 60  28  29  ar  
 61  28  57  1   
 62  29  58  1   
@<TRIPOS>SUBSTRUCTURE
  1 ****  10 GROUP 4 **** **** 0

# MOE 2024.06 (io_trps.svl 2023.06)
