@<TRIPOS>MOLECULE
NONAME
46 48 1 0 0 
SMALL
USER_CHARGES


@<TRIPOS>ATOM
  1 O       -1.6620     1.3350     0.6290 O.co2 1 <1>  -0.9000 
  2 C       -1.6640     0.4500    -0.2300 C.2   1 <1>   0.9060 
  3 O       -1.3060     0.6210    -1.3990 O.co2 1 <1>  -0.9000 
  4 C       -2.2990    -0.8970     0.1300 C.3   1 <1>   0.2370 
  5 N       -3.7980    -0.9790    -0.1230 N.4   1 <1>  -0.9590 
  6 C       -4.4860     0.0280     0.7550 C.3   1 <1>   0.3430 
  7 C       -4.0630    -0.7070    -1.5710 C.3   1 <1>   0.3430 
  8 C       -6.0170    -0.1850     0.7980 C.3   1 <1>   0.2200 
  9 C       -5.5360    -0.8880    -1.9990 C.3   1 <1>  -0.0800 
 10 N       -6.4080    -1.5690     0.3200 N.am  1 <1>  -0.6600 
 11 C       -6.7650     0.9280     0.0460 C.3   1 <1>   0.1200 
 12 C       -6.2450     0.4570    -2.2150 C.3   1 <1>   0.1200 
 13 C       -6.3850    -1.8550    -1.1510 C.3   1 <1>   0.1400 
 14 C       -6.7730    -2.5210     1.2450 C.2   1 <1>   0.5690 
 15 O       -6.0960     1.2960    -1.1210 O.3   1 <1>  -0.5600 
 16 O       -6.5320    -2.3570     2.4180 O.2   1 <1>  -0.5700 
 17 C       -7.4380    -3.8410     0.8500 C.3   1 <1>   0.1810 
 18 O       -8.4940    -3.6400    -0.0770 O.3   1 <1>  -0.3630 
 19 C       -9.1530    -4.6880    -0.6300 C.ar  1 <1>   0.0820 
 20 C       -8.9150    -6.0190    -0.2950 C.ar  1 <1>  -0.1500 
 21 C      -10.1120    -4.3860    -1.5850 C.ar  1 <1>  -0.1500 
 22 C       -9.6260    -7.0270    -0.9220 C.ar  1 <1>  -0.1500 
 23 C      -10.8220    -5.3960    -2.2090 C.ar  1 <1>  -0.1500 
 24 C      -10.5780    -6.7170    -1.8790 C.ar  1 <1>  -0.1500 
 25 H       -2.0940    -1.0730     1.1700 H     1 <1>   0.0800 
 26 H       -1.7900    -1.6460    -0.4480 H     1 <1>   0.0800 
 27 H       -4.1780    -1.8950     0.1370 H     1 <1>   0.4500 
 28 H       -4.1060    -0.0620     1.7580 H     1 <1>   0.0800 
 29 H       -4.2590     1.0290     0.4210 H     1 <1>   0.0800 
 30 H       -3.7440     0.2970    -1.8110 H     1 <1>   0.0800 
 31 H       -3.4530    -1.3740    -2.1570 H     1 <1>   0.0800 
 32 H       -6.3180    -0.0790     1.8260 H     1 <1>   0.0800 
 33 H       -5.4980    -1.3250    -2.9810 H     1 <1>   0.0800 
 34 H       -6.7920     1.8070     0.6660 H     1 <1>   0.0800 
 35 H       -7.7780     0.6440    -0.1810 H     1 <1>   0.0800 
 36 H       -7.2950     0.3300    -2.4180 H     1 <1>   0.0800 
 37 H       -5.8010     0.9680    -3.0530 H     1 <1>   0.0800 
 38 H       -6.0120    -2.8540    -1.3010 H     1 <1>   0.0800 
 39 H       -7.3980    -1.8370    -1.5170 H     1 <1>   0.0800 
 40 H       -7.8500    -4.3080     1.7260 H     1 <1>   0.0800 
 41 H       -6.7080    -4.4890     0.4020 H     1 <1>   0.0800 
 42 H       -8.1900    -6.2940     0.4470 H     1 <1>   0.1500 
 43 H      -10.3020    -3.3590    -1.8350 H     1 <1>   0.1500 
 44 H       -9.4430    -8.0560    -0.6650 H     1 <1>   0.1500 
 45 H      -11.5650    -5.1550    -2.9500 H     1 <1>   0.1500 
 46 H      -11.1290    -7.5040    -2.3640 H     1 <1>   0.1500 
@<TRIPOS>BOND
  1   1   2  ar  
  2   2   3  ar  
  3   2   4  1   
  4   4   5  1   
  5   4  25  1   
  6   4  26  1   
  7   5   6  1   
  8   5   7  1   
  9   5  27  1   
 10   6   8  1   
 11   6  28  1   
 12   6  29  1   
 13   7   9  1   
 14   7  30  1   
 15   7  31  1   
 16   8  10  1   
 17   8  11  1   
 18   8  32  1   
 19   9  12  1   
 20   9  13  1   
 21   9  33  1   
 22  10  13  1   
 23  10  14  am  
 24  11  15  1   
 25  11  34  1   
 26  11  35  1   
 27  12  15  1   
 28  12  36  1   
 29  12  37  1   
 30  13  38  1   
 31  13  39  1   
 32  14  16  2   
 33  14  17  1   
 34  17  18  1   
 35  17  40  1   
 36  17  41  1   
 37  18  19  1   
 38  19  20  ar  
 39  19  21  ar  
 40  20  22  ar  
 41  20  42  1   
 42  21  23  ar  
 43  21  43  1   
 44  22  24  ar  
 45  22  44  1   
 46  23  24  ar  
 47  23  45  1   
 48  24  46  1   
@<TRIPOS>SUBSTRUCTURE
  1 ****  13 GROUP 4 **** **** 0

# MOE 2024.06 (io_trps.svl 2023.06)
