@<TRIPOS>MOLECULE
NONAME
35 36 1 0 0 
SMALL
USER_CHARGES


@<TRIPOS>ATOM
  1 S       -0.4310    -0.3550     0.4860 S.3   1 <1>  -0.0800 
  2 C       -0.8580     1.0950    -0.3610 C.2   1 <1>   0.1980 
  3 C       -0.7340    -1.2040    -0.9880 C.2   1 <1>   0.1980 
  4 N       -1.1820     0.8770    -1.5730 N.2   1 <1>  -0.3380 
  5 C       -0.8500     2.4120     0.4090 C.3   1 <1>   0.2900 
  6 N       -1.1070    -0.4420    -1.9340 N.2   1 <1>  -0.3380 
  7 C       -0.5340    -2.7020    -1.0030 C.3   1 <1>  -0.0600 
  8 N        0.4250     3.1700     0.3370 N.3   1 <1>  -0.8100 
  9 C        0.2630     4.5170     0.9490 C.3   1 <1>   0.2900 
 10 C        1.5680     2.4250     0.8900 C.3   1 <1>   0.0300 
 11 C        1.4320     5.4770     0.7330 C.2   1 <1>   0.2980 
 12 O        2.4860     5.3660     1.5050 O.3   1 <1>  -0.0190 
 13 N        1.4790     6.4250    -0.1180 N.2   1 <1>  -0.5650 
 14 N        3.2750     6.3130     1.0990 N.2   1 <1>  -0.4100 
 15 C        2.6780     6.9190     0.1500 C.2   1 <1>   0.3350 
 16 C        3.2120     8.0990    -0.6490 C.3   1 <1>   0.0210 
 17 C        4.6120     8.5640    -0.2110 C.3   1 <1>  -0.1600 
 18 C        5.1000     9.7530    -1.0470 C.3   1 <1>  -0.2400 
 19 H       -1.0990     2.2170     1.4380 H     1 <1>   0.0800 
 20 H       -1.6340     3.0200    -0.0090 H     1 <1>   0.0800 
 21 H       -1.1860    -3.1650    -0.2860 H     1 <1>   0.0800 
 22 H        0.4860    -2.9370    -0.7620 H     1 <1>   0.0800 
 23 H       -0.7600    -3.0880    -1.9810 H     1 <1>   0.0800 
 24 H        0.0920     4.4170     2.0060 H     1 <1>   0.0800 
 25 H       -0.6050     4.9860     0.5180 H     1 <1>   0.0800 
 26 H        1.6910     1.4930     0.3680 H     1 <1>   0.0800 
 27 H        1.4270     2.2290     1.9400 H     1 <1>   0.0800 
 28 H        2.4790     2.9810     0.7530 H     1 <1>   0.0800 
 29 H        2.5160     8.9110    -0.5470 H     1 <1>   0.0800 
 30 H        3.2380     7.8130    -1.6850 H     1 <1>   0.0800 
 31 H        5.3060     7.7480    -0.3130 H     1 <1>   0.0800 
 32 H        4.5840     8.8460     0.8280 H     1 <1>   0.0800 
 33 H        5.1580     9.4840    -2.0870 H     1 <1>   0.0800 
 34 H        6.0790    10.0550    -0.7170 H     1 <1>   0.0800 
 35 H        4.4310    10.5890    -0.9400 H     1 <1>   0.0800 
@<TRIPOS>BOND
  1   1   2  1   
  2   1   3  1   
  3   2   4  2   
  4   2   5  1   
  5   3   6  2   
  6   3   7  1   
  7   4   6  1   
  8   5   8  1   
  9   5  19  1   
 10   5  20  1   
 11   7  21  1   
 12   7  22  1   
 13   7  23  1   
 14   8   9  1   
 15   8  10  1   
 16   9  11  1   
 17   9  24  1   
 18   9  25  1   
 19  10  26  1   
 20  10  27  1   
 21  10  28  1   
 22  11  12  1   
 23  11  13  2   
 24  12  14  1   
 25  13  15  1   
 26  14  15  2   
 27  15  16  1   
 28  16  17  1   
 29  16  29  1   
 30  16  30  1   
 31  17  18  1   
 32  17  31  1   
 33  17  32  1   
 34  18  33  1   
 35  18  34  1   
 36  18  35  1   
@<TRIPOS>SUBSTRUCTURE
  1 ****   8 GROUP 4 **** **** 0

# MOE 2024.06 (io_trps.svl 2023.06)
