@<TRIPOS>MOLECULE
NONAME
41 42 1 0 0 
SMALL
USER_CHARGES


@<TRIPOS>ATOM
  1 S        0.4880     1.0280    -1.1250 S.o2  1 <1>   1.3330 
  2 O       -0.4440     2.0660    -1.5100 O.2   1 <1>  -0.6500 
  3 O        0.4440    -0.2280    -1.8430 O.2   1 <1>  -0.6500 
  4 N        0.1830     0.6750     0.5070 N.am  1 <1>  -0.8490 
  5 C        2.1680     1.6540    -1.1880 C.3   1 <1>  -0.0550 
  6 C        0.1970     1.8700     1.3660 C.3   1 <1>   0.1160 
  7 C       -1.0780    -0.0450     0.6750 C.3   1 <1>   0.1160 
  8 C        3.2630     0.6060    -0.8870 C.3   1 <1>  -0.0800 
  9 C        4.6960     1.1130    -0.9810 C.3   1 <1>   0.2200 
 10 C        3.2470     0.0310     0.5250 C.3   1 <1>   0.1200 
 11 N        4.8150     2.4530    -0.3740 N.am  1 <1>  -0.7300 
 12 C        5.4500     0.0990    -0.1190 C.3   1 <1>   0.1200 
 13 O        4.5090    -0.5380     0.7010 O.3   1 <1>  -0.5600 
 14 C        4.7220     3.6280    -1.0530 C.2   1 <1>   0.5440 
 15 O        5.1090     3.6450    -2.2170 O.2   1 <1>  -0.5700 
 16 C        4.1380     4.7770    -0.4070 C.ar  1 <1>   0.0860 
 17 C        3.3980     4.6800     0.8150 C.ar  1 <1>  -0.1710 
 18 C        4.2730     6.0490    -0.9840 C.ar  1 <1>  -0.1500 
 19 O        3.1920     3.5950     1.4130 O.3   1 <1>  -0.8290 
 20 C        2.8560     5.8390     1.3920 C.ar  1 <1>  -0.1500 
 21 C        3.7320     7.1820    -0.4120 C.ar  1 <1>  -0.1500 
 22 C        3.0280     7.0490     0.7790 C.ar  1 <1>   0.1900 
 23 F        2.5200     8.1270     1.3160 F     1 <1>  -0.1900 
 24 H        2.3480     2.0420    -2.1710 H     1 <1>   0.0800 
 25 H        2.2500     2.4790    -0.5130 H     1 <1>   0.0800 
 26 H        0.0080     1.5960     2.3890 H     1 <1>   0.0800 
 27 H       -0.5490     2.5790     1.0460 H     1 <1>   0.0800 
 28 H        1.1580     2.3480     1.3310 H     1 <1>   0.0800 
 29 H       -1.2280    -0.2930     1.7120 H     1 <1>   0.0800 
 30 H       -1.0540    -0.9600     0.1070 H     1 <1>   0.0800 
 31 H       -1.9010     0.5580     0.3290 H     1 <1>   0.0800 
 32 H        3.1480    -0.2160    -1.5720 H     1 <1>   0.0800 
 33 H        5.0650     1.1320    -1.9930 H     1 <1>   0.0800 
 34 H        2.4940    -0.7250     0.6610 H     1 <1>   0.0800 
 35 H        3.1280     0.8120     1.2600 H     1 <1>   0.0800 
 36 H        4.3260     2.5640     0.5430 H     1 <1>   0.3700 
 37 H        6.1940     0.5730     0.4980 H     1 <1>   0.0800 
 38 H        5.9070    -0.6550    -0.7330 H     1 <1>   0.0800 
 39 H        4.8200     6.1330    -1.9050 H     1 <1>   0.1500 
 40 H        2.3120     5.7430     2.3110 H     1 <1>   0.1500 
 41 H        3.8410     8.1500    -0.8610 H     1 <1>   0.1500 
@<TRIPOS>BOND
  1   1   2  2   
  2   1   3  2   
  3   1   4  am  
  4   1   5  1   
  5   4   6  1   
  6   4   7  1   
  7   5   8  1   
  8   5  24  1   
  9   5  25  1   
 10   6  26  1   
 11   6  27  1   
 12   6  28  1   
 13   7  29  1   
 14   7  30  1   
 15   7  31  1   
 16   8   9  1   
 17   8  10  1   
 18   8  32  1   
 19   9  11  1   
 20   9  12  1   
 21   9  33  1   
 22  10  13  1   
 23  10  34  1   
 24  10  35  1   
 25  11  14  am  
 26  11  36  1   
 27  12  13  1   
 28  12  37  1   
 29  12  38  1   
 30  14  15  2   
 31  14  16  1   
 32  16  17  ar  
 33  16  18  ar  
 34  17  19  1   
 35  17  20  ar  
 36  18  21  ar  
 37  18  39  1   
 38  20  22  ar  
 39  20  40  1   
 40  21  22  ar  
 41  21  41  1   
 42  22  23  1   
@<TRIPOS>SUBSTRUCTURE
  1 ****   5 GROUP 4 **** **** 0

# MOE 2024.06 (io_trps.svl 2023.06)
