@<TRIPOS>MOLECULE
NONAME
37 39 1 0 0 
SMALL
USER_CHARGES


@<TRIPOS>ATOM
  1 F       -0.8170    -0.5640    -0.7120 F     1 <1>  -0.1900 
  2 C       -1.9130    -1.1240    -0.2480 C.ar  1 <1>   0.1900 
  3 C       -3.1840    -0.5950    -0.4380 C.ar  1 <1>   0.3920 
  4 C       -1.7920    -2.2910     0.4560 C.ar  1 <1>   0.1600 
  5 O       -3.4790     0.5410    -1.1120 O.3   1 <1>  -0.3630 
  6 N       -4.2390    -1.2070     0.0530 N.ar  1 <1>  -0.6200 
  7 N       -2.8430    -2.9120     0.9480 N.ar  1 <1>  -0.6200 
  8 C       -2.5230     1.4050    -1.6850 C.3   1 <1>   0.0400 
  9 C       -4.0240    -2.3320     0.7310 C.ar  1 <1>   0.7200 
 10 N       -5.1290    -2.9690     1.2520 N.pl3 1 <1>  -0.8380 
 11 C       -5.2120    -4.4610     1.2920 C.3   1 <1>   0.2090 
 12 C       -6.4800    -2.3220     1.2680 C.3   1 <1>   0.2090 
 13 C       -6.0660    -4.9910     0.1240 C.3   1 <1>   0.1400 
 14 C       -7.3190    -2.8170     0.0800 C.3   1 <1>   0.1400 
 15 N       -7.4030    -4.3150     0.0650 N.am  1 <1>  -0.6600 
 16 C       -8.5890    -4.9750     0.3210 C.2   1 <1>   0.7150 
 17 O       -9.5020    -4.3420     0.8240 O.2   1 <1>  -0.5700 
 18 C       -8.7580    -6.3760    -0.0050 C.2   1 <1>   0.0550 
 19 O       -9.4890    -7.1800     0.7640 O.3   1 <1>  -0.2800 
 20 C       -8.2740    -7.1120    -1.0470 C.2   1 <1>  -0.1500 
 21 C       -9.4840    -8.3880     0.2480 C.2   1 <1>  -0.0100 
 22 C       -8.7440    -8.4150    -0.8800 C.2   1 <1>  -0.1500 
 23 H       -0.8200    -2.7220     0.6170 H     1 <1>   0.1500 
 24 H       -3.0460     2.2350    -2.1250 H     1 <1>   0.0800 
 25 H       -1.9790     0.8740    -2.4460 H     1 <1>   0.0800 
 26 H       -1.8620     1.7600    -0.9130 H     1 <1>   0.0800 
 27 H       -5.6590    -4.7610     2.2240 H     1 <1>   0.0800 
 28 H       -4.2340    -4.9060     1.2460 H     1 <1>   0.0800 
 29 H       -6.3960    -1.2500     1.2340 H     1 <1>   0.0800 
 30 H       -6.9840    -2.5760     2.1840 H     1 <1>   0.0800 
 31 H       -6.1800    -6.0530     0.2430 H     1 <1>   0.0800 
 32 H       -5.5410    -4.8130    -0.7990 H     1 <1>   0.0800 
 33 H       -6.8600    -2.4790    -0.8330 H     1 <1>   0.0800 
 34 H       -8.3010    -2.3800     0.1320 H     1 <1>   0.0800 
 35 H       -7.6560    -6.7710    -1.8590 H     1 <1>   0.1500 
 36 H      -10.0320    -9.1700     0.7450 H     1 <1>   0.1500 
 37 H       -8.5470    -9.2470    -1.5330 H     1 <1>   0.1500 
@<TRIPOS>BOND
  1   1   2  1   
  2   2   3  ar  
  3   2   4  ar  
  4   3   5  1   
  5   3   6  ar  
  6   4   7  ar  
  7   4  23  1   
  8   5   8  1   
  9   6   9  ar  
 10   7   9  ar  
 11   8  24  1   
 12   8  25  1   
 13   8  26  1   
 14   9  10  1   
 15  10  11  1   
 16  10  12  1   
 17  11  13  1   
 18  11  27  1   
 19  11  28  1   
 20  12  14  1   
 21  12  29  1   
 22  12  30  1   
 23  13  15  1   
 24  13  31  1   
 25  13  32  1   
 26  14  15  1   
 27  14  33  1   
 28  14  34  1   
 29  15  16  am  
 30  16  17  2   
 31  16  18  1   
 32  18  19  1   
 33  18  20  2   
 34  19  21  1   
 35  20  22  1   
 36  20  35  1   
 37  21  22  2   
 38  21  36  1   
 39  22  37  1   
@<TRIPOS>SUBSTRUCTURE
  1 ****  10 GROUP 4 **** **** 0

# MOE 2024.06 (io_trps.svl 2023.06)
