@<TRIPOS>MOLECULE
NONAME
41 42 1 0 0 
SMALL
USER_CHARGES


@<TRIPOS>ATOM
  1 CL       0.7890     1.0270    -0.3410 Cl    1 <1>  -0.1770 
  2 C        2.0180    -0.2160    -0.2480 C.ar  1 <1>   0.1770 
  3 C        3.1930     0.0490     0.4540 C.ar  1 <1>   0.0860 
  4 C        1.7850    -1.4330    -0.8810 C.ar  1 <1>  -0.1440 
  5 C        4.1320    -0.9770     0.4770 C.ar  1 <1>   0.1900 
  6 C        3.4260     1.3040     1.1170 C.2   1 <1>   0.5440 
  7 C        2.7530    -2.4260    -0.8210 C.ar  1 <1>  -0.1500 
  8 C        0.4870    -1.6920    -1.6340 C.3   1 <1>  -0.0970 
  9 F        5.2680    -0.7920     1.0920 F     1 <1>  -0.1900 
 10 C        3.9350    -2.1980    -0.1390 C.ar  1 <1>  -0.1500 
 11 O        3.4500     1.3650     2.3300 O.2   1 <1>  -0.5700 
 12 N        3.6200     2.4460     0.3910 N.am  1 <1>  -0.7300 
 13 C        3.8810     3.7810     0.9650 C.3   1 <1>   0.1400 
 14 C        4.9300     4.4910     0.1130 C.3   1 <1>  -0.1600 
 15 C        5.2800     5.8640     0.6930 C.3   1 <1>   0.0210 
 16 C        6.3110     6.5540    -0.1830 C.2   1 <1>  -0.1810 
 17 C        6.0590     7.4210    -1.2450 C.2   1 <1>   0.1080 
 18 C        7.6580     6.4710    -0.1190 C.2   1 <1>  -0.3320 
 19 N        7.1480     7.8500    -1.7990 N.2   1 <1>  -0.7070 
 20 C        4.6950     7.8500    -1.7360 C.3   1 <1>  -0.0590 
 21 N        8.1370     7.2630    -1.1020 N.pl3 1 <1>   0.3000 
 22 C        8.5540     5.6790     0.8190 C.3   1 <1>  -0.0600 
 23 H        2.5930    -3.3770    -1.3020 H     1 <1>   0.1500 
 24 H        0.3770    -0.9840    -2.4370 H     1 <1>   0.0800 
 25 H       -0.3520    -1.5930    -0.9680 H     1 <1>   0.0800 
 26 H        0.4710    -2.6830    -2.0520 H     1 <1>   0.0800 
 27 H        4.6970    -2.9560    -0.0840 H     1 <1>   0.1500 
 28 H        3.5180     2.4170    -0.6250 H     1 <1>   0.3700 
 29 H        4.2350     3.6800     1.9780 H     1 <1>   0.0800 
 30 H        2.9630     4.3450     0.9790 H     1 <1>   0.0800 
 31 H        4.5600     4.6170    -0.8890 H     1 <1>   0.0800 
 32 H        5.8240     3.8930     0.0770 H     1 <1>   0.0800 
 33 H        5.6770     5.7500     1.6860 H     1 <1>   0.0800 
 34 H        4.3990     6.4770     0.7620 H     1 <1>   0.0800 
 35 H        4.0460     6.9990    -1.8170 H     1 <1>   0.0800 
 36 H        4.7860     8.3110    -2.7020 H     1 <1>   0.0800 
 37 H        4.2720     8.5600    -1.0500 H     1 <1>   0.0800 
 38 H        9.1260     7.4220    -1.3240 H     1 <1>   0.2700 
 39 H        7.9650     5.0840     1.4930 H     1 <1>   0.0800 
 40 H        9.1660     6.3470     1.3980 H     1 <1>   0.0800 
 41 H        9.1900     5.0210     0.2540 H     1 <1>   0.0800 
@<TRIPOS>BOND
  1   1   2  1   
  2   2   3  ar  
  3   2   4  ar  
  4   3   5  ar  
  5   3   6  1   
  6   4   7  ar  
  7   4   8  1   
  8   5   9  1   
  9   5  10  ar  
 10   6  11  2   
 11   6  12  am  
 12   7  10  ar  
 13   7  23  1   
 14   8  24  1   
 15   8  25  1   
 16   8  26  1   
 17  10  27  1   
 18  12  13  1   
 19  12  28  1   
 20  13  14  1   
 21  13  29  1   
 22  13  30  1   
 23  14  15  1   
 24  14  31  1   
 25  14  32  1   
 26  15  16  1   
 27  15  33  1   
 28  15  34  1   
 29  16  17  1   
 30  16  18  2   
 31  17  19  2   
 32  17  20  1   
 33  18  21  1   
 34  18  22  1   
 35  19  21  1   
 36  20  35  1   
 37  20  36  1   
 38  20  37  1   
 39  21  38  1   
 40  22  39  1   
 41  22  40  1   
 42  22  41  1   
@<TRIPOS>SUBSTRUCTURE
  1 ****  12 GROUP 4 **** **** 0

# MOE 2024.06 (io_trps.svl 2023.06)
