@<TRIPOS>MOLECULE
NONAME
52 55 1 0 0 
SMALL
USER_CHARGES


@<TRIPOS>ATOM
  1 O       -2.3650     2.3160    -2.0520 O.2   1 <1>  -0.5700 
  2 C       -2.2070     2.3130    -0.8420 C.2   1 <1>   0.5440 
  3 N       -3.1360     1.6500    -0.0620 N.am  1 <1>  -0.6600 
  4 C       -1.0470     2.9670    -0.2560 C.ar  1 <1>   0.0860 
  5 C       -4.5230     1.4360    -0.5750 C.3   1 <1>   0.2200 
  6 C       -2.6520     0.7130     0.9970 C.3   1 <1>   0.0600 
  7 C        0.1580     3.0940    -0.9740 C.ar  1 <1>  -0.1520 
  8 C       -1.0480     3.4990     1.0280 C.ar  1 <1>  -0.1500 
  9 C       -5.1760     2.7510    -1.0090 C.3   1 <1>  -0.1600 
 10 C       -5.5000     0.9030     0.4780 C.3   1 <1>  -0.1600 
 11 N        0.4480     2.7060    -2.2540 N.pl3 1 <1>   0.0330 
 12 C        1.2960     3.6790    -0.4280 C.ar  1 <1>   0.0000 
 13 C        0.0840     4.0960     1.5890 C.ar  1 <1>  -0.1500 
 14 C       -6.6840     2.4800    -0.9770 C.3   1 <1>  -0.0800 
 15 C       -6.8900     1.2840    -0.0460 C.3   1 <1>  -0.0800 
 16 C        1.7510     3.0250    -2.5150 C.2   1 <1>  -0.3020 
 17 C        1.2550     4.1850     0.8720 C.ar  1 <1>  -0.1500 
 18 C        2.2940     3.6160    -1.4240 C.2   1 <1>  -0.1500 
 19 C       -7.5420     3.6140    -0.4010 C.3   1 <1>  -0.1600 
 20 C       -7.8920     1.7510     1.0220 C.3   1 <1>  -0.1600 
 21 C       -8.6570     2.9150     0.3830 C.3   1 <1>   0.4230 
 22 N       -9.7210     2.4070    -0.5430 N.4   1 <1>  -0.9590 
 23 C      -10.3950     3.5040    -1.3090 C.3   1 <1>   0.2630 
 24 C      -10.7710     1.6070     0.1660 C.3   1 <1>   0.2630 
 25 H       -4.4910     0.7590    -1.4140 H     1 <1>   0.0800 
 26 H       -3.0410     1.0100     1.9560 H     1 <1>   0.0800 
 27 H       -1.5770     0.7140     1.0460 H     1 <1>   0.0800 
 28 H       -2.9730    -0.2900     0.7760 H     1 <1>   0.0800 
 29 H       -1.9480     3.4540     1.6150 H     1 <1>   0.1500 
 30 H       -4.9070     3.5210    -0.3080 H     1 <1>   0.0800 
 31 H       -4.8560     3.0420    -1.9950 H     1 <1>   0.0800 
 32 H       -5.4080    -0.1610     0.6010 H     1 <1>   0.0800 
 33 H       -5.3090     1.3970     1.4140 H     1 <1>   0.0800 
 34 H       -0.2490     2.2940    -2.8910 H     1 <1>   0.2700 
 35 H        0.0330     4.4890     2.5890 H     1 <1>   0.1500 
 36 H       -7.0210     2.2170    -1.9670 H     1 <1>   0.0800 
 37 H       -7.2980     0.4640    -0.6150 H     1 <1>   0.0800 
 38 H        2.2080     2.8140    -3.4660 H     1 <1>   0.1500 
 39 H        2.1360     4.6390     1.2880 H     1 <1>   0.1500 
 40 H        3.2960     3.9870    -1.2980 H     1 <1>   0.1500 
 41 H       -7.8740     4.3010    -1.1560 H     1 <1>   0.0800 
 42 H       -6.9600     4.1780     0.3070 H     1 <1>   0.0800 
 43 H       -7.3570     2.1490     1.8670 H     1 <1>   0.0800 
 44 H       -8.5060     0.9480     1.3860 H     1 <1>   0.0800 
 45 H       -9.0840     3.5670     1.1290 H     1 <1>   0.0800 
 46 H       -9.2390     1.7910    -1.2140 H     1 <1>   0.4500 
 47 H      -10.8270     4.2230    -0.6330 H     1 <1>   0.0800 
 48 H      -11.1810     3.0980    -1.9270 H     1 <1>   0.0800 
 49 H       -9.6940     4.0090    -1.9520 H     1 <1>   0.0800 
 50 H      -11.2320     2.1980     0.9420 H     1 <1>   0.0800 
 51 H      -10.3450     0.7240     0.6110 H     1 <1>   0.0800 
 52 H      -11.5350     1.2960    -0.5280 H     1 <1>   0.0800 
@<TRIPOS>BOND
  1   1   2  2   
  2   2   3  am  
  3   2   4  1   
  4   3   5  1   
  5   3   6  1   
  6   4   7  ar  
  7   4   8  ar  
  8   5   9  1   
  9   5  10  1   
 10   5  25  1   
 11   6  26  1   
 12   6  27  1   
 13   6  28  1   
 14   7  11  1   
 15   7  12  ar  
 16   8  13  ar  
 17   8  29  1   
 18   9  14  1   
 19   9  30  1   
 20   9  31  1   
 21  10  15  1   
 22  10  32  1   
 23  10  33  1   
 24  11  16  1   
 25  11  34  1   
 26  12  17  ar  
 27  12  18  1   
 28  13  17  ar  
 29  13  35  1   
 30  14  15  1   
 31  14  19  1   
 32  14  36  1   
 33  15  20  1   
 34  15  37  1   
 35  16  18  2   
 36  16  38  1   
 37  17  39  1   
 38  18  40  1   
 39  19  21  1   
 40  19  41  1   
 41  19  42  1   
 42  20  21  1   
 43  20  43  1   
 44  20  44  1   
 45  21  22  1   
 46  21  45  1   
 47  22  23  1   
 48  22  24  1   
 49  22  46  1   
 50  23  47  1   
 51  23  48  1   
 52  23  49  1   
 53  24  50  1   
 54  24  51  1   
 55  24  52  1   
@<TRIPOS>SUBSTRUCTURE
  1 ****   3 GROUP 4 **** **** 0

# MOE 2024.06 (io_trps.svl 2023.06)
