@<TRIPOS>MOLECULE
NONAME
53 55 1 0 0 
SMALL
USER_CHARGES


@<TRIPOS>ATOM
  1 O       -0.3420     0.1550     1.4890 O.2   1 <1>  -0.5700 
  2 C       -1.3290     0.8090     1.1980 C.2   1 <1>   0.5440 
  3 N       -2.4480     0.1410     0.7520 N.am  1 <1>  -0.6600 
  4 C       -1.3140     2.2500     1.3060 C.ar  1 <1>   0.0860 
  5 C       -3.5430     0.7850    -0.0140 C.3   1 <1>   0.1400 
  6 C       -2.4610    -1.3280     0.5460 C.3   1 <1>   0.1400 
  7 C       -0.3800     3.0220     0.5930 C.ar  1 <1>   0.1000 
  8 C       -2.2460     2.9060     2.1130 C.ar  1 <1>  -0.1500 
  9 C       -4.1940    -0.3490    -0.8080 C.3   1 <1>   0.2000 
 10 C       -3.8280    -1.6340    -0.0680 C.3   1 <1>  -0.0800 
 11 N        0.5840     2.4020    -0.1950 N.pl3 1 <1>  -0.8690 
 12 C       -0.4420     4.4120     0.6810 C.ar  1 <1>  -0.1500 
 13 C       -2.2830     4.2830     2.2010 C.ar  1 <1>  -0.1500 
 14 O       -5.5730    -0.2090    -0.8590 O.3   1 <1>  -0.6800 
 15 C       -3.8420    -2.8690    -0.9840 C.3   1 <1>  -0.0170 
 16 C        1.9420     2.9670    -0.3500 C.3   1 <1>   0.2090 
 17 C       -1.3790     5.0390     1.4760 C.ar  1 <1>  -0.1500 
 18 C       -3.4890    -4.1360    -0.2230 C.ar  1 <1>   0.1670 
 19 C        2.9300     1.8710    -0.7840 C.3   1 <1>  -0.0800 
 20 N       -2.1990    -4.3990    -0.0870 N.ar  1 <1>  -0.6200 
 21 C       -4.5020    -4.9350     0.2880 C.ar  1 <1>  -0.1500 
 22 C        3.0750     0.7640     0.2730 C.3   1 <1>  -0.2400 
 23 C        4.3070     2.4860    -1.0700 C.3   1 <1>  -0.2400 
 24 C       -1.9040    -5.4990     0.5860 C.ar  1 <1>   0.1600 
 25 C       -4.1810    -6.0790     0.9870 C.ar  1 <1>  -0.1500 
 26 C       -2.8400    -6.3600     1.1350 C.ar  1 <1>  -0.1500 
 27 H       -4.2430     1.2260     0.6720 H     1 <1>   0.0800 
 28 H       -3.1490     1.5350    -0.6780 H     1 <1>   0.0800 
 29 H       -1.6650    -1.5960    -0.1300 H     1 <1>   0.0800 
 30 H       -2.3170    -1.8480     1.4790 H     1 <1>   0.0800 
 31 H       -2.9470     2.3160     2.6760 H     1 <1>   0.1500 
 32 H       -3.8130    -0.3520    -1.8150 H     1 <1>   0.0800 
 33 H       -4.5120    -1.7880     0.7470 H     1 <1>   0.0800 
 34 H        0.6420     1.3860    -0.0110 H     1 <1>   0.4000 
 35 H        0.2500     5.0070     0.1160 H     1 <1>   0.1500 
 36 H       -3.0100     4.7700     2.8290 H     1 <1>   0.1500 
 37 H       -5.9490    -0.2270     0.0420 H     1 <1>   0.4000 
 38 H       -3.1400    -2.7390    -1.7900 H     1 <1>   0.0800 
 39 H       -4.8190    -2.9750    -1.4210 H     1 <1>   0.0800 
 40 H        1.9120     3.7430    -1.0950 H     1 <1>   0.0800 
 41 H        2.2610     3.3980     0.5850 H     1 <1>   0.0800 
 42 H       -1.4080     6.1140     1.5340 H     1 <1>   0.1500 
 43 H        2.5640     1.4350    -1.6990 H     1 <1>   0.0800 
 44 H       -5.5320    -4.6670     0.1420 H     1 <1>   0.1500 
 45 H        3.3890     1.1770     1.2150 H     1 <1>   0.0800 
 46 H        3.8020     0.0370    -0.0430 H     1 <1>   0.0800 
 47 H        2.1420     0.2510     0.4230 H     1 <1>   0.0800 
 48 H        4.7140     2.9350    -0.1810 H     1 <1>   0.0800 
 49 H        4.2290     3.2400    -1.8340 H     1 <1>   0.0800 
 50 H        4.9890     1.7290    -1.4150 H     1 <1>   0.0800 
 51 H       -0.8590    -5.7270     0.7080 H     1 <1>   0.1500 
 52 H       -4.9400    -6.7220     1.3960 H     1 <1>   0.1500 
 53 H       -2.5190    -7.2350     1.6700 H     1 <1>   0.1500 
@<TRIPOS>BOND
  1   1   2  2   
  2   2   3  am  
  3   2   4  1   
  4   3   5  1   
  5   3   6  1   
  6   4   7  ar  
  7   4   8  ar  
  8   5   9  1   
  9   5  27  1   
 10   5  28  1   
 11   6  10  1   
 12   6  29  1   
 13   6  30  1   
 14   7  11  1   
 15   7  12  ar  
 16   8  13  ar  
 17   8  31  1   
 18   9  10  1   
 19   9  14  1   
 20   9  32  1   
 21  10  15  1   
 22  10  33  1   
 23  11  16  1   
 24  11  34  1   
 25  12  17  ar  
 26  12  35  1   
 27  13  17  ar  
 28  13  36  1   
 29  14  37  1   
 30  15  18  1   
 31  15  38  1   
 32  15  39  1   
 33  16  19  1   
 34  16  40  1   
 35  16  41  1   
 36  17  42  1   
 37  18  20  ar  
 38  18  21  ar  
 39  19  22  1   
 40  19  23  1   
 41  19  43  1   
 42  20  24  ar  
 43  21  25  ar  
 44  21  44  1   
 45  22  45  1   
 46  22  46  1   
 47  22  47  1   
 48  23  48  1   
 49  23  49  1   
 50  23  50  1   
 51  24  26  ar  
 52  24  51  1   
 53  25  26  ar  
 54  25  52  1   
 55  26  53  1   
@<TRIPOS>SUBSTRUCTURE
  1 ****   3 GROUP 4 **** **** 0

# MOE 2024.06 (io_trps.svl 2023.06)
