@<TRIPOS>MOLECULE
NONAME
26 26 1 0 0 
SMALL
USER_CHARGES


@<TRIPOS>ATOM
  1 F        0.7740     0.1510     0.2500 F     1 <1>  -0.3400 
  2 C        0.8710    -1.0880    -0.2090 C.3   1 <1>   0.6800 
  3 F        0.8920    -0.9610    -1.5300 F     1 <1>  -0.3400 
  4 C       -0.3670    -1.8880     0.2030 C.3   1 <1>  -0.1600 
  5 C        2.1880    -1.7090     0.2600 C.3   1 <1>  -0.1600 
  6 C       -0.2410    -3.3690    -0.2000 C.3   1 <1>  -0.1600 
  7 C        2.2930    -3.1940    -0.1380 C.3   1 <1>  -0.1600 
  8 C        1.0620    -4.0010     0.3290 C.3   1 <1>  -0.0800 
  9 C        1.1340    -5.4720    -0.1230 C.3   1 <1>  -0.1600 
 10 C        2.3080    -6.2390     0.4940 C.3   1 <1>   0.0860 
 11 N        2.2140    -7.6390     0.1090 N.2   1 <1>  -0.5640 
 12 N        3.1520    -8.1390    -0.5520 N.1   1 <1>   0.6880 
 13 N        4.0860    -8.6110    -1.2040 N.1   1 <1>  -0.3700 
 14 H       -1.2410    -1.4520    -0.2470 H     1 <1>   0.0800 
 15 H       -0.4680    -1.8300     1.2710 H     1 <1>   0.0800 
 16 H        2.2320    -1.6380     1.3320 H     1 <1>   0.0800 
 17 H        3.0110    -1.1540    -0.1520 H     1 <1>   0.0800 
 18 H       -0.2640    -3.4430    -1.2750 H     1 <1>   0.0800 
 19 H       -1.0910    -3.9090     0.1820 H     1 <1>   0.0800 
 20 H        3.1930    -3.5960     0.2920 H     1 <1>   0.0800 
 21 H        2.3810    -3.2640    -1.2100 H     1 <1>   0.0800 
 22 H        1.0290    -3.9820     1.4070 H     1 <1>   0.0800 
 23 H        1.2070    -5.5150    -1.1960 H     1 <1>   0.0800 
 24 H        0.2230    -5.9670     0.1680 H     1 <1>   0.0800 
 25 H        2.2630    -6.1740     1.5680 H     1 <1>   0.0800 
 26 H        3.2450    -5.8230     0.1630 H     1 <1>   0.0800 
@<TRIPOS>BOND
  1   1   2  1   
  2   2   3  1   
  3   2   4  1   
  4   2   5  1   
  5   4   6  1   
  6   4  14  1   
  7   4  15  1   
  8   5   7  1   
  9   5  16  1   
 10   5  17  1   
 11   6   8  1   
 12   6  18  1   
 13   6  19  1   
 14   7   8  1   
 15   7  20  1   
 16   7  21  1   
 17   8   9  1   
 18   8  22  1   
 19   9  10  1   
 20   9  23  1   
 21   9  24  1   
 22  10  11  1   
 23  10  25  1   
 24  10  26  1   
 25  11  12  2   
 26  12  13  3   
@<TRIPOS>SUBSTRUCTURE
  1 ****   8 GROUP 4 **** **** 0

# MOE 2024.06 (io_trps.svl 2023.06)
