@<TRIPOS>MOLECULE
NONAME
34 36 1 0 0 
SMALL
USER_CHARGES


@<TRIPOS>ATOM
  1 S       -0.3890    -0.0300     0.6240 S.3   1 <1>  -0.0800 
  2 C       -0.8960    -1.1040    -0.6370 C.2   1 <1>   0.4420 
  3 C       -0.0030     1.1270    -0.6070 C.2   1 <1>   0.1980 
  4 N       -0.7450    -0.5880    -1.8010 N.2   1 <1>  -0.3380 
  5 N       -1.3670    -2.3370    -0.2330 N.am  1 <1>  -0.4940 
  6 N       -0.2370     0.6820    -1.7770 N.2   1 <1>  -0.3380 
  7 C        0.5730     2.4760    -0.1700 C.3   1 <1>   0.3800 
  8 C       -1.8800    -3.3740    -0.9730 C.2   1 <1>   0.5440 
  9 O       -0.1610     2.9600     0.9210 O.3   1 <1>  -0.5600 
 10 C        0.5150     3.5250    -1.2870 C.3   1 <1>  -0.2400 
 11 O       -2.0930    -3.2340    -2.1580 O.2   1 <1>  -0.5700 
 12 C       -2.1920    -4.6280    -0.3170 C.ar  1 <1>   0.0860 
 13 C        0.5290     3.8020     1.7930 C.3   1 <1>   0.0400 
 14 C       -3.2970    -5.3840    -0.7260 C.ar  1 <1>  -0.1500 
 15 C       -1.4090    -5.1240     0.7410 C.ar  1 <1>  -0.1500 
 16 C       -3.5870    -6.5630    -0.0740 C.ar  1 <1>   0.0830 
 17 C       -1.7140    -6.3130     1.3880 C.ar  1 <1>  -0.1500 
 18 O       -4.5910    -7.4150    -0.3070 O.3   1 <1>  -0.3630 
 19 C       -2.8200    -7.0170     0.9570 C.ar  1 <1>   0.0830 
 20 C       -4.4500    -8.4820     0.6290 C.3   1 <1>   0.4000 
 21 O       -3.3040    -8.1700     1.4190 O.3   1 <1>  -0.3630 
 22 H       -1.3740    -2.4760     0.7720 H     1 <1>   0.3700 
 23 H        1.5910     2.3180     0.1400 H     1 <1>   0.0800 
 24 H       -0.5080     3.7000    -1.5700 H     1 <1>   0.0800 
 25 H        1.0460     3.1640    -2.1500 H     1 <1>   0.0800 
 26 H        0.9680     4.4470    -0.9770 H     1 <1>   0.0800 
 27 H       -0.1430     4.0800     2.5870 H     1 <1>   0.0800 
 28 H        0.8470     4.6860     1.2690 H     1 <1>   0.0800 
 29 H        1.3740     3.2780     2.2040 H     1 <1>   0.0800 
 30 H       -3.9150    -5.0510    -1.5420 H     1 <1>   0.1500 
 31 H       -0.5380    -4.5780     1.0590 H     1 <1>   0.1500 
 32 H       -1.1160    -6.6930     2.1980 H     1 <1>   0.1500 
 33 H       -4.2850    -9.4060     0.1030 H     1 <1>   0.0800 
 34 H       -5.3210    -8.5300     1.2580 H     1 <1>   0.0800 
@<TRIPOS>BOND
  1   1   2  1   
  2   1   3  1   
  3   2   4  2   
  4   2   5  1   
  5   3   6  2   
  6   3   7  1   
  7   4   6  1   
  8   5   8  am  
  9   5  22  1   
 10   7   9  1   
 11   7  10  1   
 12   7  23  1   
 13   8  11  2   
 14   8  12  1   
 15   9  13  1   
 16  10  24  1   
 17  10  25  1   
 18  10  26  1   
 19  12  14  ar  
 20  12  15  ar  
 21  13  27  1   
 22  13  28  1   
 23  13  29  1   
 24  14  16  ar  
 25  14  30  1   
 26  15  17  ar  
 27  15  31  1   
 28  16  18  1   
 29  16  19  ar  
 30  17  19  ar  
 31  17  32  1   
 32  18  20  1   
 33  19  21  1   
 34  20  21  1   
 35  20  33  1   
 36  20  34  1   
@<TRIPOS>SUBSTRUCTURE
  1 ****   5 GROUP 4 **** **** 0

# MOE 2024.06 (io_trps.svl 2023.06)
