@<TRIPOS>MOLECULE
NONAME
55 58 1 0 0 
SMALL
USER_CHARGES


@<TRIPOS>ATOM
  1 O       -3.3270     3.0140    -0.2610 O.2   1 <1>  -0.5700 
  2 C       -2.7750     2.0020     0.1270 C.2   1 <1>   0.7030 
  3 N       -3.4810     0.8080     0.0930 N.am  1 <1>  -0.6600 
  4 C       -1.4090     2.1090     0.6080 C.2   1 <1>   0.2770 
  5 C       -2.8070    -0.5490     0.1280 C.3   1 <1>   0.3640 
  6 C       -4.9770     0.8300    -0.0230 C.3   1 <1>   0.1400 
  7 N       -0.9330     1.6730     1.8530 N.pl3 1 <1>  -0.6290 
  8 C       -0.3330     2.6200    -0.0540 C.2   1 <1>   0.1820 
  9 C       -1.5450    -0.4870    -0.7370 C.ar  1 <1>  -0.1440 
 10 C       -3.6810    -1.7650    -0.3110 C.3   1 <1>   0.2000 
 11 C       -5.5250    -0.3920    -0.7590 C.3   1 <1>   0.1200 
 12 C        0.3940     1.8950     1.8610 C.cat 1 <1>   0.9620 
 13 C       -1.5440     1.1540     2.9590 C.2   1 <1>   0.2290 
 14 N        0.7650     2.4710     0.7310 N.pl3 1 <1>  -0.7000 
 15 C       -0.2270     3.2460    -1.4320 C.3   1 <1>  -0.0720 
 16 C       -0.3090    -0.7930    -0.1840 C.ar  1 <1>  -0.1500 
 17 C       -1.6090    -0.0750    -2.0600 C.ar  1 <1>  -0.1500 
 18 O       -5.0500    -1.5390    -0.1350 O.3   1 <1>  -0.5600 
 19 C       -3.3590    -3.0360     0.4940 C.3   1 <1>   0.1200 
 20 N        1.2090     1.5830     2.8700 N.2   1 <1>  -0.6120 
 21 C       -0.7500     0.8390     4.0140 C.2   1 <1>  -0.1360 
 22 C        0.8640    -0.6400    -0.9140 C.ar  1 <1>   0.0820 
 23 C       -0.4520     0.0620    -2.8030 C.ar  1 <1>  -0.1500 
 24 O       -1.9920    -3.2930     0.5250 O.3   1 <1>  -0.6800 
 25 C        0.6330     1.0710     3.9140 C.2   1 <1>   0.3760 
 26 O        2.0710    -0.8630    -0.3280 O.3   1 <1>  -0.3620 
 27 C        0.7860    -0.2020    -2.2440 C.ar  1 <1>   0.0820 
 28 C        2.2160    -1.8810     0.6410 C.3   1 <1>   0.0400 
 29 O        1.8530     0.0140    -3.0580 O.3   1 <1>  -0.3630 
 30 C        2.9540    -0.8700    -3.0410 C.3   1 <1>   0.0400 
 31 H       -2.5150    -0.7310     1.1460 H     1 <1>   0.0800 
 32 H       -5.4060     0.8600     0.9630 H     1 <1>   0.0800 
 33 H       -5.3040     1.7130    -0.5460 H     1 <1>   0.0800 
 34 H       -3.5260    -1.9690    -1.3560 H     1 <1>   0.0800 
 35 H       -5.2300    -0.3950    -1.7950 H     1 <1>   0.0800 
 36 H       -6.6000    -0.4070    -0.7040 H     1 <1>   0.0800 
 37 H       -2.6150     1.0160     2.9580 H     1 <1>   0.1500 
 38 H        1.7420     2.6820     0.5250 H     1 <1>   0.4500 
 39 H       -1.1700     3.2020    -1.9470 H     1 <1>   0.0800 
 40 H        0.5070     2.7240    -2.0190 H     1 <1>   0.0800 
 41 H        0.0670     4.2770    -1.3460 H     1 <1>   0.0800 
 42 H       -0.2660    -1.1320     0.8340 H     1 <1>   0.1500 
 43 H       -2.5580     0.1550    -2.5170 H     1 <1>   0.1500 
 44 H       -3.8560    -3.8910     0.0670 H     1 <1>   0.0800 
 45 H       -3.6850    -2.9130     1.5130 H     1 <1>   0.0800 
 46 H       -1.1470     0.4210     4.9220 H     1 <1>   0.1500 
 47 H       -0.5010     0.3840    -3.8290 H     1 <1>   0.1500 
 48 H       -1.6940    -3.6890    -0.3210 H     1 <1>   0.4000 
 49 H        1.2470     0.8080     4.7590 H     1 <1>   0.0600 
 50 H        3.2660    -2.0800     0.7620 H     1 <1>   0.0800 
 51 H        1.7140    -2.7690     0.2970 H     1 <1>   0.0800 
 52 H        1.8030    -1.5430     1.5740 H     1 <1>   0.0800 
 53 H        3.4720    -0.7790    -3.9780 H     1 <1>   0.0800 
 54 H        2.5970    -1.8770    -2.9150 H     1 <1>   0.0800 
 55 H        3.6110    -0.5950    -2.2370 H     1 <1>   0.0800 
@<TRIPOS>BOND
  1   1   2  2   
  2   2   3  am  
  3   2   4  1   
  4   3   5  1   
  5   3   6  1   
  6   4   7  1   
  7   4   8  2   
  8   5   9  1   
  9   5  10  1   
 10   5  31  1   
 11   6  11  1   
 12   6  32  1   
 13   6  33  1   
 14   7  12  ar  
 15   7  13  1   
 16   8  14  1   
 17   8  15  1   
 18   9  16  ar  
 19   9  17  ar  
 20  10  18  1   
 21  10  19  1   
 22  10  34  1   
 23  11  18  1   
 24  11  35  1   
 25  11  36  1   
 26  12  14  ar  
 27  12  20  1   
 28  13  21  2   
 29  13  37  1   
 30  14  38  1   
 31  15  39  1   
 32  15  40  1   
 33  15  41  1   
 34  16  22  ar  
 35  16  42  1   
 36  17  23  ar  
 37  17  43  1   
 38  19  24  1   
 39  19  44  1   
 40  19  45  1   
 41  20  25  2   
 42  21  25  1   
 43  21  46  1   
 44  22  26  1   
 45  22  27  ar  
 46  23  27  ar  
 47  23  47  1   
 48  24  48  1   
 49  25  49  1   
 50  26  28  1   
 51  27  29  1   
 52  28  50  1   
 53  28  51  1   
 54  28  52  1   
 55  29  30  1   
 56  30  53  1   
 57  30  54  1   
 58  30  55  1   
@<TRIPOS>SUBSTRUCTURE
  1 ****   9 GROUP 4 **** **** 0

# MOE 2024.06 (io_trps.svl 2023.06)
