@<TRIPOS>MOLECULE
NONAME
44 45 1 0 0 
SMALL
USER_CHARGES


@<TRIPOS>ATOM
  1 CL      -0.1230     0.3680    -1.0980 Cl    1 <1>  -0.1770 
  2 C       -1.7510     0.7390    -0.5970 C.ar  1 <1>   0.1770 
  3 C       -2.5460    -0.2590    -0.0670 C.ar  1 <1>  -0.1500 
  4 C       -2.2280     2.0280    -0.7340 C.ar  1 <1>  -0.1500 
  5 C       -3.8370     0.0420     0.3300 C.ar  1 <1>  -0.1500 
  6 C       -3.5210     2.3170    -0.3350 C.ar  1 <1>  -0.1500 
  7 C       -4.3550     1.3330     0.2030 C.ar  1 <1>   0.0530 
  8 C       -5.6950     1.6640     0.6220 C.2   1 <1>   0.0870 
  9 O       -5.9190     2.8240     1.1910 O.3   1 <1>  -0.0190 
 10 C       -6.8890     1.0080     0.5830 C.2   1 <1>  -0.0860 
 11 N       -7.1660     2.9930     1.5400 N.2   1 <1>  -0.4100 
 12 C       -7.7670     1.9230     1.1780 C.2   1 <1>   0.3720 
 13 C       -7.2400    -0.2840     0.0760 C.2   1 <1>   0.7160 
 14 N       -9.1330     1.7860     1.3850 N.pl3 1 <1>  -0.8520 
 15 O       -6.5450    -0.8660    -0.7320 O.2   1 <1>  -0.5700 
 16 N       -8.3830    -0.8870     0.5010 N.am  1 <1>  -0.7300 
 17 C       -9.9500     1.9890     0.1550 C.3   1 <1>   0.2090 
 18 C       -8.9800    -2.1260    -0.0610 C.3   1 <1>   0.1400 
 19 C      -11.4150     1.6470     0.4280 C.3   1 <1>   0.1200 
 20 C      -10.5090    -2.1330     0.1040 C.3   1 <1>   0.2000 
 21 O      -12.0940     1.6240    -0.7860 O.3   1 <1>  -0.5600 
 22 O      -11.0170    -3.2850    -0.4590 O.3   1 <1>  -0.6800 
 23 C      -10.9680    -2.1160     1.5630 C.3   1 <1>  -0.2400 
 24 C      -13.4230     1.2260    -0.6870 C.3   1 <1>   0.0400 
 25 H       -2.1570    -1.2560     0.0300 H     1 <1>   0.1500 
 26 H       -1.5930     2.7900    -1.1490 H     1 <1>   0.1500 
 27 H       -4.4500    -0.7370     0.7450 H     1 <1>   0.1500 
 28 H       -3.8940     3.3210    -0.4420 H     1 <1>   0.1500 
 29 H       -9.3930     2.5130     2.0630 H     1 <1>   0.4000 
 30 H       -8.9750    -0.3170     1.1170 H     1 <1>   0.3700 
 31 H       -9.8740     3.0150    -0.1650 H     1 <1>   0.0800 
 32 H       -9.5830     1.3540    -0.6330 H     1 <1>   0.0800 
 33 H       -8.7360    -2.1890    -1.1090 H     1 <1>   0.0800 
 34 H       -8.5520    -2.9730     0.4440 H     1 <1>   0.0800 
 35 H      -11.8660     2.3890     1.0620 H     1 <1>   0.0800 
 36 H      -11.4910     0.6740     0.8780 H     1 <1>   0.0800 
 37 H      -10.9330    -1.3040    -0.4390 H     1 <1>   0.0800 
 38 H      -10.7540    -4.0660     0.0640 H     1 <1>   0.4000 
 39 H      -10.5560    -2.9510     2.1020 H     1 <1>   0.0800 
 40 H      -12.0420    -2.1530     1.6110 H     1 <1>   0.0800 
 41 H      -10.6440    -1.2140     2.0480 H     1 <1>   0.0800 
 42 H      -13.8560     1.2570    -1.6720 H     1 <1>   0.0800 
 43 H      -13.9520     1.9020    -0.0380 H     1 <1>   0.0800 
 44 H      -13.4660     0.2200    -0.3060 H     1 <1>   0.0800 
@<TRIPOS>BOND
  1   1   2  1   
  2   2   3  ar  
  3   2   4  ar  
  4   3   5  ar  
  5   3  25  1   
  6   4   6  ar  
  7   4  26  1   
  8   5   7  ar  
  9   5  27  1   
 10   6   7  ar  
 11   6  28  1   
 12   7   8  1   
 13   8   9  1   
 14   8  10  2   
 15   9  11  1   
 16  10  12  1   
 17  10  13  1   
 18  11  12  2   
 19  12  14  1   
 20  13  15  2   
 21  13  16  am  
 22  14  17  1   
 23  14  29  1   
 24  16  18  1   
 25  16  30  1   
 26  17  19  1   
 27  17  31  1   
 28  17  32  1   
 29  18  20  1   
 30  18  33  1   
 31  18  34  1   
 32  19  21  1   
 33  19  35  1   
 34  19  36  1   
 35  20  22  1   
 36  20  23  1   
 37  20  37  1   
 38  21  24  1   
 39  22  38  1   
 40  23  39  1   
 41  23  40  1   
 42  23  41  1   
 43  24  42  1   
 44  24  43  1   
 45  24  44  1   
@<TRIPOS>SUBSTRUCTURE
  1 ****  10 GROUP 4 **** **** 0

# MOE 2024.06 (io_trps.svl 2023.06)
