@<TRIPOS>MOLECULE
NONAME
48 50 1 0 0 
SMALL
USER_CHARGES


@<TRIPOS>ATOM
  1 O        0.9430     1.2790    -0.1690 O.2   1 <1>  -0.5700 
  2 C        0.7060     2.4480     0.0010 C.2   1 <1>   0.5690 
  3 N       -0.4530     2.8400     0.5720 N.am  1 <1>  -0.7300 
  4 C        1.7040     3.5100    -0.4660 C.3   1 <1>   0.1810 
  5 C       -0.8270     4.2590     0.7920 C.3   1 <1>   0.3640 
  6 O        1.4820     4.7740     0.1210 O.3   1 <1>  -0.5600 
  7 C       -2.2620     4.4550     0.3060 C.ar  1 <1>  -0.1440 
  8 C        0.1400     5.2360     0.0660 C.3   1 <1>   0.2610 
  9 C       -3.1690     5.1510     1.0930 C.ar  1 <1>  -0.1500 
 10 C       -2.6840     3.9540    -0.9210 C.ar  1 <1>  -0.1500 
 11 C        0.0380     6.6720     0.6180 C.2   1 <1>   0.5690 
 12 C       -4.4710     5.3430     0.6660 C.ar  1 <1>  -0.1500 
 13 C       -3.9860     4.1460    -1.3490 C.ar  1 <1>  -0.1500 
 14 O       -0.5650     6.8560     1.6530 O.2   1 <1>  -0.5700 
 15 N        0.6110     7.7290    -0.0520 N.am  1 <1>  -0.6600 
 16 C       -4.8810     4.8410    -0.5560 C.ar  1 <1>  -0.1500 
 17 C        0.5710     9.1140     0.5350 C.3   1 <1>   0.3210 
 18 C        1.4460     7.5920    -1.2810 C.3   1 <1>   0.0600 
 19 C        1.9550     9.6730     0.8680 C.2   1 <1>   0.3350 
 20 N        2.4780     9.6830     2.0310 N.2   1 <1>  -0.4100 
 21 N        2.7320    10.2260    -0.0610 N.2   1 <1>  -0.5650 
 22 O        3.6450    10.2410     1.9230 O.3   1 <1>  -0.0190 
 23 C        3.7370    10.5420     0.6520 C.2   1 <1>   0.2980 
 24 C        4.9940    11.2280     0.1520 C.3   1 <1>   0.0200 
 25 C        6.2170    10.3030     0.2330 C.3   1 <1>  -0.1600 
 26 C        7.4840    10.9930    -0.2850 C.3   1 <1>  -0.2400 
 27 H       -1.1250     2.1320     0.8710 H     1 <1>   0.3700 
 28 H        1.6400     3.6150    -1.5330 H     1 <1>   0.0800 
 29 H        2.7000     3.2000    -0.2060 H     1 <1>   0.0800 
 30 H       -0.7810     4.4430     1.8520 H     1 <1>   0.0800 
 31 H       -0.1450     5.2670    -0.9690 H     1 <1>   0.0800 
 32 H       -2.8640     5.5540     2.0450 H     1 <1>   0.1500 
 33 H       -2.0030     3.4080    -1.5510 H     1 <1>   0.1500 
 34 H       -5.1640     5.8860     1.2850 H     1 <1>   0.1500 
 35 H       -4.3040     3.7530    -2.2990 H     1 <1>   0.1500 
 36 H       -5.8930     4.9910    -0.8880 H     1 <1>   0.1500 
 37 H        0.0970     9.7750    -0.1680 H     1 <1>   0.0800 
 38 H       -0.0170     9.1290     1.4340 H     1 <1>   0.0800 
 39 H        1.3620     8.4790    -1.8850 H     1 <1>   0.0800 
 40 H        1.1380     6.7500    -1.8730 H     1 <1>   0.0800 
 41 H        2.4770     7.4610    -0.9990 H     1 <1>   0.0800 
 42 H        4.8390    11.5310    -0.8680 H     1 <1>   0.0800 
 43 H        5.1620    12.1120     0.7410 H     1 <1>   0.0800 
 44 H        6.3710     9.9990     1.2550 H     1 <1>   0.0800 
 45 H        6.0310     9.4170    -0.3500 H     1 <1>   0.0800 
 46 H        7.7030    11.8700     0.2990 H     1 <1>   0.0800 
 47 H        7.3630    11.2820    -1.3140 H     1 <1>   0.0800 
 48 H        8.3220    10.3210    -0.2160 H     1 <1>   0.0800 
@<TRIPOS>BOND
  1   1   2  2   
  2   2   3  am  
  3   2   4  1   
  4   3   5  1   
  5   3  27  1   
  6   4   6  1   
  7   4  28  1   
  8   4  29  1   
  9   5   7  1   
 10   5   8  1   
 11   5  30  1   
 12   6   8  1   
 13   7   9  ar  
 14   7  10  ar  
 15   8  11  1   
 16   8  31  1   
 17   9  12  ar  
 18   9  32  1   
 19  10  13  ar  
 20  10  33  1   
 21  11  14  2   
 22  11  15  am  
 23  12  16  ar  
 24  12  34  1   
 25  13  16  ar  
 26  13  35  1   
 27  15  17  1   
 28  15  18  1   
 29  16  36  1   
 30  17  19  1   
 31  17  37  1   
 32  17  38  1   
 33  18  39  1   
 34  18  40  1   
 35  18  41  1   
 36  19  20  2   
 37  19  21  1   
 38  20  22  1   
 39  21  23  2   
 40  22  23  1   
 41  23  24  1   
 42  24  25  1   
 43  24  42  1   
 44  24  43  1   
 45  25  26  1   
 46  25  44  1   
 47  25  45  1   
 48  26  46  1   
 49  26  47  1   
 50  26  48  1   
@<TRIPOS>SUBSTRUCTURE
  1 ****  11 GROUP 4 **** **** 0

# MOE 2024.06 (io_trps.svl 2023.06)
