@<TRIPOS>MOLECULE
NONAME
56 57 1 0 0 
SMALL
USER_CHARGES


@<TRIPOS>ATOM
  1 O       -2.5810     0.6400     2.4510 O.2   1 <1>  -0.5700 
  2 C       -2.6280     0.8470     1.2630 C.2   1 <1>   0.5690 
  3 N       -3.1330    -0.1000     0.4130 N.am  1 <1>  -0.6600 
  4 C       -2.1600     2.1950     0.7320 C.3   1 <1>  -0.0990 
  5 C       -3.2970    -1.4950     0.9620 C.3   1 <1>   0.3210 
  6 C       -3.5100     0.1860    -1.0140 C.3   1 <1>   0.1400 
  7 C       -1.4750     3.0810     1.7820 C.3   1 <1>  -0.0170 
  8 C       -3.8730    -2.5280    -0.0100 C.2   1 <1>   0.0460 
  9 C       -4.8890     0.8740    -1.1540 C.3   1 <1>   0.3430 
 10 C       -1.0800     4.4020     1.1460 C.ar  1 <1>  -0.1440 
 11 N       -5.1860    -2.5380    -0.3370 N.2   1 <1>  -0.5650 
 12 C       -3.2180    -3.5340    -0.6380 C.2   1 <1>  -0.3320 
 13 N       -5.9710     0.2290    -0.3400 N.4   1 <1>  -0.9590 
 14 C        0.1150     4.5110     0.4520 C.ar  1 <1>  -0.1500 
 15 C       -1.9130     5.5050     1.2450 C.ar  1 <1>  -0.1500 
 16 C       -5.3000    -3.5540    -1.1320 C.2   1 <1>   0.0360 
 17 N       -4.1390    -4.1990    -1.3570 N.pl3 1 <1>   0.0330 
 18 C       -1.7550    -3.9510    -0.6130 C.3   1 <1>  -0.0600 
 19 C       -7.2910     0.2610    -1.0290 C.3   1 <1>   0.2630 
 20 C       -6.0720     0.7810     1.0460 C.3   1 <1>   0.2630 
 21 C        0.4750     5.7060    -0.1470 C.ar  1 <1>  -0.1430 
 22 C       -1.5620     6.7070     0.6530 C.ar  1 <1>  -0.1430 
 23 C       -0.3680     6.8000    -0.0430 C.ar  1 <1>  -0.1500 
 24 C        1.7850     5.8190    -0.9040 C.3   1 <1>  -0.0970 
 25 C       -2.4730     7.9160     0.7630 C.3   1 <1>  -0.0970 
 26 H       -3.0050     2.7270     0.3390 H     1 <1>   0.0800 
 27 H       -1.4610     2.0260    -0.0660 H     1 <1>   0.0800 
 28 H       -3.9370    -1.4580     1.8270 H     1 <1>   0.0800 
 29 H       -2.3360    -1.8370     1.3030 H     1 <1>   0.0800 
 30 H       -3.5070    -0.7160    -1.5990 H     1 <1>   0.0800 
 31 H       -2.7670     0.8200    -1.4630 H     1 <1>   0.0800 
 32 H       -0.6010     2.5850     2.1690 H     1 <1>   0.0800 
 33 H       -2.1410     3.2590     2.6090 H     1 <1>   0.0800 
 34 H       -5.1630     0.8470    -2.1960 H     1 <1>   0.0800 
 35 H       -4.7990     1.9110    -0.8740 H     1 <1>   0.0800 
 36 H       -5.6940    -0.7770    -0.2480 H     1 <1>   0.4500 
 37 H        0.7690     3.6610     0.3780 H     1 <1>   0.1500 
 38 H       -2.8390     5.4300     1.7860 H     1 <1>   0.1500 
 39 H       -6.2230    -3.8790    -1.5810 H     1 <1>   0.1500 
 40 H       -3.9960    -5.0310    -1.9410 H     1 <1>   0.2700 
 41 H       -1.1700    -3.2750    -0.0160 H     1 <1>   0.0800 
 42 H       -1.3520    -3.9540    -1.6100 H     1 <1>   0.0800 
 43 H       -1.6590    -4.9390    -0.1980 H     1 <1>   0.0800 
 44 H       -7.6230     1.2780    -1.1590 H     1 <1>   0.0800 
 45 H       -8.0240    -0.2740    -0.4470 H     1 <1>   0.0800 
 46 H       -7.2160    -0.2090    -1.9960 H     1 <1>   0.0800 
 47 H       -6.3230     1.8280     1.0170 H     1 <1>   0.0800 
 48 H       -5.1380     0.6630     1.5710 H     1 <1>   0.0800 
 49 H       -6.8340     0.2560     1.5980 H     1 <1>   0.0800 
 50 H       -0.0910     7.7320    -0.5030 H     1 <1>   0.1500 
 51 H        2.0510     4.8730    -1.3400 H     1 <1>   0.0800 
 52 H        2.5660     6.1240    -0.2320 H     1 <1>   0.0800 
 53 H        1.7020     6.5440    -1.6930 H     1 <1>   0.0800 
 54 H       -3.1150     7.8300     1.6210 H     1 <1>   0.0800 
 55 H       -3.0800     7.9950    -0.1200 H     1 <1>   0.0800 
 56 H       -1.8890     8.8130     0.8650 H     1 <1>   0.0800 
@<TRIPOS>BOND
  1   1   2  2   
  2   2   3  am  
  3   2   4  1   
  4   3   5  1   
  5   3   6  1   
  6   4   7  1   
  7   4  26  1   
  8   4  27  1   
  9   5   8  1   
 10   5  28  1   
 11   5  29  1   
 12   6   9  1   
 13   6  30  1   
 14   6  31  1   
 15   7  10  1   
 16   7  32  1   
 17   7  33  1   
 18   8  11  1   
 19   8  12  2   
 20   9  13  1   
 21   9  34  1   
 22   9  35  1   
 23  10  14  ar  
 24  10  15  ar  
 25  11  16  2   
 26  12  17  1   
 27  12  18  1   
 28  13  19  1   
 29  13  20  1   
 30  13  36  1   
 31  14  21  ar  
 32  14  37  1   
 33  15  22  ar  
 34  15  38  1   
 35  16  17  1   
 36  16  39  1   
 37  17  40  1   
 38  18  41  1   
 39  18  42  1   
 40  18  43  1   
 41  19  44  1   
 42  19  45  1   
 43  19  46  1   
 44  20  47  1   
 45  20  48  1   
 46  20  49  1   
 47  21  23  ar  
 48  21  24  1   
 49  22  23  ar  
 50  22  25  1   
 51  23  50  1   
 52  24  51  1   
 53  24  52  1   
 54  24  53  1   
 55  25  54  1   
 56  25  55  1   
 57  25  56  1   
@<TRIPOS>SUBSTRUCTURE
  1 ****   4 GROUP 4 **** **** 0

# MOE 2024.06 (io_trps.svl 2023.06)
