@<TRIPOS>MOLECULE
NONAME
44 46 1 0 0 
SMALL
USER_CHARGES


@<TRIPOS>ATOM
  1 O       -0.2510     0.9130     0.7600 O.2   1 <1>  -0.5700 
  2 C       -0.2280     2.0600     0.3920 C.2   1 <1>   0.5690 
  3 N       -1.0480     2.9780     0.9490 N.am  1 <1>  -0.7300 
  4 C        0.7130     2.4880    -0.7380 C.3   1 <1>   0.1810 
  5 C       -1.1060     4.3980     0.5210 C.3   1 <1>   0.3640 
  6 O        0.9320     3.8810    -0.7620 O.3   1 <1>  -0.5600 
  7 C       -2.5640     4.7960     0.3090 C.ar  1 <1>  -0.1440 
  8 C       -0.2570     4.6610    -0.7470 C.3   1 <1>   0.2610 
  9 C       -3.4600     3.9530    -0.3360 C.ar  1 <1>  -0.1500 
 10 C       -3.0090     6.0310     0.7610 C.ar  1 <1>  -0.1500 
 11 C        0.0260     6.1650    -0.8780 C.2   1 <1>   0.5690 
 12 C       -4.7780     4.3350    -0.5190 C.ar  1 <1>  -0.1500 
 13 C       -4.3260     6.4140     0.5770 C.ar  1 <1>  -0.1500 
 14 O       -0.5730     6.7450    -1.7550 O.2   1 <1>  -0.5700 
 15 N        0.8860     6.8480    -0.0380 N.am  1 <1>  -0.6600 
 16 C       -5.2120     5.5660    -0.0620 C.ar  1 <1>  -0.1500 
 17 C        1.7750     6.2320     0.9880 C.3   1 <1>   0.1400 
 18 C        1.1610     8.2990    -0.2440 C.3   1 <1>   0.1400 
 19 C        3.2340     6.3760     0.5450 C.3   1 <1>  -0.1600 
 20 C        2.6140     8.4820    -0.6960 C.3   1 <1>  -0.1600 
 21 C        3.6030     7.8480     0.2960 C.3   1 <1>  -0.0800 
 22 C        5.0390     7.9640    -0.2250 C.3   1 <1>  -0.2400 
 23 H       -1.7090     2.6800     1.6670 H     1 <1>   0.3700 
 24 H        0.2990     2.1920    -1.6840 H     1 <1>   0.0800 
 25 H        1.6660     2.0090    -0.6100 H     1 <1>   0.0800 
 26 H       -0.7120     4.9920     1.3260 H     1 <1>   0.0800 
 27 H       -0.8310     4.3700    -1.6090 H     1 <1>   0.0800 
 28 H       -3.1420     2.9910    -0.7020 H     1 <1>   0.1500 
 29 H       -2.3330     6.7090     1.2530 H     1 <1>   0.1500 
 30 H       -5.4650     3.6750    -1.0190 H     1 <1>   0.1500 
 31 H       -4.6610     7.3740     0.9280 H     1 <1>   0.1500 
 32 H       -6.2360     5.8640    -0.2060 H     1 <1>   0.1500 
 33 H        1.6310     6.7410     1.9260 H     1 <1>   0.0800 
 34 H        1.5500     5.1940     1.1420 H     1 <1>   0.0800 
 35 H        0.4990     8.7170    -0.9840 H     1 <1>   0.0800 
 36 H        0.9950     8.8240     0.6810 H     1 <1>   0.0800 
 37 H        3.8750     5.9650     1.3040 H     1 <1>   0.0800 
 38 H        3.3770     5.8010    -0.3530 H     1 <1>   0.0800 
 39 H        2.7260     8.0320    -1.6680 H     1 <1>   0.0800 
 40 H        2.8200     9.5320    -0.7960 H     1 <1>   0.0800 
 41 H        3.5360     8.3800     1.2300 H     1 <1>   0.0800 
 42 H        5.1460     7.4430    -1.1610 H     1 <1>   0.0800 
 43 H        5.7290     7.5410     0.4840 H     1 <1>   0.0800 
 44 H        5.2990     8.9960    -0.3760 H     1 <1>   0.0800 
@<TRIPOS>BOND
  1   1   2  2   
  2   2   3  am  
  3   2   4  1   
  4   3   5  1   
  5   3  23  1   
  6   4   6  1   
  7   4  24  1   
  8   4  25  1   
  9   5   7  1   
 10   5   8  1   
 11   5  26  1   
 12   6   8  1   
 13   7   9  ar  
 14   7  10  ar  
 15   8  11  1   
 16   8  27  1   
 17   9  12  ar  
 18   9  28  1   
 19  10  13  ar  
 20  10  29  1   
 21  11  14  2   
 22  11  15  am  
 23  12  16  ar  
 24  12  30  1   
 25  13  16  ar  
 26  13  31  1   
 27  15  17  1   
 28  15  18  1   
 29  16  32  1   
 30  17  19  1   
 31  17  33  1   
 32  17  34  1   
 33  18  20  1   
 34  18  35  1   
 35  18  36  1   
 36  19  21  1   
 37  19  37  1   
 38  19  38  1   
 39  20  21  1   
 40  20  39  1   
 41  20  40  1   
 42  21  22  1   
 43  21  41  1   
 44  22  42  1   
 45  22  43  1   
 46  22  44  1   
@<TRIPOS>SUBSTRUCTURE
  1 ****   8 GROUP 4 **** **** 0

# MOE 2024.06 (io_trps.svl 2023.06)
