@<TRIPOS>MOLECULE
NONAME
57 60 1 0 0 
SMALL
USER_CHARGES


@<TRIPOS>ATOM
  1 O        0.4770     2.7470     2.5960 O.2   1 <1>  -0.5700 
  2 C        0.3870     2.6930     1.3840 C.2   1 <1>   0.5440 
  3 N        1.4080     2.0990     0.6770 N.am  1 <1>  -0.6600 
  4 C       -0.7620     3.2770     0.7190 C.ar  1 <1>   0.0860 
  5 C        1.7630     2.4480    -0.7240 C.3   1 <1>   0.1400 
  6 C        2.5840     1.4880     1.3470 C.3   1 <1>   0.1400 
  7 C       -1.2230     4.5430     1.0760 C.ar  1 <1>  -0.1500 
  8 C       -1.4420     2.6100    -0.3010 C.ar  1 <1>  -0.1500 
  9 C        3.2870     2.5450    -0.7180 C.3   1 <1>   0.2200 
 10 C        3.6920     1.4790     0.2920 C.3   1 <1>  -0.1600 
 11 C       -2.2910     5.1400     0.4280 C.ar  1 <1>   0.0830 
 12 C       -2.5250     3.1860    -0.9400 C.ar  1 <1>  -0.1500 
 13 N        3.6850     3.8670    -0.1890 N.am  1 <1>  -0.7300 
 14 O       -2.6270     6.4040     0.7840 O.3   1 <1>  -0.3630 
 15 C       -2.9700     4.4480    -0.5840 C.ar  1 <1>   0.0830 
 16 C        4.3090     4.8350    -0.9010 C.2   1 <1>   0.5690 
 17 C       -1.7280     7.3970     0.3540 C.3   1 <1>   0.1200 
 18 O       -4.0450     4.9170    -1.2670 O.3   1 <1>  -0.3630 
 19 O        4.6600     4.6680    -2.0420 O.2   1 <1>  -0.5700 
 20 C        4.5380     6.1800    -0.2420 C.3   1 <1>  -0.0990 
 21 C       -2.2100     8.7620     0.8530 C.3   1 <1>  -0.1600 
 22 C       -5.0110     5.7200    -0.6260 C.3   1 <1>   0.0400 
 23 C        3.2280     6.9780    -0.1350 C.3   1 <1>  -0.1600 
 24 C       -1.3350     9.9180     0.3340 C.3   1 <1>   0.0960 
 25 C        3.4230     8.3400     0.5460 C.3   1 <1>   0.0210 
 26 N        0.0880     9.7230     0.6830 N.pl3 1 <1>   0.3140 
 27 C        2.0870     9.0230     0.7790 C.2   1 <1>   0.0460 
 28 N        0.6160    10.1240     1.8410 N.2   1 <1>  -0.4180 
 29 C        1.0010     9.0390    -0.0080 C.2   1 <1>  -0.3020 
 30 N        1.8340     9.7070     1.8990 N.2   1 <1>  -0.2270 
 31 H        1.3150     3.3730    -1.0430 H     1 <1>   0.0800 
 32 H        1.4500     1.6510    -1.3750 H     1 <1>   0.0800 
 33 H        2.3490     0.4930     1.6860 H     1 <1>   0.0800 
 34 H        2.8730     2.0920     2.1920 H     1 <1>   0.0800 
 35 H       -0.7290     5.0660     1.8760 H     1 <1>   0.1500 
 36 H       -1.1180     1.6250    -0.5870 H     1 <1>   0.1500 
 37 H        3.7120     2.3790    -1.6940 H     1 <1>   0.0800 
 38 H        3.7000     0.5180    -0.1900 H     1 <1>   0.0800 
 39 H        4.6650     1.6570     0.7150 H     1 <1>   0.0800 
 40 H       -3.0400     2.6550    -1.7220 H     1 <1>   0.1500 
 41 H        3.3360     4.0610     0.7520 H     1 <1>   0.3700 
 42 H       -1.6920     7.3680    -0.7220 H     1 <1>   0.0800 
 43 H       -0.7570     7.1660     0.7580 H     1 <1>   0.0800 
 44 H        5.2540     6.7310    -0.8260 H     1 <1>   0.0800 
 45 H        4.9580     6.0190     0.7340 H     1 <1>   0.0800 
 46 H       -2.1990     8.7700     1.9300 H     1 <1>   0.0800 
 47 H       -3.2220     8.9210     0.5250 H     1 <1>   0.0800 
 48 H       -5.9240     5.6610    -1.1910 H     1 <1>   0.0800 
 49 H       -4.6620     6.7360    -0.6030 H     1 <1>   0.0800 
 50 H       -5.1710     5.3500     0.3720 H     1 <1>   0.0800 
 51 H        2.5110     6.4080     0.4310 H     1 <1>   0.0800 
 52 H        2.8280     7.1250    -1.1230 H     1 <1>   0.0800 
 53 H       -1.6620    10.8460     0.7670 H     1 <1>   0.0800 
 54 H       -1.4150     9.9940    -0.7340 H     1 <1>   0.0800 
 55 H        4.0480     8.9790    -0.0520 H     1 <1>   0.0800 
 56 H        3.9020     8.1970     1.4990 H     1 <1>   0.0800 
 57 H        0.8260     8.6060    -0.9740 H     1 <1>   0.1500 
@<TRIPOS>BOND
  1   1   2  2   
  2   2   3  am  
  3   2   4  1   
  4   3   5  1   
  5   3   6  1   
  6   4   7  ar  
  7   4   8  ar  
  8   5   9  1   
  9   5  31  1   
 10   5  32  1   
 11   6  10  1   
 12   6  33  1   
 13   6  34  1   
 14   7  11  ar  
 15   7  35  1   
 16   8  12  ar  
 17   8  36  1   
 18   9  10  1   
 19   9  13  1   
 20   9  37  1   
 21  10  38  1   
 22  10  39  1   
 23  11  14  1   
 24  11  15  ar  
 25  12  15  ar  
 26  12  40  1   
 27  13  16  am  
 28  13  41  1   
 29  14  17  1   
 30  15  18  1   
 31  16  19  2   
 32  16  20  1   
 33  17  21  1   
 34  17  42  1   
 35  17  43  1   
 36  18  22  1   
 37  20  23  1   
 38  20  44  1   
 39  20  45  1   
 40  21  24  1   
 41  21  46  1   
 42  21  47  1   
 43  22  48  1   
 44  22  49  1   
 45  22  50  1   
 46  23  25  1   
 47  23  51  1   
 48  23  52  1   
 49  24  26  1   
 50  24  53  1   
 51  24  54  1   
 52  25  27  1   
 53  25  55  1   
 54  25  56  1   
 55  26  28  1   
 56  26  29  1   
 57  27  29  2   
 58  27  30  1   
 59  28  30  2   
 60  29  57  1   
@<TRIPOS>SUBSTRUCTURE
  1 ****   7 GROUP 4 **** **** 0

# MOE 2024.06 (io_trps.svl 2023.06)
