@<TRIPOS>MOLECULE
NONAME
42 44 1 0 0 
SMALL
USER_CHARGES


@<TRIPOS>ATOM
  1 O       -3.3790     0.5290     2.3100 O.co2 1 <1>  -0.9000 
  2 C       -2.4780    -0.2230     1.9080 C.2   1 <1>   0.9060 
  3 O       -2.1400    -1.2400     2.5130 O.co2 1 <1>  -0.9000 
  4 C       -1.7150     0.1460     0.6160 C.3   1 <1>   0.3170 
  5 N       -1.8420     1.6000     0.1530 N.4   1 <1>  -0.9590 
  6 C       -2.1560    -0.8230    -0.5080 C.3   1 <1>   0.1200 
  7 C       -3.2450     1.8560    -0.3090 C.3   1 <1>   0.3430 
  8 C       -1.4580     2.5390     1.2320 C.3   1 <1>   0.4860 
  9 O       -2.7490    -0.1510    -1.5950 O.3   1 <1>  -0.5600 
 10 C       -3.7790     0.7190    -1.2090 C.3   1 <1>   0.1200 
 11 C       -1.4660     3.9490     0.6750 C.ar  1 <1>  -0.1430 
 12 C       -0.5780     4.3110    -0.3380 C.ar  1 <1>   0.0830 
 13 C       -2.3690     4.8740     1.1800 C.ar  1 <1>  -0.1500 
 14 O        0.2750     3.3560    -0.7950 O.3   1 <1>  -0.3630 
 15 C       -0.6010     5.6100    -0.8450 C.ar  1 <1>  -0.1500 
 16 C       -2.3780     6.1550     0.6650 C.ar  1 <1>  -0.1430 
 17 C        1.2810     3.6620    -1.7390 C.3   1 <1>   0.0400 
 18 C       -1.5080     6.5170    -0.3310 C.ar  1 <1>  -0.1430 
 19 C       -3.2660     7.3070     1.0650 C.3   1 <1>  -0.0160 
 20 C       -1.7010     7.9600    -0.7290 C.3   1 <1>  -0.0170 
 21 C       -2.6080     8.5180     0.3810 C.3   1 <1>  -0.1600 
 22 H       -0.6840    -0.0600     0.8360 H     1 <1>   0.0800 
 23 H       -1.2100     1.7590    -0.6420 H     1 <1>   0.4500 
 24 H       -2.8580    -1.5500    -0.1320 H     1 <1>   0.0800 
 25 H       -1.3010    -1.3580    -0.8800 H     1 <1>   0.0800 
 26 H       -3.8970     1.9460     0.5450 H     1 <1>   0.0800 
 27 H       -3.2850     2.7890    -0.8470 H     1 <1>   0.0800 
 28 H       -2.1500     2.4600     2.0560 H     1 <1>   0.0800 
 29 H       -0.4700     2.3030     1.5900 H     1 <1>   0.0800 
 30 H       -4.2250     1.1270    -2.0990 H     1 <1>   0.0800 
 31 H       -4.5270     0.1520    -0.6810 H     1 <1>   0.0800 
 32 H       -3.0580     4.6080     1.9640 H     1 <1>   0.1500 
 33 H        0.0630     5.9300    -1.6250 H     1 <1>   0.1500 
 34 H        1.8620     2.7740    -1.9130 H     1 <1>   0.0800 
 35 H        1.9120     4.4370    -1.3380 H     1 <1>   0.0800 
 36 H        0.8180     3.9810    -2.6560 H     1 <1>   0.0800 
 37 H       -4.2580     7.1470     0.6800 H     1 <1>   0.0800 
 38 H       -3.3020     7.4280     2.1330 H     1 <1>   0.0800 
 39 H       -0.7650     8.4880    -0.7770 H     1 <1>   0.0800 
 40 H       -2.1970     8.0060    -1.6830 H     1 <1>   0.0800 
 41 H       -1.9950     9.0300     1.1020 H     1 <1>   0.0800 
 42 H       -3.3390     9.2050    -0.0070 H     1 <1>   0.0800 
@<TRIPOS>BOND
  1   1   2  ar  
  2   2   3  ar  
  3   2   4  1   
  4   4   5  1   
  5   4   6  1   
  6   4  22  1   
  7   5   7  1   
  8   5   8  1   
  9   5  23  1   
 10   6   9  1   
 11   6  24  1   
 12   6  25  1   
 13   7  10  1   
 14   7  26  1   
 15   7  27  1   
 16   8  11  1   
 17   8  28  1   
 18   8  29  1   
 19   9  10  1   
 20  10  30  1   
 21  10  31  1   
 22  11  12  ar  
 23  11  13  ar  
 24  12  14  1   
 25  12  15  ar  
 26  13  16  ar  
 27  13  32  1   
 28  14  17  1   
 29  15  18  ar  
 30  15  33  1   
 31  16  18  ar  
 32  16  19  1   
 33  17  34  1   
 34  17  35  1   
 35  17  36  1   
 36  18  20  1   
 37  19  21  1   
 38  19  37  1   
 39  19  38  1   
 40  20  21  1   
 41  20  39  1   
 42  20  40  1   
 43  21  41  1   
 44  21  42  1   
@<TRIPOS>SUBSTRUCTURE
  1 ****  11 GROUP 4 **** **** 0

# MOE 2024.06 (io_trps.svl 2023.06)
