@<TRIPOS>MOLECULE
NONAME
45 47 1 0 0 
SMALL
USER_CHARGES


@<TRIPOS>ATOM
  1 O        2.1610     1.8330     1.0630 O.3   1 <1>  -0.0190 
  2 N        2.8840     0.7780     0.8430 N.2   1 <1>  -0.4100 
  3 C        0.9660     1.7240     0.5460 C.2   1 <1>  -0.0400 
  4 C        2.1360    -0.0370     0.1900 C.2   1 <1>   0.1080 
  5 C        0.8790     0.5190    -0.0350 C.2   1 <1>  -0.1500 
  6 C       -0.0190     2.8710     0.6730 C.3   1 <1>   0.0200 
  7 C        2.5720    -1.4120    -0.2680 C.3   1 <1>  -0.0590 
  8 C        0.4770     4.1020    -0.1120 C.3   1 <1>  -0.0800 
  9 C       -0.4540     5.3170    -0.1240 C.3   1 <1>   0.2000 
 10 C        1.8210     4.6480     0.3980 C.3   1 <1>   0.3430 
 11 O       -0.9670     5.5240     1.1540 O.3   1 <1>  -0.6800 
 12 C        0.5130     6.4620    -0.4240 C.3   1 <1>   0.3430 
 13 N        1.7100     6.1380     0.4060 N.4   1 <1>  -0.9590 
 14 C        2.9740     6.8320     0.0440 C.3   1 <1>   0.3430 
 15 C        2.8360     8.3350     0.2720 C.3   1 <1>  -0.1600 
 16 C        4.1660     9.0540     0.0120 C.3   1 <1>   0.0960 
 17 N        3.9870    10.5030     0.2000 N.pl3 1 <1>   0.0480 
 18 C        4.0860    11.1830     1.3720 C.2   1 <1>  -0.3020 
 19 C        3.6480    11.4030    -0.7600 C.2   1 <1>  -0.3020 
 20 C        3.8150    12.4970     1.1580 C.2   1 <1>  -0.1500 
 21 C        3.5350    12.6380    -0.2050 C.2   1 <1>  -0.1500 
 22 H        0.0630     0.0550    -0.5580 H     1 <1>   0.1500 
 23 H       -0.9720     2.5540     0.2870 H     1 <1>   0.0800 
 24 H       -0.1410     3.1020     1.7180 H     1 <1>   0.0800 
 25 H        2.5250    -1.4740    -1.3390 H     1 <1>   0.0800 
 26 H        1.9310    -2.1600     0.1600 H     1 <1>   0.0800 
 27 H        3.5830    -1.6010     0.0470 H     1 <1>   0.0800 
 28 H        0.6310     3.7960    -1.1330 H     1 <1>   0.0800 
 29 H       -1.2640     5.2520    -0.8310 H     1 <1>   0.0800 
 30 H        2.6180     4.3180    -0.2490 H     1 <1>   0.0800 
 31 H        2.0170     4.2910     1.3970 H     1 <1>   0.0800 
 32 H       -1.7820     4.9990     1.3050 H     1 <1>   0.4000 
 33 H        0.0830     7.4150    -0.1630 H     1 <1>   0.0800 
 34 H        0.7740     6.4530    -1.4700 H     1 <1>   0.0800 
 35 H        1.4350     6.3930     1.3690 H     1 <1>   0.4500 
 36 H        3.7770     6.4540     0.6570 H     1 <1>   0.0800 
 37 H        3.2190     6.6380    -0.9890 H     1 <1>   0.0800 
 38 H        2.5400     8.5200     1.2910 H     1 <1>   0.0800 
 39 H        2.0950     8.7420    -0.3930 H     1 <1>   0.0800 
 40 H        4.5050     8.8820    -0.9940 H     1 <1>   0.0800 
 41 H        4.9260     8.7140     0.6950 H     1 <1>   0.0800 
 42 H        4.3440    10.7080     2.3010 H     1 <1>   0.1500 
 43 H        3.5050    11.1300    -1.7910 H     1 <1>   0.1500 
 44 H        3.8100    13.2990     1.8760 H     1 <1>   0.1500 
 45 H        3.2830    13.5640    -0.6920 H     1 <1>   0.1500 
@<TRIPOS>BOND
  1   1   2  1   
  2   1   3  1   
  3   2   4  2   
  4   3   5  2   
  5   3   6  1   
  6   4   5  1   
  7   4   7  1   
  8   5  22  1   
  9   6   8  1   
 10   6  23  1   
 11   6  24  1   
 12   7  25  1   
 13   7  26  1   
 14   7  27  1   
 15   8   9  1   
 16   8  10  1   
 17   8  28  1   
 18   9  11  1   
 19   9  12  1   
 20   9  29  1   
 21  10  13  1   
 22  10  30  1   
 23  10  31  1   
 24  11  32  1   
 25  12  13  1   
 26  12  33  1   
 27  12  34  1   
 28  13  14  1   
 29  13  35  1   
 30  14  15  1   
 31  14  36  1   
 32  14  37  1   
 33  15  16  1   
 34  15  38  1   
 35  15  39  1   
 36  16  17  1   
 37  16  40  1   
 38  16  41  1   
 39  17  18  1   
 40  17  19  1   
 41  18  20  2   
 42  18  42  1   
 43  19  21  2   
 44  19  43  1   
 45  20  21  1   
 46  20  44  1   
 47  21  45  1   
@<TRIPOS>SUBSTRUCTURE
  1 ****  13 GROUP 4 **** **** 0

# MOE 2024.06 (io_trps.svl 2023.06)
