@<TRIPOS>MOLECULE
NONAME
37 37 1 0 0 
SMALL
USER_CHARGES


@<TRIPOS>ATOM
  1 O       -0.2610    -0.5640    -0.9670 O.2   1 <1>  -0.5700 
  2 C       -1.1790    -1.0920    -0.3710 C.2   1 <1>   0.7800 
  3 O       -2.0980    -0.3720     0.2770 O.3   1 <1>  -0.4300 
  4 N       -1.3280    -2.4410    -0.3270 N.am  1 <1>  -0.5100 
  5 C       -2.1630     1.0330     0.3830 C.3   1 <1>   0.2800 
  6 C       -0.8600    -3.3770    -1.3980 C.3   1 <1>   0.2250 
  7 C       -2.6430    -3.1500    -0.2670 C.3   1 <1>   0.2250 
  8 C       -2.3460     1.6620    -1.0030 C.3   1 <1>  -0.2400 
  9 C       -3.4050     1.3110     1.2310 C.3   1 <1>  -0.2400 
 10 C       -0.9250     1.5690     1.1110 C.3   1 <1>  -0.2400 
 11 C       -1.9630    -4.3650    -0.9420 C.3   1 <1>   0.0000 
 12 C       -1.5090    -5.5410    -0.0270 C.3   1 <1>   0.0610 
 13 C       -0.6340    -6.5130    -0.8310 C.2   1 <1>   0.4490 
 14 C       -2.7620    -6.2980     0.4560 C.3   1 <1>  -0.2400 
 15 C       -0.7180    -5.0900     1.2220 C.3   1 <1>  -0.2400 
 16 O       -0.4120    -6.4200    -2.0020 O.2   1 <1>  -0.5700 
 17 H        0.1470    -3.7150    -1.2290 H     1 <1>   0.0000 
 18 H       -1.0270    -2.9650    -2.3780 H     1 <1>   0.0000 
 19 H       -3.3750    -2.6650    -0.8890 H     1 <1>   0.0000 
 20 H       -2.9690    -3.3150     0.7440 H     1 <1>   0.0000 
 21 H       -3.1800     1.2130    -1.5110 H     1 <1>   0.0800 
 22 H       -1.4620     1.5460    -1.6020 H     1 <1>   0.0800 
 23 H       -2.5340     2.7160    -0.9050 H     1 <1>   0.0800 
 24 H       -4.2820     0.9200     0.7470 H     1 <1>   0.0800 
 25 H       -3.5370     2.3700     1.3660 H     1 <1>   0.0800 
 26 H       -3.3060     0.8550     2.1990 H     1 <1>   0.0800 
 27 H       -0.0410     1.4520     0.5110 H     1 <1>   0.0800 
 28 H       -0.7880     1.0540     2.0450 H     1 <1>   0.0800 
 29 H       -1.0430     2.6170     1.3130 H     1 <1>   0.0800 
 30 H       -2.5410    -4.7170    -1.7790 H     1 <1>   0.0000 
 31 H       -0.2180    -7.3230    -0.2590 H     1 <1>   0.0600 
 32 H       -3.3300    -6.6540    -0.3860 H     1 <1>   0.0800 
 33 H       -3.3950    -5.6580     1.0450 H     1 <1>   0.0800 
 34 H       -2.4870    -7.1450     1.0590 H     1 <1>   0.0800 
 35 H        0.1840    -4.5750     0.9400 H     1 <1>   0.0800 
 36 H       -0.4390    -5.9390     1.8210 H     1 <1>   0.0800 
 37 H       -1.3020    -4.4310     1.8390 H     1 <1>   0.0800 
@<TRIPOS>BOND
  1   1   2  2   
  2   2   3  1   
  3   2   4  am  
  4   3   5  1   
  5   4   6  1   
  6   4   7  1   
  7   5   8  1   
  8   5   9  1   
  9   5  10  1   
 10   6  11  1   
 11   6  17  1   
 12   6  18  1   
 13   7  11  1   
 14   7  19  1   
 15   7  20  1   
 16   8  21  1   
 17   8  22  1   
 18   8  23  1   
 19   9  24  1   
 20   9  25  1   
 21   9  26  1   
 22  10  27  1   
 23  10  28  1   
 24  10  29  1   
 25  11  12  1   
 26  11  30  1   
 27  12  13  1   
 28  12  14  1   
 29  12  15  1   
 30  13  16  2   
 31  13  31  1   
 32  14  32  1   
 33  14  33  1   
 34  14  34  1   
 35  15  35  1   
 36  15  36  1   
 37  15  37  1   
@<TRIPOS>SUBSTRUCTURE
  1 ****   4 GROUP 4 **** **** 0

# MOE 2024.06 (io_trps.svl 2023.06)
