@<TRIPOS>MOLECULE
NONAME
55 58 1 0 0 
SMALL
USER_CHARGES


@<TRIPOS>ATOM
  1 O        0.0620    -1.5240    -0.5860 O.2   1 <1>  -0.5700 
  2 C       -1.0840    -1.6600    -0.2450 C.2   1 <1>   0.5690 
  3 N       -2.0990    -1.5910    -1.1400 N.am  1 <1>  -0.5470 
  4 C       -1.4280    -1.8920     1.2140 C.3   1 <1>  -0.0990 
  5 C       -3.4440    -1.7990    -0.8260 C.ar  1 <1>   0.1170 
  6 C       -2.6720    -2.7830     1.3660 C.3   1 <1>  -0.0160 
  7 C       -3.7780    -2.3620     0.4040 C.ar  1 <1>  -0.1430 
  8 C       -4.4500    -1.4480    -1.7160 C.ar  1 <1>  -0.1500 
  9 C       -5.1090    -2.5540     0.7300 C.ar  1 <1>  -0.1500 
 10 C       -5.7790    -1.6420    -1.3870 C.ar  1 <1>  -0.1500 
 11 C       -6.1150    -2.1960    -0.1540 C.ar  1 <1>   0.0830 
 12 O       -7.3910    -2.4190     0.2550 O.3   1 <1>  -0.3630 
 13 C       -8.4860    -2.0560    -0.5530 C.3   1 <1>   0.1200 
 14 C       -9.7670    -2.4290     0.1940 C.3   1 <1>  -0.1600 
 15 C      -11.0130    -1.9830    -0.5830 C.3   1 <1>  -0.1600 
 16 C      -12.3020    -2.3960     0.1390 C.3   1 <1>   0.0200 
 17 C      -13.5270    -1.9020    -0.6130 C.2   1 <1>   0.0060 
 18 N      -14.2380    -2.6340    -1.3810 N.2   1 <1>  -0.3380 
 19 N      -14.0210    -0.6710    -0.5850 N.pl3 1 <1>   0.3140 
 20 N      -15.1970    -1.8440    -1.8460 N.2   1 <1>   0.0000 
 21 N      -15.0770    -0.6570    -1.3740 N.2   1 <1>  -0.4180 
 22 C      -13.5370     0.5240     0.1590 C.3   1 <1>   0.1760 
 23 C      -14.6080     1.0280     1.1470 C.3   1 <1>  -0.1600 
 24 C      -13.1120     1.6410    -0.8140 C.3   1 <1>  -0.1600 
 25 C      -14.1270     2.2770     1.9040 C.3   1 <1>  -0.1600 
 26 C      -12.6280     2.8880    -0.0570 C.3   1 <1>  -0.1600 
 27 C      -13.6950     3.3760     0.9290 C.3   1 <1>   0.2000 
 28 O      -13.1670     4.4170     1.6560 O.3   1 <1>  -0.6800 
 29 H       -1.8270    -1.3800    -2.0990 H     1 <1>   0.3700 
 30 H       -1.6180    -0.9350     1.6620 H     1 <1>   0.0800 
 31 H       -0.5890    -2.3400     1.7140 H     1 <1>   0.0800 
 32 H       -3.0230    -2.7430     2.3830 H     1 <1>   0.0800 
 33 H       -2.4040    -3.8020     1.1450 H     1 <1>   0.0800 
 34 H       -4.1910    -1.0170    -2.6660 H     1 <1>   0.1500 
 35 H       -5.3850    -2.9880     1.6750 H     1 <1>   0.1500 
 36 H       -6.5320    -1.3590    -2.0970 H     1 <1>   0.1500 
 37 H       -8.4160    -2.5930    -1.4830 H     1 <1>   0.0800 
 38 H       -8.4380    -0.9950    -0.7270 H     1 <1>   0.0800 
 39 H       -9.7570    -1.9580     1.1610 H     1 <1>   0.0800 
 40 H       -9.7880    -3.4970     0.3310 H     1 <1>   0.0800 
 41 H      -11.0080    -2.4330    -1.5630 H     1 <1>   0.0800 
 42 H      -10.9910    -0.9150    -0.7090 H     1 <1>   0.0800 
 43 H      -12.3120    -2.0150     1.1450 H     1 <1>   0.0800 
 44 H      -12.3460    -3.4700     0.1990 H     1 <1>   0.0800 
 45 H      -12.6730     0.2340     0.7280 H     1 <1>   0.0800 
 46 H      -14.8450     0.2510     1.8540 H     1 <1>   0.0800 
 47 H      -15.5070     1.2740     0.6060 H     1 <1>   0.0800 
 48 H      -13.9510     1.9130    -1.4340 H     1 <1>   0.0800 
 49 H      -12.3240     1.2850    -1.4550 H     1 <1>   0.0800 
 50 H      -13.3010     2.0080     2.5400 H     1 <1>   0.0800 
 51 H      -14.9270     2.6470     2.5220 H     1 <1>   0.0800 
 52 H      -12.4150     3.6720    -0.7630 H     1 <1>   0.0800 
 53 H      -11.7230     2.6500     0.4740 H     1 <1>   0.0800 
 54 H      -14.5510     3.7540     0.3930 H     1 <1>   0.0800 
 55 H      -12.3910     4.1190     2.1660 H     1 <1>   0.4000 
@<TRIPOS>BOND
  1   1   2  2   
  2   2   3  am  
  3   2   4  1   
  4   3   5  1   
  5   3  29  1   
  6   4   6  1   
  7   4  30  1   
  8   4  31  1   
  9   5   7  ar  
 10   5   8  ar  
 11   6   7  1   
 12   6  32  1   
 13   6  33  1   
 14   7   9  ar  
 15   8  10  ar  
 16   8  34  1   
 17   9  11  ar  
 18   9  35  1   
 19  10  11  ar  
 20  10  36  1   
 21  11  12  1   
 22  12  13  1   
 23  13  14  1   
 24  13  37  1   
 25  13  38  1   
 26  14  15  1   
 27  14  39  1   
 28  14  40  1   
 29  15  16  1   
 30  15  41  1   
 31  15  42  1   
 32  16  17  1   
 33  16  43  1   
 34  16  44  1   
 35  17  18  2   
 36  17  19  1   
 37  18  20  1   
 38  19  21  1   
 39  19  22  1   
 40  20  21  2   
 41  22  23  1   
 42  22  24  1   
 43  22  45  1   
 44  23  25  1   
 45  23  46  1   
 46  23  47  1   
 47  24  26  1   
 48  24  48  1   
 49  24  49  1   
 50  25  27  1   
 51  25  50  1   
 52  25  51  1   
 53  26  27  1   
 54  26  52  1   
 55  26  53  1   
 56  27  28  1   
 57  27  54  1   
 58  28  55  1   
@<TRIPOS>SUBSTRUCTURE
  1 ****  13 GROUP 4 **** **** 0

# MOE 2024.06 (io_trps.svl 2023.06)
