@<TRIPOS>MOLECULE
NONAME
40 41 1 0 0 
SMALL
USER_CHARGES


@<TRIPOS>ATOM
  1 S        0.3150     0.0070    -0.2870 S.3   1 <1>  -0.0800 
  2 C        1.4770     1.2570     0.1500 C.2   1 <1>  -0.0450 
  3 C        1.2250    -1.2770     0.5060 C.2   1 <1>  -0.0450 
  4 C        1.2320     2.6150    -0.2640 C.2   1 <1>   0.7150 
  5 C        2.4790     0.6720     0.8610 C.2   1 <1>  -0.1500 
  6 C        0.7460    -2.6300     0.4940 C.2   1 <1>   0.5940 
  7 C        2.3380    -0.7250     1.0550 C.2   1 <1>  -0.1500 
  8 O        0.2070     2.9230    -0.8430 O.2   1 <1>  -0.5700 
  9 N        2.1910     3.5650    -0.0110 N.am  1 <1>  -0.4940 
 10 O        1.3450    -3.5320     1.0220 O.2   1 <1>  -0.5700 
 11 C       -0.5570    -2.9750    -0.1990 C.3   1 <1>  -0.1790 
 12 C        2.1450     4.9700    -0.1880 C.2   1 <1>  -0.0880 
 13 N        3.1690     5.7180    -0.6820 N.pl3 1 <1>   0.3140 
 14 C        1.1440     5.8420     0.0880 C.2   1 <1>  -0.1810 
 15 N        2.8560     7.0310    -0.7240 N.2   1 <1>  -0.7070 
 16 C        4.4670     5.2300    -1.1900 C.3   1 <1>   0.0960 
 17 C        1.6440     7.0900    -0.2670 C.2   1 <1>   0.1390 
 18 C       -0.2370     5.5830     0.6610 C.3   1 <1>  -0.0590 
 19 C        5.4650     5.0220    -0.0410 C.3   1 <1>  -0.1600 
 20 C        6.8020     4.4790    -0.5600 C.3   1 <1>  -0.1600 
 21 C        7.7920     4.2710     0.5890 C.3   1 <1>  -0.2400 
 22 H        3.3310     1.1860     1.2700 H     1 <1>   0.1500 
 23 H        3.0720    -1.2940     1.6020 H     1 <1>   0.1500 
 24 H        3.0670     3.1910     0.3440 H     1 <1>   0.3700 
 25 H       -1.3650    -2.4280     0.2480 H     1 <1>   0.0800 
 26 H       -0.7550    -4.0270    -0.1010 H     1 <1>   0.0800 
 27 H       -0.4910    -2.7310    -1.2430 H     1 <1>   0.0800 
 28 H        4.8490     5.9600    -1.8810 H     1 <1>   0.0800 
 29 H        4.3010     4.3120    -1.7220 H     1 <1>   0.0800 
 30 H        1.0940     8.0110    -0.1760 H     1 <1>   0.1500 
 31 H       -0.2380     4.6780     1.2410 H     1 <1>   0.0800 
 32 H       -0.9470     5.4790    -0.1400 H     1 <1>   0.0800 
 33 H       -0.5370     6.3980     1.2940 H     1 <1>   0.0800 
 34 H        5.0540     4.3350     0.6770 H     1 <1>   0.0800 
 35 H        5.6300     5.9680     0.4490 H     1 <1>   0.0800 
 36 H        7.2250     5.1730    -1.2670 H     1 <1>   0.0800 
 37 H        6.6460     3.5410    -1.0660 H     1 <1>   0.0800 
 38 H        7.9830     5.2020     1.0950 H     1 <1>   0.0800 
 39 H        8.7250     3.8950     0.2070 H     1 <1>   0.0800 
 40 H        7.4060     3.5630     1.3010 H     1 <1>   0.0800 
@<TRIPOS>BOND
  1   1   2  1   
  2   1   3  1   
  3   2   4  1   
  4   2   5  2   
  5   3   6  1   
  6   3   7  2   
  7   4   8  2   
  8   4   9  am  
  9   5   7  1   
 10   5  22  1   
 11   6  10  2   
 12   6  11  1   
 13   7  23  1   
 14   9  12  1   
 15   9  24  1   
 16  11  25  1   
 17  11  26  1   
 18  11  27  1   
 19  12  13  1   
 20  12  14  2   
 21  13  15  1   
 22  13  16  1   
 23  14  17  1   
 24  14  18  1   
 25  15  17  2   
 26  16  19  1   
 27  16  28  1   
 28  16  29  1   
 29  17  30  1   
 30  18  31  1   
 31  18  32  1   
 32  18  33  1   
 33  19  20  1   
 34  19  34  1   
 35  19  35  1   
 36  20  21  1   
 37  20  36  1   
 38  20  37  1   
 39  21  38  1   
 40  21  39  1   
 41  21  40  1   
@<TRIPOS>SUBSTRUCTURE
  1 ****   9 GROUP 4 **** **** 0

# MOE 2024.06 (io_trps.svl 2023.06)
