@<TRIPOS>MOLECULE
NONAME
54 57 1 0 0 
SMALL
USER_CHARGES


@<TRIPOS>ATOM
  1 O       -3.9140     2.6820     1.7470 O.2   1 <1>  -0.5700 
  2 C       -2.9710     2.7530     0.9970 C.2   1 <1>   0.5690 
  3 N       -2.9520     2.1070    -0.1970 N.am  1 <1>  -0.7300 
  4 C       -1.7530     3.5540     1.4250 C.3   1 <1>   0.1570 
  5 C       -3.8280     0.9800    -0.5710 C.3   1 <1>   0.2200 
  6 N       -0.5280     2.8300     1.0160 N.pl3 1 <1>   0.0480 
  7 C       -3.0220    -0.3000    -0.4270 C.3   1 <1>  -0.0800 
  8 C       -4.0940     1.0150    -2.0740 C.3   1 <1>   0.1200 
  9 C       -0.2400     1.5680     1.4410 C.ar  1 <1>  -0.1520 
 10 C        0.1910     2.9980    -0.1350 C.2   1 <1>   0.0060 
 11 C       -2.2420    -0.3260    -1.7430 C.3   1 <1>   0.1200 
 12 C       -3.9230    -1.5370    -0.2600 C.3   1 <1>  -0.0170 
 13 O       -3.0290     0.3450    -2.6860 O.3   1 <1>  -0.5600 
 14 C        0.6210     1.0420     0.5000 C.ar  1 <1>   0.2270 
 15 C       -0.6650     0.8050     2.5330 C.ar  1 <1>  -0.1500 
 16 N        0.8730     1.9560    -0.4710 N.2   1 <1>  -0.5650 
 17 C        0.1770     4.2940    -0.9530 C.3   1 <1>   0.1000 
 18 C       -3.0880    -2.7900    -0.0410 C.ar  1 <1>  -0.1440 
 19 C        1.0780    -0.2680     0.6240 C.ar  1 <1>  -0.1500 
 20 C       -0.2070    -0.4890     2.6510 C.ar  1 <1>  -0.1500 
 21 C       -0.9330     4.2620    -2.0100 C.3   1 <1>  -0.2400 
 22 C        1.5300     4.5410    -1.6340 C.3   1 <1>  -0.2400 
 23 C       -2.4530    -3.0330     1.1600 C.ar  1 <1>  -0.1500 
 24 C       -2.9150    -3.7430    -1.0240 C.ar  1 <1>  -0.1500 
 25 C        0.6620    -1.0280     1.6950 C.ar  1 <1>  -0.1500 
 26 C       -1.6950    -4.1820     1.3150 C.ar  1 <1>   0.1600 
 27 C       -2.1350    -4.8580    -0.7670 C.ar  1 <1>   0.1600 
 28 N       -1.5190    -5.1010     0.3790 N.ar  1 <1>  -0.6200 
 29 H       -2.0910     2.1320    -0.7580 H     1 <1>   0.3700 
 30 H       -1.7540     3.6630     2.4920 H     1 <1>   0.0800 
 31 H       -1.7860     4.5250     0.9740 H     1 <1>   0.0800 
 32 H       -4.7340     0.9930     0.0130 H     1 <1>   0.0800 
 33 H       -2.3520    -0.2490     0.4130 H     1 <1>   0.0800 
 34 H       -4.1570     2.0180    -2.4580 H     1 <1>   0.0800 
 35 H       -4.9940     0.4780    -2.3110 H     1 <1>   0.0800 
 36 H       -2.0350    -1.3200    -2.0970 H     1 <1>   0.0800 
 37 H       -1.3160     0.2160    -1.6470 H     1 <1>   0.0800 
 38 H       -4.5500    -1.6640    -1.1250 H     1 <1>   0.0800 
 39 H       -4.5650    -1.4000     0.5930 H     1 <1>   0.0800 
 40 H       -1.3390     1.2230     3.2620 H     1 <1>   0.1500 
 41 H        0.0050     5.1240    -0.2900 H     1 <1>   0.0800 
 42 H        1.7440    -0.6540    -0.1250 H     1 <1>   0.1500 
 43 H       -0.5140    -1.0980     3.4840 H     1 <1>   0.1500 
 44 H       -0.8180     3.3960    -2.6390 H     1 <1>   0.0800 
 45 H       -0.8880     5.1410    -2.6270 H     1 <1>   0.0800 
 46 H       -1.9020     4.2280    -1.5500 H     1 <1>   0.0800 
 47 H        1.7380     3.7620    -2.3480 H     1 <1>   0.0800 
 48 H        2.3150     4.5410    -0.8990 H     1 <1>   0.0800 
 49 H        1.5330     5.4870    -2.1430 H     1 <1>   0.0800 
 50 H       -2.5390    -2.3370     1.9750 H     1 <1>   0.1500 
 51 H       -3.3770    -3.6280    -1.9880 H     1 <1>   0.1500 
 52 H        1.0040    -2.0430     1.8030 H     1 <1>   0.1500 
 53 H       -1.2070    -4.3530     2.2590 H     1 <1>   0.1500 
 54 H       -2.0110    -5.5900    -1.5470 H     1 <1>   0.1500 
@<TRIPOS>BOND
  1   1   2  2   
  2   2   3  am  
  3   2   4  1   
  4   3   5  1   
  5   3  29  1   
  6   4   6  1   
  7   4  30  1   
  8   4  31  1   
  9   5   7  1   
 10   5   8  1   
 11   5  32  1   
 12   6   9  1   
 13   6  10  1   
 14   7  11  1   
 15   7  12  1   
 16   7  33  1   
 17   8  13  1   
 18   8  34  1   
 19   8  35  1   
 20   9  14  ar  
 21   9  15  ar  
 22  10  16  2   
 23  10  17  1   
 24  11  13  1   
 25  11  36  1   
 26  11  37  1   
 27  12  18  1   
 28  12  38  1   
 29  12  39  1   
 30  14  16  1   
 31  14  19  ar  
 32  15  20  ar  
 33  15  40  1   
 34  17  21  1   
 35  17  22  1   
 36  17  41  1   
 37  18  23  ar  
 38  18  24  ar  
 39  19  25  ar  
 40  19  42  1   
 41  20  25  ar  
 42  20  43  1   
 43  21  44  1   
 44  21  45  1   
 45  21  46  1   
 46  22  47  1   
 47  22  48  1   
 48  22  49  1   
 49  23  26  ar  
 50  23  50  1   
 51  24  27  ar  
 52  24  51  1   
 53  25  52  1   
 54  26  28  ar  
 55  26  53  1   
 56  27  28  ar  
 57  27  54  1   
@<TRIPOS>SUBSTRUCTURE
  1 ****   7 GROUP 4 **** **** 0

# MOE 2024.06 (io_trps.svl 2023.06)
