@<TRIPOS>MOLECULE
NONAME
41 42 1 0 0 
SMALL
USER_CHARGES


@<TRIPOS>ATOM
  1 S       -1.8900     0.1270    -0.1940 S.3   1 <1>  -0.0800 
  2 C       -0.9730    -1.0190     0.7250 C.2   1 <1>   0.4420 
  3 C       -0.7100     1.3170     0.2450 C.2   1 <1>   0.1980 
  4 N        0.0720    -0.4910     1.2550 N.2   1 <1>  -0.3380 
  5 N       -1.4710    -2.3010     0.7580 N.am  1 <1>  -0.4940 
  6 N        0.2150     0.8410     0.9780 N.2   1 <1>  -0.3380 
  7 C       -0.8840     2.7510    -0.2530 C.3   1 <1>   0.3800 
  8 C       -1.0530    -3.4300     1.4150 C.2   1 <1>   0.5440 
  9 O       -2.1320     3.2630     0.1160 O.3   1 <1>  -0.5600 
 10 C       -0.7940     2.8510    -1.7750 C.3   1 <1>  -0.2400 
 11 O       -0.0840    -3.3530     2.1430 O.2   1 <1>  -0.5700 
 12 C       -1.7470    -4.7030     1.2450 C.ar  1 <1>   0.0860 
 13 C       -2.2890     3.5030     1.4820 C.3   1 <1>   0.0400 
 14 C       -2.9780    -4.8640     0.5730 C.ar  1 <1>   0.0830 
 15 C       -1.1670    -5.8600     1.7790 C.ar  1 <1>  -0.1500 
 16 O       -3.5870    -3.7730     0.0390 O.3   1 <1>  -0.3630 
 17 C       -3.5630    -6.1250     0.4600 C.ar  1 <1>  -0.1500 
 18 C       -1.7520    -7.1050     1.6650 C.ar  1 <1>  -0.1500 
 19 C       -4.8410    -3.8090    -0.6060 C.3   1 <1>   0.1200 
 20 C       -2.9550    -7.2390     1.0020 C.ar  1 <1>  -0.1500 
 21 C       -5.1870    -2.3840    -1.0400 C.3   1 <1>  -0.1600 
 22 C       -6.5440    -2.3320    -1.7490 C.3   1 <1>  -0.2400 
 23 H       -2.3300    -2.4460     0.2260 H     1 <1>   0.3700 
 24 H       -0.1220     3.3730     0.1850 H     1 <1>   0.0800 
 25 H       -1.5830     2.2860    -2.2360 H     1 <1>   0.0800 
 26 H        0.1510     2.4630    -2.1090 H     1 <1>   0.0800 
 27 H       -0.8700     3.8790    -2.0770 H     1 <1>   0.0800 
 28 H       -3.2650     3.9270     1.6370 H     1 <1>   0.0800 
 29 H       -1.5370     4.1990     1.8130 H     1 <1>   0.0800 
 30 H       -2.2100     2.5760     2.0250 H     1 <1>   0.0800 
 31 H       -0.2280    -5.7820     2.3020 H     1 <1>   0.1500 
 32 H       -4.4980    -6.2680    -0.0470 H     1 <1>   0.1500 
 33 H       -1.2710    -7.9690     2.0910 H     1 <1>   0.1500 
 34 H       -5.5730    -4.1830     0.0900 H     1 <1>   0.0800 
 35 H       -4.7690    -4.4590    -1.4610 H     1 <1>   0.0800 
 36 H       -3.4140    -8.2090     0.9110 H     1 <1>   0.1500 
 37 H       -4.4270    -2.0200    -1.7090 H     1 <1>   0.0800 
 38 H       -5.2200    -1.7450    -0.1730 H     1 <1>   0.0800 
 39 H       -6.5340    -2.9490    -2.6310 H     1 <1>   0.0800 
 40 H       -6.7660    -1.3220    -2.0450 H     1 <1>   0.0800 
 41 H       -7.3270    -2.6740    -1.0940 H     1 <1>   0.0800 
@<TRIPOS>BOND
  1   1   2  1   
  2   1   3  1   
  3   2   4  2   
  4   2   5  1   
  5   3   6  2   
  6   3   7  1   
  7   4   6  1   
  8   5   8  am  
  9   5  23  1   
 10   7   9  1   
 11   7  10  1   
 12   7  24  1   
 13   8  11  2   
 14   8  12  1   
 15   9  13  1   
 16  10  25  1   
 17  10  26  1   
 18  10  27  1   
 19  12  14  ar  
 20  12  15  ar  
 21  13  28  1   
 22  13  29  1   
 23  13  30  1   
 24  14  16  1   
 25  14  17  ar  
 26  15  18  ar  
 27  15  31  1   
 28  16  19  1   
 29  17  20  ar  
 30  17  32  1   
 31  18  20  ar  
 32  18  33  1   
 33  19  21  1   
 34  19  34  1   
 35  19  35  1   
 36  20  36  1   
 37  21  22  1   
 38  21  37  1   
 39  21  38  1   
 40  22  39  1   
 41  22  40  1   
 42  22  41  1   
@<TRIPOS>SUBSTRUCTURE
  1 ****   5 GROUP 4 **** **** 0

# MOE 2024.06 (io_trps.svl 2023.06)
