@<TRIPOS>MOLECULE
NONAME
45 47 1 0 0 
SMALL
USER_CHARGES


@<TRIPOS>ATOM
  1 O       -0.2480     0.5390    -0.8550 O.2   1 <1>  -0.5700 
  2 C       -0.1860     1.7180    -0.5620 C.2   1 <1>   0.5440 
  3 N       -1.3580     2.4350    -0.4330 N.am  1 <1>  -0.6600 
  4 C        1.1110     2.3340    -0.3490 C.ar  1 <1>   0.0860 
  5 C       -1.4210     3.7480     0.2740 C.3   1 <1>   0.1400 
  6 C       -2.6540     1.8380    -0.8690 C.3   1 <1>   0.1400 
  7 C        2.0220     1.7900     0.5520 C.ar  1 <1>  -0.1500 
  8 C        1.4910     3.4880    -1.0380 C.ar  1 <1>  -0.1500 
  9 C       -2.7630     3.8820     0.9920 C.3   1 <1>  -0.1600 
 10 C       -3.6690     2.9370    -1.1950 C.3   1 <1>  -0.1600 
 11 C        3.2500     2.3850     0.7680 C.ar  1 <1>   0.0830 
 12 C        2.7220     4.0850    -0.8250 C.ar  1 <1>  -0.1500 
 13 C       -3.9370     3.9000    -0.0100 C.3   1 <1>   0.2800 
 14 O        4.0980     1.8360     1.6500 O.3   1 <1>  -0.5320 
 15 C        3.6080     3.5350     0.0840 C.ar  1 <1>  -0.1500 
 16 O       -4.0010     5.1800    -0.5940 O.3   1 <1>  -0.5600 
 17 C       -5.2760     3.5650     0.6980 C.3   1 <1>  -0.1600 
 18 C       -4.6490     6.2000     0.1120 C.3   1 <1>   0.1200 
 19 C       -6.4530     4.3860     0.1620 C.3   1 <1>   0.2800 
 20 C       -6.1410     5.8790     0.3000 C.3   1 <1>  -0.1600 
 21 O       -6.5790     4.1260    -1.1770 O.3   1 <1>  -0.6800 
 22 C       -7.7800     4.0060     0.8110 C.3   1 <1>  -0.2400 
 23 H       -1.3110     4.5450    -0.4420 H     1 <1>   0.0800 
 24 H       -0.6230     3.8170     0.9930 H     1 <1>   0.0800 
 25 H       -3.0300     1.2050    -0.0830 H     1 <1>   0.0800 
 26 H       -2.4930     1.2270    -1.7410 H     1 <1>   0.0800 
 27 H        1.7670     0.8920     1.0860 H     1 <1>   0.1500 
 28 H        0.8070     3.9140    -1.7510 H     1 <1>   0.1500 
 29 H       -2.7620     4.7670     1.5980 H     1 <1>   0.0800 
 30 H       -2.8630     3.0440     1.6580 H     1 <1>   0.0800 
 31 H       -4.5800     2.4670    -1.5180 H     1 <1>   0.0800 
 32 H       -3.2820     3.4880    -2.0340 H     1 <1>   0.0800 
 33 H        2.9900     4.9750    -1.3680 H     1 <1>   0.1500 
 34 H        4.9480     2.3060     1.7140 H     1 <1>   0.4500 
 35 H        4.5630     3.9990     0.2500 H     1 <1>   0.1500 
 36 H       -5.1810     3.7780     1.7470 H     1 <1>   0.0800 
 37 H       -5.4900     2.5140     0.6260 H     1 <1>   0.0800 
 38 H       -4.5310     7.1120    -0.4470 H     1 <1>   0.0800 
 39 H       -4.1650     6.3230     1.0640 H     1 <1>   0.0800 
 40 H       -6.7330     6.4450    -0.3980 H     1 <1>   0.0800 
 41 H       -6.4190     6.2140     1.2820 H     1 <1>   0.0800 
 42 H       -5.7530     4.4430    -1.6010 H     1 <1>   0.4000 
 43 H       -7.7420     4.1810     1.8710 H     1 <1>   0.0800 
 44 H       -7.9900     2.9650     0.6440 H     1 <1>   0.0800 
 45 H       -8.5780     4.5960     0.3960 H     1 <1>   0.0800 
@<TRIPOS>BOND
  1   1   2  2   
  2   2   3  am  
  3   2   4  1   
  4   3   5  1   
  5   3   6  1   
  6   4   7  ar  
  7   4   8  ar  
  8   5   9  1   
  9   5  23  1   
 10   5  24  1   
 11   6  10  1   
 12   6  25  1   
 13   6  26  1   
 14   7  11  ar  
 15   7  27  1   
 16   8  12  ar  
 17   8  28  1   
 18   9  13  1   
 19   9  29  1   
 20   9  30  1   
 21  10  13  1   
 22  10  31  1   
 23  10  32  1   
 24  11  14  1   
 25  11  15  ar  
 26  12  15  ar  
 27  12  33  1   
 28  13  16  1   
 29  13  17  1   
 30  14  34  1   
 31  15  35  1   
 32  16  18  1   
 33  17  19  1   
 34  17  36  1   
 35  17  37  1   
 36  18  20  1   
 37  18  38  1   
 38  18  39  1   
 39  19  20  1   
 40  19  21  1   
 41  19  22  1   
 42  20  40  1   
 43  20  41  1   
 44  21  42  1   
 45  22  43  1   
 46  22  44  1   
 47  22  45  1   
@<TRIPOS>SUBSTRUCTURE
  1 ****   5 GROUP 4 **** **** 0

# MOE 2024.06 (io_trps.svl 2023.06)
