@<TRIPOS>MOLECULE
NONAME
47 48 1 0 0 
SMALL
USER_CHARGES


@<TRIPOS>ATOM
  1 S       -0.4140     0.3110    -1.0380 S.3   1 <1>  -0.4600 
  2 C       -1.6450    -0.4230     0.0680 C.3   1 <1>   0.0700 
  3 C        0.8580     0.9050     0.1020 C.3   1 <1>   0.0700 
  4 C       -2.7340    -1.0510    -0.8000 C.3   1 <1>  -0.0990 
  5 C        1.9540     1.5600    -0.7330 C.3   1 <1>  -0.2400 
  6 C       -3.8540    -1.5970     0.0540 C.2   1 <1>   0.5690 
  7 O       -3.5950    -2.3240     0.9810 O.2   1 <1>  -0.5700 
  8 N       -5.1320    -1.2710    -0.2520 N.am  1 <1>  -0.7300 
  9 C       -6.3330    -1.6690     0.5260 C.3   1 <1>   0.2200 
 10 C       -6.7180    -3.1450     0.2680 C.3   1 <1>   0.2000 
 11 C       -7.4720    -0.7120     0.1560 C.3   1 <1>  -0.1600 
 12 O       -5.7540    -3.9870     0.8070 O.3   1 <1>  -0.6800 
 13 C       -8.0680    -3.5090     0.8970 C.3   1 <1>   0.1400 
 14 C       -8.7700    -1.1040     0.8620 C.3   1 <1>   0.1400 
 15 N       -9.1100    -2.5080     0.5100 N.am  1 <1>  -0.6600 
 16 C      -10.1810    -2.8080    -0.3090 C.2   1 <1>   0.5440 
 17 O      -10.6850    -1.9100    -0.9580 O.2   1 <1>  -0.5700 
 18 C      -10.7070    -4.1560    -0.4320 C.ar  1 <1>   0.0860 
 19 C      -10.9730    -4.7080    -1.6850 C.ar  1 <1>  -0.1500 
 20 C      -10.9750    -4.9440     0.6880 C.ar  1 <1>  -0.1500 
 21 C      -11.4660    -5.9940    -1.8170 C.ar  1 <1>  -0.1500 
 22 C      -11.4670    -6.2310     0.5640 C.ar  1 <1>  -0.1500 
 23 C      -11.7120    -6.7590    -0.6920 C.ar  1 <1>  -0.1500 
 24 H       -1.1470    -1.1620     0.6720 H     1 <1>   0.0800 
 25 H       -2.0340     0.3650     0.6890 H     1 <1>   0.0800 
 26 H        0.3940     1.6090     0.7710 H     1 <1>   0.0800 
 27 H        1.2290     0.0550     0.6480 H     1 <1>   0.0800 
 28 H       -3.1180    -0.3110    -1.4780 H     1 <1>   0.0800 
 29 H       -2.3130    -1.8570    -1.3730 H     1 <1>   0.0800 
 30 H        1.5490     2.3840    -1.2950 H     1 <1>   0.0800 
 31 H        2.3760     0.8450    -1.4160 H     1 <1>   0.0800 
 32 H        2.7340     1.9290    -0.0920 H     1 <1>   0.0800 
 33 H       -5.3220    -0.7120    -1.0850 H     1 <1>   0.3700 
 34 H       -6.1240    -1.5560     1.5770 H     1 <1>   0.0800 
 35 H       -6.7610    -3.3290    -0.7910 H     1 <1>   0.0800 
 36 H       -7.2100     0.2900     0.4450 H     1 <1>   0.0800 
 37 H       -7.6470    -0.7310    -0.9050 H     1 <1>   0.0800 
 38 H       -4.8850    -3.5070     0.8490 H     1 <1>   0.4000 
 39 H       -7.9750    -3.5160     1.9690 H     1 <1>   0.0800 
 40 H       -8.3420    -4.4950     0.5690 H     1 <1>   0.0800 
 41 H       -9.5630    -0.4370     0.5680 H     1 <1>   0.0800 
 42 H       -8.6530    -1.0270     1.9300 H     1 <1>   0.0800 
 43 H      -10.7890    -4.1110    -2.5620 H     1 <1>   0.1500 
 44 H      -10.7950    -4.5360     1.6670 H     1 <1>   0.1500 
 45 H      -11.6600    -6.3980    -2.7960 H     1 <1>   0.1500 
 46 H      -11.6630    -6.8220     1.4420 H     1 <1>   0.1500 
 47 H      -12.0950    -7.7600    -0.7920 H     1 <1>   0.1500 
@<TRIPOS>BOND
  1   1   2  1   
  2   1   3  1   
  3   2   4  1   
  4   2  24  1   
  5   2  25  1   
  6   3   5  1   
  7   3  26  1   
  8   3  27  1   
  9   4   6  1   
 10   4  28  1   
 11   4  29  1   
 12   5  30  1   
 13   5  31  1   
 14   5  32  1   
 15   6   7  2   
 16   6   8  am  
 17   8   9  1   
 18   8  33  1   
 19   9  10  1   
 20   9  11  1   
 21   9  34  1   
 22  10  12  1   
 23  10  13  1   
 24  10  35  1   
 25  11  14  1   
 26  11  36  1   
 27  11  37  1   
 28  12  38  1   
 29  13  15  1   
 30  13  39  1   
 31  13  40  1   
 32  14  15  1   
 33  14  41  1   
 34  14  42  1   
 35  15  16  am  
 36  16  17  2   
 37  16  18  1   
 38  18  19  ar  
 39  18  20  ar  
 40  19  21  ar  
 41  19  43  1   
 42  20  22  ar  
 43  20  44  1   
 44  21  23  ar  
 45  21  45  1   
 46  22  23  ar  
 47  22  46  1   
 48  23  47  1   
@<TRIPOS>SUBSTRUCTURE
  1 ****  10 GROUP 4 **** **** 0

# MOE 2024.06 (io_trps.svl 2023.06)
