@<TRIPOS>MOLECULE
NONAME
58 61 1 0 0 
SMALL
USER_CHARGES


@<TRIPOS>ATOM
  1 O       -2.5290     0.9960    -1.4970 O.2   1 <1>  -0.5700 
  2 C       -2.3780     1.2370    -0.3250 C.2   1 <1>   0.5690 
  3 N       -2.3890     0.2610     0.6130 N.am  1 <1>  -0.7300 
  4 C       -2.1720     2.6690     0.1140 C.3   1 <1>  -0.0990 
  5 C       -2.6000    -1.1730     0.3180 C.3   1 <1>   0.2200 
  6 C       -0.7120     3.0970    -0.0700 C.3   1 <1>  -0.0160 
  7 C       -4.0730    -1.5010     0.4860 C.3   1 <1>  -0.0800 
  8 C       -1.9640    -2.0280     1.4060 C.3   1 <1>   0.1200 
  9 C       -0.5200     4.5330     0.3860 C.ar  1 <1>  -0.1440 
 10 C       -4.1790    -1.7810     1.9900 C.3   1 <1>   0.1200 
 11 C       -4.4800    -2.7180    -0.3680 C.3   1 <1>  -0.0160 
 12 O       -2.8900    -2.0710     2.4500 O.3   1 <1>  -0.5600 
 13 C       -0.7640     5.5810    -0.4870 C.ar  1 <1>  -0.1500 
 14 C       -0.1020     4.8090     1.6780 C.ar  1 <1>  -0.1500 
 15 C       -5.9820    -2.9740    -0.2950 C.ar  1 <1>  -0.1440 
 16 C       -0.5940     6.9020    -0.0770 C.ar  1 <1>   0.0820 
 17 C        0.0680     6.1180     2.0920 C.ar  1 <1>  -0.1500 
 18 C       -6.9200    -2.1710    -0.9860 C.ar  1 <1>   0.0000 
 19 C       -6.4660    -4.0050     0.4560 C.ar  1 <1>  -0.1500 
 20 O       -0.8210     7.9640    -0.8970 O.3   1 <1>  -0.3630 
 21 C       -0.1750     7.1690     1.2230 C.ar  1 <1>  -0.1440 
 22 C       -8.2930    -2.4840    -0.8320 C.ar  1 <1>   0.3100 
 23 C       -6.5800    -1.0800    -1.8210 C.ar  1 <1>  -0.1500 
 24 C       -7.8450    -4.2330     0.5350 C.ar  1 <1>   0.1600 
 25 C       -1.2300     7.7920    -2.2360 C.3   1 <1>   0.0400 
 26 C        0.0190     8.6030     1.6950 C.3   1 <1>  -0.0970 
 27 N       -8.7380    -3.5160    -0.0700 N.ar  1 <1>  -0.6200 
 28 C       -9.2490    -1.6990    -1.4970 C.ar  1 <1>  -0.1500 
 29 C       -7.5370    -0.3360    -2.4560 C.ar  1 <1>  -0.1500 
 30 C       -8.8890    -0.6450    -2.2920 C.ar  1 <1>  -0.1500 
 31 H       -2.3360     0.4850     1.6090 H     1 <1>   0.3700 
 32 H       -2.8090     3.3030    -0.4770 H     1 <1>   0.0800 
 33 H       -2.4580     2.7800     1.1430 H     1 <1>   0.0800 
 34 H       -2.2200    -1.4090    -0.6630 H     1 <1>   0.0800 
 35 H       -0.4380     3.0050    -1.1080 H     1 <1>   0.0800 
 36 H       -0.0680     2.4450     0.4940 H     1 <1>   0.0800 
 37 H       -4.6870    -0.6610     0.2160 H     1 <1>   0.0800 
 38 H       -1.0330    -1.6250     1.7630 H     1 <1>   0.0800 
 39 H       -1.8160    -3.0360     1.0600 H     1 <1>   0.0800 
 40 H       -4.8260    -2.6090     2.2190 H     1 <1>   0.0800 
 41 H       -4.5210    -0.9060     2.5150 H     1 <1>   0.0800 
 42 H       -3.9480    -3.5910    -0.0340 H     1 <1>   0.0800 
 43 H       -4.2020    -2.5570    -1.3950 H     1 <1>   0.0800 
 44 H       -1.0880     5.3520    -1.4830 H     1 <1>   0.1500 
 45 H        0.0930     4.0090     2.3690 H     1 <1>   0.1500 
 46 H        0.3940     6.3140     3.0980 H     1 <1>   0.1500 
 47 H       -5.8140    -4.6610     1.0020 H     1 <1>   0.1500 
 48 H       -5.5470    -0.8230    -1.9680 H     1 <1>   0.1500 
 49 H       -8.1850    -5.0570     1.1390 H     1 <1>   0.1500 
 50 H       -1.3340     8.7650    -2.6800 H     1 <1>   0.0800 
 51 H       -2.1760     7.2810    -2.2490 H     1 <1>   0.0800 
 52 H       -0.4780     7.2290    -2.7600 H     1 <1>   0.0800 
 53 H        0.3440     8.6370     2.7190 H     1 <1>   0.0800 
 54 H       -0.9080     9.1410     1.6100 H     1 <1>   0.0800 
 55 H        0.7570     9.0900     1.0840 H     1 <1>   0.0800 
 56 H      -10.2820    -1.9570    -1.3580 H     1 <1>   0.1500 
 57 H       -7.2620     0.4930    -3.0870 H     1 <1>   0.1500 
 58 H       -9.6320    -0.0520    -2.7960 H     1 <1>   0.1500 
@<TRIPOS>BOND
  1   1   2  2   
  2   2   3  am  
  3   2   4  1   
  4   3   5  1   
  5   3  31  1   
  6   4   6  1   
  7   4  32  1   
  8   4  33  1   
  9   5   7  1   
 10   5   8  1   
 11   5  34  1   
 12   6   9  1   
 13   6  35  1   
 14   6  36  1   
 15   7  10  1   
 16   7  11  1   
 17   7  37  1   
 18   8  12  1   
 19   8  38  1   
 20   8  39  1   
 21   9  13  ar  
 22   9  14  ar  
 23  10  12  1   
 24  10  40  1   
 25  10  41  1   
 26  11  15  1   
 27  11  42  1   
 28  11  43  1   
 29  13  16  ar  
 30  13  44  1   
 31  14  17  ar  
 32  14  45  1   
 33  15  18  ar  
 34  15  19  ar  
 35  16  20  1   
 36  16  21  ar  
 37  17  21  ar  
 38  17  46  1   
 39  18  22  ar  
 40  18  23  ar  
 41  19  24  ar  
 42  19  47  1   
 43  20  25  1   
 44  21  26  1   
 45  22  27  ar  
 46  22  28  ar  
 47  23  29  ar  
 48  23  48  1   
 49  24  27  ar  
 50  24  49  1   
 51  25  50  1   
 52  25  51  1   
 53  25  52  1   
 54  26  53  1   
 55  26  54  1   
 56  26  55  1   
 57  28  30  ar  
 58  28  56  1   
 59  29  30  ar  
 60  29  57  1   
 61  30  58  1   
@<TRIPOS>SUBSTRUCTURE
  1 ****   2 GROUP 4 **** **** 0

# MOE 2024.06 (io_trps.svl 2023.06)
