@<TRIPOS>MOLECULE
NONAME
47 50 1 0 0 
SMALL
USER_CHARGES


@<TRIPOS>ATOM
  1 CL      -1.0280     0.0790    -2.3680 Cl    1 <1>  -0.1400 
  2 C       -2.3680     0.3890    -1.2930 C.2   1 <1>   0.1400 
  3 C       -3.1320    -0.6400    -0.8180 C.2   1 <1>   0.2290 
  4 C       -2.6330     1.7240    -0.9310 C.2   1 <1>  -0.1500 
  5 N       -4.1930    -0.3640     0.0250 N.pl3 1 <1>  -0.6290 
  6 C       -3.6800     1.9740    -0.0800 C.2   1 <1>  -0.1410 
  7 C       -5.1120    -1.2090     0.6630 C.2   1 <1>   0.2770 
  8 C       -4.4570     0.9050     0.4040 C.cat 1 <1>   0.7910 
  9 C       -5.8960    -0.3990     1.4270 C.2   1 <1>   0.1820 
 10 C       -5.1560    -2.6530     0.5130 C.2   1 <1>   0.7030 
 11 N       -5.5000     0.8920     1.2480 N.pl3 1 <1>  -0.7000 
 12 C       -7.0270    -0.7310     2.3850 C.3   1 <1>  -0.0720 
 13 O       -4.1160    -3.2840     0.5230 O.2   1 <1>  -0.5700 
 14 N       -6.3390    -3.3390     0.3340 N.am  1 <1>  -0.6600 
 15 C       -7.5230    -2.7950    -0.3870 C.3   1 <1>   0.1400 
 16 C       -6.3880    -4.8300     0.3320 C.3   1 <1>   0.1400 
 17 C       -8.1640    -4.0040    -1.0660 C.3   1 <1>   0.2000 
 18 C       -7.7760    -5.1940    -0.1980 C.3   1 <1>  -0.0800 
 19 O       -9.5400    -3.8710    -1.1250 O.3   1 <1>  -0.6800 
 20 C       -7.8160    -6.5360    -0.9460 C.3   1 <1>   0.0210 
 21 C       -7.3220    -7.6640    -0.0610 C.2   1 <1>   0.1080 
 22 N       -7.8450    -7.9310     1.0950 N.2   1 <1>  -0.7070 
 23 C       -6.2680    -8.5170    -0.3710 C.2   1 <1>  -0.1500 
 24 N       -7.1350    -8.9790     1.5560 N.pl3 1 <1>   0.3000 
 25 C       -6.1710    -9.3490     0.6860 C.2   1 <1>  -0.3320 
 26 C       -5.2030   -10.4930     0.9230 C.3   1 <1>  -0.0600 
 27 H       -2.9260    -1.6660    -1.0840 H     1 <1>   0.1500 
 28 H       -2.0080     2.5090    -1.3280 H     1 <1>   0.1500 
 29 H       -3.9220     2.9720     0.2320 H     1 <1>   0.1500 
 30 H       -5.8930     1.7240     1.6960 H     1 <1>   0.4500 
 31 H       -7.1340    -1.7950     2.5020 H     1 <1>   0.0800 
 32 H       -7.9550    -0.3280     2.0190 H     1 <1>   0.0800 
 33 H       -6.8240    -0.3100     3.3530 H     1 <1>   0.0800 
 34 H       -8.2100    -2.3670     0.3220 H     1 <1>   0.0800 
 35 H       -7.2330    -2.0630    -1.1200 H     1 <1>   0.0800 
 36 H       -5.6200    -5.2130    -0.3190 H     1 <1>   0.0800 
 37 H       -6.2360    -5.2240     1.3230 H     1 <1>   0.0800 
 38 H       -7.7870    -4.1020    -2.0700 H     1 <1>   0.0800 
 39 H       -8.4320    -5.2500     0.6540 H     1 <1>   0.0800 
 40 H       -9.9560    -4.1980    -0.3030 H     1 <1>   0.4000 
 41 H       -7.2100    -6.4870    -1.8320 H     1 <1>   0.0800 
 42 H       -8.8260    -6.7530    -1.2430 H     1 <1>   0.0800 
 43 H       -5.6750    -8.4970    -1.2680 H     1 <1>   0.1500 
 44 H       -7.3320    -9.4180     2.4630 H     1 <1>   0.2700 
 45 H       -4.5330   -10.5900     0.0870 H     1 <1>   0.0800 
 46 H       -5.7410   -11.4180     1.0380 H     1 <1>   0.0800 
 47 H       -4.6210   -10.3120     1.8080 H     1 <1>   0.0800 
@<TRIPOS>BOND
  1   1   2  1   
  2   2   3  2   
  3   2   4  1   
  4   3   5  1   
  5   3  27  1   
  6   4   6  2   
  7   4  28  1   
  8   5   7  1   
  9   5   8  ar  
 10   6   8  1   
 11   6  29  1   
 12   7   9  2   
 13   7  10  1   
 14   8  11  ar  
 15   9  11  1   
 16   9  12  1   
 17  10  13  2   
 18  10  14  am  
 19  11  30  1   
 20  12  31  1   
 21  12  32  1   
 22  12  33  1   
 23  14  15  1   
 24  14  16  1   
 25  15  17  1   
 26  15  34  1   
 27  15  35  1   
 28  16  18  1   
 29  16  36  1   
 30  16  37  1   
 31  17  18  1   
 32  17  19  1   
 33  17  38  1   
 34  18  20  1   
 35  18  39  1   
 36  19  40  1   
 37  20  21  1   
 38  20  41  1   
 39  20  42  1   
 40  21  22  2   
 41  21  23  1   
 42  22  24  1   
 43  23  25  2   
 44  23  43  1   
 45  24  25  1   
 46  24  44  1   
 47  25  26  1   
 48  26  45  1   
 49  26  46  1   
 50  26  47  1   
@<TRIPOS>SUBSTRUCTURE
  1 ****  14 GROUP 4 **** **** 0

# MOE 2024.06 (io_trps.svl 2023.06)
