@<TRIPOS>MOLECULE
NONAME
40 41 1 0 0 
SMALL
USER_CHARGES


@<TRIPOS>ATOM
  1 O       -0.3830     0.9530     0.9810 O.2   1 <1>  -0.5700 
  2 C       -0.2300     2.0720     0.5470 C.2   1 <1>   0.5690 
  3 N       -1.2720     2.9620     0.4710 N.am  1 <1>  -0.6600 
  4 C        1.1550     2.4800     0.0740 C.3   1 <1>  -0.0990 
  5 C       -2.6510     2.5740     0.8940 C.3   1 <1>   0.1400 
  6 C       -1.1930     4.3490    -0.0650 C.3   1 <1>   0.1400 
  7 C        2.1850     1.3620     0.2240 C.3   1 <1>   0.1200 
  8 C       -3.6420     2.6620    -0.2950 C.3   1 <1>   0.0000 
  9 C       -2.1430     4.4950    -1.2590 C.3   1 <1>  -0.1600 
 10 O        3.4060     1.8410    -0.2380 O.3   1 <1>  -0.5600 
 11 C       -5.0800     2.2830     0.1160 C.3   1 <1>   0.2000 
 12 C       -3.5820     4.0820    -0.9000 C.3   1 <1>  -0.1600 
 13 C       -3.3240     1.5750    -1.3380 C.3   1 <1>  -0.1600 
 14 C        4.4370     0.9120    -0.1560 C.3   1 <1>   0.0400 
 15 O       -5.4090     2.7070     1.3930 O.3   1 <1>  -0.6800 
 16 C       -5.1840     0.7590     0.0250 C.3   1 <1>  -0.1600 
 17 C       -3.9790     0.2980    -0.8050 C.3   1 <1>  -0.1600 
 18 H        1.0960     2.7540    -0.9620 H     1 <1>   0.0800 
 19 H        1.4800     3.3240     0.6520 H     1 <1>   0.0800 
 20 H       -2.6560     1.5800     1.3050 H     1 <1>   0.0800 
 21 H       -2.9590     3.2480     1.6730 H     1 <1>   0.0800 
 22 H       -1.4820     5.0370     0.7120 H     1 <1>   0.0800 
 23 H       -0.1930     4.6000    -0.3700 H     1 <1>   0.0800 
 24 H        1.9000     0.5050    -0.3630 H     1 <1>   0.0800 
 25 H        2.2880     1.0790     1.2580 H     1 <1>   0.0800 
 26 H       -2.1380     5.5180    -1.5910 H     1 <1>   0.0800 
 27 H       -1.7790     3.8890    -2.0700 H     1 <1>   0.0800 
 28 H       -5.7820     2.7300    -0.5680 H     1 <1>   0.0800 
 29 H       -4.2030     4.1390    -1.7770 H     1 <1>   0.0800 
 30 H       -3.9750     4.7800    -0.1800 H     1 <1>   0.0800 
 31 H       -3.7800     1.8300    -2.2790 H     1 <1>   0.0800 
 32 H       -2.2680     1.4380    -1.4970 H     1 <1>   0.0800 
 33 H        5.3340     1.3720    -0.5330 H     1 <1>   0.0800 
 34 H        4.1900     0.0530    -0.7560 H     1 <1>   0.0800 
 35 H        4.5790     0.6290     0.8720 H     1 <1>   0.0800 
 36 H       -4.9330     2.1680     2.0520 H     1 <1>   0.4000 
 37 H       -5.1550     0.2950     0.9960 H     1 <1>   0.0800 
 38 H       -6.1010     0.4910    -0.4690 H     1 <1>   0.0800 
 39 H       -3.2800    -0.2230    -0.1720 H     1 <1>   0.0800 
 40 H       -4.2710    -0.3570    -1.6080 H     1 <1>   0.0800 
@<TRIPOS>BOND
  1   1   2  2   
  2   2   3  am  
  3   2   4  1   
  4   3   5  1   
  5   3   6  1   
  6   4   7  1   
  7   4  18  1   
  8   4  19  1   
  9   5   8  1   
 10   5  20  1   
 11   5  21  1   
 12   6   9  1   
 13   6  22  1   
 14   6  23  1   
 15   7  10  1   
 16   7  24  1   
 17   7  25  1   
 18   8  11  1   
 19   8  12  1   
 20   8  13  1   
 21   9  12  1   
 22   9  26  1   
 23   9  27  1   
 24  10  14  1   
 25  11  15  1   
 26  11  16  1   
 27  11  28  1   
 28  12  29  1   
 29  12  30  1   
 30  13  17  1   
 31  13  31  1   
 32  13  32  1   
 33  14  33  1   
 34  14  34  1   
 35  14  35  1   
 36  15  36  1   
 37  16  17  1   
 38  16  37  1   
 39  16  38  1   
 40  17  39  1   
 41  17  40  1   
@<TRIPOS>SUBSTRUCTURE
  1 ****   3 GROUP 4 **** **** 0

# MOE 2024.06 (io_trps.svl 2023.06)
