@<TRIPOS>MOLECULE
NONAME
48 50 1 0 0 
SMALL
USER_CHARGES


@<TRIPOS>ATOM
  1 O        0.8080     1.1260     1.2060 O.co2 1 <1>  -0.9000 
  2 C       -0.1390     1.5240     0.5250 C.2   1 <1>   0.9060 
  3 O       -1.0500     0.8060     0.1150 O.co2 1 <1>  -0.9000 
  4 C       -0.1870     2.9720     0.1560 C.3   1 <1>  -0.1860 
  5 C       -0.2040     3.1030    -1.3670 C.3   1 <1>   0.2000 
  6 C        1.0180     3.6770     0.7430 C.3   1 <1>   0.3430 
  7 O       -1.5270     3.1170    -1.7360 O.3   1 <1>  -0.6800 
  8 C        0.4490     4.3930    -1.8710 C.3   1 <1>  -0.1600 
  9 N        0.9470     5.1450     0.4440 N.4   1 <1>  -0.9590 
 10 C        0.2630     5.5030    -0.8440 C.3   1 <1>   0.3430 
 11 C        0.3520     5.8820     1.5830 C.3   1 <1>   0.4860 
 12 C        0.5620     7.3700     1.3710 C.ar  1 <1>  -0.1430 
 13 C        1.8510     7.8800     1.2430 C.ar  1 <1>   0.0820 
 14 C       -0.5290     8.2240     1.2970 C.ar  1 <1>  -0.1500 
 15 O        2.8770     6.9910     1.3110 O.3   1 <1>  -0.3620 
 16 C        2.0350     9.2450     1.0440 C.ar  1 <1>  -0.1500 
 17 C       -0.3390     9.5790     1.0960 C.ar  1 <1>  -0.1500 
 18 C        4.2080     7.3130     0.9550 C.3   1 <1>   0.2000 
 19 C        0.9410    10.0880     0.9700 C.ar  1 <1>  -0.1500 
 20 C        4.3220     7.3840    -0.5670 C.3   1 <1>  -0.1600 
 21 C        5.0720     6.1100     1.3140 C.3   1 <1>  -0.1600 
 22 C        4.4300     5.9320    -1.0460 C.3   1 <1>  -0.1600 
 23 C        4.8830     5.1100     0.1690 C.3   1 <1>  -0.1600 
 24 H       -1.0750     3.3800     0.5980 H     1 <1>   0.0800 
 25 H        0.2560     2.2480    -1.8400 H     1 <1>   0.0800 
 26 H        1.9060     3.2500     0.3040 H     1 <1>   0.0800 
 27 H        1.0660     3.4980     1.8060 H     1 <1>   0.0800 
 28 H       -1.9200     2.2690    -1.4100 H     1 <1>   0.4000 
 29 H        1.4990     4.2290    -2.0290 H     1 <1>   0.0800 
 30 H        0.0190     4.6780    -2.8150 H     1 <1>   0.0800 
 31 H        1.9140     5.5110     0.4080 H     1 <1>   0.4500 
 32 H       -0.7940     5.6220    -0.6720 H     1 <1>   0.0800 
 33 H        0.6530     6.4350    -1.2210 H     1 <1>   0.0800 
 34 H       -0.6990     5.6560     1.6610 H     1 <1>   0.0800 
 35 H        0.8360     5.5880     2.5000 H     1 <1>   0.0800 
 36 H       -1.5330     7.8470     1.3960 H     1 <1>   0.1500 
 37 H        3.0150     9.6720     0.9460 H     1 <1>   0.1500 
 38 H       -1.1860    10.2440     1.0400 H     1 <1>   0.1500 
 39 H        4.5190     8.2050     1.4720 H     1 <1>   0.0800 
 40 H        1.0850    11.1440     0.8160 H     1 <1>   0.1500 
 41 H        3.5040     7.9110    -1.0260 H     1 <1>   0.0800 
 42 H        5.2360     7.8970    -0.8130 H     1 <1>   0.0800 
 43 H        6.1020     6.4230     1.3360 H     1 <1>   0.0800 
 44 H        4.8180     5.6970     2.2750 H     1 <1>   0.0800 
 45 H        3.4740     5.5820    -1.3890 H     1 <1>   0.0800 
 46 H        5.1370     5.8510    -1.8550 H     1 <1>   0.0800 
 47 H        5.7990     4.5810    -0.0330 H     1 <1>   0.0800 
 48 H        4.1240     4.3930     0.4300 H     1 <1>   0.0800 
@<TRIPOS>BOND
  1   1   2  ar  
  2   2   3  ar  
  3   2   4  1   
  4   4   5  1   
  5   4   6  1   
  6   4  24  1   
  7   5   7  1   
  8   5   8  1   
  9   5  25  1   
 10   6   9  1   
 11   6  26  1   
 12   6  27  1   
 13   7  28  1   
 14   8  10  1   
 15   8  29  1   
 16   8  30  1   
 17   9  10  1   
 18   9  11  1   
 19   9  31  1   
 20  10  32  1   
 21  10  33  1   
 22  11  12  1   
 23  11  34  1   
 24  11  35  1   
 25  12  13  ar  
 26  12  14  ar  
 27  13  15  1   
 28  13  16  ar  
 29  14  17  ar  
 30  14  36  1   
 31  15  18  1   
 32  16  19  ar  
 33  16  37  1   
 34  17  19  ar  
 35  17  38  1   
 36  18  20  1   
 37  18  21  1   
 38  18  39  1   
 39  19  40  1   
 40  20  22  1   
 41  20  41  1   
 42  20  42  1   
 43  21  23  1   
 44  21  43  1   
 45  21  44  1   
 46  22  23  1   
 47  22  45  1   
 48  22  46  1   
 49  23  47  1   
 50  23  48  1   
@<TRIPOS>SUBSTRUCTURE
  1 ****   9 GROUP 4 **** **** 0

# MOE 2024.06 (io_trps.svl 2023.06)
