@<TRIPOS>MOLECULE
NONAME
41 43 1 0 0 
SMALL
USER_CHARGES


@<TRIPOS>ATOM
  1 O       -0.4010     0.1730     0.2220 O.2   1 <1>  -0.5700 
  2 C       -1.4610     0.7340     0.0790 C.2   1 <1>   0.5690 
  3 N       -2.6140     0.0460    -0.1630 N.am  1 <1>  -0.6600 
  4 C       -1.5010     2.2480     0.1730 C.3   1 <1>  -0.0990 
  5 C       -3.9750     0.6190    -0.3100 C.3   1 <1>   0.1400 
  6 C       -2.6590    -1.4350    -0.2600 C.3   1 <1>   0.1400 
  7 C       -0.1060     2.8530     0.3780 C.3   1 <1>   0.0960 
  8 C       -4.8960    -0.5830    -0.5260 C.3   1 <1>   0.2000 
  9 C       -4.1250    -1.8010    -0.0190 C.3   1 <1>  -0.0800 
 10 N       -0.1960     4.3220     0.4590 N.pl3 1 <1>   0.0480 
 11 O       -6.0810    -0.4450     0.1800 O.3   1 <1>  -0.6800 
 12 C       -4.5680    -3.1070    -0.6990 C.3   1 <1>  -0.0170 
 13 C       -0.3800     5.0880     1.5350 C.2   1 <1>   0.0370 
 14 C       -0.1440     5.2160    -0.5290 C.2   1 <1>   0.0360 
 15 C       -3.8030    -4.3070    -0.1680 C.ar  1 <1>   0.1660 
 16 N       -0.4390     6.3370     1.2290 N.2   1 <1>  -0.3380 
 17 N       -0.2880     6.4190    -0.0950 N.2   1 <1>  -0.3380 
 18 N       -2.6180    -4.5370    -0.7130 N.ar  1 <1>  -0.6200 
 19 C       -4.3590    -5.0870     0.8360 C.ar  1 <1>  -0.1500 
 20 C       -1.9600    -5.5820    -0.2380 C.ar  1 <1>   0.1600 
 21 C       -3.6620    -6.1730     1.3210 C.ar  1 <1>  -0.1500 
 22 C       -2.4270    -6.4180     0.7610 C.ar  1 <1>  -0.1500 
 23 H       -1.9250     2.6330    -0.7360 H     1 <1>   0.0800 
 24 H       -2.1330     2.5180     0.9990 H     1 <1>   0.0800 
 25 H       -4.2410     1.1500     0.5880 H     1 <1>   0.0800 
 26 H       -4.0140     1.2780    -1.1600 H     1 <1>   0.0800 
 27 H       -2.3450    -1.7330    -1.2460 H     1 <1>   0.0800 
 28 H       -2.0110    -1.8950     0.4680 H     1 <1>   0.0800 
 29 H        0.5390     2.5860    -0.4410 H     1 <1>   0.0800 
 30 H        0.3310     2.4790     1.2880 H     1 <1>   0.0800 
 31 H       -5.1330    -0.6760    -1.5720 H     1 <1>   0.0800 
 32 H       -4.2550    -1.8940     1.0450 H     1 <1>   0.0800 
 33 H       -5.9090    -0.4410     1.1410 H     1 <1>   0.4000 
 34 H       -4.4160    -3.0400    -1.7620 H     1 <1>   0.0800 
 35 H       -5.6210    -3.2530    -0.5340 H     1 <1>   0.0800 
 36 H       -0.4680     4.6960     2.5320 H     1 <1>   0.1500 
 37 H       -0.0010     4.9500    -1.5610 H     1 <1>   0.1500 
 38 H       -5.3260    -4.8480     1.2370 H     1 <1>   0.1500 
 39 H       -0.9940    -5.7830    -0.6690 H     1 <1>   0.1500 
 40 H       -4.0630    -6.7990     2.1000 H     1 <1>   0.1500 
 41 H       -1.8310    -7.2480     1.0930 H     1 <1>   0.1500 
@<TRIPOS>BOND
  1   1   2  2   
  2   2   3  am  
  3   2   4  1   
  4   3   5  1   
  5   3   6  1   
  6   4   7  1   
  7   4  23  1   
  8   4  24  1   
  9   5   8  1   
 10   5  25  1   
 11   5  26  1   
 12   6   9  1   
 13   6  27  1   
 14   6  28  1   
 15   7  10  1   
 16   7  29  1   
 17   7  30  1   
 18   8   9  1   
 19   8  11  1   
 20   8  31  1   
 21   9  12  1   
 22   9  32  1   
 23  10  13  1   
 24  10  14  1   
 25  11  33  1   
 26  12  15  1   
 27  12  34  1   
 28  12  35  1   
 29  13  16  2   
 30  13  36  1   
 31  14  17  2   
 32  14  37  1   
 33  15  18  ar  
 34  15  19  ar  
 35  16  17  1   
 36  18  20  ar  
 37  19  21  ar  
 38  19  38  1   
 39  20  22  ar  
 40  20  39  1   
 41  21  22  ar  
 42  21  40  1   
 43  22  41  1   
@<TRIPOS>SUBSTRUCTURE
  1 ****   3 GROUP 4 **** **** 0

# MOE 2024.06 (io_trps.svl 2023.06)
