@<TRIPOS>MOLECULE
NONAME
47 49 1 0 0 
SMALL
USER_CHARGES


@<TRIPOS>ATOM
  1 F        1.4670    -0.0650     1.0640 F     1 <1>  -0.3400 
  2 C        1.5630    -0.5930    -0.1480 C.3   1 <1>   1.1640 
  3 F        0.3470    -1.0180    -0.4680 F     1 <1>  -0.3400 
  4 F        1.8400     0.4070    -0.9760 F     1 <1>  -0.3400 
  5 C        2.5890    -1.7390    -0.1960 C.ar  1 <1>  -0.1440 
  6 C        2.3490    -2.9130     0.5090 C.ar  1 <1>  -0.1500 
  7 C        3.7660    -1.6400    -0.9280 C.ar  1 <1>  -0.1500 
  8 C        3.2490    -3.9700     0.4820 C.ar  1 <1>  -0.1440 
  9 C        4.6720    -2.6840    -0.9480 C.ar  1 <1>  -0.1500 
 10 C        4.4290    -3.8510    -0.2440 C.ar  1 <1>  -0.1430 
 11 C        2.9070    -5.2330     1.2550 C.3   1 <1>   0.4870 
 12 C        5.4820    -4.9530    -0.2900 C.3   1 <1>  -0.0970 
 13 N        2.4310    -6.2620     0.2900 N.4   1 <1>  -0.9590 
 14 C        1.0790    -5.9010    -0.2450 C.3   1 <1>   0.3430 
 15 C        2.2930    -7.5910     0.9630 C.3   1 <1>   0.3430 
 16 C        0.0800    -6.7260     0.5700 C.3   1 <1>   0.2000 
 17 C        0.8300    -8.0330     0.8070 C.3   1 <1>  -0.0800 
 18 O       -0.1020    -6.1030     1.8010 O.3   1 <1>  -0.6800 
 19 C        0.6510    -9.0200    -0.3650 C.3   1 <1>  -0.0170 
 20 C        1.5970   -10.2020    -0.2310 C.ar  1 <1>  -0.1430 
 21 C        2.6300   -10.4170    -1.1230 C.ar  1 <1>  -0.1500 
 22 C        1.4750   -11.1210     0.7930 C.ar  1 <1>  -0.1500 
 23 C        3.4790   -11.4960    -0.9400 C.ar  1 <1>   0.1600 
 24 C        2.3800   -12.1660     0.8870 C.ar  1 <1>   0.1600 
 25 N        3.3830   -12.3650     0.0510 N.ar  1 <1>  -0.6200 
 26 H        1.4420    -2.9950     1.0880 H     1 <1>   0.1500 
 27 H        3.9930    -0.7470    -1.4880 H     1 <1>   0.1500 
 28 H        5.5780    -2.5700    -1.5200 H     1 <1>   0.1500 
 29 H        2.1410    -5.0270     1.9860 H     1 <1>   0.0800 
 30 H        3.7850    -5.5820     1.7720 H     1 <1>   0.0800 
 31 H        6.4080    -4.5740    -0.6860 H     1 <1>   0.0800 
 32 H        5.1590    -5.7600    -0.9230 H     1 <1>   0.0800 
 33 H        5.6870    -5.3300     0.6960 H     1 <1>   0.0800 
 34 H        3.1120    -6.2850    -0.4790 H     1 <1>   0.4500 
 35 H        0.8680    -4.8480    -0.1680 H     1 <1>   0.0800 
 36 H        1.0140    -6.1940    -1.2800 H     1 <1>   0.0800 
 37 H        2.9690    -8.3160     0.5380 H     1 <1>   0.0800 
 38 H        2.5150    -7.4930     2.0130 H     1 <1>   0.0800 
 39 H       -0.8760    -6.8350     0.0840 H     1 <1>   0.0800 
 40 H        0.4940    -8.5170     1.7080 H     1 <1>   0.0800 
 41 H       -0.8760    -6.4750     2.2770 H     1 <1>   0.4000 
 42 H        0.8280    -8.5310    -1.3080 H     1 <1>   0.0800 
 43 H       -0.3630    -9.3850    -0.3800 H     1 <1>   0.0800 
 44 H        2.7880    -9.7670    -1.9640 H     1 <1>   0.1500 
 45 H        0.6880   -11.0450     1.5210 H     1 <1>   0.1500 
 46 H        4.2790   -11.6540    -1.6450 H     1 <1>   0.1500 
 47 H        2.2720   -12.8750     1.6910 H     1 <1>   0.1500 
@<TRIPOS>BOND
  1   1   2  1   
  2   2   3  1   
  3   2   4  1   
  4   2   5  1   
  5   5   6  ar  
  6   5   7  ar  
  7   6   8  ar  
  8   6  26  1   
  9   7   9  ar  
 10   7  27  1   
 11   8  10  ar  
 12   8  11  1   
 13   9  10  ar  
 14   9  28  1   
 15  10  12  1   
 16  11  13  1   
 17  11  29  1   
 18  11  30  1   
 19  12  31  1   
 20  12  32  1   
 21  12  33  1   
 22  13  14  1   
 23  13  15  1   
 24  13  34  1   
 25  14  16  1   
 26  14  35  1   
 27  14  36  1   
 28  15  17  1   
 29  15  37  1   
 30  15  38  1   
 31  16  17  1   
 32  16  18  1   
 33  16  39  1   
 34  17  19  1   
 35  17  40  1   
 36  18  41  1   
 37  19  20  1   
 38  19  42  1   
 39  19  43  1   
 40  20  21  ar  
 41  20  22  ar  
 42  21  23  ar  
 43  21  44  1   
 44  22  24  ar  
 45  22  45  1   
 46  23  25  ar  
 47  23  46  1   
 48  24  25  ar  
 49  24  47  1   
@<TRIPOS>SUBSTRUCTURE
  1 ****  13 GROUP 4 **** **** 0

# MOE 2024.06 (io_trps.svl 2023.06)
