@<TRIPOS>MOLECULE
NONAME
44 45 1 0 0 
SMALL
USER_CHARGES


@<TRIPOS>ATOM
  1 S       -0.3640     0.5560    -0.8810 S.o2  1 <1>   1.3330 
  2 O       -0.0980     1.6000    -1.8450 O.2   1 <1>  -0.6500 
  3 O       -1.1340    -0.6060    -1.2450 O.2   1 <1>  -0.6500 
  4 N        1.1360     0.0300    -0.2830 N.am  1 <1>  -0.8490 
  5 C       -1.1230     1.3490     0.5460 C.3   1 <1>  -0.0550 
  6 C        2.0950    -0.1970    -1.3750 C.3   1 <1>   0.1160 
  7 C        1.0350    -1.2140     0.4990 C.3   1 <1>   0.1160 
  8 C       -0.6390     2.7810     0.8900 C.3   1 <1>  -0.0800 
  9 C       -1.0660     3.8350    -0.1460 C.3   1 <1>   0.2000 
 10 C        0.8900     2.9280     1.0250 C.3   1 <1>   0.3430 
 11 O       -1.6720     4.8870     0.5340 O.3   1 <1>  -0.6800 
 12 C        0.2430     4.3430    -0.7610 C.3   1 <1>   0.3430 
 13 N        1.2790     4.1690     0.3010 N.4   1 <1>  -0.9590 
 14 C        1.3250     5.3540     1.2050 C.3   1 <1>   0.4860 
 15 C        1.8730     6.5400     0.4300 C.ar  1 <1>  -0.1440 
 16 C        3.2300     6.6490     0.1620 C.ar  1 <1>  -0.1500 
 17 C        1.0110     7.5300    -0.0160 C.ar  1 <1>  -0.1500 
 18 C        3.7400     7.7270    -0.5550 C.ar  1 <1>   0.0730 
 19 C        1.5020     8.6080    -0.7300 C.ar  1 <1>  -0.1500 
 20 C        5.1460     7.8250    -0.8300 C.1   1 <1>   0.4840 
 21 C        2.8560     8.7030    -0.9980 C.ar  1 <1>  -0.1500 
 22 N        6.2650     7.8790    -1.0420 N.1   1 <1>  -0.5570 
 23 H       -2.1820     1.3940     0.3750 H     1 <1>   0.0800 
 24 H       -0.9840     0.7200     1.4040 H     1 <1>   0.0800 
 25 H        3.0410    -0.5290    -0.9810 H     1 <1>   0.0800 
 26 H        2.2620     0.7140    -1.9240 H     1 <1>   0.0800 
 27 H        1.7190    -0.9430    -2.0570 H     1 <1>   0.0800 
 28 H        1.9980    -1.4790     0.9020 H     1 <1>   0.0800 
 29 H        0.6860    -2.0250    -0.1210 H     1 <1>   0.0800 
 30 H        0.3490    -1.0940     1.3190 H     1 <1>   0.0800 
 31 H       -1.0730     3.0280     1.8440 H     1 <1>   0.0800 
 32 H       -1.7470     3.4760    -0.9020 H     1 <1>   0.0800 
 33 H        1.3890     2.0940     0.5670 H     1 <1>   0.0800 
 34 H        1.1860     2.9700     2.0610 H     1 <1>   0.0800 
 35 H       -2.6240     4.7070     0.6900 H     1 <1>   0.4000 
 36 H        0.1510     5.3660    -1.0870 H     1 <1>   0.0800 
 37 H        0.4980     3.7330    -1.6110 H     1 <1>   0.0800 
 38 H        2.2000     4.0690    -0.1430 H     1 <1>   0.4500 
 39 H        0.3390     5.5820     1.5760 H     1 <1>   0.0800 
 40 H        1.9670     5.1540     2.0460 H     1 <1>   0.0800 
 41 H        3.9170     5.8960     0.5120 H     1 <1>   0.1500 
 42 H       -0.0470     7.4740     0.1860 H     1 <1>   0.1500 
 43 H        0.8310     9.3770    -1.0770 H     1 <1>   0.1500 
 44 H        3.2280     9.5470    -1.5550 H     1 <1>   0.1500 
@<TRIPOS>BOND
  1   1   2  2   
  2   1   3  2   
  3   1   4  am  
  4   1   5  1   
  5   4   6  1   
  6   4   7  1   
  7   5   8  1   
  8   5  23  1   
  9   5  24  1   
 10   6  25  1   
 11   6  26  1   
 12   6  27  1   
 13   7  28  1   
 14   7  29  1   
 15   7  30  1   
 16   8   9  1   
 17   8  10  1   
 18   8  31  1   
 19   9  11  1   
 20   9  12  1   
 21   9  32  1   
 22  10  13  1   
 23  10  33  1   
 24  10  34  1   
 25  11  35  1   
 26  12  13  1   
 27  12  36  1   
 28  12  37  1   
 29  13  14  1   
 30  13  38  1   
 31  14  15  1   
 32  14  39  1   
 33  14  40  1   
 34  15  16  ar  
 35  15  17  ar  
 36  16  18  ar  
 37  16  41  1   
 38  17  19  ar  
 39  17  42  1   
 40  18  20  1   
 41  18  21  ar  
 42  19  21  ar  
 43  19  43  1   
 44  20  22  3   
 45  21  44  1   
@<TRIPOS>SUBSTRUCTURE
  1 ****  13 GROUP 4 **** **** 0

# MOE 2024.06 (io_trps.svl 2023.06)
