@<TRIPOS>MOLECULE
NONAME
45 47 1 0 0 
SMALL
USER_CHARGES


@<TRIPOS>ATOM
  1 F        1.8780     1.1420    -0.0510 F     1 <1>  -0.1900 
  2 C        2.3240    -0.0840     0.0540 C.ar  1 <1>   0.1900 
  3 C        1.5250    -1.1240    -0.3930 C.ar  1 <1>   0.1900 
  4 C        3.5790    -0.3160     0.6130 C.ar  1 <1>   0.0860 
  5 F        0.3590    -0.8550    -0.9250 F     1 <1>  -0.1900 
  6 C        1.9310    -2.4450    -0.2920 C.ar  1 <1>  -0.1440 
  7 C        4.4480     0.7490     1.0720 C.2   1 <1>   0.5440 
  8 C        3.9710    -1.6530     0.7230 C.ar  1 <1>  -0.1500 
  9 C        3.1710    -2.6950     0.2790 C.ar  1 <1>  -0.1500 
 10 C        1.0530    -3.5880    -0.7820 C.3   1 <1>  -0.0960 
 11 O        5.0670     0.6230     2.1100 O.2   1 <1>  -0.5700 
 12 N        4.6800     1.8890     0.3410 N.am  1 <1>  -0.6600 
 13 C        5.0870     3.1530     1.0650 C.3   1 <1>   0.2200 
 14 C        4.8300     1.8210    -1.1440 C.3   1 <1>   0.1400 
 15 C        4.5170     4.4170     0.4030 C.3   1 <1>   0.1200 
 16 C        6.6220     3.2470     1.2330 C.3   1 <1>   0.3430 
 17 C        5.8690     2.7980    -1.7270 C.3   1 <1>  -0.0800 
 18 O        5.3630     4.8890    -0.6020 O.3   1 <1>  -0.5600 
 19 N        7.3420     2.2970     0.3210 N.4   1 <1>  -0.9590 
 20 C        5.3170     4.2300    -1.8210 C.3   1 <1>   0.1200 
 21 C        7.2840     2.7530    -1.1060 C.3   1 <1>   0.3430 
 22 C        8.7950     2.2100     0.7610 C.3   1 <1>   0.2370 
 23 C        9.5820     3.5180     0.6270 C.2   1 <1>   0.9060 
 24 O        9.5600     4.3060     1.5750 O.co2 1 <1>  -0.9000 
 25 O       10.0920     3.7710    -0.4690 O.co2 1 <1>  -0.9000 
 26 H        4.9250    -1.8780     1.1720 H     1 <1>   0.1500 
 27 H        3.5190    -3.7100     0.3840 H     1 <1>   0.1500 
 28 H        1.5340    -4.5380    -0.6330 H     1 <1>   0.0800 
 29 H        0.8470    -3.4710    -1.8310 H     1 <1>   0.0800 
 30 H        0.1200    -3.5890    -0.2470 H     1 <1>   0.0800 
 31 H        4.6590     3.1160     2.0520 H     1 <1>   0.0800 
 32 H        5.1170     0.8190    -1.4160 H     1 <1>   0.0800 
 33 H        3.8720     2.0130    -1.5960 H     1 <1>   0.0800 
 34 H        4.4610     5.2000     1.1400 H     1 <1>   0.0800 
 35 H        3.5290     4.2520     0.0090 H     1 <1>   0.0800 
 36 H        6.8630     3.0020     2.2540 H     1 <1>   0.0800 
 37 H        6.9590     4.2580     1.0600 H     1 <1>   0.0800 
 38 H        5.9990     2.5020    -2.7520 H     1 <1>   0.0800 
 39 H        6.8600     1.3970     0.4350 H     1 <1>   0.4500 
 40 H        4.3030     4.2440    -2.1850 H     1 <1>   0.0800 
 41 H        5.9220     4.8050    -2.5010 H     1 <1>   0.0800 
 42 H        7.7340     3.7320    -1.1850 H     1 <1>   0.0800 
 43 H        7.8930     2.0860    -1.6950 H     1 <1>   0.0800 
 44 H        8.8450     1.9140     1.7930 H     1 <1>   0.0800 
 45 H        9.3090     1.4730     0.1720 H     1 <1>   0.0800 
@<TRIPOS>BOND
  1   1   2  1   
  2   2   3  ar  
  3   2   4  ar  
  4   3   5  1   
  5   3   6  ar  
  6   4   7  1   
  7   4   8  ar  
  8   6   9  ar  
  9   6  10  1   
 10   7  11  2   
 11   7  12  am  
 12   8   9  ar  
 13   8  26  1   
 14   9  27  1   
 15  10  28  1   
 16  10  29  1   
 17  10  30  1   
 18  12  13  1   
 19  12  14  1   
 20  13  15  1   
 21  13  16  1   
 22  13  31  1   
 23  14  17  1   
 24  14  32  1   
 25  14  33  1   
 26  15  18  1   
 27  15  34  1   
 28  15  35  1   
 29  16  19  1   
 30  16  36  1   
 31  16  37  1   
 32  17  20  1   
 33  17  21  1   
 34  17  38  1   
 35  18  20  1   
 36  19  21  1   
 37  19  22  1   
 38  19  39  1   
 39  20  40  1   
 40  20  41  1   
 41  21  42  1   
 42  21  43  1   
 43  22  23  1   
 44  22  44  1   
 45  22  45  1   
 46  23  24  ar  
 47  23  25  ar  
@<TRIPOS>SUBSTRUCTURE
  1 ****  12 GROUP 4 **** **** 0

# MOE 2024.06 (io_trps.svl 2023.06)
