@<TRIPOS>MOLECULE
NONAME
50 53 1 0 0 
SMALL
USER_CHARGES


@<TRIPOS>ATOM
  1 O        1.8530    -0.6970     1.5120 O.2   1 <1>  -0.5700 
  2 C        1.1860    -1.4990     0.8780 C.2   1 <1>   0.5440 
  3 N        0.1940    -0.9970     0.0560 N.am  1 <1>  -0.6600 
  4 C        1.4990    -2.9230     0.9870 C.ar  1 <1>   0.3960 
  5 C       -0.5660    -1.7880    -0.9390 C.3   1 <1>   0.1400 
  6 C       -0.0590     0.4500    -0.1170 C.3   1 <1>   0.1400 
  7 N        0.5270    -3.8480     1.0500 N.ar  1 <1>  -0.6200 
  8 C        2.8490    -3.2810     1.0270 C.ar  1 <1>   0.1600 
  9 C       -1.4370    -0.7750    -1.6740 C.3   1 <1>  -0.1600 
 10 C       -0.7290     0.5630    -1.4810 C.3   1 <1>  -0.1600 
 11 C        0.9730    -5.0900     1.1290 C.ar  1 <1>   0.4100 
 12 N        3.3210    -4.5180     1.1080 N.ar  1 <1>  -0.6200 
 13 N        0.0140    -6.0950     1.1690 N.pl3 1 <1>  -0.8380 
 14 C        2.3430    -5.3980     1.1590 C.ar  1 <1>   0.1600 
 15 C       -1.3000    -5.8430     1.8190 C.3   1 <1>   0.2090 
 16 C        0.0720    -7.1820     0.1530 C.3   1 <1>   0.2090 
 17 C       -2.3480    -5.4740     0.7650 C.3   1 <1>  -0.1600 
 18 C       -1.3290    -7.5150    -0.3770 C.3   1 <1>  -0.1600 
 19 C       -2.1990    -6.2510    -0.5720 C.3   1 <1>   0.3430 
 20 C       -1.4960    -5.3650    -1.5720 C.1   1 <1>   0.3570 
 21 C       -3.6010    -6.6800    -1.0740 C.ar  1 <1>  -0.1440 
 22 N       -0.9750    -4.7190    -2.3530 N.1   1 <1>  -0.5570 
 23 C       -4.3710    -7.5490    -0.3030 C.ar  1 <1>  -0.1500 
 24 C       -4.1450    -6.2350    -2.2800 C.ar  1 <1>  -0.1500 
 25 C       -5.6250    -7.9620    -0.7150 C.ar  1 <1>  -0.1500 
 26 C       -5.4000    -6.6460    -2.6930 C.ar  1 <1>  -0.1500 
 27 C       -6.1430    -7.5110    -1.9130 C.ar  1 <1>  -0.1500 
 28 H       -1.1720    -2.5350    -0.4560 H     1 <1>   0.0800 
 29 H        0.1200    -2.2630    -1.6200 H     1 <1>   0.0800 
 30 H        0.8570     1.0150    -0.0760 H     1 <1>   0.0800 
 31 H       -0.7240     0.7820     0.6620 H     1 <1>   0.0800 
 32 H        3.5770    -2.4890     0.9870 H     1 <1>   0.1500 
 33 H       -2.4060    -0.7470    -1.2080 H     1 <1>   0.0800 
 34 H       -1.5540    -1.0350    -2.7110 H     1 <1>   0.0800 
 35 H        0.0320     0.6850    -2.2320 H     1 <1>   0.0800 
 36 H       -1.4060     1.3980    -1.5260 H     1 <1>   0.0800 
 37 H        2.6140    -6.4340     1.2360 H     1 <1>   0.1500 
 38 H       -1.2130    -5.0520     2.5470 H     1 <1>   0.0800 
 39 H       -1.6010    -6.7340     2.3420 H     1 <1>   0.0800 
 40 H        0.5150    -8.0610     0.5920 H     1 <1>   0.0800 
 41 H        0.6980    -6.8670    -0.6670 H     1 <1>   0.0800 
 42 H       -2.2870    -4.4160     0.5830 H     1 <1>   0.0800 
 43 H       -3.3150    -5.6400     1.2010 H     1 <1>   0.0800 
 44 H       -1.7940    -8.1870     0.3190 H     1 <1>   0.0800 
 45 H       -1.2360    -8.0420    -1.3100 H     1 <1>   0.0800 
 46 H       -4.0060    -7.9190     0.6390 H     1 <1>   0.1500 
 47 H       -3.6170    -5.5600    -2.9310 H     1 <1>   0.1500 
 48 H       -6.2010    -8.6350    -0.1030 H     1 <1>   0.1500 
 49 H       -5.8000    -6.2900    -3.6270 H     1 <1>   0.1500 
 50 H       -7.1190    -7.8300    -2.2370 H     1 <1>   0.1500 
@<TRIPOS>BOND
  1   1   2  2   
  2   2   3  am  
  3   2   4  1   
  4   3   5  1   
  5   3   6  1   
  6   4   7  ar  
  7   4   8  ar  
  8   5   9  1   
  9   5  28  1   
 10   5  29  1   
 11   6  10  1   
 12   6  30  1   
 13   6  31  1   
 14   7  11  ar  
 15   8  12  ar  
 16   8  32  1   
 17   9  10  1   
 18   9  33  1   
 19   9  34  1   
 20  10  35  1   
 21  10  36  1   
 22  11  13  1   
 23  11  14  ar  
 24  12  14  ar  
 25  13  15  1   
 26  13  16  1   
 27  14  37  1   
 28  15  17  1   
 29  15  38  1   
 30  15  39  1   
 31  16  18  1   
 32  16  40  1   
 33  16  41  1   
 34  17  19  1   
 35  17  42  1   
 36  17  43  1   
 37  18  19  1   
 38  18  44  1   
 39  18  45  1   
 40  19  20  1   
 41  19  21  1   
 42  20  22  3   
 43  21  23  ar  
 44  21  24  ar  
 45  23  25  ar  
 46  23  46  1   
 47  24  26  ar  
 48  24  47  1   
 49  25  27  ar  
 50  25  48  1   
 51  26  27  ar  
 52  26  49  1   
 53  27  50  1   
@<TRIPOS>SUBSTRUCTURE
  1 ****  20 GROUP 4 **** **** 0

# MOE 2024.06 (io_trps.svl 2023.06)
