@<TRIPOS>MOLECULE
NONAME
46 48 1 0 0 
SMALL
USER_CHARGES


@<TRIPOS>ATOM
  1 O        0.3550     0.6770    -0.1160 O.3   1 <1>  -0.0190 
  2 N        1.2690    -0.1900    -0.4440 N.2   1 <1>  -0.4100 
  3 C        0.7630     1.9060    -0.2860 C.2   1 <1>  -0.0400 
  4 C        2.2840     0.4940    -0.8350 C.2   1 <1>   0.1080 
  5 C        2.0190     1.8580    -0.7580 C.2   1 <1>  -0.1500 
  6 C       -0.1800     3.0510     0.0490 C.3   1 <1>   0.0200 
  7 C        3.5850    -0.1090    -1.3140 C.3   1 <1>  -0.0590 
  8 C        0.5240     4.4190     0.0190 C.3   1 <1>  -0.0800 
  9 C       -0.3910     5.6300     0.1790 C.3   1 <1>   0.2000 
 10 C        1.5450     4.6020     1.1380 C.3   1 <1>   0.2090 
 11 O       -1.3590     5.3400     1.1520 O.3   1 <1>  -0.5600 
 12 C        0.5570     6.7380     0.6680 C.3   1 <1>   0.2090 
 13 N        1.7710     6.0660     1.2210 N.pl3 1 <1>  -0.8380 
 14 C       -2.4780     6.1700     1.1390 C.3   1 <1>   0.0400 
 15 C        2.9870     6.5260     0.7800 C.ar  1 <1>   0.4100 
 16 N        3.3150     6.2890    -0.4720 N.ar  1 <1>  -0.6200 
 17 C        3.8230     7.2100     1.6270 C.ar  1 <1>  -0.1500 
 18 C        4.4920     6.7520    -0.8480 C.ar  1 <1>   0.7030 
 19 C        5.0180     7.6420     1.1250 C.ar  1 <1>   0.3930 
 20 O        4.7970     6.4930    -2.1330 O.3   1 <1>  -0.3630 
 21 N        5.3810     7.4240    -0.1260 N.ar  1 <1>  -0.6200 
 22 O        5.8480     8.3140     1.9470 O.3   1 <1>  -0.3630 
 23 C        6.0050     6.9330    -2.7210 C.3   1 <1>   0.0400 
 24 C        7.1000     8.7900     1.4940 C.3   1 <1>   0.0400 
 25 H        2.6920     2.6510    -1.0280 H     1 <1>   0.1500 
 26 H       -0.9880     3.0460    -0.6600 H     1 <1>   0.0800 
 27 H       -0.5990     2.8800     1.0250 H     1 <1>   0.0800 
 28 H        4.4130     0.3750    -0.8300 H     1 <1>   0.0800 
 29 H        3.6720     0.0150    -2.3770 H     1 <1>   0.0800 
 30 H        3.6090    -1.1580    -1.0820 H     1 <1>   0.0800 
 31 H        1.0420     4.5260    -0.9180 H     1 <1>   0.0800 
 32 H       -0.8800     5.8850    -0.7460 H     1 <1>   0.0800 
 33 H        2.4610     4.0740     0.9340 H     1 <1>   0.0800 
 34 H        1.1410     4.2600     2.0760 H     1 <1>   0.0800 
 35 H        0.0940     7.3460     1.4240 H     1 <1>   0.0800 
 36 H        0.8400     7.3610    -0.1630 H     1 <1>   0.0800 
 37 H       -3.1380     5.8510     1.9270 H     1 <1>   0.0800 
 38 H       -2.9780     6.0790     0.1910 H     1 <1>   0.0800 
 39 H       -2.1760     7.1880     1.3130 H     1 <1>   0.0800 
 40 H        3.5400     7.3920     2.6430 H     1 <1>   0.1500 
 41 H        6.0170     6.6130    -3.7470 H     1 <1>   0.0800 
 42 H        6.8320     6.4970    -2.1880 H     1 <1>   0.0800 
 43 H        6.0470     8.0070    -2.6680 H     1 <1>   0.0800 
 44 H        7.5870     9.2910     2.3110 H     1 <1>   0.0800 
 45 H        6.9380     9.4770     0.6820 H     1 <1>   0.0800 
 46 H        7.6920     7.9540     1.1670 H     1 <1>   0.0800 
@<TRIPOS>BOND
  1   1   2  1   
  2   1   3  1   
  3   2   4  2   
  4   3   5  2   
  5   3   6  1   
  6   4   5  1   
  7   4   7  1   
  8   5  25  1   
  9   6   8  1   
 10   6  26  1   
 11   6  27  1   
 12   7  28  1   
 13   7  29  1   
 14   7  30  1   
 15   8   9  1   
 16   8  10  1   
 17   8  31  1   
 18   9  11  1   
 19   9  12  1   
 20   9  32  1   
 21  10  13  1   
 22  10  33  1   
 23  10  34  1   
 24  11  14  1   
 25  12  13  1   
 26  12  35  1   
 27  12  36  1   
 28  13  15  1   
 29  14  37  1   
 30  14  38  1   
 31  14  39  1   
 32  15  16  ar  
 33  15  17  ar  
 34  16  18  ar  
 35  17  19  ar  
 36  17  40  1   
 37  18  20  1   
 38  18  21  ar  
 39  19  21  ar  
 40  19  22  1   
 41  20  23  1   
 42  22  24  1   
 43  23  41  1   
 44  23  42  1   
 45  23  43  1   
 46  24  44  1   
 47  24  45  1   
 48  24  46  1   
@<TRIPOS>SUBSTRUCTURE
  1 ****  10 GROUP 4 **** **** 0

# MOE 2024.06 (io_trps.svl 2023.06)
