@<TRIPOS>MOLECULE
NONAME
50 51 1 0 0 
SMALL
USER_CHARGES


@<TRIPOS>ATOM
  1 CL      -0.0690    -1.6530     2.8640 Cl    1 <1>  -0.1770 
  2 C        1.2660    -1.4460     1.7590 C.ar  1 <1>   0.1770 
  3 C        2.5100    -1.1060     2.2590 C.ar  1 <1>  -0.1500 
  4 C        1.0560    -1.6210     0.4040 C.ar  1 <1>  -0.1500 
  5 C        3.5820    -0.9400     1.3920 C.ar  1 <1>  -0.1440 
  6 C        2.1180    -1.4560    -0.4660 C.ar  1 <1>  -0.1500 
  7 C        3.3750    -1.1300     0.0240 C.ar  1 <1>   0.0820 
  8 C        4.9400    -0.5450     1.9550 C.3   1 <1>   0.2840 
  9 O        4.3830    -0.9650    -0.8620 O.3   1 <1>  -0.3620 
 10 N        5.3950     0.6710     1.2680 N.am  1 <1>  -0.7300 
 11 C        5.2230    -2.0710    -1.1040 C.3   1 <1>   0.2000 
 12 C        6.0000     1.7350     1.8440 C.2   1 <1>   0.5690 
 13 C        6.6290    -1.5290    -1.3540 C.3   1 <1>  -0.2400 
 14 C        4.6940    -2.8300    -2.3210 C.3   1 <1>  -0.2400 
 15 O        6.2790     1.7490     3.0180 O.2   1 <1>  -0.5700 
 16 C        6.3340     2.9480     0.9810 C.3   1 <1>  -0.0190 
 17 C        5.0940     3.4910     0.2410 C.3   1 <1>  -0.1600 
 18 C        7.4870     2.6470    -0.0070 C.3   1 <1>  -0.1600 
 19 C        5.3940     4.8070    -0.5060 C.3   1 <1>   0.2000 
 20 C        7.5220     3.5900    -1.2260 C.3   1 <1>  -0.1600 
 21 O        4.5980     4.8430    -1.6660 O.3   1 <1>  -0.5600 
 22 C        6.8870     4.9460    -0.9080 C.3   1 <1>   0.2000 
 23 C        3.2710     5.2190    -1.4640 C.3   1 <1>   0.0400 
 24 O        6.9810     5.7360    -2.0360 O.3   1 <1>  -0.6800 
 25 H        2.6260    -0.9700     3.3190 H     1 <1>   0.1500 
 26 H        0.0770    -1.8780     0.0420 H     1 <1>   0.1500 
 27 H        1.9770    -1.5760    -1.5260 H     1 <1>   0.1500 
 28 H        5.6510    -1.3350     1.7880 H     1 <1>   0.0800 
 29 H        4.8770    -0.3620     3.0150 H     1 <1>   0.0800 
 30 H        5.1500     0.6800     0.2730 H     1 <1>   0.3700 
 31 H        5.2230    -2.7080    -0.2350 H     1 <1>   0.0800 
 32 H        6.6280    -0.8580    -2.1950 H     1 <1>   0.0800 
 33 H        7.3030    -2.3400    -1.5640 H     1 <1>   0.0800 
 34 H        6.9870    -1.0110    -0.4840 H     1 <1>   0.0800 
 35 H        4.6290    -2.1750    -3.1720 H     1 <1>   0.0800 
 36 H        3.7250    -3.2430    -2.1100 H     1 <1>   0.0800 
 37 H        5.3560    -3.6420    -2.5630 H     1 <1>   0.0800 
 38 H        6.6680     3.7200     1.6530 H     1 <1>   0.0800 
 39 H        4.3020     3.6580     0.9490 H     1 <1>   0.0800 
 40 H        4.7640     2.7500    -0.4670 H     1 <1>   0.0800 
 41 H        8.4170     2.7220     0.5300 H     1 <1>   0.0800 
 42 H        7.4120     1.6360    -0.3690 H     1 <1>   0.0800 
 43 H        5.1430     5.6520     0.1130 H     1 <1>   0.0800 
 44 H        6.9700     3.1380    -2.0330 H     1 <1>   0.0800 
 45 H        8.5400     3.7280    -1.5480 H     1 <1>   0.0800 
 46 H        7.4440     5.4250    -0.1210 H     1 <1>   0.0800 
 47 H        2.7770     5.2240    -2.4200 H     1 <1>   0.0800 
 48 H        3.2430     6.2070    -1.0380 H     1 <1>   0.0800 
 49 H        2.7890     4.5100    -0.8140 H     1 <1>   0.0800 
 50 H        6.1470     5.5830    -2.5360 H     1 <1>   0.4000 
@<TRIPOS>BOND
  1   1   2  1   
  2   2   3  ar  
  3   2   4  ar  
  4   3   5  ar  
  5   3  25  1   
  6   4   6  ar  
  7   4  26  1   
  8   5   7  ar  
  9   5   8  1   
 10   6   7  ar  
 11   6  27  1   
 12   7   9  1   
 13   8  10  1   
 14   8  28  1   
 15   8  29  1   
 16   9  11  1   
 17  10  12  am  
 18  10  30  1   
 19  11  13  1   
 20  11  14  1   
 21  11  31  1   
 22  12  15  2   
 23  12  16  1   
 24  13  32  1   
 25  13  33  1   
 26  13  34  1   
 27  14  35  1   
 28  14  36  1   
 29  14  37  1   
 30  16  17  1   
 31  16  18  1   
 32  16  38  1   
 33  17  19  1   
 34  17  39  1   
 35  17  40  1   
 36  18  20  1   
 37  18  41  1   
 38  18  42  1   
 39  19  21  1   
 40  19  22  1   
 41  19  43  1   
 42  20  22  1   
 43  20  44  1   
 44  20  45  1   
 45  21  23  1   
 46  22  24  1   
 47  22  46  1   
 48  23  47  1   
 49  23  48  1   
 50  23  49  1   
 51  24  50  1   
@<TRIPOS>SUBSTRUCTURE
  1 ****  10 GROUP 4 **** **** 0

# MOE 2024.06 (io_trps.svl 2023.06)
