@<TRIPOS>MOLECULE
NONAME
53 56 1 0 0 
SMALL
USER_CHARGES


@<TRIPOS>ATOM
  1 S       -0.4090     0.1440     1.0880 S.o2  1 <1>   1.4470 
  2 O       -0.1440    -1.1910     1.5880 O.2   1 <1>  -0.6500 
  3 O       -1.1090     1.0830     1.9330 O.2   1 <1>  -0.6500 
  4 N       -1.3300    -0.0710    -0.3310 N.am  1 <1>  -0.8490 
  5 C        1.1230     0.8930     0.4720 C.ar  1 <1>  -0.0090 
  6 C       -1.3120    -1.4380    -0.8730 C.3   1 <1>   0.1960 
  7 C       -2.6860     0.5010    -0.3040 C.3   1 <1>   0.1960 
  8 C        1.0810     1.9820    -0.3950 C.ar  1 <1>  -0.1500 
  9 C        2.3740     0.4000     0.8630 C.ar  1 <1>  -0.1500 
 10 C       -2.2510    -2.3930    -0.0770 C.3   1 <1>   0.4230 
 11 C       -3.6380    -0.3910     0.5080 C.3   1 <1>  -0.1600 
 12 C        2.2670     2.5280    -0.8450 C.ar  1 <1>   0.0830 
 13 C        3.5600     0.9550     0.4060 C.ar  1 <1>  -0.1500 
 14 N       -2.1480    -3.8580    -0.4800 N.4   1 <1>  -0.9590 
 15 C       -3.7080    -1.8530    -0.0140 C.3   1 <1>   0.0000 
 16 O        2.4430     3.5700    -1.6820 O.3   1 <1>  -0.2320 
 17 C        3.4920     2.0330    -0.4610 C.ar  1 <1>   0.1170 
 18 C       -3.3000    -4.6990    -0.0140 C.3   1 <1>   0.3430 
 19 C       -1.8770    -4.1200    -1.9320 C.3   1 <1>   0.2630 
 20 C       -4.5290    -2.7090     0.9950 C.3   1 <1>  -0.1600 
 21 C       -4.3630    -1.9010    -1.4240 C.3   1 <1>   0.1200 
 22 C        3.7600     3.7340    -1.8250 C.2   1 <1>   0.7800 
 23 N        4.4450     2.8030    -1.0900 N.am  1 <1>  -0.4770 
 24 C       -3.9390    -4.1110     1.2430 C.3   1 <1>  -0.1600 
 25 O       -5.5640    -1.2150    -1.4540 O.3   1 <1>  -0.6800 
 26 O        4.2410     4.6040    -2.5250 O.2   1 <1>  -0.5700 
 27 C        5.9130     2.6640    -0.9830 C.3   1 <1>   0.0600 
 28 H       -1.6150    -1.3910    -1.9030 H     1 <1>   0.0800 
 29 H       -0.3030    -1.8130    -0.8450 H     1 <1>   0.0800 
 30 H       -2.6650     1.4960     0.1120 H     1 <1>   0.0800 
 31 H       -3.0530     0.5950    -1.3130 H     1 <1>   0.0800 
 32 H        0.1430     2.4010    -0.7160 H     1 <1>   0.1500 
 33 H        2.4170    -0.4360     1.5420 H     1 <1>   0.1500 
 34 H       -1.9060    -2.3510     0.9420 H     1 <1>   0.0800 
 35 H       -3.3120    -0.3780     1.5340 H     1 <1>   0.0800 
 36 H       -4.6150     0.0610     0.5020 H     1 <1>   0.0800 
 37 H        4.5140     0.5660     0.7140 H     1 <1>   0.1500 
 38 H       -1.3280    -4.2000     0.0450 H     1 <1>   0.4500 
 39 H       -4.0510    -4.7480    -0.7860 H     1 <1>   0.0800 
 40 H       -2.9630    -5.7040     0.1840 H     1 <1>   0.0800 
 41 H       -2.6850    -3.7480    -2.5410 H     1 <1>   0.0800 
 42 H       -1.7780    -5.1800    -2.1060 H     1 <1>   0.0800 
 43 H       -0.9620    -3.6420    -2.2400 H     1 <1>   0.0800 
 44 H       -4.5900    -2.2140     1.9510 H     1 <1>   0.0800 
 45 H       -5.5440    -2.8130     0.6510 H     1 <1>   0.0800 
 46 H       -4.5640    -2.9120    -1.7320 H     1 <1>   0.0800 
 47 H       -3.7360    -1.4400    -2.1660 H     1 <1>   0.0800 
 48 H       -4.7210    -4.7670     1.5850 H     1 <1>   0.0800 
 49 H       -3.2010    -4.0690     2.0270 H     1 <1>   0.0800 
 50 H       -6.2290    -1.6010    -0.8500 H     1 <1>   0.4000 
 51 H        6.2100     1.6880    -1.3260 H     1 <1>   0.0800 
 52 H        6.2150     2.7920     0.0410 H     1 <1>   0.0800 
 53 H        6.3960     3.4110    -1.5890 H     1 <1>   0.0800 
@<TRIPOS>BOND
  1   1   2  2   
  2   1   3  2   
  3   1   4  am  
  4   1   5  1   
  5   4   6  1   
  6   4   7  1   
  7   5   8  ar  
  8   5   9  ar  
  9   6  10  1   
 10   6  28  1   
 11   6  29  1   
 12   7  11  1   
 13   7  30  1   
 14   7  31  1   
 15   8  12  ar  
 16   8  32  1   
 17   9  13  ar  
 18   9  33  1   
 19  10  14  1   
 20  10  15  1   
 21  10  34  1   
 22  11  15  1   
 23  11  35  1   
 24  11  36  1   
 25  12  16  1   
 26  12  17  ar  
 27  13  17  ar  
 28  13  37  1   
 29  14  18  1   
 30  14  19  1   
 31  14  38  1   
 32  15  20  1   
 33  15  21  1   
 34  16  22  1   
 35  17  23  1   
 36  18  24  1   
 37  18  39  1   
 38  18  40  1   
 39  19  41  1   
 40  19  42  1   
 41  19  43  1   
 42  20  24  1   
 43  20  44  1   
 44  20  45  1   
 45  21  25  1   
 46  21  46  1   
 47  21  47  1   
 48  22  23  am  
 49  22  26  2   
 50  23  27  1   
 51  24  48  1   
 52  24  49  1   
 53  25  50  1   
 54  27  51  1   
 55  27  52  1   
 56  27  53  1   
@<TRIPOS>SUBSTRUCTURE
  1 ****   4 GROUP 4 **** **** 0

# MOE 2024.06 (io_trps.svl 2023.06)
