@<TRIPOS>MOLECULE
NONAME
43 45 1 0 0 
SMALL
USER_CHARGES


@<TRIPOS>ATOM
  1 F        1.1220    -0.2840     2.9030 F     1 <1>  -0.1900 
  2 C        1.7390    -0.9330     1.9540 C.ar  1 <1>   0.1900 
  3 C        1.7320    -2.3100     1.9760 C.ar  1 <1>  -0.1500 
  4 C        2.3750    -0.2130     0.9620 C.ar  1 <1>  -0.1500 
  5 C        2.3770    -3.0220     0.9680 C.ar  1 <1>   0.0860 
  6 C        3.0300    -0.9110    -0.0370 C.ar  1 <1>  -0.1500 
  7 C        3.0380    -2.2990    -0.0380 C.ar  1 <1>  -0.1440 
  8 C        2.3370    -4.4710     0.9860 C.2   1 <1>   0.5440 
  9 C        3.7900    -3.0330    -1.1420 C.3   1 <1>  -0.0960 
 10 O        3.0290    -5.0910     1.7690 O.2   1 <1>  -0.5700 
 11 N        1.5070    -5.1660     0.1400 N.am  1 <1>  -0.6600 
 12 C        0.3740    -4.5800    -0.6210 C.3   1 <1>   0.1400 
 13 C        1.4240    -6.6490     0.1170 C.3   1 <1>   0.1400 
 14 C       -0.6750    -5.6900    -0.6320 C.3   1 <1>   0.2000 
 15 C        0.1660    -6.9680    -0.6990 C.3   1 <1>  -0.0800 
 16 O       -1.3540    -5.6440     0.5770 O.3   1 <1>  -0.6800 
 17 C       -0.5480    -8.2590    -0.2600 C.3   1 <1>   0.0210 
 18 C        0.3790    -9.4520    -0.3770 C.2   1 <1>   0.1080 
 19 N        0.8670    -9.8560    -1.5090 N.2   1 <1>  -0.7070 
 20 C        0.8150   -10.2300     0.6900 C.2   1 <1>  -0.1500 
 21 N        1.6340   -10.9150    -1.1900 N.pl3 1 <1>   0.3000 
 22 C        1.6200   -11.1600     0.1370 C.2   1 <1>  -0.3320 
 23 C        2.3890   -12.2850     0.8050 C.3   1 <1>  -0.0600 
 24 H        1.2300    -2.8340     2.7690 H     1 <1>   0.1500 
 25 H        2.3590     0.8620     0.9780 H     1 <1>   0.1500 
 26 H        3.5360    -0.3620    -0.8130 H     1 <1>   0.1500 
 27 H        4.3550    -2.3490    -1.7490 H     1 <1>   0.0800 
 28 H        3.1000    -3.5610    -1.7750 H     1 <1>   0.0800 
 29 H        4.4750    -3.7430    -0.7120 H     1 <1>   0.0800 
 30 H       -0.0040    -3.6800    -0.1690 H     1 <1>   0.0800 
 31 H        0.6980    -4.3730    -1.6260 H     1 <1>   0.0800 
 32 H        2.3030    -7.0740    -0.3370 H     1 <1>   0.0800 
 33 H        1.3360    -7.0160     1.1260 H     1 <1>   0.0800 
 34 H       -1.3880    -5.5990    -1.4330 H     1 <1>   0.0800 
 35 H        0.4780    -7.0980    -1.7210 H     1 <1>   0.0800 
 36 H       -0.6930    -5.6100     1.2990 H     1 <1>   0.4000 
 37 H       -1.4060    -8.4260    -0.8860 H     1 <1>   0.0800 
 38 H       -0.8890    -8.1780     0.7560 H     1 <1>   0.0800 
 39 H        0.5520   -10.0940     1.7240 H     1 <1>   0.1500 
 40 H        2.1520   -11.4480    -1.8990 H     1 <1>   0.2700 
 41 H        2.2170   -12.2710     1.8670 H     1 <1>   0.0800 
 42 H        3.4440   -12.1710     0.6290 H     1 <1>   0.0800 
 43 H        2.0680   -13.2360     0.4190 H     1 <1>   0.0800 
@<TRIPOS>BOND
  1   1   2  1   
  2   2   3  ar  
  3   2   4  ar  
  4   3   5  ar  
  5   3  24  1   
  6   4   6  ar  
  7   4  25  1   
  8   5   7  ar  
  9   5   8  1   
 10   6   7  ar  
 11   6  26  1   
 12   7   9  1   
 13   8  10  2   
 14   8  11  am  
 15   9  27  1   
 16   9  28  1   
 17   9  29  1   
 18  11  12  1   
 19  11  13  1   
 20  12  14  1   
 21  12  30  1   
 22  12  31  1   
 23  13  15  1   
 24  13  32  1   
 25  13  33  1   
 26  14  15  1   
 27  14  16  1   
 28  14  34  1   
 29  15  17  1   
 30  15  35  1   
 31  16  36  1   
 32  17  18  1   
 33  17  37  1   
 34  17  38  1   
 35  18  19  2   
 36  18  20  1   
 37  19  21  1   
 38  20  22  2   
 39  20  39  1   
 40  21  22  1   
 41  21  40  1   
 42  22  23  1   
 43  23  41  1   
 44  23  42  1   
 45  23  43  1   
@<TRIPOS>SUBSTRUCTURE
  1 ****  11 GROUP 4 **** **** 0

# MOE 2024.06 (io_trps.svl 2023.06)
