@<TRIPOS>MOLECULE
NONAME
45 47 1 0 0 
SMALL
USER_CHARGES


@<TRIPOS>ATOM
  1 O        0.1380    -0.2980     0.6820 O.2   1 <1>  -0.5700 
  2 C        1.1660    -0.8130     0.2780 C.2   1 <1>   0.5440 
  3 N        2.3200    -0.0660     0.1830 N.am  1 <1>  -0.4940 
  4 C        1.2240    -2.2210    -0.1120 C.ar  1 <1>   0.3960 
  5 C        2.5630     1.3020     0.4660 C.2   1 <1>  -0.0880 
  6 N        2.4100    -2.7200    -0.5230 N.ar  1 <1>  -0.6200 
  7 C        0.0810    -3.0120    -0.0560 C.ar  1 <1>  -0.1500 
  8 N        3.7840     1.9020     0.4870 N.pl3 1 <1>   0.3140 
  9 C        1.6670     2.2730     0.7640 C.2   1 <1>  -0.1500 
 10 C        2.4290    -3.9960    -0.8710 C.ar  1 <1>   0.1600 
 11 C        0.1190    -4.3380    -0.4210 C.ar  1 <1>   0.0830 
 12 N        3.6870     3.2200     0.7860 N.2   1 <1>  -0.7070 
 13 C        5.1130     1.2720     0.2670 C.3   1 <1>   0.1760 
 14 C        2.4160     3.4260     0.9490 C.2   1 <1>   0.1390 
 15 C        1.3360    -4.8390    -0.8420 C.ar  1 <1>  -0.1500 
 16 O       -1.0230    -5.0530    -0.3450 O.3   1 <1>  -0.3630 
 17 C        5.9530     1.3630     1.5540 C.3   1 <1>  -0.1600 
 18 C        5.8290     1.9510    -0.9140 C.3   1 <1>  -0.1600 
 19 C       -1.0690    -6.4180    -0.6990 C.3   1 <1>   0.0400 
 20 C        7.3850     0.8890     1.3340 C.3   1 <1>   0.3430 
 21 C        7.2650     1.4600    -1.0680 C.3   1 <1>   0.3430 
 22 N        7.9970     1.6610     0.2150 N.4   1 <1>  -0.9590 
 23 C        9.4480     1.3310     0.0640 C.3   1 <1>   0.2630 
 24 H        3.0880    -0.6370    -0.1770 H     1 <1>   0.3700 
 25 H       -0.8490    -2.5880     0.2760 H     1 <1>   0.1500 
 26 H        0.5980     2.1910     0.8460 H     1 <1>   0.1500 
 27 H        3.3720    -4.3990    -1.2020 H     1 <1>   0.1500 
 28 H        4.9590     0.2360     0.0290 H     1 <1>   0.0800 
 29 H        1.9960     4.3860     1.1990 H     1 <1>   0.1500 
 30 H        1.4510    -5.8620    -1.1440 H     1 <1>   0.1500 
 31 H        5.4960     0.7610     2.3200 H     1 <1>   0.0800 
 32 H        5.9780     2.3800     1.9090 H     1 <1>   0.0800 
 33 H        5.8450     3.0190    -0.7760 H     1 <1>   0.0800 
 34 H        5.2890     1.7480    -1.8220 H     1 <1>   0.0800 
 35 H       -2.0760    -6.7660    -0.5550 H     1 <1>   0.0800 
 36 H       -0.3990    -6.9670    -0.0620 H     1 <1>   0.0800 
 37 H       -0.7910    -6.5210    -1.7330 H     1 <1>   0.0800 
 38 H        7.3900    -0.1640     1.1000 H     1 <1>   0.0800 
 39 H        7.9520     1.0370     2.2400 H     1 <1>   0.0800 
 40 H        7.7480     2.0130    -1.8590 H     1 <1>   0.0800 
 41 H        7.2680     0.4150    -1.3330 H     1 <1>   0.0800 
 42 H        7.9170     2.6620     0.4580 H     1 <1>   0.4500 
 43 H        9.5740     0.2910    -0.1900 H     1 <1>   0.0800 
 44 H        9.9740     1.5270     0.9850 H     1 <1>   0.0800 
 45 H        9.8890     1.9320    -0.7150 H     1 <1>   0.0800 
@<TRIPOS>BOND
  1   1   2  2   
  2   2   3  am  
  3   2   4  1   
  4   3   5  1   
  5   3  24  1   
  6   4   6  ar  
  7   4   7  ar  
  8   5   8  1   
  9   5   9  2   
 10   6  10  ar  
 11   7  11  ar  
 12   7  25  1   
 13   8  12  1   
 14   8  13  1   
 15   9  14  1   
 16   9  26  1   
 17  10  15  ar  
 18  10  27  1   
 19  11  15  ar  
 20  11  16  1   
 21  12  14  2   
 22  13  17  1   
 23  13  18  1   
 24  13  28  1   
 25  14  29  1   
 26  15  30  1   
 27  16  19  1   
 28  17  20  1   
 29  17  31  1   
 30  17  32  1   
 31  18  21  1   
 32  18  33  1   
 33  18  34  1   
 34  19  35  1   
 35  19  36  1   
 36  19  37  1   
 37  20  22  1   
 38  20  38  1   
 39  20  39  1   
 40  21  22  1   
 41  21  40  1   
 42  21  41  1   
 43  22  23  1   
 44  22  42  1   
 45  23  43  1   
 46  23  44  1   
 47  23  45  1   
@<TRIPOS>SUBSTRUCTURE
  1 ****   3 GROUP 4 **** **** 0

# MOE 2024.06 (io_trps.svl 2023.06)
