@<TRIPOS>MOLECULE
NONAME
52 55 1 0 0 
SMALL
USER_CHARGES


@<TRIPOS>ATOM
  1 O        0.5340    -1.0030    -2.2100 O.2   1 <1>  -0.5700 
  2 C       -0.1710    -0.0340    -2.0490 C.2   1 <1>   0.5690 
  3 N       -1.3900    -0.1440    -1.4340 N.am  1 <1>  -0.6600 
  4 C        0.3330     1.3040    -2.5590 C.3   1 <1>   0.0820 
  5 C       -2.3160     0.9610    -1.0630 C.3   1 <1>   0.1400 
  6 C       -1.9180    -1.4380    -0.9320 C.3   1 <1>   0.1400 
  7 C        0.7670     2.2140    -1.4250 C.2   1 <1>   0.0460 
  8 C       -3.1250     0.3940     0.1020 C.3   1 <1>   0.2000 
  9 C       -3.2410    -1.0940    -0.2390 C.3   1 <1>  -0.0800 
 10 N        0.2510     3.4510    -1.3090 N.2   1 <1>  -0.5650 
 11 C        1.6410     1.9990    -0.4300 C.2   1 <1>  -0.0400 
 12 O       -2.3740     0.5490     1.2580 O.3   1 <1>  -0.6800 
 13 C       -3.5840    -2.0220     0.9400 C.3   1 <1>   0.0210 
 14 C        0.8280     3.9310    -0.2480 C.2   1 <1>   0.4250 
 15 O        1.6690     3.0730     0.3020 O.3   1 <1>  -0.2800 
 16 C        2.5250     0.8300    -0.0470 C.3   1 <1>  -0.0600 
 17 C       -3.6680    -3.4650     0.4830 C.2   1 <1>   0.1080 
 18 C        0.6370     5.2410     0.3400 C.ar  1 <1>   0.0530 
 19 N       -4.5630    -3.8880    -0.3550 N.2   1 <1>  -0.7070 
 20 C       -2.8060    -4.4790     0.8870 C.2   1 <1>  -0.1500 
 21 C        1.2830     5.6210     1.5190 C.ar  1 <1>  -0.1500 
 22 C       -0.2070     6.1810    -0.2540 C.ar  1 <1>  -0.1500 
 23 N       -4.2960    -5.1980    -0.5060 N.pl3 1 <1>   0.3000 
 24 C       -3.2340    -5.5800     0.2350 C.2   1 <1>  -0.3320 
 25 C        1.0960     6.8730     2.0760 C.ar  1 <1>  -0.1500 
 26 C       -0.3990     7.4350     0.2980 C.ar  1 <1>  -0.1500 
 27 C       -2.6850    -6.9940     0.2740 C.3   1 <1>  -0.0600 
 28 C        0.2530     7.7840     1.4660 C.ar  1 <1>  -0.1500 
 29 H        1.1680     1.1410    -3.2140 H     1 <1>   0.0800 
 30 H       -0.4450     1.7750    -3.1300 H     1 <1>   0.0800 
 31 H       -1.8010     1.8600    -0.7770 H     1 <1>   0.0800 
 32 H       -2.9670     1.1660    -1.8950 H     1 <1>   0.0800 
 33 H       -2.0710    -2.1310    -1.7430 H     1 <1>   0.0800 
 34 H       -1.2140    -1.8600    -0.2350 H     1 <1>   0.0800 
 35 H       -4.0760     0.8790     0.2400 H     1 <1>   0.0800 
 36 H       -4.0190    -1.1990    -0.9760 H     1 <1>   0.0800 
 37 H       -1.4460     0.3110     1.0580 H     1 <1>   0.4000 
 38 H       -4.5320    -1.7370     1.3580 H     1 <1>   0.0800 
 39 H       -2.8420    -1.9420     1.7140 H     1 <1>   0.0800 
 40 H        2.4610     0.0450    -0.7770 H     1 <1>   0.0800 
 41 H        2.2220     0.4430     0.9090 H     1 <1>   0.0800 
 42 H        3.5470     1.1560     0.0170 H     1 <1>   0.0800 
 43 H       -1.9840    -4.3770     1.5730 H     1 <1>   0.1500 
 44 H        1.9420     4.9250     2.0080 H     1 <1>   0.1500 
 45 H       -0.7190     5.9210    -1.1640 H     1 <1>   0.1500 
 46 H       -4.8540    -5.8030    -1.1210 H     1 <1>   0.2700 
 47 H        1.6060     7.1400     2.9860 H     1 <1>   0.1500 
 48 H       -1.0560     8.1400    -0.1820 H     1 <1>   0.1500 
 49 H       -1.8390    -7.0440     0.9360 H     1 <1>   0.0800 
 50 H       -2.3690    -7.2980    -0.7090 H     1 <1>   0.0800 
 51 H       -3.4370    -7.6760     0.6280 H     1 <1>   0.0800 
 52 H        0.1060     8.7580     1.8980 H     1 <1>   0.1500 
@<TRIPOS>BOND
  1   1   2  2   
  2   2   3  am  
  3   2   4  1   
  4   3   5  1   
  5   3   6  1   
  6   4   7  1   
  7   4  29  1   
  8   4  30  1   
  9   5   8  1   
 10   5  31  1   
 11   5  32  1   
 12   6   9  1   
 13   6  33  1   
 14   6  34  1   
 15   7  10  1   
 16   7  11  2   
 17   8   9  1   
 18   8  12  1   
 19   8  35  1   
 20   9  13  1   
 21   9  36  1   
 22  10  14  2   
 23  11  15  1   
 24  11  16  1   
 25  12  37  1   
 26  13  17  1   
 27  13  38  1   
 28  13  39  1   
 29  14  15  1   
 30  14  18  1   
 31  16  40  1   
 32  16  41  1   
 33  16  42  1   
 34  17  19  2   
 35  17  20  1   
 36  18  21  ar  
 37  18  22  ar  
 38  19  23  1   
 39  20  24  2   
 40  20  43  1   
 41  21  25  ar  
 42  21  44  1   
 43  22  26  ar  
 44  22  45  1   
 45  23  24  1   
 46  23  46  1   
 47  24  27  1   
 48  25  28  ar  
 49  25  47  1   
 50  26  28  ar  
 51  26  48  1   
 52  27  49  1   
 53  27  50  1   
 54  27  51  1   
 55  28  52  1   
@<TRIPOS>SUBSTRUCTURE
  1 ****   5 GROUP 4 **** **** 0

# MOE 2024.06 (io_trps.svl 2023.06)
