@<TRIPOS>MOLECULE
NONAME
52 54 1 0 0 
SMALL
USER_CHARGES


@<TRIPOS>ATOM
  1 O        1.1090     0.5670     0.4050 O.2   1 <1>  -0.5700 
  2 C        1.9110    -0.0660    -0.2520 C.2   1 <1>   0.5690 
  3 N        2.8610     0.6120    -0.9930 N.am  1 <1>  -0.6600 
  4 C        1.7840    -1.6270    -0.2200 C.3   1 <1>   0.3410 
  5 C        3.8610    -0.0090    -1.9220 C.3   1 <1>   0.1400 
  6 C        3.0170     2.0860    -0.8620 C.3   1 <1>   0.1400 
  7 O        3.0290    -2.2900    -0.3130 O.3   1 <1>  -0.5600 
  8 C        1.1730    -2.1460     1.0940 C.3   1 <1>  -0.1600 
  9 C        0.9570    -2.1230    -1.4160 C.3   1 <1>  -0.2400 
 10 C        5.2470    -0.1550    -1.2750 C.3   1 <1>   0.1400 
 11 C        3.8960     2.4430     0.3450 C.3   1 <1>  -0.1600 
 12 C        3.2450    -3.1870     0.7310 C.3   1 <1>   0.1200 
 13 C        1.8830    -3.4610     1.3380 C.3   1 <1>  -0.1600 
 14 N        5.7530     1.1440    -0.7260 N.am  1 <1>  -0.6600 
 15 C        5.1120     1.5320     0.5630 C.3   1 <1>   0.1400 
 16 C        6.6770     1.8910    -1.4140 C.2   1 <1>   0.5690 
 17 O        7.0760     1.5360    -2.5010 O.2   1 <1>  -0.5700 
 18 C        7.2160     3.2110    -0.8870 C.3   1 <1>   0.0440 
 19 C        8.0620     3.0840     0.3740 C.ar  1 <1>   0.1670 
 20 N        7.6130     3.7920     1.4040 N.ar  1 <1>  -0.6200 
 21 C        9.2170     2.2990     0.4180 C.ar  1 <1>  -0.1440 
 22 C        8.3160     3.7130     2.5190 C.ar  1 <1>   0.1600 
 23 C        9.9300     2.2300     1.5990 C.ar  1 <1>  -0.1500 
 24 C        9.7410     1.5100    -0.7770 C.3   1 <1>  -0.0970 
 25 C        9.4620     2.9570     2.6700 C.ar  1 <1>  -0.1500 
 26 H        3.9560     0.6020    -2.8030 H     1 <1>   0.0800 
 27 H        3.5240    -0.9720    -2.2530 H     1 <1>   0.0800 
 28 H        2.0510     2.5490    -0.7550 H     1 <1>   0.0800 
 29 H        3.4660     2.4790    -1.7580 H     1 <1>   0.0800 
 30 H        0.1040    -2.2490     1.0420 H     1 <1>   0.0800 
 31 H        1.4080    -1.4660     1.8950 H     1 <1>   0.0800 
 32 H        1.4080    -1.8100    -2.3380 H     1 <1>   0.0800 
 33 H       -0.0310    -1.7020    -1.3700 H     1 <1>   0.0800 
 34 H        0.8760    -3.1940    -1.4070 H     1 <1>   0.0800 
 35 H        5.9330    -0.5350    -2.0110 H     1 <1>   0.0800 
 36 H        5.1970    -0.8840    -0.4860 H     1 <1>   0.0800 
 37 H        3.2880     2.4080     1.2300 H     1 <1>   0.0800 
 38 H        4.2280     3.4600     0.2420 H     1 <1>   0.0800 
 39 H        3.8940    -2.7080     1.4440 H     1 <1>   0.0800 
 40 H        3.7130    -4.0760     0.3440 H     1 <1>   0.0800 
 41 H        1.4030    -4.2610     0.8020 H     1 <1>   0.0800 
 42 H        1.9460    -3.7140     2.3810 H     1 <1>   0.0800 
 43 H        4.7820     0.6390     1.0680 H     1 <1>   0.0800 
 44 H        5.8190     2.0090     1.2140 H     1 <1>   0.0800 
 45 H        6.3860     3.8670    -0.7100 H     1 <1>   0.0800 
 46 H        7.8150     3.6720    -1.6500 H     1 <1>   0.0800 
 47 H        7.9600     4.2830     3.3600 H     1 <1>   0.1500 
 48 H       10.8210     1.6340     1.6870 H     1 <1>   0.1500 
 49 H        9.6880     2.0970    -1.6770 H     1 <1>   0.0800 
 50 H        9.1600     0.6150    -0.9100 H     1 <1>   0.0800 
 51 H       10.7670     1.2270    -0.6300 H     1 <1>   0.0800 
 52 H        9.9800     2.9400     3.6110 H     1 <1>   0.1500 
@<TRIPOS>BOND
  1   1   2  2   
  2   2   3  am  
  3   2   4  1   
  4   3   5  1   
  5   3   6  1   
  6   4   7  1   
  7   4   8  1   
  8   4   9  1   
  9   5  10  1   
 10   5  26  1   
 11   5  27  1   
 12   6  11  1   
 13   6  28  1   
 14   6  29  1   
 15   7  12  1   
 16   8  13  1   
 17   8  30  1   
 18   8  31  1   
 19   9  32  1   
 20   9  33  1   
 21   9  34  1   
 22  10  14  1   
 23  10  35  1   
 24  10  36  1   
 25  11  15  1   
 26  11  37  1   
 27  11  38  1   
 28  12  13  1   
 29  12  39  1   
 30  12  40  1   
 31  13  41  1   
 32  13  42  1   
 33  14  15  1   
 34  14  16  am  
 35  15  43  1   
 36  15  44  1   
 37  16  17  2   
 38  16  18  1   
 39  18  19  1   
 40  18  45  1   
 41  18  46  1   
 42  19  20  ar  
 43  19  21  ar  
 44  20  22  ar  
 45  21  23  ar  
 46  21  24  1   
 47  22  25  ar  
 48  22  47  1   
 49  23  25  ar  
 50  23  48  1   
 51  24  49  1   
 52  24  50  1   
 53  24  51  1   
 54  25  52  1   
@<TRIPOS>SUBSTRUCTURE
  1 ****  15 GROUP 4 **** **** 0

# MOE 2024.06 (io_trps.svl 2023.06)
