@<TRIPOS>MOLECULE
NONAME
35 36 1 0 0 
SMALL
USER_CHARGES


@<TRIPOS>ATOM
  1 F        0.5140     0.1290    -0.8860 F     1 <1>  -0.1900 
  2 C        1.5060     0.9180    -0.5250 C.ar  1 <1>   0.1900 
  3 C        2.7500     0.4130    -0.1500 C.ar  1 <1>   0.4100 
  4 C        1.3080     2.2710    -0.5320 C.ar  1 <1>   0.1600 
  5 N        3.7150     1.2500     0.1870 N.ar  1 <1>  -0.6200 
  6 N        3.0570    -0.9470    -0.1050 N.pl3 1 <1>  -0.8380 
  7 N        2.2670     3.1100    -0.1930 N.ar  1 <1>  -0.6200 
  8 C        3.4160     2.5360     0.1510 C.ar  1 <1>   0.7200 
  9 C        2.1320    -1.9160     0.5420 C.3   1 <1>   0.1290 
 10 C        4.4660    -1.4110    -0.2370 C.3   1 <1>   0.1290 
 11 N        4.4410     3.3390     0.5130 N.pl3 1 <1>  -0.8690 
 12 C        4.6680     4.6450    -0.1600 C.3   1 <1>   0.2890 
 13 C        6.0630     5.1840     0.1020 C.3   1 <1>   0.2000 
 14 C        3.7880     5.7720     0.3820 C.3   1 <1>   0.1200 
 15 O        6.9810     4.6720    -0.8250 O.3   1 <1>  -0.5600 
 16 C        5.8620     6.6880    -0.0470 C.3   1 <1>   0.1200 
 17 O        4.5520     6.9500     0.3610 O.3   1 <1>  -0.5600 
 18 C        8.3180     4.8820    -0.5000 C.3   1 <1>   0.0400 
 19 H        0.3540     2.6720    -0.8220 H     1 <1>   0.1500 
 20 H        2.6580    -2.4890     1.2850 H     1 <1>   0.0800 
 21 H        1.7310    -2.5830    -0.2020 H     1 <1>   0.0800 
 22 H        1.3200    -1.4000     1.0250 H     1 <1>   0.0800 
 23 H        4.4900    -2.4040    -0.6500 H     1 <1>   0.0800 
 24 H        4.9400    -1.4110     0.7290 H     1 <1>   0.0800 
 25 H        5.0120    -0.7530    -0.8930 H     1 <1>   0.0800 
 26 H        5.2910     2.7780     0.5590 H     1 <1>   0.4000 
 27 H        4.5040     4.5520    -1.2210 H     1 <1>   0.0800 
 28 H        6.3750     4.9440     1.1030 H     1 <1>   0.0800 
 29 H        3.5070     5.5790     1.4020 H     1 <1>   0.0800 
 30 H        2.9110     5.9130    -0.2240 H     1 <1>   0.0800 
 31 H        5.9490     6.9850    -1.0780 H     1 <1>   0.0800 
 32 H        6.5370     7.2530     0.5710 H     1 <1>   0.0800 
 33 H        8.9230     4.4360    -1.2710 H     1 <1>   0.0800 
 34 H        8.5340     4.4130     0.4440 H     1 <1>   0.0800 
 35 H        8.5160     5.9390    -0.4530 H     1 <1>   0.0800 
@<TRIPOS>BOND
  1   1   2  1   
  2   2   3  ar  
  3   2   4  ar  
  4   3   5  ar  
  5   3   6  1   
  6   4   7  ar  
  7   4  19  1   
  8   5   8  ar  
  9   6   9  1   
 10   6  10  1   
 11   7   8  ar  
 12   8  11  1   
 13   9  20  1   
 14   9  21  1   
 15   9  22  1   
 16  10  23  1   
 17  10  24  1   
 18  10  25  1   
 19  11  12  1   
 20  11  26  1   
 21  12  13  1   
 22  12  14  1   
 23  12  27  1   
 24  13  15  1   
 25  13  16  1   
 26  13  28  1   
 27  14  17  1   
 28  14  29  1   
 29  14  30  1   
 30  15  18  1   
 31  16  17  1   
 32  16  31  1   
 33  16  32  1   
 34  18  33  1   
 35  18  34  1   
 36  18  35  1   
@<TRIPOS>SUBSTRUCTURE
  1 ****   8 GROUP 4 **** **** 0

# MOE 2024.06 (io_trps.svl 2023.06)
