@<TRIPOS>MOLECULE
NONAME
39 41 1 0 0 
SMALL
USER_CHARGES


@<TRIPOS>ATOM
  1 F       -1.6000    -1.0020     0.1790 F     1 <1>  -0.3400 
  2 C       -1.3760    -2.3100     0.2540 C.3   1 <1>   1.1640 
  3 F       -1.8370    -2.8080    -0.8890 F     1 <1>  -0.3400 
  4 F       -2.1810    -2.7480     1.2160 F     1 <1>  -0.3400 
  5 C        0.0950    -2.6290     0.4850 C.ar  1 <1>  -0.1440 
  6 C        0.4910    -3.9520     0.6840 C.ar  1 <1>   0.4100 
  7 C        1.0610    -1.6370     0.5130 C.ar  1 <1>  -0.1500 
  8 N        1.7370    -4.3220     0.9210 N.ar  1 <1>  -0.6200 
  9 N       -0.3650    -5.0120     0.6760 N.pl3 1 <1>  -0.8690 
 10 C        2.3640    -2.0220     0.7500 C.ar  1 <1>  -0.1500 
 11 C        2.6420    -3.3600     0.9480 C.ar  1 <1>   0.1600 
 12 C       -0.6430    -5.6870    -0.6180 C.3   1 <1>   0.2890 
 13 C       -1.9420    -6.4800    -0.5500 C.3   1 <1>  -0.0800 
 14 C        0.3600    -6.8190    -0.8350 C.3   1 <1>   0.1200 
 15 C       -1.5010    -7.7970     0.0930 C.3   1 <1>   0.1200 
 16 C       -3.1240    -5.8050     0.1700 C.3   1 <1>  -0.0160 
 17 O       -0.1240    -7.9100    -0.1090 O.3   1 <1>  -0.5600 
 18 C       -4.3470    -6.7100     0.1710 C.ar  1 <1>  -0.1430 
 19 C       -5.1640    -6.8290    -0.9340 C.ar  1 <1>  -0.1500 
 20 C       -4.7010    -7.4590     1.2750 C.ar  1 <1>  -0.1500 
 21 C       -6.2620    -7.6730    -0.8860 C.ar  1 <1>   0.1600 
 22 C       -5.8200    -8.2730     1.2190 C.ar  1 <1>   0.1600 
 23 N       -6.6070    -8.4010     0.1640 N.ar  1 <1>  -0.6200 
 24 H        0.8270    -0.5950     0.3620 H     1 <1>   0.1500 
 25 H        0.0200    -5.7360     1.2950 H     1 <1>   0.4000 
 26 H        3.1540    -1.2930     0.7840 H     1 <1>   0.1500 
 27 H        3.6600    -3.6550     1.1380 H     1 <1>   0.1500 
 28 H       -0.6270    -4.9810    -1.4310 H     1 <1>   0.0800 
 29 H       -2.2450    -6.7040    -1.5580 H     1 <1>   0.0800 
 30 H        1.3510    -6.5710    -0.4990 H     1 <1>   0.0800 
 31 H        0.3880    -7.1040    -1.8710 H     1 <1>   0.0800 
 32 H       -1.9940    -8.6470    -0.3470 H     1 <1>   0.0800 
 33 H       -1.6700    -7.7890     1.1560 H     1 <1>   0.0800 
 34 H       -3.3700    -4.8840    -0.3260 H     1 <1>   0.0800 
 35 H       -2.8600    -5.5650     1.1850 H     1 <1>   0.0800 
 36 H       -4.9590    -6.2740    -1.8310 H     1 <1>   0.1500 
 37 H       -4.1190    -7.4170     2.1770 H     1 <1>   0.1500 
 38 H       -6.8890    -7.7540    -1.7580 H     1 <1>   0.1500 
 39 H       -6.0800    -8.8510     2.0890 H     1 <1>   0.1500 
@<TRIPOS>BOND
  1   1   2  1   
  2   2   3  1   
  3   2   4  1   
  4   2   5  1   
  5   5   6  ar  
  6   5   7  ar  
  7   6   8  ar  
  8   6   9  1   
  9   7  10  ar  
 10   7  24  1   
 11   8  11  ar  
 12   9  12  1   
 13   9  25  1   
 14  10  11  ar  
 15  10  26  1   
 16  11  27  1   
 17  12  13  1   
 18  12  14  1   
 19  12  28  1   
 20  13  15  1   
 21  13  16  1   
 22  13  29  1   
 23  14  17  1   
 24  14  30  1   
 25  14  31  1   
 26  15  17  1   
 27  15  32  1   
 28  15  33  1   
 29  16  18  1   
 30  16  34  1   
 31  16  35  1   
 32  18  19  ar  
 33  18  20  ar  
 34  19  21  ar  
 35  19  36  1   
 36  20  22  ar  
 37  20  37  1   
 38  21  23  ar  
 39  21  38  1   
 40  22  23  ar  
 41  22  39  1   
@<TRIPOS>SUBSTRUCTURE
  1 ****   9 GROUP 4 **** **** 0

# MOE 2024.06 (io_trps.svl 2023.06)
