@<TRIPOS>MOLECULE
NONAME
46 49 1 0 0 
SMALL
USER_CHARGES


@<TRIPOS>ATOM
  1 O       -0.9350     0.0030    -1.1640 O.2   1 <1>  -0.5700 
  2 C       -1.8380     0.5460    -0.5840 C.2   1 <1>   0.4230 
  3 C       -3.0950    -0.1030    -0.3350 C.ar  1 <1>   0.0860 
  4 C       -1.5640     1.9410    -0.0580 C.3   1 <1>  -0.1790 
  5 C       -4.3600     0.4650    -0.4710 C.ar  1 <1>   0.1660 
  6 C       -3.0970    -1.4220     0.0850 C.ar  1 <1>   0.1600 
  7 N       -5.4540    -0.1800    -0.1580 N.ar  1 <1>  -0.6200 
  8 C       -4.5780     1.8660    -1.0170 C.3   1 <1>  -0.0960 
  9 N       -4.1800    -2.0880     0.3940 N.ar  1 <1>  -0.6200 
 10 C       -5.3330    -1.4330     0.2780 C.ar  1 <1>   0.7200 
 11 N       -6.4800    -2.1010     0.6230 N.pl3 1 <1>  -0.8380 
 12 C       -6.5150    -3.5410     1.0370 C.3   1 <1>   0.2090 
 13 C       -7.8610    -1.5570     0.4050 C.3   1 <1>   0.2090 
 14 C       -7.2630    -4.3970    -0.0040 C.3   1 <1>   0.2090 
 15 C       -8.6260    -2.3950    -0.6380 C.3   1 <1>   0.2090 
 16 N       -8.6310    -3.8560    -0.2930 N.pl3 1 <1>  -0.8380 
 17 C       -9.7260    -4.4290     0.3100 C.ar  1 <1>   0.4100 
 18 N      -10.3580    -3.7100     1.1940 N.ar  1 <1>  -0.6200 
 19 C      -10.1250    -5.7530    -0.0040 C.ar  1 <1>   0.0000 
 20 C      -11.3690    -4.3060     1.8320 C.ar  1 <1>   0.4700 
 21 C      -11.1860    -6.2670     0.7470 C.ar  1 <1>   0.3100 
 22 C       -9.5540    -6.5670    -1.0050 C.ar  1 <1>  -0.1500 
 23 N      -11.8070    -5.5150     1.6790 N.ar  1 <1>  -0.6200 
 24 C      -11.6180    -7.5810     0.5170 C.ar  1 <1>  -0.1500 
 25 C       -9.9950    -7.8470    -1.2190 C.ar  1 <1>  -0.1500 
 26 C      -11.0350    -8.3640    -0.4460 C.ar  1 <1>  -0.1500 
 27 H       -2.2500     2.1970     0.7280 H     1 <1>   0.0800 
 28 H       -1.6410     2.6550    -0.8560 H     1 <1>   0.0800 
 29 H       -0.5650     1.9800     0.3380 H     1 <1>   0.0800 
 30 H       -2.1530    -1.9340     0.1720 H     1 <1>   0.1500 
 31 H       -3.8520     2.1040    -1.7720 H     1 <1>   0.0800 
 32 H       -4.5260     2.5840    -0.2200 H     1 <1>   0.0800 
 33 H       -5.5530     1.9350    -1.4680 H     1 <1>   0.0800 
 34 H       -7.0260    -3.6190     1.9800 H     1 <1>   0.0800 
 35 H       -5.5260    -3.9380     1.1730 H     1 <1>   0.0800 
 36 H       -7.8380    -0.5320     0.0810 H     1 <1>   0.0800 
 37 H       -8.4010    -1.5880     1.3350 H     1 <1>   0.0800 
 38 H       -7.3380    -5.4040     0.3660 H     1 <1>   0.0800 
 39 H       -6.6910    -4.4180    -0.9140 H     1 <1>   0.0800 
 40 H       -8.1610    -2.2630    -1.5980 H     1 <1>   0.0800 
 41 H       -9.6370    -2.0350    -0.7100 H     1 <1>   0.0800 
 42 H      -11.8680    -3.6940     2.5650 H     1 <1>   0.1500 
 43 H       -8.7630    -6.1600    -1.6090 H     1 <1>   0.1500 
 44 H      -12.4260    -7.9540     1.1190 H     1 <1>   0.1500 
 45 H       -9.5500    -8.4630    -1.9830 H     1 <1>   0.1500 
 46 H      -11.3740    -9.3720    -0.6170 H     1 <1>   0.1500 
@<TRIPOS>BOND
  1   1   2  2   
  2   2   3  1   
  3   2   4  1   
  4   3   5  ar  
  5   3   6  ar  
  6   4  27  1   
  7   4  28  1   
  8   4  29  1   
  9   5   7  ar  
 10   5   8  1   
 11   6   9  ar  
 12   6  30  1   
 13   7  10  ar  
 14   8  31  1   
 15   8  32  1   
 16   8  33  1   
 17   9  10  ar  
 18  10  11  1   
 19  11  12  1   
 20  11  13  1   
 21  12  14  1   
 22  12  34  1   
 23  12  35  1   
 24  13  15  1   
 25  13  36  1   
 26  13  37  1   
 27  14  16  1   
 28  14  38  1   
 29  14  39  1   
 30  15  16  1   
 31  15  40  1   
 32  15  41  1   
 33  16  17  1   
 34  17  18  ar  
 35  17  19  ar  
 36  18  20  ar  
 37  19  21  ar  
 38  19  22  ar  
 39  20  23  ar  
 40  20  42  1   
 41  21  23  ar  
 42  21  24  ar  
 43  22  25  ar  
 44  22  43  1   
 45  24  26  ar  
 46  24  44  1   
 47  25  26  ar  
 48  25  45  1   
 49  26  46  1   
@<TRIPOS>SUBSTRUCTURE
  1 ****  11 GROUP 4 **** **** 0

# MOE 2024.06 (io_trps.svl 2023.06)
