@<TRIPOS>MOLECULE
NONAME
44 47 1 0 0 
SMALL
USER_CHARGES


@<TRIPOS>ATOM
  1 O       -0.4280     1.3980    -1.6060 O.2   1 <1>  -0.5700 
  2 C       -0.6200     2.5900    -1.5350 C.2   1 <1>   0.5690 
  3 N       -0.9480     3.2400    -0.3740 N.am  1 <1>  -0.5090 
  4 C       -0.4780     3.4220    -2.8030 C.3   1 <1>   0.1810 
  5 C       -1.1630     4.7230    -0.3580 C.3   1 <1>   0.3640 
  6 C       -0.8440     2.5750     0.9490 C.3   1 <1>   0.0490 
  7 O        0.1060     4.6650    -2.5140 O.3   1 <1>  -0.5600 
  8 C       -2.6470     5.0410    -0.1780 C.ar  1 <1>  -0.1440 
  9 C       -0.6390     5.4770    -1.6170 C.3   1 <1>   0.2610 
 10 C       -1.6720     1.3550     1.2040 C.3   1 <1>  -0.2000 
 11 C       -1.9790     2.6250     1.9270 C.3   1 <1>  -0.2000 
 12 C       -3.6370     4.2760    -0.7850 C.ar  1 <1>   0.1600 
 13 C       -3.0350     6.1220     0.5920 C.ar  1 <1>  -0.1500 
 14 C        0.2010     6.6790    -1.1700 C.2   1 <1>   0.5690 
 15 N       -4.9360     4.5060    -0.6970 N.ar  1 <1>  -0.6200 
 16 C       -4.3860     6.3710     0.7000 C.ar  1 <1>  -0.1500 
 17 O       -0.2890     7.5110    -0.4380 O.2   1 <1>  -0.5700 
 18 N        1.4930     6.7740    -1.5700 N.am  1 <1>  -0.7300 
 19 C       -5.2810     5.5450     0.0450 C.ar  1 <1>   0.1600 
 20 C        2.4540     7.8290    -1.1750 C.3   1 <1>   0.3200 
 21 C        2.8870     7.6390     0.2680 C.2   1 <1>   0.0070 
 22 N        4.0890     7.3450     0.6520 N.2   1 <1>  -0.5650 
 23 N        2.0130     7.7730     1.2870 N.pl3 1 <1>   0.0330 
 24 C        3.9910     7.2830     1.9950 C.2   1 <1>   0.0770 
 25 C        2.7290     7.5420     2.4010 C.2   1 <1>  -0.3020 
 26 H       -1.4390     3.5790    -3.2590 H     1 <1>   0.0800 
 27 H        0.1630     2.9100    -3.4980 H     1 <1>   0.0800 
 28 H       -0.6400     5.1040     0.5030 H     1 <1>   0.0800 
 29 H        0.1650     2.5800     1.3300 H     1 <1>   0.1000 
 30 H       -1.4760     5.8640    -2.1710 H     1 <1>   0.0800 
 31 H       -2.3390     1.0170     0.4310 H     1 <1>   0.1000 
 32 H       -1.2310     0.5410     1.7530 H     1 <1>   0.1000 
 33 H       -1.7570     2.6680     2.9790 H     1 <1>   0.1000 
 34 H       -2.9090     3.1070     1.6870 H     1 <1>   0.1000 
 35 H       -3.3550     3.4230    -1.3760 H     1 <1>   0.1500 
 36 H       -2.3200     6.7570     1.0890 H     1 <1>   0.1500 
 37 H       -4.7450     7.1980     1.2850 H     1 <1>   0.1500 
 38 H        1.8820     5.9950    -2.1120 H     1 <1>   0.3700 
 39 H       -6.3350     5.7490     0.1340 H     1 <1>   0.1500 
 40 H        3.3180     7.7850    -1.8160 H     1 <1>   0.0800 
 41 H        1.9940     8.7950    -1.2880 H     1 <1>   0.0800 
 42 H        1.0110     7.9810     1.1800 H     1 <1>   0.2700 
 43 H        4.8470     7.0520     2.6060 H     1 <1>   0.1500 
 44 H        2.3140     7.5720     3.3920 H     1 <1>   0.1500 
@<TRIPOS>BOND
  1   1   2  2   
  2   2   3  am  
  3   2   4  1   
  4   3   5  1   
  5   3   6  1   
  6   4   7  1   
  7   4  26  1   
  8   4  27  1   
  9   5   8  1   
 10   5   9  1   
 11   5  28  1   
 12   6  10  1   
 13   6  11  1   
 14   6  29  1   
 15   7   9  1   
 16   8  12  ar  
 17   8  13  ar  
 18   9  14  1   
 19   9  30  1   
 20  10  11  1   
 21  10  31  1   
 22  10  32  1   
 23  11  33  1   
 24  11  34  1   
 25  12  15  ar  
 26  12  35  1   
 27  13  16  ar  
 28  13  36  1   
 29  14  17  2   
 30  14  18  am  
 31  15  19  ar  
 32  16  19  ar  
 33  16  37  1   
 34  18  20  1   
 35  18  38  1   
 36  19  39  1   
 37  20  21  1   
 38  20  40  1   
 39  20  41  1   
 40  21  22  2   
 41  21  23  1   
 42  22  24  1   
 43  23  25  1   
 44  23  42  1   
 45  24  25  2   
 46  24  43  1   
 47  25  44  1   
@<TRIPOS>SUBSTRUCTURE
  1 ****   5 GROUP 4 **** **** 0

# MOE 2024.06 (io_trps.svl 2023.06)
