@<TRIPOS>MOLECULE
NONAME
38 40 1 0 0 
SMALL
USER_CHARGES


@<TRIPOS>ATOM
  1 O        2.9060     0.6670    -1.3570 O.co2 1 <1>  -0.9000 
  2 C        2.8760     1.8650    -1.6310 C.2   1 <1>   0.8710 
  3 O        3.0820     2.3240    -2.7530 O.co2 1 <1>  -0.9000 
  4 C        2.6740     2.8180    -0.5200 C.3   1 <1>  -0.0710 
  5 C        3.6220     3.9980    -0.7090 C.3   1 <1>   0.4720 
  6 C        3.5660     2.3920     0.6410 C.3   1 <1>   0.4720 
  7 N        4.0470     3.8110     0.7190 N.4   1 <1>  -0.8970 
  8 C        3.3460     4.6900     1.6750 C.3   1 <1>   0.5240 
  9 C        3.9080     6.0960     1.5680 C.2   1 <1>  -0.1810 
 10 C        5.1600     6.5120     1.2290 C.2   1 <1>  -0.2050 
 11 C        3.1910     7.2580     1.8170 C.2   1 <1>   0.1390 
 12 N        5.1230     7.8650     1.2920 N.pl3 1 <1>   0.3000 
 13 C        6.3190     5.7490     0.8660 C.ar  1 <1>   0.0530 
 14 N        3.9110     8.3230     1.6520 N.2   1 <1>  -0.7070 
 15 C        7.0690     5.0910     1.8340 C.ar  1 <1>  -0.1500 
 16 C        6.6800     5.5960    -0.4690 C.ar  1 <1>  -0.1500 
 17 C        8.1310     4.2840     1.4770 C.ar  1 <1>  -0.1500 
 18 C        7.7390     4.7860    -0.8330 C.ar  1 <1>  -0.1500 
 19 C        8.4690     4.1160     0.1440 C.ar  1 <1>   0.0830 
 20 O        9.5090     3.2910    -0.1220 O.3   1 <1>  -0.3630 
 21 C        9.8820     2.9800    -1.4470 C.3   1 <1>   0.0400 
 22 H        1.6600     3.0690    -0.2620 H     1 <1>   0.0000 
 23 H        3.1320     4.9410    -0.8700 H     1 <1>   0.0000 
 24 H        4.4400     3.7970    -1.3780 H     1 <1>   0.0000 
 25 H        4.3660     1.7330     0.3540 H     1 <1>   0.0000 
 26 H        3.0320     2.0930     1.5250 H     1 <1>   0.0000 
 27 H        5.0690     3.8830     0.7870 H     1 <1>   0.4500 
 28 H        3.4900     4.3260     2.6790 H     1 <1>   0.0800 
 29 H        2.2900     4.7000     1.4600 H     1 <1>   0.0800 
 30 H        2.1550     7.3030     2.1140 H     1 <1>   0.1500 
 31 H        5.9140     8.4930     1.0970 H     1 <1>   0.2700 
 32 H        6.8180     5.2140     2.8740 H     1 <1>   0.1500 
 33 H        6.1180     6.1090    -1.2320 H     1 <1>   0.1500 
 34 H        8.7110     3.7740     2.2270 H     1 <1>   0.1500 
 35 H        7.9830     4.6850    -1.8750 H     1 <1>   0.1500 
 36 H       10.7020     2.2850    -1.4090 H     1 <1>   0.0800 
 37 H       10.1920     3.8820    -1.9450 H     1 <1>   0.0800 
 38 H        9.0450     2.5280    -1.9510 H     1 <1>   0.0800 
@<TRIPOS>BOND
  1   1   2  ar  
  2   2   3  ar  
  3   2   4  1   
  4   4   5  1   
  5   4   6  1   
  6   4  22  1   
  7   5   7  1   
  8   5  23  1   
  9   5  24  1   
 10   6   7  1   
 11   6  25  1   
 12   6  26  1   
 13   7   8  1   
 14   7  27  1   
 15   8   9  1   
 16   8  28  1   
 17   8  29  1   
 18   9  10  2   
 19   9  11  1   
 20  10  12  1   
 21  10  13  1   
 22  11  14  2   
 23  11  30  1   
 24  12  14  1   
 25  12  31  1   
 26  13  15  ar  
 27  13  16  ar  
 28  15  17  ar  
 29  15  32  1   
 30  16  18  ar  
 31  16  33  1   
 32  17  19  ar  
 33  17  34  1   
 34  18  19  ar  
 35  18  35  1   
 36  19  20  1   
 37  20  21  1   
 38  21  36  1   
 39  21  37  1   
 40  21  38  1   
@<TRIPOS>SUBSTRUCTURE
  1 ****   7 GROUP 4 **** **** 0

# MOE 2024.06 (io_trps.svl 2023.06)
