@<TRIPOS>MOLECULE
NONAME
49 52 1 0 0 
SMALL
USER_CHARGES


@<TRIPOS>ATOM
  1 O        0.8340     0.5760     1.4420 O.3   1 <1>  -0.0190 
  2 N        1.5340    -0.4160     0.9730 N.2   1 <1>  -0.4100 
  3 C        0.7500     1.5610     0.5880 C.2   1 <1>  -0.0400 
  4 C        1.9010    -0.0680    -0.2070 C.2   1 <1>   0.1080 
  5 C        1.4250     1.2030    -0.5160 C.2   1 <1>  -0.1500 
  6 C       -0.0280     2.8060     0.9800 C.3   1 <1>   0.0200 
  7 C        2.7360    -0.9320    -1.1260 C.3   1 <1>  -0.0590 
  8 C        0.3580     4.0320     0.1310 C.3   1 <1>  -0.0800 
  9 C       -0.4240     5.3070     0.4400 C.3   1 <1>   0.2000 
 10 C        1.8240     4.4500     0.2930 C.3   1 <1>   0.2090 
 11 O       -0.4800     5.5000     1.8120 O.3   1 <1>  -0.6800 
 12 C        0.4630     6.3950    -0.1580 C.3   1 <1>   0.2090 
 13 N        1.8690     5.9360     0.0920 N.pl3 1 <1>  -0.8380 
 14 C        2.9580     6.7310     0.3080 C.ar  1 <1>   0.1000 
 15 C        3.0420     8.1210    -0.0590 C.ar  1 <1>   0.0000 
 16 C        4.0670     6.2020     0.9780 C.ar  1 <1>  -0.1500 
 17 C        4.0410     8.9340     0.5210 C.ar  1 <1>   0.3610 
 18 C        2.2240     8.7440    -1.0180 C.ar  1 <1>  -0.1500 
 19 C        5.0780     6.9970     1.4430 C.ar  1 <1>   0.2110 
 20 N        5.0340     8.3240     1.2520 N.ar  1 <1>  -0.1790 
 21 C        4.0730    10.3310     0.3110 C.ar  1 <1>  -0.1430 
 22 C        2.2870    10.0890    -1.2630 C.ar  1 <1>  -0.1500 
 23 C        3.1950    10.9030    -0.5860 C.ar  1 <1>  -0.1430 
 24 C        5.0930    11.1910     1.0700 C.3   1 <1>  -0.0970 
 25 C        3.1650    12.3940    -0.9080 C.3   1 <1>  -0.0970 
 26 H        1.5850     1.7270    -1.4400 H     1 <1>   0.1500 
 27 H       -1.0800     2.6040     0.8770 H     1 <1>   0.0800 
 28 H        0.1610     3.0070     2.0200 H     1 <1>   0.0800 
 29 H        3.6540    -0.4280    -1.3680 H     1 <1>   0.0800 
 30 H        2.1920    -1.1350    -2.0300 H     1 <1>   0.0800 
 31 H        2.9680    -1.8640    -0.6430 H     1 <1>   0.0800 
 32 H        0.1960     3.7950    -0.9050 H     1 <1>   0.0800 
 33 H       -1.4270     5.3060     0.0480 H     1 <1>   0.0800 
 34 H        2.4520     3.9510    -0.4240 H     1 <1>   0.0800 
 35 H        2.1550     4.2100     1.2890 H     1 <1>   0.0800 
 36 H        0.4180     5.7330     2.1240 H     1 <1>   0.4000 
 37 H        0.2590     7.3540     0.2890 H     1 <1>   0.0800 
 38 H        0.2870     6.4400    -1.2180 H     1 <1>   0.0800 
 39 H        4.1280     5.1470     1.1650 H     1 <1>   0.1500 
 40 H        1.5390     8.1590    -1.5970 H     1 <1>   0.1500 
 41 H        5.9130     6.5710     1.9760 H     1 <1>   0.1500 
 42 H        5.7740     8.9310     1.6090 H     1 <1>   0.4570 
 43 H        1.6260    10.5240    -1.9950 H     1 <1>   0.1500 
 44 H        4.8360    12.2340     1.0490 H     1 <1>   0.0800 
 45 H        6.0700    11.0880     0.6310 H     1 <1>   0.0800 
 46 H        5.1330    10.9150     2.1090 H     1 <1>   0.0800 
 47 H        2.5140    12.6020    -1.7390 H     1 <1>   0.0800 
 48 H        4.1480    12.7430    -1.1700 H     1 <1>   0.0800 
 49 H        2.8070    12.9490    -0.0590 H     1 <1>   0.0800 
@<TRIPOS>BOND
  1   1   2  1   
  2   1   3  1   
  3   2   4  2   
  4   3   5  2   
  5   3   6  1   
  6   4   5  1   
  7   4   7  1   
  8   5  26  1   
  9   6   8  1   
 10   6  27  1   
 11   6  28  1   
 12   7  29  1   
 13   7  30  1   
 14   7  31  1   
 15   8   9  1   
 16   8  10  1   
 17   8  32  1   
 18   9  11  1   
 19   9  12  1   
 20   9  33  1   
 21  10  13  1   
 22  10  34  1   
 23  10  35  1   
 24  11  36  1   
 25  12  13  1   
 26  12  37  1   
 27  12  38  1   
 28  13  14  1   
 29  14  15  ar  
 30  14  16  ar  
 31  15  17  ar  
 32  15  18  ar  
 33  16  19  ar  
 34  16  39  1   
 35  17  20  ar  
 36  17  21  ar  
 37  18  22  ar  
 38  18  40  1   
 39  19  20  ar  
 40  19  41  1   
 41  20  42  1   
 42  21  23  ar  
 43  21  24  1   
 44  22  23  ar  
 45  22  43  1   
 46  23  25  1   
 47  24  44  1   
 48  24  45  1   
 49  24  46  1   
 50  25  47  1   
 51  25  48  1   
 52  25  49  1   
@<TRIPOS>SUBSTRUCTURE
  1 ****  13 GROUP 4 **** **** 0

# MOE 2024.06 (io_trps.svl 2023.06)
