@<TRIPOS>MOLECULE
NONAME
51 54 1 0 0 
SMALL
USER_CHARGES


@<TRIPOS>ATOM
  1 F        1.7350    -1.8940    -1.7970 F     1 <1>  -0.3400 
  2 C        1.1410    -2.1030    -0.6320 C.3   1 <1>   1.1640 
  3 F        2.0210    -1.7750     0.3050 F     1 <1>  -0.3400 
  4 F        0.1510    -1.2270    -0.5440 F     1 <1>  -0.3400 
  5 C        0.6430    -3.5550    -0.4910 C.ar  1 <1>  -0.1440 
  6 C        1.1040    -4.4150     0.4850 C.ar  1 <1>  -0.1500 
  7 C       -0.3080    -4.0420    -1.3960 C.ar  1 <1>  -0.1500 
  8 C        0.6340    -5.7330     0.5900 C.ar  1 <1>   0.3610 
  9 C       -0.7920    -5.3200    -1.2920 C.ar  1 <1>  -0.1500 
 10 N        1.1940    -6.6020     1.5000 N.ar  1 <1>  -0.1790 
 11 C       -0.3860    -6.1940    -0.2660 C.ar  1 <1>   0.0000 
 12 C        0.8040    -7.8830     1.6020 C.ar  1 <1>   0.2180 
 13 C       -0.8990    -7.5200    -0.0850 C.ar  1 <1>   0.1000 
 14 C       -0.2230    -8.3410     0.8230 C.ar  1 <1>  -0.1500 
 15 C        1.5100    -8.7880     2.5990 C.3   1 <1>  -0.0970 
 16 N       -2.0090    -7.9920    -0.7130 N.pl3 1 <1>  -0.8380 
 17 C       -2.1840    -9.4300    -1.0870 C.3   1 <1>   0.2090 
 18 C       -3.2730    -7.2090    -0.8920 C.3   1 <1>   0.2090 
 19 C       -3.2270   -10.0720    -0.1700 C.3   1 <1>  -0.0190 
 20 C       -4.3960    -7.8350    -0.0510 C.3   1 <1>  -0.1600 
 21 C       -3.2750   -11.5710    -0.4540 C.2   1 <1>   0.5940 
 22 C       -4.5750    -9.3380    -0.3240 C.3   1 <1>  -0.1600 
 23 O       -4.1340   -11.9830    -1.1980 O.2   1 <1>  -0.5700 
 24 C       -2.2690   -12.4090     0.1610 C.2   1 <1>   0.1010 
 25 N       -1.2460   -11.9700     0.8720 N.2   1 <1>  -0.5650 
 26 N       -2.2590   -13.7760     0.0650 N.pl3 1 <1>   0.0480 
 27 C       -0.5840   -13.0740     1.2310 C.2   1 <1>   0.0770 
 28 C       -1.1840   -14.1820     0.7500 C.2   1 <1>  -0.3020 
 29 C       -3.2080   -14.6730    -0.6280 C.3   1 <1>   0.0160 
 30 H        1.8510    -4.0770     1.1840 H     1 <1>   0.1500 
 31 H       -0.6610    -3.4010    -2.1900 H     1 <1>   0.1500 
 32 H       -1.4960    -5.6720    -2.0260 H     1 <1>   0.1500 
 33 H        1.9490    -6.2540     2.0930 H     1 <1>   0.4570 
 34 H       -0.5400    -9.3600     0.9420 H     1 <1>   0.1500 
 35 H        2.5570    -8.8620     2.3660 H     1 <1>   0.0800 
 36 H        1.0920    -9.7800     2.5700 H     1 <1>   0.0800 
 37 H        1.3960    -8.4080     3.5990 H     1 <1>   0.0800 
 38 H       -1.2450    -9.9520    -1.0230 H     1 <1>   0.0800 
 39 H       -2.5150    -9.4920    -2.1110 H     1 <1>   0.0800 
 40 H       -3.5480    -7.2090    -1.9330 H     1 <1>   0.0800 
 41 H       -3.1390    -6.1910    -0.5720 H     1 <1>   0.0800 
 42 H       -2.9040    -9.9470     0.8470 H     1 <1>   0.0800 
 43 H       -5.3180    -7.3200    -0.2560 H     1 <1>   0.0800 
 44 H       -4.1660    -7.6840     0.9890 H     1 <1>   0.0800 
 45 H       -5.2980    -9.7500     0.3590 H     1 <1>   0.0800 
 46 H       -4.9510    -9.4740    -1.3250 H     1 <1>   0.0800 
 47 H        0.3100   -13.0310     1.8310 H     1 <1>   0.1500 
 48 H       -0.8990   -15.2120     0.8630 H     1 <1>   0.1500 
 49 H       -4.1980   -14.5110    -0.2420 H     1 <1>   0.0800 
 50 H       -2.9250   -15.6970    -0.4670 H     1 <1>   0.0800 
 51 H       -3.1970   -14.4600    -1.6810 H     1 <1>   0.0800 
@<TRIPOS>BOND
  1   1   2  1   
  2   2   3  1   
  3   2   4  1   
  4   2   5  1   
  5   5   6  ar  
  6   5   7  ar  
  7   6   8  ar  
  8   6  30  1   
  9   7   9  ar  
 10   7  31  1   
 11   8  10  ar  
 12   8  11  ar  
 13   9  11  ar  
 14   9  32  1   
 15  10  12  ar  
 16  10  33  1   
 17  11  13  ar  
 18  12  14  ar  
 19  12  15  1   
 20  13  14  ar  
 21  13  16  1   
 22  14  34  1   
 23  15  35  1   
 24  15  36  1   
 25  15  37  1   
 26  16  17  1   
 27  16  18  1   
 28  17  19  1   
 29  17  38  1   
 30  17  39  1   
 31  18  20  1   
 32  18  40  1   
 33  18  41  1   
 34  19  21  1   
 35  19  22  1   
 36  19  42  1   
 37  20  22  1   
 38  20  43  1   
 39  20  44  1   
 40  21  23  2   
 41  21  24  1   
 42  22  45  1   
 43  22  46  1   
 44  24  25  2   
 45  24  26  1   
 46  25  27  1   
 47  26  28  1   
 48  26  29  1   
 49  27  28  2   
 50  27  47  1   
 51  28  48  1   
 52  29  49  1   
 53  29  50  1   
 54  29  51  1   
@<TRIPOS>SUBSTRUCTURE
  1 ****  13 GROUP 4 **** **** 0

# MOE 2024.06 (io_trps.svl 2023.06)
