@<TRIPOS>MOLECULE
NONAME
49 51 1 0 0 
SMALL
USER_CHARGES


@<TRIPOS>ATOM
  1 O        1.4470    -1.0970    -0.1160 O.2   1 <1>  -0.5750 
  2 C        2.3910    -0.4540     0.2790 C.2   1 <1>   0.6860 
  3 N        2.9490     0.5760    -0.4660 N.am  1 <1>  -0.4420 
  4 N        2.9200    -0.7590     1.5000 N.am  1 <1>  -0.4950 
  5 C        4.0230     1.2600     0.0860 C.2   1 <1>   0.4200 
  6 C        2.4020     0.9420    -1.8050 C.3   1 <1>   0.0520 
  7 C        3.9780    -0.0980     2.0560 C.2   1 <1>   0.6990 
  8 N        4.7160     2.3020    -0.4510 N.pl3 1 <1>  -0.7040 
  9 C        4.5520     0.9730     1.2970 C.2   1 <1>   0.2700 
 10 O        4.3820    -0.4380     3.1500 O.2   1 <1>  -0.5750 
 11 C        5.6620     2.6570     0.4160 C.cat 1 <1>   1.0690 
 12 N        5.6080     1.8810     1.4980 N.pl3 1 <1>  -0.7670 
 13 N        6.5260     3.6380     0.2360 N.pl3 1 <1>  -0.7180 
 14 C        6.4530     1.8700     2.7270 C.3   1 <1>   0.2670 
 15 C        6.8390     4.3820    -0.9700 C.3   1 <1>   0.4230 
 16 C        8.2820     4.7970    -0.7920 C.2   1 <1>  -0.1880 
 17 C        5.9050     5.5800    -1.1080 C.3   1 <1>  -0.2470 
 18 C        9.3010     4.5160    -1.6970 C.2   1 <1>   0.1000 
 19 C        8.8940     5.4660     0.2200 C.2   1 <1>  -0.3380 
 20 N       10.4450     4.9550    -1.2920 N.2   1 <1>  -0.7110 
 21 C        9.1670     3.7870    -3.0170 C.3   1 <1>  -0.0670 
 22 N       10.2040     5.5580    -0.1180 N.pl3 1 <1>   0.3070 
 23 C        8.3410     6.0660     1.5080 C.3   1 <1>  -0.0680 
 24 C       11.3040     6.2130     0.6280 C.3   1 <1>   0.0880 
 25 C       11.4160     7.7000     0.2680 C.3   1 <1>  -0.2470 
 26 H        2.4890    -1.5210     2.0200 H     1 <1>   0.3640 
 27 H        1.6790     0.2140    -2.1350 H     1 <1>   0.0720 
 28 H        3.1950     0.9780    -2.5310 H     1 <1>   0.0720 
 29 H        1.9170     1.9010    -1.7520 H     1 <1>   0.0720 
 30 H        4.5330     2.7590    -1.3390 H     1 <1>   0.4440 
 31 H        7.2580     3.8080     0.9250 H     1 <1>   0.4440 
 32 H        6.9290     0.9100     2.8350 H     1 <1>   0.0720 
 33 H        5.8380     2.0450     3.5950 H     1 <1>   0.0720 
 34 H        7.2140     2.6300     2.6820 H     1 <1>   0.0720 
 35 H        6.7430     3.7430    -1.8310 H     1 <1>   0.0720 
 36 H        5.9780     6.2320    -0.2580 H     1 <1>   0.0720 
 37 H        4.8860     5.2640    -1.2300 H     1 <1>   0.0720 
 38 H        6.1880     6.1460    -1.9780 H     1 <1>   0.0720 
 39 H        8.4650     4.2970    -3.6500 H     1 <1>   0.0720 
 40 H        8.8450     2.7760    -2.8520 H     1 <1>   0.0720 
 41 H       10.1200     3.7640    -3.5160 H     1 <1>   0.0720 
 42 H        7.2850     5.9050     1.6060 H     1 <1>   0.0720 
 43 H        8.5140     7.1280     1.5170 H     1 <1>   0.0720 
 44 H        8.8340     5.6340     2.3610 H     1 <1>   0.0720 
 45 H       12.2210     5.7110     0.3770 H     1 <1>   0.0720 
 46 H       11.1320     6.0960     1.6810 H     1 <1>   0.0720 
 47 H       11.6030     7.8070    -0.7870 H     1 <1>   0.0720 
 48 H       12.2320     8.1460     0.8070 H     1 <1>   0.0720 
 49 H       10.5100     8.2210     0.5210 H     1 <1>   0.0720 
@<TRIPOS>BOND
  1   1   2  2   
  2   2   3  am  
  3   2   4  am  
  4   3   5  1   
  5   3   6  1   
  6   4   7  am  
  7   4  26  1   
  8   5   8  1   
  9   5   9  2   
 10   6  27  1   
 11   6  28  1   
 12   6  29  1   
 13   7   9  1   
 14   7  10  2   
 15   8  11  ar  
 16   8  30  1   
 17   9  12  1   
 18  11  12  ar  
 19  11  13  ar  
 20  12  14  1   
 21  13  15  1   
 22  13  31  1   
 23  14  32  1   
 24  14  33  1   
 25  14  34  1   
 26  15  16  1   
 27  15  17  1   
 28  15  35  1   
 29  16  18  1   
 30  16  19  2   
 31  17  36  1   
 32  17  37  1   
 33  17  38  1   
 34  18  20  2   
 35  18  21  1   
 36  19  22  1   
 37  19  23  1   
 38  20  22  1   
 39  21  39  1   
 40  21  40  1   
 41  21  41  1   
 42  22  24  1   
 43  23  42  1   
 44  23  43  1   
 45  23  44  1   
 46  24  25  1   
 47  24  45  1   
 48  24  46  1   
 49  25  47  1   
 50  25  48  1   
 51  25  49  1   
@<TRIPOS>SUBSTRUCTURE
  1 ****  11 GROUP 4 **** **** 0

# MOE 2024.06 (io_trps.svl 2023.06)
