@<TRIPOS>MOLECULE
NONAME
42 44 1 0 0 
SMALL
USER_CHARGES


@<TRIPOS>ATOM
  1 N       -0.3980    -0.5680    -0.3330 N.ar  1 <1>  -0.6200 
  2 C       -1.5630    -1.1600    -0.1310 C.ar  1 <1>   0.4100 
  3 C        0.5480    -1.4270    -0.6920 C.ar  1 <1>   0.1600 
  4 N       -2.6300    -0.3230     0.2340 N.pl3 1 <1>  -0.8380 
  5 C       -1.7590    -2.5720    -0.2830 C.ar  1 <1>   0.4100 
  6 C        0.3540    -2.7880    -0.8420 C.ar  1 <1>   0.1600 
  7 C       -3.5150     0.0780    -0.8900 C.3   1 <1>   0.1290 
  8 C       -2.3280     0.7960     1.1690 C.3   1 <1>   0.1290 
  9 N       -0.8020    -3.4090    -0.6430 N.ar  1 <1>  -0.6200 
 10 N       -3.0130    -3.1200    -0.0430 N.pl3 1 <1>  -0.8690 
 11 C       -3.1340    -4.4450     0.6280 C.3   1 <1>   0.2090 
 12 C       -3.2430    -5.5720    -0.4030 C.3   1 <1>   0.2090 
 13 N       -3.4790    -6.8770     0.2880 N.pl3 1 <1>  -0.8380 
 14 C       -4.7250    -7.4770     0.1880 C.ar  1 <1>   0.1000 
 15 C       -2.4410    -7.9290     0.0820 C.3   1 <1>   0.2090 
 16 C       -4.6410    -8.8450     0.0490 C.ar  1 <1>  -0.1430 
 17 C       -5.9710    -6.8650     0.2160 C.ar  1 <1>  -0.1500 
 18 C       -3.1960    -9.2680     0.0510 C.3   1 <1>  -0.0170 
 19 C       -5.7730    -9.6280    -0.0690 C.ar  1 <1>  -0.1500 
 20 C       -7.1140    -7.6380     0.0970 C.ar  1 <1>  -0.1500 
 21 C       -7.0170    -9.0160    -0.0460 C.ar  1 <1>  -0.1500 
 22 H        1.5250    -1.0180    -0.8760 H     1 <1>   0.1500 
 23 H        1.1860    -3.4010    -1.1390 H     1 <1>   0.1500 
 24 H       -3.6800    -0.7580    -1.5480 H     1 <1>   0.0800 
 25 H       -3.0550     0.8740    -1.4510 H     1 <1>   0.0800 
 26 H       -4.4640     0.4120    -0.5090 H     1 <1>   0.0800 
 27 H       -1.6480     0.4590     1.9330 H     1 <1>   0.0800 
 28 H       -3.2340     1.1390     1.6370 H     1 <1>   0.0800 
 29 H       -1.8700     1.6100     0.6340 H     1 <1>   0.0800 
 30 H       -3.5960    -2.3960     0.3940 H     1 <1>   0.4000 
 31 H       -4.0150    -4.4490     1.2440 H     1 <1>   0.0800 
 32 H       -2.2760    -4.6190     1.2530 H     1 <1>   0.0800 
 33 H       -2.3330    -5.6100    -0.9760 H     1 <1>   0.0800 
 34 H       -4.0560    -5.3630    -1.0750 H     1 <1>   0.0800 
 35 H       -1.7300    -7.9050     0.8890 H     1 <1>   0.0800 
 36 H       -1.9320    -7.7730    -0.8530 H     1 <1>   0.0800 
 37 H       -6.0360    -5.8010     0.3330 H     1 <1>   0.1500 
 38 H       -2.9750    -9.8450     0.9300 H     1 <1>   0.0800 
 39 H       -2.9490    -9.8300    -0.8300 H     1 <1>   0.0800 
 40 H       -5.6910   -10.6950    -0.1780 H     1 <1>   0.1500 
 41 H       -8.0810    -7.1680     0.1170 H     1 <1>   0.1500 
 42 H       -7.9090    -9.6100    -0.1370 H     1 <1>   0.1500 
@<TRIPOS>BOND
  1   1   2  ar  
  2   1   3  ar  
  3   2   4  1   
  4   2   5  ar  
  5   3   6  ar  
  6   3  22  1   
  7   4   7  1   
  8   4   8  1   
  9   5   9  ar  
 10   5  10  1   
 11   6   9  ar  
 12   6  23  1   
 13   7  24  1   
 14   7  25  1   
 15   7  26  1   
 16   8  27  1   
 17   8  28  1   
 18   8  29  1   
 19  10  11  1   
 20  10  30  1   
 21  11  12  1   
 22  11  31  1   
 23  11  32  1   
 24  12  13  1   
 25  12  33  1   
 26  12  34  1   
 27  13  14  1   
 28  13  15  1   
 29  14  16  ar  
 30  14  17  ar  
 31  15  18  1   
 32  15  35  1   
 33  15  36  1   
 34  16  18  1   
 35  16  19  ar  
 36  17  20  ar  
 37  17  37  1   
 38  18  38  1   
 39  18  39  1   
 40  19  21  ar  
 41  19  40  1   
 42  20  21  ar  
 43  20  41  1   
 44  21  42  1   
@<TRIPOS>SUBSTRUCTURE
  1 ****  11 GROUP 4 **** **** 0

# MOE 2024.06 (io_trps.svl 2023.06)
