@<TRIPOS>MOLECULE
NONAME
33 35 1 0 0 
SMALL
USER_CHARGES


@<TRIPOS>ATOM
  1 F       -0.7370     0.3370    -0.4140 F     1 <1>  -0.3400 
  2 C       -0.7670     1.6670    -0.4040 C.3   1 <1>   1.1640 
  3 F       -1.1430     2.0100    -1.6320 F     1 <1>  -0.3400 
  4 F       -1.7660     1.9820     0.4130 F     1 <1>  -0.3400 
  5 C        0.5810     2.2660     0.0120 C.ar  1 <1>  -0.1440 
  6 C        0.7180     3.6710     0.0390 C.ar  1 <1>   0.3100 
  7 C        1.6430     1.4580     0.3580 C.ar  1 <1>  -0.1500 
  8 N       -0.3570     4.4470    -0.2530 N.ar  1 <1>  -0.6200 
  9 C        1.9720     4.2340     0.3840 C.ar  1 <1>   0.0000 
 10 C        2.8640     2.0110     0.7410 C.ar  1 <1>  -0.1500 
 11 C       -0.2070     5.7360    -0.2120 C.ar  1 <1>   0.1600 
 12 C        2.1190     5.6470     0.3590 C.ar  1 <1>   0.1000 
 13 C        3.0180     3.3680     0.7580 C.ar  1 <1>  -0.1500 
 14 C        0.9900     6.3770     0.0830 C.ar  1 <1>  -0.1500 
 15 N        3.3540     6.2510     0.5770 N.pl3 1 <1>  -0.8380 
 16 C        4.4290     6.1180    -0.4620 C.3   1 <1>   0.2090 
 17 C        3.5060     7.5950     1.2140 C.3   1 <1>   0.2090 
 18 C        5.1720     7.4610    -0.4950 C.3   1 <1>   0.2600 
 19 C        4.2080     8.4500     0.1560 C.3   1 <1>   0.2000 
 20 F        6.2380     7.3610     0.2980 F     1 <1>  -0.3400 
 21 O        3.2600     8.8410    -0.7900 O.3   1 <1>  -0.6800 
 22 H        1.5660     0.3830     0.3500 H     1 <1>   0.1500 
 23 H        3.6740     1.3600     1.0250 H     1 <1>   0.1500 
 24 H       -1.0680     6.3460    -0.4280 H     1 <1>   0.1500 
 25 H        3.9540     3.7930     1.0720 H     1 <1>   0.1500 
 26 H        1.0020     7.4480     0.0740 H     1 <1>   0.1500 
 27 H        5.1020     5.3130    -0.2250 H     1 <1>   0.0800 
 28 H        3.9730     5.9290    -1.4180 H     1 <1>   0.0800 
 29 H        2.5700     8.0230     1.5260 H     1 <1>   0.0800 
 30 H        4.1420     7.4940     2.0770 H     1 <1>   0.0800 
 31 H        5.5310     7.7570    -1.4640 H     1 <1>   0.0800 
 32 H        4.6930     9.3280     0.5460 H     1 <1>   0.0800 
 33 H        2.7130     8.0580    -1.0120 H     1 <1>   0.4000 
@<TRIPOS>BOND
  1   1   2  1   
  2   2   3  1   
  3   2   4  1   
  4   2   5  1   
  5   5   6  ar  
  6   5   7  ar  
  7   6   8  ar  
  8   6   9  ar  
  9   7  10  ar  
 10   7  22  1   
 11   8  11  ar  
 12   9  12  ar  
 13   9  13  ar  
 14  10  13  ar  
 15  10  23  1   
 16  11  14  ar  
 17  11  24  1   
 18  12  14  ar  
 19  12  15  1   
 20  13  25  1   
 21  14  26  1   
 22  15  16  1   
 23  15  17  1   
 24  16  18  1   
 25  16  27  1   
 26  16  28  1   
 27  17  19  1   
 28  17  29  1   
 29  17  30  1   
 30  18  19  1   
 31  18  20  1   
 32  18  31  1   
 33  19  21  1   
 34  19  32  1   
 35  21  33  1   
@<TRIPOS>SUBSTRUCTURE
  1 ****   9 GROUP 4 **** **** 0

# MOE 2024.06 (io_trps.svl 2023.06)
