@<TRIPOS>MOLECULE
NONAME
50 52 1 0 0 
SMALL
USER_CHARGES


@<TRIPOS>ATOM
  1 O        1.0780     0.4020     2.7310 O.co2 1 <1>  -0.9000 
  2 C        1.4900    -0.1740     1.7180 C.2   1 <1>   0.9060 
  3 O        1.1840    -1.3550     1.4860 O.co2 1 <1>  -0.9000 
  4 C        2.4060     0.5470     0.7170 C.3   1 <1>  -0.1060 
  5 C        3.6750    -0.3250     0.5740 C.3   1 <1>   0.2000 
  6 C        2.8800     1.9200     1.2660 C.3   1 <1>  -0.1600 
  7 C        1.6600     0.6970    -0.6460 C.3   1 <1>  -0.0160 
  8 O        3.3340    -1.5450     0.0030 O.3   1 <1>  -0.6800 
  9 C        4.8010     0.3160    -0.2570 C.3   1 <1>   0.2090 
 10 C        3.9160     2.6080     0.3760 C.3   1 <1>   0.2090 
 11 C        0.6400     1.8340    -0.7240 C.ar  1 <1>  -0.1440 
 12 N        5.1040     1.7300     0.1580 N.pl3 1 <1>  -0.8380 
 13 C        0.8390     2.8930    -1.5980 C.ar  1 <1>  -0.1500 
 14 C       -0.4990     1.8200     0.0670 C.ar  1 <1>  -0.1500 
 15 C        6.3670     2.2650    -0.0090 C.ar  1 <1>   0.7200 
 16 C       -0.0800     3.9250    -1.6760 C.ar  1 <1>  -0.1500 
 17 C       -1.4200     2.8510    -0.0090 C.ar  1 <1>  -0.1500 
 18 N        6.4610     3.5880    -0.1250 N.ar  1 <1>  -0.6200 
 19 N        7.3900     1.4140    -0.0520 N.ar  1 <1>  -0.6200 
 20 C       -1.2120     3.9050    -0.8810 C.ar  1 <1>  -0.1500 
 21 C        7.6580     4.0980    -0.2800 C.ar  1 <1>   0.1670 
 22 C        8.5770     1.9420    -0.2050 C.ar  1 <1>   0.1600 
 23 C        8.7840     3.2970    -0.3250 C.ar  1 <1>  -0.1430 
 24 C        7.7200     5.6160    -0.4020 C.3   1 <1>  -0.0170 
 25 C       10.1980     3.8400    -0.4940 C.3   1 <1>  -0.0970 
 26 C        7.7630     6.2860     0.9770 C.3   1 <1>  -0.2400 
 27 H        4.0620    -0.5380     1.5560 H     1 <1>   0.0800 
 28 H        3.3140     1.7800     2.2410 H     1 <1>   0.0800 
 29 H        2.0360     2.5720     1.4010 H     1 <1>   0.0800 
 30 H        2.3750     0.8380    -1.4320 H     1 <1>   0.0800 
 31 H        1.1500    -0.2240    -0.8700 H     1 <1>   0.0800 
 32 H        2.4890    -1.8220     0.4700 H     1 <1>   0.4000 
 33 H        4.5230     0.3200    -1.2950 H     1 <1>   0.0800 
 34 H        5.6720    -0.3030    -0.1500 H     1 <1>   0.0800 
 35 H        4.2100     3.5250     0.8570 H     1 <1>   0.0800 
 36 H        3.4840     2.8580    -0.5760 H     1 <1>   0.0800 
 37 H        1.7140     2.9180    -2.2220 H     1 <1>   0.1500 
 38 H       -0.6720     1.0070     0.7530 H     1 <1>   0.1500 
 39 H        0.0860     4.7410    -2.3560 H     1 <1>   0.1500 
 40 H       -2.2940     2.8250     0.6170 H     1 <1>   0.1500 
 41 H       -1.9280     4.7050    -0.9370 H     1 <1>   0.1500 
 42 H        9.4130     1.2660    -0.2350 H     1 <1>   0.1500 
 43 H        8.5740     5.9160    -0.9780 H     1 <1>   0.0800 
 44 H        6.8460     5.9540    -0.9310 H     1 <1>   0.0800 
 45 H       10.9270     3.0600    -0.3640 H     1 <1>   0.0800 
 46 H       10.3930     4.6050     0.2360 H     1 <1>   0.0800 
 47 H       10.3170     4.2550    -1.4790 H     1 <1>   0.0800 
 48 H        8.6330     5.9690     1.5220 H     1 <1>   0.0800 
 49 H        6.8870     6.0150     1.5410 H     1 <1>   0.0800 
 50 H        7.7880     7.3560     0.8700 H     1 <1>   0.0800 
@<TRIPOS>BOND
  1   1   2  ar  
  2   2   3  ar  
  3   2   4  1   
  4   4   5  1   
  5   4   6  1   
  6   4   7  1   
  7   5   8  1   
  8   5   9  1   
  9   5  27  1   
 10   6  10  1   
 11   6  28  1   
 12   6  29  1   
 13   7  11  1   
 14   7  30  1   
 15   7  31  1   
 16   8  32  1   
 17   9  12  1   
 18   9  33  1   
 19   9  34  1   
 20  10  12  1   
 21  10  35  1   
 22  10  36  1   
 23  11  13  ar  
 24  11  14  ar  
 25  12  15  1   
 26  13  16  ar  
 27  13  37  1   
 28  14  17  ar  
 29  14  38  1   
 30  15  18  ar  
 31  15  19  ar  
 32  16  20  ar  
 33  16  39  1   
 34  17  20  ar  
 35  17  40  1   
 36  18  21  ar  
 37  19  22  ar  
 38  20  41  1   
 39  21  23  ar  
 40  21  24  1   
 41  22  23  ar  
 42  22  42  1   
 43  23  25  1   
 44  24  26  1   
 45  24  43  1   
 46  24  44  1   
 47  25  45  1   
 48  25  46  1   
 49  25  47  1   
 50  26  48  1   
 51  26  49  1   
 52  26  50  1   
@<TRIPOS>SUBSTRUCTURE
  1 ****  10 GROUP 4 **** **** 0

# MOE 2024.06 (io_trps.svl 2023.06)
