@<TRIPOS>MOLECULE
NONAME
64 66 1 0 0 
SMALL
USER_CHARGES


@<TRIPOS>ATOM
  1 O        0.4390    -1.7860    -0.4750 O.3   1 <1>  -0.5600 
  2 C       -0.0950    -2.8820     0.2190 C.3   1 <1>   0.2800 
  3 C        0.5920    -0.5340     0.1600 C.3   1 <1>   0.1200 
  4 C       -1.4340    -2.5220     0.9220 C.3   1 <1>  -0.1600 
  5 C        0.9850    -3.4160     1.1820 C.3   1 <1>  -0.1600 
  6 C       -0.3370    -3.9640    -0.8530 C.3   1 <1>  -0.1600 
  7 C       -0.5280    -0.1830     1.1580 C.3   1 <1>   0.2000 
  8 C       -1.7980    -1.0280     0.9070 C.3   1 <1>   0.2800 
  9 C        2.2980    -3.7940     0.4790 C.3   1 <1>   0.3430 
 10 C        0.9380    -4.6070    -1.4180 C.3   1 <1>   0.3430 
 11 O       -0.0480    -0.3900     2.4550 O.3   1 <1>  -0.6800 
 12 O       -2.2970    -0.7230    -0.3440 O.3   1 <1>  -0.6800 
 13 C       -2.9320    -0.7110     1.8880 C.3   1 <1>  -0.2400 
 14 N        2.1250    -3.8280    -1.0030 N.4   1 <1>  -0.9590 
 15 C        3.3740    -4.1920    -1.7190 C.3   1 <1>   0.4860 
 16 C        4.4270    -3.1400    -1.4310 C.ar  1 <1>  -0.1430 
 17 C        5.3600    -3.3580    -0.4250 C.ar  1 <1>   0.0830 
 18 C        4.4520    -1.9640    -2.1650 C.ar  1 <1>  -0.1500 
 19 O        5.2550    -4.5500     0.2310 O.3   1 <1>  -0.3630 
 20 C        6.3130    -2.3690    -0.1290 C.ar  1 <1>   0.0830 
 21 C        5.4030    -1.0000    -1.8930 C.ar  1 <1>  -0.1500 
 22 C        6.4120    -5.2560     0.6300 C.3   1 <1>   0.1200 
 23 O        7.1840    -2.5640     0.9030 O.3   1 <1>  -0.3630 
 24 C        6.3260    -1.1980    -0.8820 C.ar  1 <1>  -0.1500 
 25 C        6.0550    -6.7390     0.7300 C.3   1 <1>  -0.1600 
 26 C        8.1440    -1.5970     1.2720 C.3   1 <1>   0.0400 
 27 C        7.2680    -7.5700     1.1660 C.3   1 <1>  -0.1600 
 28 C        6.9100    -9.0550     1.2650 C.3   1 <1>  -0.2400 
 29 H        1.5550    -0.5000     0.6380 H     1 <1>   0.0800 
 30 H        0.5830     0.1990    -0.6270 H     1 <1>   0.0800 
 31 H       -2.2520    -3.0780     0.4990 H     1 <1>   0.0800 
 32 H       -1.3720    -2.8450     1.9450 H     1 <1>   0.0800 
 33 H        1.2020    -2.7020     1.9530 H     1 <1>   0.0800 
 34 H        0.6100    -4.2940     1.6760 H     1 <1>   0.0800 
 35 H       -0.9350    -4.7560    -0.4390 H     1 <1>   0.0800 
 36 H       -0.9080    -3.5350    -1.6580 H     1 <1>   0.0800 
 37 H       -0.7600     0.8650     1.0850 H     1 <1>   0.0800 
 38 H        2.6460    -4.7500     0.8360 H     1 <1>   0.0800 
 39 H        3.0480    -3.0590     0.7270 H     1 <1>   0.0800 
 40 H        0.8720    -4.6380    -2.4940 H     1 <1>   0.0800 
 41 H        1.0270    -5.6180    -1.0530 H     1 <1>   0.0800 
 42 H       -0.0660    -1.3360     2.6800 H     1 <1>   0.4000 
 43 H       -3.2050    -1.0670    -0.4350 H     1 <1>   0.4000 
 44 H       -2.6260    -0.9200     2.8970 H     1 <1>   0.0800 
 45 H       -3.8040    -1.3020     1.6750 H     1 <1>   0.0800 
 46 H       -3.1860     0.3330     1.8330 H     1 <1>   0.0800 
 47 H        1.8940    -2.8440    -1.2400 H     1 <1>   0.4500 
 48 H        3.7210    -5.1600    -1.3960 H     1 <1>   0.0800 
 49 H        3.1940    -4.2300    -2.7800 H     1 <1>   0.0800 
 50 H        3.7390    -1.7860    -2.9530 H     1 <1>   0.1500 
 51 H        5.4260    -0.0880    -2.4670 H     1 <1>   0.1500 
 52 H        7.1860    -5.0960    -0.1020 H     1 <1>   0.0800 
 53 H        6.7280    -4.8780     1.5860 H     1 <1>   0.0800 
 54 H        7.0440    -0.4210    -0.6990 H     1 <1>   0.1500 
 55 H        5.2640    -6.8630     1.4490 H     1 <1>   0.0800 
 56 H        5.7150    -7.0860    -0.2300 H     1 <1>   0.0800 
 57 H        8.6980    -1.9800     2.1100 H     1 <1>   0.0800 
 58 H        7.6380    -0.6910     1.5540 H     1 <1>   0.0800 
 59 H        8.8080    -1.4280     0.4430 H     1 <1>   0.0800 
 60 H        8.0680    -7.4460     0.4550 H     1 <1>   0.0800 
 61 H        7.6180    -7.2260     2.1250 H     1 <1>   0.0800 
 62 H        6.5800    -9.4290     0.3120 H     1 <1>   0.0800 
 63 H        6.1290    -9.2080     1.9890 H     1 <1>   0.0800 
 64 H        7.7730    -9.6200     1.5720 H     1 <1>   0.0800 
@<TRIPOS>BOND
  1   1   2  1   
  2   1   3  1   
  3   2   4  1   
  4   2   5  1   
  5   2   6  1   
  6   3   7  1   
  7   3  29  1   
  8   3  30  1   
  9   4   8  1   
 10   4  31  1   
 11   4  32  1   
 12   5   9  1   
 13   5  33  1   
 14   5  34  1   
 15   6  10  1   
 16   6  35  1   
 17   6  36  1   
 18   7   8  1   
 19   7  11  1   
 20   7  37  1   
 21   8  12  1   
 22   8  13  1   
 23   9  14  1   
 24   9  38  1   
 25   9  39  1   
 26  10  14  1   
 27  10  40  1   
 28  10  41  1   
 29  11  42  1   
 30  12  43  1   
 31  13  44  1   
 32  13  45  1   
 33  13  46  1   
 34  14  15  1   
 35  14  47  1   
 36  15  16  1   
 37  15  48  1   
 38  15  49  1   
 39  16  17  ar  
 40  16  18  ar  
 41  17  19  1   
 42  17  20  ar  
 43  18  21  ar  
 44  18  50  1   
 45  19  22  1   
 46  20  23  1   
 47  20  24  ar  
 48  21  24  ar  
 49  21  51  1   
 50  22  25  1   
 51  22  52  1   
 52  22  53  1   
 53  23  26  1   
 54  24  54  1   
 55  25  27  1   
 56  25  55  1   
 57  25  56  1   
 58  26  57  1   
 59  26  58  1   
 60  26  59  1   
 61  27  28  1   
 62  27  60  1   
 63  27  61  1   
 64  28  62  1   
 65  28  63  1   
 66  28  64  1   
@<TRIPOS>SUBSTRUCTURE
  1 ****   9 GROUP 4 **** **** 0

# MOE 2024.06 (io_trps.svl 2023.06)
