@<TRIPOS>MOLECULE
NONAME
43 45 1 0 0 
SMALL
USER_CHARGES


@<TRIPOS>ATOM
  1 CL       1.3480    -1.6910     3.8590 Cl    1 <1>  -0.1770 
  2 C        1.8110    -1.7450     2.1780 C.ar  1 <1>   0.1770 
  3 C        1.8780    -2.9640     1.5380 C.ar  1 <1>  -0.1500 
  4 C        2.0960    -0.5660     1.5170 C.ar  1 <1>  -0.1500 
  5 C        2.2150    -3.0330     0.1890 C.ar  1 <1>   0.0860 
  6 C        2.4630    -0.6110     0.1830 C.ar  1 <1>  -0.1440 
  7 C        2.2530    -4.3000    -0.5170 C.2   1 <1>   0.5440 
  8 C        2.5240    -1.8370    -0.4620 C.ar  1 <1>  -0.1500 
  9 C        2.7940     0.6710    -0.5600 C.3   1 <1>  -0.0960 
 10 O        3.2680    -4.6070    -1.1140 O.2   1 <1>  -0.5700 
 11 N        1.1930    -5.1870    -0.5210 N.am  1 <1>  -0.6600 
 12 C       -0.2380    -4.8420    -0.7830 C.3   1 <1>   0.2200 
 13 C        1.4800    -6.6430    -0.6590 C.3   1 <1>   0.0600 
 14 C       -1.0350    -4.6030     0.4930 C.3   1 <1>  -0.1600 
 15 C       -0.4800    -3.6000    -1.6370 C.3   1 <1>  -0.1600 
 16 C       -2.2830    -3.8330     0.0400 C.3   1 <1>  -0.0800 
 17 C       -1.9240    -3.1870    -1.3230 C.3   1 <1>  -0.0800 
 18 C       -2.8030    -2.8620     1.1190 C.3   1 <1>   0.1400 
 19 C       -2.1380    -1.6600    -1.3800 C.3   1 <1>  -0.0990 
 20 N       -3.6970    -1.8650     0.4960 N.am  1 <1>  -0.7300 
 21 C       -3.4250    -1.2710    -0.6850 C.2   1 <1>   0.5690 
 22 O       -4.1660    -0.4540    -1.1670 O.2   1 <1>  -0.5700 
 23 H        1.6690    -3.8660     2.0830 H     1 <1>   0.1500 
 24 H        2.0330     0.3690     2.0450 H     1 <1>   0.1500 
 25 H        2.8150    -1.8860    -1.4980 H     1 <1>   0.1500 
 26 H        3.3860     0.4630    -1.4340 H     1 <1>   0.0800 
 27 H        3.3520     1.3360     0.0740 H     1 <1>   0.0800 
 28 H        1.8870     1.1610    -0.8660 H     1 <1>   0.0800 
 29 H       -0.6990    -5.6670    -1.3030 H     1 <1>   0.0800 
 30 H        0.7990    -7.2130    -0.0520 H     1 <1>   0.0800 
 31 H        2.4860    -6.8570    -0.3390 H     1 <1>   0.0800 
 32 H        1.3780    -6.9370    -1.6890 H     1 <1>   0.0800 
 33 H       -1.2940    -5.5290     0.9740 H     1 <1>   0.0800 
 34 H       -0.4680    -3.9970     1.1690 H     1 <1>   0.0800 
 35 H        0.1760    -2.8020    -1.3580 H     1 <1>   0.0800 
 36 H       -0.3490    -3.8140    -2.6830 H     1 <1>   0.0800 
 37 H       -3.0640    -4.5530    -0.1440 H     1 <1>   0.0800 
 38 H       -2.5700    -3.6320    -2.0620 H     1 <1>   0.0800 
 39 H       -1.9820    -2.3380     1.5790 H     1 <1>   0.0800 
 40 H       -3.3340    -3.4050     1.8820 H     1 <1>   0.0800 
 41 H       -2.1650    -1.3270    -2.4010 H     1 <1>   0.0800 
 42 H       -1.3370    -1.1480    -0.8790 H     1 <1>   0.0800 
 43 H       -4.5430    -1.5750     0.9890 H     1 <1>   0.3700 
@<TRIPOS>BOND
  1   1   2  1   
  2   2   3  ar  
  3   2   4  ar  
  4   3   5  ar  
  5   3  23  1   
  6   4   6  ar  
  7   4  24  1   
  8   5   7  1   
  9   5   8  ar  
 10   6   8  ar  
 11   6   9  1   
 12   7  10  2   
 13   7  11  am  
 14   8  25  1   
 15   9  26  1   
 16   9  27  1   
 17   9  28  1   
 18  11  12  1   
 19  11  13  1   
 20  12  14  1   
 21  12  15  1   
 22  12  29  1   
 23  13  30  1   
 24  13  31  1   
 25  13  32  1   
 26  14  16  1   
 27  14  33  1   
 28  14  34  1   
 29  15  17  1   
 30  15  35  1   
 31  15  36  1   
 32  16  17  1   
 33  16  18  1   
 34  16  37  1   
 35  17  19  1   
 36  17  38  1   
 37  18  20  1   
 38  18  39  1   
 39  18  40  1   
 40  19  21  1   
 41  19  41  1   
 42  19  42  1   
 43  20  21  am  
 44  20  43  1   
 45  21  22  2   
@<TRIPOS>SUBSTRUCTURE
  1 ****  15 GROUP 4 **** **** 0

# MOE 2024.06 (io_trps.svl 2023.06)
