@<TRIPOS>MOLECULE
NONAME
48 50 1 0 0 
SMALL
USER_CHARGES


@<TRIPOS>ATOM
  1 O       -0.6170     0.4280     0.9090 O.2   1 <1>  -0.5700 
  2 C       -1.6690     0.9540     0.5960 C.2   1 <1>   0.7150 
  3 N       -2.7850     0.1600     0.4690 N.am  1 <1>  -0.6600 
  4 C       -1.7250     2.3660     0.3460 C.2   1 <1>  -0.2370 
  5 C       -3.9670     0.5100    -0.3630 C.3   1 <1>   0.1400 
  6 C       -2.7530    -1.3060     0.7160 C.3   1 <1>   0.1400 
  7 N       -0.7410     3.0680    -0.2710 N.pl3 1 <1>   0.3140 
  8 C       -2.6840     3.2880     0.6420 C.2   1 <1>  -0.1500 
  9 C       -4.8660    -0.7230    -0.3000 C.3   1 <1>   0.2000 
 10 C       -3.8800    -1.8850    -0.1480 C.3   1 <1>  -0.0800 
 11 N       -1.0470     4.3650    -0.4020 N.2   1 <1>  -0.7070 
 12 C        0.5440     2.5570    -0.7760 C.3   1 <1>   0.0160 
 13 C       -2.2150     4.4940     0.1550 C.2   1 <1>   0.1080 
 14 O       -5.6480    -0.6260     0.8410 O.3   1 <1>  -0.6800 
 15 C       -4.4890    -3.1860     0.4100 C.3   1 <1>   0.0200 
 16 C       -2.9660     5.8190     0.2550 C.3   1 <1>   0.1010 
 17 C       -3.5130    -4.3510     0.4120 C.2   1 <1>  -0.0400 
 18 C       -3.3020     6.3590    -1.1400 C.3   1 <1>  -0.2400 
 19 C       -2.1490     6.8500     1.0450 C.3   1 <1>  -0.2400 
 20 O       -3.8710    -5.4650     0.9920 O.3   1 <1>  -0.0190 
 21 C       -2.2750    -4.5280    -0.0790 C.2   1 <1>  -0.1500 
 22 N       -2.9430    -6.3740     0.9190 N.2   1 <1>  -0.4100 
 23 C       -1.9680    -5.8370     0.2790 C.2   1 <1>   0.1080 
 24 C       -0.6670    -6.5410    -0.0370 C.3   1 <1>  -0.0590 
 25 H       -4.4790     1.3820     0.0010 H     1 <1>   0.0800 
 26 H       -3.6440     0.6800    -1.3760 H     1 <1>   0.0800 
 27 H       -1.7970    -1.7240     0.4490 H     1 <1>   0.0800 
 28 H       -2.9360    -1.4870     1.7610 H     1 <1>   0.0800 
 29 H       -3.6160     3.1380     1.1550 H     1 <1>   0.1500 
 30 H       -5.5150    -0.8190    -1.1530 H     1 <1>   0.0800 
 31 H       -3.4730    -2.0910    -1.1220 H     1 <1>   0.0800 
 32 H        0.3660     1.7110    -1.4130 H     1 <1>   0.0800 
 33 H        1.1550     2.2650     0.0570 H     1 <1>   0.0800 
 34 H        1.0390     3.3320    -1.3320 H     1 <1>   0.0800 
 35 H       -5.0770    -0.3860     1.5990 H     1 <1>   0.4000 
 36 H       -5.3440    -3.4620    -0.1810 H     1 <1>   0.0800 
 37 H       -4.8300    -3.0300     1.4190 H     1 <1>   0.0800 
 38 H       -3.8870     5.6460     0.7820 H     1 <1>   0.0800 
 39 H       -2.3970     6.5460    -1.6900 H     1 <1>   0.0800 
 40 H       -3.8630     7.2730    -1.0670 H     1 <1>   0.0800 
 41 H       -3.8850     5.6350    -1.6820 H     1 <1>   0.0800 
 42 H       -1.2210     7.0510     0.5380 H     1 <1>   0.0800 
 43 H       -1.9230     6.4650     2.0230 H     1 <1>   0.0800 
 44 H       -2.6970     7.7680     1.1490 H     1 <1>   0.0800 
 45 H       -1.6360    -3.8590    -0.6230 H     1 <1>   0.1500 
 46 H       -0.5150    -6.5680    -1.1000 H     1 <1>   0.0800 
 47 H       -0.6960    -7.5490     0.3360 H     1 <1>   0.0800 
 48 H        0.1510    -6.0220     0.4270 H     1 <1>   0.0800 
@<TRIPOS>BOND
  1   1   2  2   
  2   2   3  am  
  3   2   4  1   
  4   3   5  1   
  5   3   6  1   
  6   4   7  1   
  7   4   8  2   
  8   5   9  1   
  9   5  25  1   
 10   5  26  1   
 11   6  10  1   
 12   6  27  1   
 13   6  28  1   
 14   7  11  1   
 15   7  12  1   
 16   8  13  1   
 17   8  29  1   
 18   9  10  1   
 19   9  14  1   
 20   9  30  1   
 21  10  15  1   
 22  10  31  1   
 23  11  13  2   
 24  12  32  1   
 25  12  33  1   
 26  12  34  1   
 27  13  16  1   
 28  14  35  1   
 29  15  17  1   
 30  15  36  1   
 31  15  37  1   
 32  16  18  1   
 33  16  19  1   
 34  16  38  1   
 35  17  20  1   
 36  17  21  2   
 37  18  39  1   
 38  18  40  1   
 39  18  41  1   
 40  19  42  1   
 41  19  43  1   
 42  19  44  1   
 43  20  22  1   
 44  21  23  1   
 45  21  45  1   
 46  22  23  2   
 47  23  24  1   
 48  24  46  1   
 49  24  47  1   
 50  24  48  1   
@<TRIPOS>SUBSTRUCTURE
  1 ****   3 GROUP 4 **** **** 0

# MOE 2024.06 (io_trps.svl 2023.06)
