@<TRIPOS>MOLECULE
NONAME
59 61 1 0 0 
SMALL
USER_CHARGES


@<TRIPOS>ATOM
  1 O        1.6040     0.5950     1.0260 O.2   1 <1>  -0.5700 
  2 C        2.1180     0.1950     0.0030 C.2   1 <1>   0.5690 
  3 N        2.5880     1.0600    -0.9560 N.am  1 <1>  -0.6600 
  4 C        2.2200    -1.3350    -0.1550 C.3   1 <1>   0.4040 
  5 C        3.2170     0.6250    -2.2490 C.3   1 <1>   0.1400 
  6 C        2.7740     2.5040    -0.6290 C.3   1 <1>   0.1400 
  7 N        1.2350    -2.0940     0.7020 N.4   1 <1>  -0.9590 
  8 C        4.7430     0.8270    -2.2900 C.3   1 <1>   0.1400 
  9 C        4.0210     2.7100     0.2500 C.3   1 <1>  -0.1600 
 10 C        1.6230    -3.5260     0.8810 C.3   1 <1>   0.3430 
 11 C       -0.1690    -1.9170     0.2480 C.3   1 <1>   0.3430 
 12 N        5.3410     0.9560    -0.9300 N.am  1 <1>  -0.6600 
 13 C        5.3620     2.3500    -0.4080 C.3   1 <1>   0.1400 
 14 C        0.4730    -4.3760     1.4620 C.3   1 <1>  -0.0800 
 15 C       -1.1220    -2.4040     1.3470 C.3   1 <1>  -0.1600 
 16 C        5.6610    -0.1570    -0.1960 C.2   1 <1>   0.5690 
 17 C       -0.5440    -3.5210     2.2370 C.3   1 <1>  -0.1600 
 18 C        1.0280    -5.4900     2.3600 C.3   1 <1>  -0.2400 
 19 O        5.2730    -1.2550    -0.5380 O.2   1 <1>  -0.5700 
 20 C        6.4600    -0.0600     1.0990 C.3   1 <1>   0.0440 
 21 C        7.8680     0.4900     0.8950 C.ar  1 <1>  -0.1440 
 22 C        8.3310     1.5410     1.6710 C.ar  1 <1>  -0.1500 
 23 C        8.7040    -0.0590    -0.0680 C.ar  1 <1>  -0.1500 
 24 C        9.6060     2.0400     1.4760 C.ar  1 <1>   0.0820 
 25 C        9.9820     0.4400    -0.2600 C.ar  1 <1>  -0.1500 
 26 O       10.0310     3.0620     2.2330 O.3   1 <1>  -0.5330 
 27 C       10.4370     1.4940     0.5120 C.ar  1 <1>  -0.1500 
 28 H        3.2160    -1.6190     0.1290 H     1 <1>   0.0800 
 29 H        2.0780    -1.5990    -1.1860 H     1 <1>   0.0800 
 30 H        2.7720     1.1760    -3.0600 H     1 <1>   0.0800 
 31 H        3.0160    -0.4120    -2.4390 H     1 <1>   0.0800 
 32 H        1.9070     2.8580    -0.0980 H     1 <1>   0.0800 
 33 H        2.8600     3.0790    -1.5350 H     1 <1>   0.0800 
 34 H        1.2720    -1.6260     1.6230 H     1 <1>   0.4500 
 35 H        4.9690     1.7070    -2.8660 H     1 <1>   0.0800 
 36 H        5.1960    -0.0040    -2.8040 H     1 <1>   0.0800 
 37 H        3.9090     2.1520     1.1620 H     1 <1>   0.0800 
 38 H        4.0610     3.7470     0.5300 H     1 <1>   0.0800 
 39 H        2.4700    -3.5760     1.5460 H     1 <1>   0.0800 
 40 H        1.9230    -3.9500    -0.0640 H     1 <1>   0.0800 
 41 H       -0.3300    -2.4910    -0.6510 H     1 <1>   0.0800 
 42 H       -0.3710    -0.8790     0.0340 H     1 <1>   0.0800 
 43 H        6.1560     2.4720     0.3060 H     1 <1>   0.0800 
 44 H        5.5640     3.0320    -1.2170 H     1 <1>   0.0800 
 45 H       -0.0390    -4.8460     0.6390 H     1 <1>   0.0800 
 46 H       -2.0210    -2.7550     0.8700 H     1 <1>   0.0800 
 47 H       -1.4040    -1.5700     1.9650 H     1 <1>   0.0800 
 48 H       -0.0560    -3.0780     3.0900 H     1 <1>   0.0800 
 49 H       -1.3460    -4.1370     2.6100 H     1 <1>   0.0800 
 50 H        1.5470    -5.0790     3.2090 H     1 <1>   0.0800 
 51 H        1.7100    -6.1160     1.8100 H     1 <1>   0.0800 
 52 H        0.2260    -6.1110     2.7220 H     1 <1>   0.0800 
 53 H        6.5420    -1.0420     1.5280 H     1 <1>   0.0800 
 54 H        5.9160     0.5490     1.7940 H     1 <1>   0.0800 
 55 H        7.7170     1.9860     2.4330 H     1 <1>   0.1500 
 56 H        8.3640    -0.8810    -0.6760 H     1 <1>   0.1500 
 57 H       10.6200     0.0060    -1.0100 H     1 <1>   0.1500 
 58 H       10.9460     3.3270     2.0360 H     1 <1>   0.4500 
 59 H       11.4280     1.8800     0.3590 H     1 <1>   0.1500 
@<TRIPOS>BOND
  1   1   2  2   
  2   2   3  am  
  3   2   4  1   
  4   3   5  1   
  5   3   6  1   
  6   4   7  1   
  7   4  28  1   
  8   4  29  1   
  9   5   8  1   
 10   5  30  1   
 11   5  31  1   
 12   6   9  1   
 13   6  32  1   
 14   6  33  1   
 15   7  10  1   
 16   7  11  1   
 17   7  34  1   
 18   8  12  1   
 19   8  35  1   
 20   8  36  1   
 21   9  13  1   
 22   9  37  1   
 23   9  38  1   
 24  10  14  1   
 25  10  39  1   
 26  10  40  1   
 27  11  15  1   
 28  11  41  1   
 29  11  42  1   
 30  12  13  1   
 31  12  16  am  
 32  13  43  1   
 33  13  44  1   
 34  14  17  1   
 35  14  18  1   
 36  14  45  1   
 37  15  17  1   
 38  15  46  1   
 39  15  47  1   
 40  16  19  2   
 41  16  20  1   
 42  17  48  1   
 43  17  49  1   
 44  18  50  1   
 45  18  51  1   
 46  18  52  1   
 47  20  21  1   
 48  20  53  1   
 49  20  54  1   
 50  21  22  ar  
 51  21  23  ar  
 52  22  24  ar  
 53  22  55  1   
 54  23  25  ar  
 55  23  56  1   
 56  24  26  1   
 57  24  27  ar  
 58  25  27  ar  
 59  25  57  1   
 60  26  58  1   
 61  27  59  1   
@<TRIPOS>SUBSTRUCTURE
  1 ****  16 GROUP 4 **** **** 0

# MOE 2024.06 (io_trps.svl 2023.06)
