@<TRIPOS>MOLECULE
NONAME
57 61 1 0 0 
SMALL
USER_CHARGES


@<TRIPOS>ATOM
  1 S       -0.5560     2.2410    -3.3450 S.3   1 <1>  -0.0800 
  2 C       -0.0890     2.8220    -1.7620 C.2   1 <1>  -0.1400 
  3 C        0.7940     3.0950    -4.0770 C.2   1 <1>  -0.1100 
  4 C        1.0090     3.5860    -1.8120 C.2   1 <1>  -0.1810 
  5 C       -0.8620     2.4830    -0.5170 C.3   1 <1>   0.0200 
  6 C        1.5150     3.7500    -3.1460 C.2   1 <1>  -0.1500 
  7 C        1.6030     4.1800    -0.5390 C.3   1 <1>   0.4610 
  8 C       -0.4650     3.5140     0.5520 C.3   1 <1>   0.1200 
  9 O        0.9360     3.6930     0.6090 O.3   1 <1>  -0.5600 
 10 C        1.5220     5.7060    -0.5260 C.3   1 <1>  -0.1600 
 11 C        3.0570     3.7420    -0.3780 C.3   1 <1>  -0.1600 
 12 C        2.1210     6.2540     0.7640 C.3   1 <1>   0.3430 
 13 C        3.6350     4.3010     0.9160 C.3   1 <1>   0.3430 
 14 N        3.5420     5.7950     0.9130 N.4   1 <1>  -0.9590 
 15 C        4.1800     6.3600     2.1390 C.3   1 <1>   0.4860 
 16 C        4.2100     7.8680     2.0470 C.ar  1 <1>  -0.1430 
 17 C        5.1090     8.5270     1.2390 C.ar  1 <1>   0.1600 
 18 C        3.3330     8.6480     2.7660 C.ar  1 <1>   0.1600 
 19 N        5.1190     9.8290     1.1270 N.ar  1 <1>  -0.6200 
 20 N        3.3220     9.9520     2.6690 N.ar  1 <1>  -0.6200 
 21 C        4.2180    10.4820     1.8520 C.ar  1 <1>   0.7200 
 22 N        4.1780    11.8270     1.7720 N.pl3 1 <1>  -0.8690 
 23 C        5.3350    12.6790     1.3710 C.3   1 <1>   0.2090 
 24 C        5.3660    12.9210    -0.1450 C.3   1 <1>   0.2000 
 25 O        6.3590    13.8470    -0.4500 O.3   1 <1>  -0.5600 
 26 C        4.0990    13.5380    -0.7240 C.3   1 <1>  -0.1600 
 27 C        6.1140    14.4170    -1.6960 C.3   1 <1>   0.1200 
 28 C        4.6100    14.2950    -1.9380 C.3   1 <1>  -0.1600 
 29 H        0.9040     3.0130    -5.1440 H     1 <1>   0.1500 
 30 H       -0.6200     1.4870    -0.1910 H     1 <1>   0.0800 
 31 H       -1.9190     2.5390    -0.7040 H     1 <1>   0.0800 
 32 H        2.3870     4.3420    -3.3570 H     1 <1>   0.1500 
 33 H       -0.7980     3.1850     1.5210 H     1 <1>   0.0800 
 34 H       -0.9230     4.4640     0.3350 H     1 <1>   0.0800 
 35 H        0.4970     6.0140    -0.6150 H     1 <1>   0.0800 
 36 H        2.0460     6.1100    -1.3730 H     1 <1>   0.0800 
 37 H        3.6450     4.0680    -1.2150 H     1 <1>   0.0800 
 38 H        3.0940     2.6670    -0.3560 H     1 <1>   0.0800 
 39 H        1.5350     5.9030     1.5990 H     1 <1>   0.0800 
 40 H        2.0760     7.3320     0.7450 H     1 <1>   0.0800 
 41 H        4.6620     3.9890     1.0130 H     1 <1>   0.0800 
 42 H        3.0770     3.9010     1.7490 H     1 <1>   0.0800 
 43 H        4.0620     6.1480     0.1000 H     1 <1>   0.4500 
 44 H        5.1880     5.9900     2.2340 H     1 <1>   0.0800 
 45 H        3.6270     6.0570     3.0140 H     1 <1>   0.0800 
 46 H        5.8410     7.9830     0.6640 H     1 <1>   0.1500 
 47 H        2.6150     8.2030     3.4350 H     1 <1>   0.1500 
 48 H        3.5400    12.2410     2.4500 H     1 <1>   0.4000 
 49 H        6.2540    12.2020     1.6680 H     1 <1>   0.0800 
 50 H        5.2620    13.6260     1.8760 H     1 <1>   0.0800 
 51 H        5.6090    12.0070    -0.6590 H     1 <1>   0.0800 
 52 H        3.6700    14.2210    -0.0120 H     1 <1>   0.0800 
 53 H        3.3730    12.7850    -0.9740 H     1 <1>   0.0800 
 54 H        6.6750    13.8660    -2.4330 H     1 <1>   0.0800 
 55 H        6.4410    15.4420    -1.6730 H     1 <1>   0.0800 
 56 H        4.1500    15.2630    -2.0250 H     1 <1>   0.0800 
 57 H        4.4340    13.7400    -2.8430 H     1 <1>   0.0800 
@<TRIPOS>BOND
  1   1   2  1   
  2   1   3  1   
  3   2   4  2   
  4   2   5  1   
  5   3   6  2   
  6   3  29  1   
  7   4   6  1   
  8   4   7  1   
  9   5   8  1   
 10   5  30  1   
 11   5  31  1   
 12   6  32  1   
 13   7   9  1   
 14   7  10  1   
 15   7  11  1   
 16   8   9  1   
 17   8  33  1   
 18   8  34  1   
 19  10  12  1   
 20  10  35  1   
 21  10  36  1   
 22  11  13  1   
 23  11  37  1   
 24  11  38  1   
 25  12  14  1   
 26  12  39  1   
 27  12  40  1   
 28  13  14  1   
 29  13  41  1   
 30  13  42  1   
 31  14  15  1   
 32  14  43  1   
 33  15  16  1   
 34  15  44  1   
 35  15  45  1   
 36  16  17  ar  
 37  16  18  ar  
 38  17  19  ar  
 39  17  46  1   
 40  18  20  ar  
 41  18  47  1   
 42  19  21  ar  
 43  20  21  ar  
 44  21  22  1   
 45  22  23  1   
 46  22  48  1   
 47  23  24  1   
 48  23  49  1   
 49  23  50  1   
 50  24  25  1   
 51  24  26  1   
 52  24  51  1   
 53  25  27  1   
 54  26  28  1   
 55  26  52  1   
 56  26  53  1   
 57  27  28  1   
 58  27  54  1   
 59  27  55  1   
 60  28  56  1   
 61  28  57  1   
@<TRIPOS>SUBSTRUCTURE
  1 ****  12 GROUP 4 **** **** 0

# MOE 2024.06 (io_trps.svl 2023.06)
