@<TRIPOS>MOLECULE
NONAME
51 53 1 0 0 
SMALL
USER_CHARGES


@<TRIPOS>ATOM
  1 O        3.4790     2.9430    -1.1000 O.2   1 <1>  -0.5700 
  2 C        3.7110     1.9950    -0.3840 C.2   1 <1>   0.5690 
  3 N        2.7710     1.5340     0.4980 N.am  1 <1>  -0.6600 
  4 C        5.0850     1.3570    -0.4800 C.3   1 <1>  -0.0990 
  5 C        3.0320     0.4010     1.4270 C.3   1 <1>   0.1400 
  6 C        1.3600     2.0220     0.4530 C.3   1 <1>   0.1400 
  7 C        5.0400    -0.0930    -0.9870 C.3   1 <1>  -0.1600 
  8 C        3.2170    -0.9100     0.6540 C.3   1 <1>  -0.1600 
  9 C        0.9820     2.8410     1.6950 C.3   1 <1>  -0.0990 
 10 C        4.6340    -1.1060     0.0930 C.3   1 <1>  -0.1600 
 11 C        1.7280     4.1440     1.9270 C.2   1 <1>   0.5690 
 12 O        1.5090     4.7070     2.9680 O.2   1 <1>  -0.5700 
 13 N        2.5820     4.6300     0.9850 N.am  1 <1>  -0.4940 
 14 C        3.3110     5.7970     0.9700 C.2   1 <1>   0.5420 
 15 O        4.1860     5.9490     0.0320 O.3   1 <1>  -0.2800 
 16 N        3.2670     6.8190     1.7490 N.2   1 <1>  -0.3380 
 17 C        4.7130     7.1230     0.2470 C.2   1 <1>   0.4250 
 18 N        4.1710     7.6760     1.2810 N.2   1 <1>  -0.3380 
 19 C        5.7300     7.6250    -0.6500 C.ar  1 <1>   0.0530 
 20 C        6.7430     8.5080    -0.2480 C.ar  1 <1>   0.0820 
 21 C        5.7290     7.2340    -1.9930 C.ar  1 <1>  -0.1500 
 22 O        6.8460     8.9010     1.0360 O.3   1 <1>  -0.3630 
 23 C        7.6920     8.9740    -1.1450 C.ar  1 <1>  -0.1500 
 24 C        6.6720     7.7010    -2.8900 C.ar  1 <1>  -0.1500 
 25 C        6.3370    10.1740     1.3550 C.3   1 <1>   0.1200 
 26 C        7.6570     8.5750    -2.4680 C.ar  1 <1>  -0.1500 
 27 C        6.4330    10.3550     2.8660 C.3   1 <1>  -0.2400 
 28 H        5.5770     1.4140     0.4730 H     1 <1>   0.0800 
 29 H        5.6670     1.9390    -1.1720 H     1 <1>   0.0800 
 30 H        2.1980     0.2890     2.0990 H     1 <1>   0.0800 
 31 H        3.9020     0.6100     2.0260 H     1 <1>   0.0800 
 32 H        0.7060     1.1690     0.3800 H     1 <1>   0.0800 
 33 H        1.1950     2.6150    -0.4320 H     1 <1>   0.0800 
 34 H        6.0220    -0.3590    -1.3400 H     1 <1>   0.0800 
 35 H        4.3680    -0.1610    -1.8260 H     1 <1>   0.0800 
 36 H        2.4860    -0.9790    -0.1330 H     1 <1>   0.0800 
 37 H        3.0260    -1.7200     1.3370 H     1 <1>   0.0800 
 38 H        1.0890     2.2340     2.5740 H     1 <1>   0.0800 
 39 H       -0.0600     3.0910     1.6210 H     1 <1>   0.0800 
 40 H        5.3460    -1.0710     0.9000 H     1 <1>   0.0800 
 41 H        4.6920    -2.0920    -0.3350 H     1 <1>   0.0800 
 42 H        2.7890     4.0150     0.1910 H     1 <1>   0.3700 
 43 H        4.9720     6.5530    -2.3420 H     1 <1>   0.1500 
 44 H        8.4610     9.6420    -0.8020 H     1 <1>   0.1500 
 45 H        6.6420     7.3820    -3.9180 H     1 <1>   0.1500 
 46 H        5.3110    10.2220     1.0300 H     1 <1>   0.0800 
 47 H        6.9200    10.9160     0.8370 H     1 <1>   0.0800 
 48 H        8.3940     8.9380    -3.1640 H     1 <1>   0.1500 
 49 H        5.8470     9.6000     3.3600 H     1 <1>   0.0800 
 50 H        6.0500    11.3200     3.1420 H     1 <1>   0.0800 
 51 H        7.4570    10.2830     3.1850 H     1 <1>   0.0800 
@<TRIPOS>BOND
  1   1   2  2   
  2   2   3  am  
  3   2   4  1   
  4   3   5  1   
  5   3   6  1   
  6   4   7  1   
  7   4  28  1   
  8   4  29  1   
  9   5   8  1   
 10   5  30  1   
 11   5  31  1   
 12   6   9  1   
 13   6  32  1   
 14   6  33  1   
 15   7  10  1   
 16   7  34  1   
 17   7  35  1   
 18   8  10  1   
 19   8  36  1   
 20   8  37  1   
 21   9  11  1   
 22   9  38  1   
 23   9  39  1   
 24  10  40  1   
 25  10  41  1   
 26  11  12  2   
 27  11  13  am  
 28  13  14  1   
 29  13  42  1   
 30  14  15  1   
 31  14  16  2   
 32  15  17  1   
 33  16  18  1   
 34  17  18  2   
 35  17  19  1   
 36  19  20  ar  
 37  19  21  ar  
 38  20  22  1   
 39  20  23  ar  
 40  21  24  ar  
 41  21  43  1   
 42  22  25  1   
 43  23  26  ar  
 44  23  44  1   
 45  24  26  ar  
 46  24  45  1   
 47  25  27  1   
 48  25  46  1   
 49  25  47  1   
 50  26  48  1   
 51  27  49  1   
 52  27  50  1   
 53  27  51  1   
@<TRIPOS>SUBSTRUCTURE
  1 ****  15 GROUP 4 **** **** 0

# MOE 2024.06 (io_trps.svl 2023.06)
