@<TRIPOS>MOLECULE
NONAME
46 48 1 0 0 
SMALL
USER_CHARGES


@<TRIPOS>ATOM
  1 S       -0.4240    -0.5130    -1.6400 S.o2  1 <1>   1.4470 
  2 O       -1.3250    -1.6290    -1.8300 O.2   1 <1>  -0.6500 
  3 O        0.2740     0.0380    -2.7810 O.2   1 <1>  -0.6500 
  4 N       -1.3300     0.7410    -0.9440 N.am  1 <1>  -0.8490 
  5 C        0.7920    -0.9100    -0.3490 C.ar  1 <1>  -0.0090 
  6 C       -2.2100     0.2620     0.1250 C.3   1 <1>   0.1960 
  7 C       -2.0750     1.4950    -1.9540 C.3   1 <1>   0.1960 
  8 C        1.0540    -2.2320     0.0090 C.ar  1 <1>  -0.1500 
  9 C        1.4950     0.1030     0.3010 C.ar  1 <1>  -0.1500 
 10 C       -2.9100     1.4410     0.8040 C.3   1 <1>  -0.1600 
 11 C       -2.7330     2.7150    -1.3050 C.3   1 <1>  -0.1600 
 12 C        1.9830    -2.5410     0.9900 C.ar  1 <1>  -0.1500 
 13 C        2.4270    -0.1840     1.2850 C.ar  1 <1>  -0.1500 
 14 C       -3.7150     2.2950    -0.1930 C.3   1 <1>   0.2800 
 15 C        2.6530    -1.5060     1.6130 C.ar  1 <1>   0.1900 
 16 O       -4.0490     3.4650     0.5150 O.3   1 <1>  -0.5600 
 17 C       -5.0000     1.5390    -0.7090 C.3   1 <1>   0.2000 
 18 F        3.5270    -1.7870     2.5400 F     1 <1>  -0.1900 
 19 C       -5.1760     4.1730     0.1140 C.3   1 <1>   0.1200 
 20 O       -5.2980     1.8840    -2.0400 O.3   1 <1>  -0.6800 
 21 C       -6.2440     1.8250     0.1800 C.3   1 <1>   0.2800 
 22 C       -6.4470     3.3430     0.3630 C.3   1 <1>  -0.1600 
 23 O       -6.0340     1.2710     1.4280 O.3   1 <1>  -0.6800 
 24 C       -7.5230     1.1490    -0.3310 C.3   1 <1>  -0.2400 
 25 H       -2.9360    -0.4280    -0.2740 H     1 <1>   0.0800 
 26 H       -1.6290    -0.2640     0.8630 H     1 <1>   0.0800 
 27 H       -1.4010     1.8410    -2.7210 H     1 <1>   0.0800 
 28 H       -2.8140     0.8630    -2.4210 H     1 <1>   0.0800 
 29 H        0.5230    -3.0280    -0.4870 H     1 <1>   0.1500 
 30 H        1.3060     1.1290     0.0300 H     1 <1>   0.1500 
 31 H       -2.1580     2.0530     1.2690 H     1 <1>   0.0800 
 32 H       -3.5470     1.0680     1.5820 H     1 <1>   0.0800 
 33 H       -3.2260     3.2940    -2.0610 H     1 <1>   0.0800 
 34 H       -1.9570     3.3280    -0.8840 H     1 <1>   0.0800 
 35 H        2.1860    -3.5600     1.2680 H     1 <1>   0.1500 
 36 H        2.9680     0.5970     1.7880 H     1 <1>   0.1500 
 37 H       -4.8260     0.4790    -0.7240 H     1 <1>   0.0800 
 38 H       -5.2090     5.0860     0.6820 H     1 <1>   0.0800 
 39 H       -5.0640     4.4230    -0.9270 H     1 <1>   0.0800 
 40 H       -5.4920     2.8370    -2.0970 H     1 <1>   0.4000 
 41 H       -7.1880     3.6950    -0.3310 H     1 <1>   0.0800 
 42 H       -6.8220     3.5560     1.3480 H     1 <1>   0.0800 
 43 H       -6.7760     1.4980     2.0160 H     1 <1>   0.4000 
 44 H       -7.7860     1.5260    -1.3030 H     1 <1>   0.0800 
 45 H       -8.3470     1.3360     0.3330 H     1 <1>   0.0800 
 46 H       -7.3690     0.0880    -0.4200 H     1 <1>   0.0800 
@<TRIPOS>BOND
  1   1   2  2   
  2   1   3  2   
  3   1   4  am  
  4   1   5  1   
  5   4   6  1   
  6   4   7  1   
  7   5   8  ar  
  8   5   9  ar  
  9   6  10  1   
 10   6  25  1   
 11   6  26  1   
 12   7  11  1   
 13   7  27  1   
 14   7  28  1   
 15   8  12  ar  
 16   8  29  1   
 17   9  13  ar  
 18   9  30  1   
 19  10  14  1   
 20  10  31  1   
 21  10  32  1   
 22  11  14  1   
 23  11  33  1   
 24  11  34  1   
 25  12  15  ar  
 26  12  35  1   
 27  13  15  ar  
 28  13  36  1   
 29  14  16  1   
 30  14  17  1   
 31  15  18  1   
 32  16  19  1   
 33  17  20  1   
 34  17  21  1   
 35  17  37  1   
 36  19  22  1   
 37  19  38  1   
 38  19  39  1   
 39  20  40  1   
 40  21  22  1   
 41  21  23  1   
 42  21  24  1   
 43  22  41  1   
 44  22  42  1   
 45  23  43  1   
 46  24  44  1   
 47  24  45  1   
 48  24  46  1   
@<TRIPOS>SUBSTRUCTURE
  1 ****   6 GROUP 4 **** **** 0

# MOE 2024.06 (io_trps.svl 2023.06)
