@<TRIPOS>MOLECULE
NONAME
50 52 1 0 0 
SMALL
USER_CHARGES


@<TRIPOS>ATOM
  1 O       -2.1540    -3.1030    -0.8730 O.2   1 <1>  -0.5700 
  2 C       -1.0340    -3.3860    -0.5250 C.2   1 <1>   0.5690 
  3 N       -0.7440    -4.4160     0.3270 N.am  1 <1>  -0.6600 
  4 C        0.1260    -2.5650    -1.0480 C.3   1 <1>  -0.0990 
  5 C        0.6550    -4.6940     0.7300 C.3   1 <1>   0.1400 
  6 C       -1.8010    -5.2680     0.9380 C.3   1 <1>   0.0600 
  7 C        1.2750    -3.4860    -1.4980 C.3   1 <1>  -0.0800 
  8 C        1.5830    -4.6280    -0.5000 C.3   1 <1>  -0.0800 
  9 C        2.5940    -2.7400    -1.7370 C.3   1 <1>  -0.1600 
 10 C        3.0660    -4.4760    -0.1330 C.3   1 <1>  -0.1600 
 11 C        3.6720    -3.7360    -1.3240 C.3   1 <1>   0.4230 
 12 N        4.9870    -3.0920    -1.0500 N.4   1 <1>  -0.9590 
 13 C        5.0280    -2.1500     0.1100 C.3   1 <1>   0.4860 
 14 C        6.0810    -4.1090    -0.9420 C.3   1 <1>   0.2630 
 15 C        6.3060    -1.3490     0.0150 C.ar  1 <1>  -0.1440 
 16 C        6.4200    -0.3120    -0.9000 C.ar  1 <1>  -0.1500 
 17 C        7.3790    -1.6510     0.8400 C.ar  1 <1>  -0.1500 
 18 C        7.6010     0.4020    -0.9970 C.ar  1 <1>  -0.1500 
 19 C        8.5570    -0.9350     0.7360 C.ar  1 <1>  -0.1500 
 20 C        8.6770     0.0920    -0.1830 C.ar  1 <1>  -0.1440 
 21 C        9.9900     0.8710    -0.2910 C.3   1 <1>  -0.1230 
 22 C       10.5020     1.4290     1.0220 C.2   1 <1>   0.9060 
 23 O       11.1200     0.6760     1.7860 O.co2 1 <1>  -0.9000 
 24 O       10.3230     2.6260     1.2710 O.co2 1 <1>  -0.9000 
 25 H       -0.2100    -1.9590    -1.8710 H     1 <1>   0.0800 
 26 H        0.4410    -1.9110    -0.2560 H     1 <1>   0.0800 
 27 H        0.9430    -3.9590     1.4630 H     1 <1>   0.0800 
 28 H        0.7220    -5.6680     1.1850 H     1 <1>   0.0800 
 29 H       -1.6490    -6.2950     0.6580 H     1 <1>   0.0800 
 30 H       -2.7760    -4.9610     0.5990 H     1 <1>   0.0800 
 31 H       -1.7680    -5.1800     2.0090 H     1 <1>   0.0800 
 32 H        0.9680    -3.9480    -2.4240 H     1 <1>   0.0800 
 33 H        1.4650    -5.5580    -1.0320 H     1 <1>   0.0800 
 34 H        2.6200    -1.8590    -1.1230 H     1 <1>   0.0800 
 35 H        2.6920    -2.4580    -2.7710 H     1 <1>   0.0800 
 36 H        3.5250    -5.4380     0.0160 H     1 <1>   0.0800 
 37 H        3.1470    -3.8930     0.7660 H     1 <1>   0.0800 
 38 H        3.7850    -4.4430    -2.1320 H     1 <1>   0.0800 
 39 H        5.2190    -2.5060    -1.8630 H     1 <1>   0.4500 
 40 H        4.1910    -1.4730     0.0840 H     1 <1>   0.0800 
 41 H        5.0020    -2.6930     1.0400 H     1 <1>   0.0800 
 42 H        5.9410    -4.7200    -0.0650 H     1 <1>   0.0800 
 43 H        7.0410    -3.6210    -0.8710 H     1 <1>   0.0800 
 44 H        6.0880    -4.7460    -1.8120 H     1 <1>   0.0800 
 45 H        5.6000    -0.0380    -1.5410 H     1 <1>   0.1500 
 46 H        7.3230    -2.4340     1.5760 H     1 <1>   0.1500 
 47 H        7.6870     1.2110    -1.7030 H     1 <1>   0.1500 
 48 H        9.3920    -1.1650     1.3810 H     1 <1>   0.1500 
 49 H        9.8800     1.6970    -0.9660 H     1 <1>   0.0800 
 50 H       10.7510     0.2250    -0.6820 H     1 <1>   0.0800 
@<TRIPOS>BOND
  1   1   2  2   
  2   2   3  am  
  3   2   4  1   
  4   3   5  1   
  5   3   6  1   
  6   4   7  1   
  7   4  25  1   
  8   4  26  1   
  9   5   8  1   
 10   5  27  1   
 11   5  28  1   
 12   6  29  1   
 13   6  30  1   
 14   6  31  1   
 15   7   8  1   
 16   7   9  1   
 17   7  32  1   
 18   8  10  1   
 19   8  33  1   
 20   9  11  1   
 21   9  34  1   
 22   9  35  1   
 23  10  11  1   
 24  10  36  1   
 25  10  37  1   
 26  11  12  1   
 27  11  38  1   
 28  12  13  1   
 29  12  14  1   
 30  12  39  1   
 31  13  15  1   
 32  13  40  1   
 33  13  41  1   
 34  14  42  1   
 35  14  43  1   
 36  14  44  1   
 37  15  16  ar  
 38  15  17  ar  
 39  16  18  ar  
 40  16  45  1   
 41  17  19  ar  
 42  17  46  1   
 43  18  20  ar  
 44  18  47  1   
 45  19  20  ar  
 46  19  48  1   
 47  20  21  1   
 48  21  22  1   
 49  21  49  1   
 50  21  50  1   
 51  22  23  ar  
 52  22  24  ar  
@<TRIPOS>SUBSTRUCTURE
  1 ****  13 GROUP 4 **** **** 0

# MOE 2024.06 (io_trps.svl 2023.06)
