@<TRIPOS>MOLECULE
NONAME
52 56 1 0 0 
SMALL
USER_CHARGES


@<TRIPOS>ATOM
  1 O       -0.5440     0.1860     0.3670 O.2   1 <1>  -0.5700 
  2 C       -1.4700     0.8520    -0.0740 C.2   1 <1>   0.7160 
  3 N       -2.6600     0.1720    -0.2810 N.am  1 <1>  -0.6600 
  4 C       -1.2940     2.2830    -0.3520 C.2   1 <1>   0.2030 
  5 C       -3.9390     0.7620    -0.7490 C.3   1 <1>   0.1400 
  6 C       -2.7790    -1.3030    -0.1820 C.3   1 <1>   0.1400 
  7 N       -2.1270     3.0580    -1.0370 N.2   1 <1>  -0.7070 
  8 C       -0.1950     3.0560     0.0740 C.2   1 <1>  -0.1810 
  9 C       -4.9650    -0.3560    -0.5720 C.3   1 <1>   0.2000 
 10 C       -4.1470    -1.6340    -0.7930 C.3   1 <1>  -0.0800 
 11 N       -1.5800     4.2820    -1.0350 N.pl3 1 <1>   0.3000 
 12 C       -0.4180     4.3050    -0.3630 C.2   1 <1>  -0.3320 
 13 C        1.0380     2.6700     0.8780 C.3   1 <1>   0.0210 
 14 O       -5.4260    -0.3180     0.7360 O.3   1 <1>  -0.6800 
 15 C       -4.7930    -2.9190    -0.2330 C.3   1 <1>  -0.0170 
 16 C        0.4820     5.5050    -0.1380 C.3   1 <1>   0.0200 
 17 C        2.1050     3.7800     0.8100 C.3   1 <1>  -0.1600 
 18 C       -4.0810    -4.2400    -0.5500 C.ar  1 <1>  -0.1440 
 19 C        1.4940     5.1850     0.9760 C.3   1 <1>  -0.1600 
 20 C       -4.4900    -5.4310     0.1020 C.ar  1 <1>   0.0000 
 21 C       -3.0590    -4.3510    -1.4520 C.ar  1 <1>  -0.1500 
 22 C       -3.7990    -6.6290    -0.2040 C.ar  1 <1>   0.3100 
 23 C       -5.5520    -5.5060     1.0360 C.ar  1 <1>  -0.1500 
 24 C       -2.4460    -5.5870    -1.6840 C.ar  1 <1>   0.1600 
 25 N       -2.7800    -6.6900    -1.0960 N.ar  1 <1>  -0.6200 
 26 C       -4.1790    -7.8200     0.4360 C.ar  1 <1>  -0.1500 
 27 C       -5.8990    -6.6840     1.6410 C.ar  1 <1>  -0.1500 
 28 C       -5.2040    -7.8570     1.3410 C.ar  1 <1>  -0.1500 
 29 H       -4.2050     1.6410    -0.1870 H     1 <1>   0.0800 
 30 H       -3.8450     1.0180    -1.7910 H     1 <1>   0.0800 
 31 H       -1.9720    -1.7840    -0.7090 H     1 <1>   0.0800 
 32 H       -2.7410    -1.5880     0.8560 H     1 <1>   0.0800 
 33 H       -5.8080    -0.2660    -1.2360 H     1 <1>   0.0800 
 34 H       -4.0230    -1.7410    -1.8560 H     1 <1>   0.0800 
 35 H       -2.0200     5.0860    -1.4990 H     1 <1>   0.2700 
 36 H        0.7450     2.5060     1.9000 H     1 <1>   0.0800 
 37 H        1.4590     1.7560     0.4990 H     1 <1>   0.0800 
 38 H       -4.6610    -0.1760     1.3310 H     1 <1>   0.4000 
 39 H       -5.8000    -2.9840    -0.6060 H     1 <1>   0.0800 
 40 H       -4.8510    -2.8190     0.8370 H     1 <1>   0.0800 
 41 H        1.0060     5.7260    -1.0520 H     1 <1>   0.0800 
 42 H       -0.1000     6.3660     0.1410 H     1 <1>   0.0800 
 43 H        2.8450     3.6080     1.5720 H     1 <1>   0.0800 
 44 H        2.5970     3.7270    -0.1460 H     1 <1>   0.0800 
 45 H        2.2740     5.9270     0.9750 H     1 <1>   0.0800 
 46 H        0.9920     5.2330     1.9260 H     1 <1>   0.0800 
 47 H       -2.6840    -3.5190    -2.0150 H     1 <1>   0.1500 
 48 H       -6.1080    -4.6210     1.2810 H     1 <1>   0.1500 
 49 H       -1.6410    -5.6220    -2.4000 H     1 <1>   0.1500 
 50 H       -3.6310    -8.7100     0.1870 H     1 <1>   0.1500 
 51 H       -6.7080    -6.7220     2.3500 H     1 <1>   0.1500 
 52 H       -5.4850    -8.7770     1.8240 H     1 <1>   0.1500 
@<TRIPOS>BOND
  1   1   2  2   
  2   2   3  am  
  3   2   4  1   
  4   3   5  1   
  5   3   6  1   
  6   4   7  2   
  7   4   8  1   
  8   5   9  1   
  9   5  29  1   
 10   5  30  1   
 11   6  10  1   
 12   6  31  1   
 13   6  32  1   
 14   7  11  1   
 15   8  12  2   
 16   8  13  1   
 17   9  10  1   
 18   9  14  1   
 19   9  33  1   
 20  10  15  1   
 21  10  34  1   
 22  11  12  1   
 23  11  35  1   
 24  12  16  1   
 25  13  17  1   
 26  13  36  1   
 27  13  37  1   
 28  14  38  1   
 29  15  18  1   
 30  15  39  1   
 31  15  40  1   
 32  16  19  1   
 33  16  41  1   
 34  16  42  1   
 35  17  19  1   
 36  17  43  1   
 37  17  44  1   
 38  18  20  ar  
 39  18  21  ar  
 40  19  45  1   
 41  19  46  1   
 42  20  22  ar  
 43  20  23  ar  
 44  21  24  ar  
 45  21  47  1   
 46  22  25  ar  
 47  22  26  ar  
 48  23  27  ar  
 49  23  48  1   
 50  24  25  ar  
 51  24  49  1   
 52  26  28  ar  
 53  26  50  1   
 54  27  28  ar  
 55  27  51  1   
 56  28  52  1   
@<TRIPOS>SUBSTRUCTURE
  1 ****   6 GROUP 4 **** **** 0

# MOE 2024.06 (io_trps.svl 2023.06)
