@<TRIPOS>MOLECULE
NONAME
51 53 1 0 0 
SMALL
USER_CHARGES


@<TRIPOS>ATOM
  1 O       -2.6340     0.5790     2.8850 O.2   1 <1>  -0.5700 
  2 C       -3.0120     1.4510     2.1240 C.2   1 <1>   0.5440 
  3 N       -4.1020     1.2080     1.3160 N.am  1 <1>  -0.6600 
  4 C       -2.2950     2.7080     2.0600 C.ar  1 <1>   0.0860 
  5 C       -4.7270    -0.1450     1.2750 C.3   1 <1>   0.3200 
  6 C       -4.7070     2.2420     0.4140 C.3   1 <1>   0.1400 
  7 C       -1.2560     2.9460     1.1490 C.ar  1 <1>  -0.1440 
  8 C       -2.6700     3.7300     2.9290 C.ar  1 <1>  -0.1500 
  9 C       -3.8370    -1.0980     0.4910 C.2   1 <1>   0.0060 
 10 C       -4.3420     2.0490    -1.0670 C.3   1 <1>   0.1200 
 11 C       -0.6350     4.1950     1.1040 C.ar  1 <1>   0.1170 
 12 C       -0.7840     1.8460     0.1900 C.3   1 <1>  -0.0970 
 13 C       -2.0550     4.9650     2.8910 C.ar  1 <1>  -0.1500 
 14 N       -4.0910    -1.5580    -0.6930 N.2   1 <1>  -0.5650 
 15 N       -2.6620    -1.5310     0.9960 N.pl3 1 <1>   0.0330 
 16 O       -5.0250     0.9710    -1.6120 O.3   1 <1>  -0.6800 
 17 N        0.4070     4.4300     0.1950 N.am  1 <1>  -0.5470 
 18 C       -1.0460     5.1940     1.9800 C.ar  1 <1>  -0.1500 
 19 C       -3.0250    -2.3340    -0.9720 C.2   1 <1>   0.0770 
 20 C       -2.1400    -2.3270     0.0480 C.2   1 <1>  -0.3020 
 21 C        0.8070     5.5620    -0.4590 C.2   1 <1>   0.5690 
 22 O        0.2600     6.6330    -0.3390 O.2   1 <1>  -0.5700 
 23 C        2.0090     5.4330    -1.4030 C.3   1 <1>   0.2610 
 24 O        2.3820     4.0920    -1.6010 O.3   1 <1>  -0.5600 
 25 C        3.2800     6.0910    -0.8790 C.3   1 <1>  -0.1600 
 26 C        3.6930     4.0330    -2.0640 C.3   1 <1>   0.1200 
 27 C        4.3940     5.2750    -1.5180 C.3   1 <1>  -0.1600 
 28 H       -5.6960    -0.0930     0.8110 H     1 <1>   0.0800 
 29 H       -4.8580    -0.5150     2.2780 H     1 <1>   0.0800 
 30 H       -4.3740     3.2200     0.7120 H     1 <1>   0.0800 
 31 H       -5.7780     2.2340     0.5180 H     1 <1>   0.0800 
 32 H       -3.4550     3.5480     3.6420 H     1 <1>   0.1500 
 33 H       -3.2870     1.8910    -1.1950 H     1 <1>   0.0800 
 34 H       -4.6340     2.9210    -1.6250 H     1 <1>   0.0800 
 35 H       -1.4280     0.9870     0.1890 H     1 <1>   0.0800 
 36 H        0.2010     1.5180     0.4720 H     1 <1>   0.0800 
 37 H       -0.7500     2.2190    -0.8180 H     1 <1>   0.0800 
 38 H       -2.3580     5.7460     3.5670 H     1 <1>   0.1500 
 39 H       -2.2730    -1.2340     1.9030 H     1 <1>   0.2700 
 40 H       -4.6440     0.1080    -1.2970 H     1 <1>   0.4000 
 41 H        0.9360     3.6090    -0.1090 H     1 <1>   0.3700 
 42 H       -0.5690     6.1570     1.9540 H     1 <1>   0.1500 
 43 H       -2.9490    -2.8630    -1.9080 H     1 <1>   0.1500 
 44 H       -1.1950    -2.8300     0.1490 H     1 <1>   0.1500 
 45 H        1.7490     5.8400    -2.3640 H     1 <1>   0.0800 
 46 H        3.3170     5.9980     0.1930 H     1 <1>   0.0800 
 47 H        3.3200     7.1330    -1.1420 H     1 <1>   0.0800 
 48 H        3.6700     4.0410    -3.1410 H     1 <1>   0.0800 
 49 H        4.1450     3.1210    -1.7120 H     1 <1>   0.0800 
 50 H        5.1460     5.0070    -0.7960 H     1 <1>   0.0800 
 51 H        4.8620     5.8140    -2.3240 H     1 <1>   0.0800 
@<TRIPOS>BOND
  1   1   2  2   
  2   2   3  am  
  3   2   4  1   
  4   3   5  1   
  5   3   6  1   
  6   4   7  ar  
  7   4   8  ar  
  8   5   9  1   
  9   5  28  1   
 10   5  29  1   
 11   6  10  1   
 12   6  30  1   
 13   6  31  1   
 14   7  11  ar  
 15   7  12  1   
 16   8  13  ar  
 17   8  32  1   
 18   9  14  2   
 19   9  15  1   
 20  10  16  1   
 21  10  33  1   
 22  10  34  1   
 23  11  17  1   
 24  11  18  ar  
 25  12  35  1   
 26  12  36  1   
 27  12  37  1   
 28  13  18  ar  
 29  13  38  1   
 30  14  19  1   
 31  15  20  1   
 32  15  39  1   
 33  16  40  1   
 34  17  21  am  
 35  17  41  1   
 36  18  42  1   
 37  19  20  2   
 38  19  43  1   
 39  20  44  1   
 40  21  22  2   
 41  21  23  1   
 42  23  24  1   
 43  23  25  1   
 44  23  45  1   
 45  24  26  1   
 46  25  27  1   
 47  25  46  1   
 48  25  47  1   
 49  26  27  1   
 50  26  48  1   
 51  26  49  1   
 52  27  50  1   
 53  27  51  1   
@<TRIPOS>SUBSTRUCTURE
  1 ****  12 GROUP 4 **** **** 0

# MOE 2024.06 (io_trps.svl 2023.06)
