@<TRIPOS>MOLECULE
NONAME
35 37 1 0 0 
SMALL
USER_CHARGES


@<TRIPOS>ATOM
  1 O        0.6790     2.8310     1.2610 O.co2 1 <1>  -0.9000 
  2 C        1.8660     2.5890     1.5180 C.2   1 <1>   0.9470 
  3 O        2.4040     3.0600     2.5310 O.co2 1 <1>  -0.9000 
  4 C        2.7460     1.8900     0.4740 C.3   1 <1>  -0.2420 
  5 C        3.0420     0.4350     0.1900 C.3   1 <1>  -0.2420 
  6 C        4.0350     2.6630     0.2680 C.3   1 <1>   0.2350 
  7 C        2.0730     1.1910    -0.6820 C.3   1 <1>  -0.2000 
  8 C        2.5750    -0.8400     0.8930 C.2   1 <1>   0.9470 
  9 C        4.5050     0.3230    -0.2110 C.3   1 <1>   0.2350 
 10 N        4.9500     1.7240    -0.4390 N.am  1 <1>  -0.6600 
 11 O        1.6970    -1.5370     0.3650 O.co2 1 <1>  -0.9000 
 12 O        3.1920    -1.2360     1.8910 O.co2 1 <1>  -0.9000 
 13 C        6.0070     2.0760    -1.2280 C.2   1 <1>   0.5690 
 14 O        6.6940     1.2520    -1.7900 O.2   1 <1>  -0.5700 
 15 C        6.3350     3.5470    -1.4690 C.3   1 <1>   0.1810 
 16 O        6.5870     4.2360    -0.2520 O.3   1 <1>  -0.3630 
 17 C        6.2990     5.5530    -0.2060 C.ar  1 <1>   0.0820 
 18 C        6.7760     6.4360    -1.1660 C.ar  1 <1>  -0.1500 
 19 C        5.5050     6.0140     0.8310 C.ar  1 <1>  -0.1500 
 20 C        6.4460     7.7790    -1.0890 C.ar  1 <1>  -0.1500 
 21 C        5.1750     7.3560     0.9040 C.ar  1 <1>  -0.1500 
 22 C        5.6450     8.2370    -0.0560 C.ar  1 <1>  -0.1500 
 23 H        4.4690     2.9240     1.2180 H     1 <1>   0.0800 
 24 H        3.8490     3.5530    -0.3050 H     1 <1>   0.0800 
 25 H        2.3490     1.4400    -1.6890 H     1 <1>   0.1000 
 26 H        1.0270     0.9490    -0.5870 H     1 <1>   0.1000 
 27 H        4.6180    -0.2740    -1.0980 H     1 <1>   0.0800 
 28 H        5.0780    -0.1070     0.5930 H     1 <1>   0.0800 
 29 H        5.5020     4.0110    -1.9640 H     1 <1>   0.0800 
 30 H        7.2110     3.6270    -2.0840 H     1 <1>   0.0800 
 31 H        7.4050     6.0830    -1.9610 H     1 <1>   0.1500 
 32 H        5.1390     5.3210     1.5710 H     1 <1>   0.1500 
 33 H        6.8120     8.4670    -1.8300 H     1 <1>   0.1500 
 34 H        4.5500     7.7070     1.7080 H     1 <1>   0.1500 
 35 H        5.3860     9.2800     0.0040 H     1 <1>   0.1500 
@<TRIPOS>BOND
  1   1   2  ar  
  2   2   3  ar  
  3   2   4  1   
  4   4   5  1   
  5   4   6  1   
  6   4   7  1   
  7   5   7  1   
  8   5   8  1   
  9   5   9  1   
 10   6  10  1   
 11   6  23  1   
 12   6  24  1   
 13   7  25  1   
 14   7  26  1   
 15   8  11  ar  
 16   8  12  ar  
 17   9  10  1   
 18   9  27  1   
 19   9  28  1   
 20  10  13  am  
 21  13  14  2   
 22  13  15  1   
 23  15  16  1   
 24  15  29  1   
 25  15  30  1   
 26  16  17  1   
 27  17  18  ar  
 28  17  19  ar  
 29  18  20  ar  
 30  18  31  1   
 31  19  21  ar  
 32  19  32  1   
 33  20  22  ar  
 34  20  33  1   
 35  21  22  ar  
 36  21  34  1   
 37  22  35  1   
@<TRIPOS>SUBSTRUCTURE
  1 ****   6 GROUP 4 **** **** 0

# MOE 2024.06 (io_trps.svl 2023.06)
