@<TRIPOS>MOLECULE
NONAME
45 48 1 0 0 
SMALL
USER_CHARGES


@<TRIPOS>ATOM
  1 S       -3.6770     0.1780     0.1300 S.3   1 <1>  -0.2420 
  2 C       -2.8450    -1.3730     0.2400 C.2   1 <1>   0.6510 
  3 C       -2.3600     0.8790    -0.8300 C.2   1 <1>  -0.0490 
  4 N       -3.3370    -2.3960     0.8630 N.2   1 <1>  -0.6210 
  5 N       -1.6560    -1.2990    -0.4330 N.am  1 <1>  -0.2290 
  6 C       -1.4030    -0.0380    -1.0190 C.2   1 <1>  -0.0410 
  7 C       -2.5700    -3.5310     0.8570 C.2   1 <1>   0.0330 
  8 C       -0.8790    -2.4290    -0.4710 C.2   1 <1>   0.6160 
  9 C       -1.3720    -3.5690     0.2120 C.2   1 <1>  -0.1360 
 10 C       -3.1170    -4.7520     1.6100 C.3   1 <1>   0.4810 
 11 O        0.1790    -2.4460    -1.0780 O.2   1 <1>  -0.5700 
 12 N       -4.5090    -5.1150     1.2000 N.4   1 <1>  -0.9590 
 13 C       -4.6720    -5.2810    -0.2650 C.3   1 <1>   0.4860 
 14 C       -5.5430    -4.1900     1.7350 C.3   1 <1>   0.3430 
 15 C       -4.9530    -6.7360    -0.6020 C.ar  1 <1>  -0.1430 
 16 C       -6.7790    -4.9610     2.2220 C.3   1 <1>  -0.1600 
 17 C       -5.7460    -7.5710     0.1880 C.ar  1 <1>   0.0830 
 18 C       -4.3950    -7.2470    -1.7660 C.ar  1 <1>  -0.1500 
 19 C       -7.2590    -6.1130     1.3250 C.3   1 <1>   0.1200 
 20 O       -6.2830    -7.1330     1.3580 O.3   1 <1>  -0.3630 
 21 C       -5.9720    -8.8980    -0.1820 C.ar  1 <1>   0.0830 
 22 C       -4.6160    -8.5610    -2.1370 C.ar  1 <1>  -0.1500 
 23 O       -6.7540    -9.6610     0.6330 O.3   1 <1>  -0.3630 
 24 C       -5.4010    -9.3860    -1.3510 C.ar  1 <1>  -0.1500 
 25 C       -7.0210   -11.0170     0.3480 C.3   1 <1>   0.0400 
 26 H       -2.4660     1.9060    -1.1380 H     1 <1>   0.1500 
 27 H       -0.4800     0.0950    -1.5640 H     1 <1>   0.1500 
 28 H       -0.7410    -4.4390     0.1850 H     1 <1>   0.1500 
 29 H       -3.1010    -4.5430     2.6670 H     1 <1>   0.0800 
 30 H       -2.4640    -5.5920     1.4330 H     1 <1>   0.0800 
 31 H       -4.7440    -6.0480     1.5880 H     1 <1>   0.4500 
 32 H       -3.7830    -4.9580    -0.7810 H     1 <1>   0.0800 
 33 H       -5.4940    -4.6800    -0.6170 H     1 <1>   0.0800 
 34 H       -5.8260    -3.4830     0.9710 H     1 <1>   0.0800 
 35 H       -5.1390    -3.6230     2.5600 H     1 <1>   0.0800 
 36 H       -7.5840    -4.2560     2.3270 H     1 <1>   0.0800 
 37 H       -6.5880    -5.3510     3.2070 H     1 <1>   0.0800 
 38 H       -3.7810    -6.6330    -2.4040 H     1 <1>   0.1500 
 39 H       -7.4270    -5.7960     0.3100 H     1 <1>   0.0800 
 40 H       -8.1720    -6.5370     1.7100 H     1 <1>   0.0800 
 41 H       -4.1780    -8.9470    -3.0430 H     1 <1>   0.1500 
 42 H       -5.5540   -10.4000    -1.6690 H     1 <1>   0.1500 
 43 H       -7.6470   -11.4050     1.1310 H     1 <1>   0.0800 
 44 H       -6.0920   -11.5590     0.3220 H     1 <1>   0.0800 
 45 H       -7.5350   -11.0820    -0.5950 H     1 <1>   0.0800 
@<TRIPOS>BOND
  1   1   2  1   
  2   1   3  1   
  3   2   4  2   
  4   2   5  1   
  5   3   6  2   
  6   3  26  1   
  7   4   7  1   
  8   5   6  1   
  9   5   8  am  
 10   6  27  1   
 11   7   9  2   
 12   7  10  1   
 13   8   9  1   
 14   8  11  2   
 15   9  28  1   
 16  10  12  1   
 17  10  29  1   
 18  10  30  1   
 19  12  13  1   
 20  12  14  1   
 21  12  31  1   
 22  13  15  1   
 23  13  32  1   
 24  13  33  1   
 25  14  16  1   
 26  14  34  1   
 27  14  35  1   
 28  15  17  ar  
 29  15  18  ar  
 30  16  19  1   
 31  16  36  1   
 32  16  37  1   
 33  17  20  1   
 34  17  21  ar  
 35  18  22  ar  
 36  18  38  1   
 37  19  20  1   
 38  19  39  1   
 39  19  40  1   
 40  21  23  1   
 41  21  24  ar  
 42  22  24  ar  
 43  22  41  1   
 44  23  25  1   
 45  24  42  1   
 46  25  43  1   
 47  25  44  1   
 48  25  45  1   
@<TRIPOS>SUBSTRUCTURE
  1 ****  13 GROUP 4 **** **** 0

# MOE 2024.06 (io_trps.svl 2023.06)
