@<TRIPOS>MOLECULE
NONAME
46 49 1 0 0 
SMALL
USER_CHARGES


@<TRIPOS>ATOM
  1 S       -0.2110    -0.3880     0.9290 S.3   1 <1>  -0.0800 
  2 C       -0.5600     1.1680     0.2740 C.2   1 <1>   0.4340 
  3 C       -1.4990    -0.9820    -0.0750 C.2   1 <1>   0.4420 
  4 S        0.4380     2.5290     0.8580 S.3   1 <1>  -0.2860 
  5 N       -1.5070     1.1890    -0.5710 N.2   1 <1>  -0.3380 
  6 N       -2.0490    -0.0530    -0.7740 N.2   1 <1>  -0.3380 
  7 N       -1.7480    -2.3380    -0.0040 N.am  1 <1>  -0.4940 
  8 C       -0.2500     3.9790    -0.0600 C.3   1 <1>   0.0700 
  9 C       -2.7580    -3.0780    -0.5700 C.2   1 <1>   0.5440 
 10 C        0.5300     5.2200     0.3610 C.3   1 <1>   0.1200 
 11 O       -3.6950    -2.5190    -1.0990 O.2   1 <1>  -0.5700 
 12 C       -2.7100    -4.5230    -0.4850 C.ar  1 <1>   0.0860 
 13 O        0.0150     6.3140    -0.3270 O.3   1 <1>  -0.5600 
 14 C       -3.8730    -5.2650    -0.3450 C.ar  1 <1>  -0.1500 
 15 C       -1.4810    -5.2220    -0.5350 C.ar  1 <1>  -0.1500 
 16 C        0.6460     7.5170    -0.0300 C.3   1 <1>   0.0400 
 17 C       -3.8280    -6.6540    -0.2300 C.ar  1 <1>   0.0000 
 18 C       -1.4170    -6.5900    -0.4250 C.ar  1 <1>  -0.1500 
 19 C       -2.6020    -7.3110    -0.2670 C.ar  1 <1>  -0.1520 
 20 C       -4.8060    -7.6590    -0.0700 C.2   1 <1>  -0.1810 
 21 N       -2.8260    -8.6580    -0.1350 N.pl3 1 <1>   0.0330 
 22 C       -4.1730    -8.8500    -0.0220 C.2   1 <1>  -0.3320 
 23 C       -6.3080    -7.4890     0.0290 C.3   1 <1>   0.0210 
 24 C       -4.8600   -10.1930     0.1410 C.3   1 <1>   0.0200 
 25 C       -6.9540    -8.7830     0.5630 C.3   1 <1>  -0.1600 
 26 C       -6.3710   -10.0410    -0.1140 C.3   1 <1>  -0.1600 
 27 H       -1.1170    -2.8630     0.5940 H     1 <1>   0.3700 
 28 H       -1.2900     4.0600     0.2010 H     1 <1>   0.0800 
 29 H       -0.1350     3.7790    -1.1100 H     1 <1>   0.0800 
 30 H        1.5710     5.1110     0.1100 H     1 <1>   0.0800 
 31 H        0.4180     5.3920     1.4180 H     1 <1>   0.0800 
 32 H       -4.8280    -4.7730    -0.3210 H     1 <1>   0.1500 
 33 H       -0.5700    -4.6690    -0.6770 H     1 <1>   0.1500 
 34 H        0.1770     8.2920    -0.6090 H     1 <1>   0.0800 
 35 H        1.6870     7.4470    -0.2930 H     1 <1>   0.0800 
 36 H        0.5320     7.7290     1.0190 H     1 <1>   0.0800 
 37 H       -0.4770    -7.1130    -0.4660 H     1 <1>   0.1500 
 38 H       -2.1070    -9.3870    -0.1330 H     1 <1>   0.2700 
 39 H       -6.6930    -7.2650    -0.9500 H     1 <1>   0.0800 
 40 H       -6.5420    -6.6680     0.6840 H     1 <1>   0.0800 
 41 H       -4.6950   -10.5490     1.1430 H     1 <1>   0.0800 
 42 H       -4.4490   -10.9090    -0.5490 H     1 <1>   0.0800 
 43 H       -8.0170    -8.7410     0.4080 H     1 <1>   0.0800 
 44 H       -6.7750    -8.8460     1.6220 H     1 <1>   0.0800 
 45 H       -6.8830   -10.9180     0.2400 H     1 <1>   0.0800 
 46 H       -6.5370    -9.9680    -1.1760 H     1 <1>   0.0800 
@<TRIPOS>BOND
  1   1   2  1   
  2   1   3  1   
  3   2   4  1   
  4   2   5  2   
  5   3   6  2   
  6   3   7  1   
  7   4   8  1   
  8   5   6  1   
  9   7   9  am  
 10   7  27  1   
 11   8  10  1   
 12   8  28  1   
 13   8  29  1   
 14   9  11  2   
 15   9  12  1   
 16  10  13  1   
 17  10  30  1   
 18  10  31  1   
 19  12  14  ar  
 20  12  15  ar  
 21  13  16  1   
 22  14  17  ar  
 23  14  32  1   
 24  15  18  ar  
 25  15  33  1   
 26  16  34  1   
 27  16  35  1   
 28  16  36  1   
 29  17  19  ar  
 30  17  20  1   
 31  18  19  ar  
 32  18  37  1   
 33  19  21  1   
 34  20  22  2   
 35  20  23  1   
 36  21  22  1   
 37  21  38  1   
 38  22  24  1   
 39  23  25  1   
 40  23  39  1   
 41  23  40  1   
 42  24  26  1   
 43  24  41  1   
 44  24  42  1   
 45  25  26  1   
 46  25  43  1   
 47  25  44  1   
 48  26  45  1   
 49  26  46  1   
@<TRIPOS>SUBSTRUCTURE
  1 ****   9 GROUP 4 **** **** 0

# MOE 2024.06 (io_trps.svl 2023.06)
