@<TRIPOS>MOLECULE
NONAME
42 44 1 0 0 
SMALL
USER_CHARGES


@<TRIPOS>ATOM
  1 CL       0.3020    -5.7380    -0.3370 Cl    1 <1>  -0.1770 
  2 C       -1.0060    -4.6300     0.0000 C.ar  1 <1>   0.1770 
  3 C       -0.9760    -3.3230    -0.4570 C.ar  1 <1>   0.1770 
  4 C       -2.0910    -5.0950     0.7200 C.ar  1 <1>  -0.1500 
  5 CL       0.3900    -2.7260    -1.3680 Cl    1 <1>  -0.1770 
  6 C       -2.0370    -2.4730    -0.2020 C.ar  1 <1>  -0.1500 
  7 C       -3.1700    -4.2540     0.9640 C.ar  1 <1>  -0.1440 
  8 C       -3.1340    -2.9410     0.5060 C.ar  1 <1>  -0.1500 
  9 C       -4.3780    -4.7910     1.7080 C.3   1 <1>   0.4870 
 10 N       -5.0740    -5.7240     0.7950 N.4   1 <1>  -0.9590 
 11 C       -5.7920    -5.0980    -0.3520 C.3   1 <1>   0.3430 
 12 C       -5.9940    -6.7090     1.3990 C.3   1 <1>   0.3430 
 13 C       -6.8690    -6.1110    -0.7670 C.3   1 <1>   0.2000 
 14 C       -6.7490    -7.2940     0.2050 C.3   1 <1>  -0.0800 
 15 O       -8.1250    -5.5310    -0.6240 O.3   1 <1>  -0.6800 
 16 C       -6.0170    -8.5070    -0.4180 C.3   1 <1>   0.0210 
 17 C       -4.5110    -8.3620    -0.6110 C.2   1 <1>   0.1080 
 18 N       -3.9460    -7.3810    -1.2510 N.2   1 <1>  -0.7070 
 19 C       -3.5760    -9.2760    -0.1380 C.2   1 <1>  -0.1500 
 20 N       -2.6270    -7.6840    -1.2550 N.pl3 1 <1>   0.3000 
 21 C       -2.3820    -8.8110    -0.5600 C.2   1 <1>  -0.3320 
 22 C       -0.9960    -9.3980    -0.3600 C.3   1 <1>  -0.0600 
 23 H       -2.0800    -6.1120     1.0740 H     1 <1>   0.1500 
 24 H       -2.0000    -1.4580    -0.5580 H     1 <1>   0.1500 
 25 H       -3.9560    -2.2680     0.6930 H     1 <1>   0.1500 
 26 H       -5.0340    -3.9880     2.0020 H     1 <1>   0.0800 
 27 H       -4.0480    -5.3130     2.5910 H     1 <1>   0.0800 
 28 H       -4.3460    -6.2950     0.3100 H     1 <1>   0.4500 
 29 H       -6.2540    -4.1690    -0.0640 H     1 <1>   0.0800 
 30 H       -5.1070    -4.9270    -1.1670 H     1 <1>   0.0800 
 31 H       -5.4600    -7.4720     1.9420 H     1 <1>   0.0800 
 32 H       -6.6850    -6.2100     2.0590 H     1 <1>   0.0800 
 33 H       -6.7560    -6.4000    -1.7990 H     1 <1>   0.0800 
 34 H       -7.7240    -7.6320     0.5110 H     1 <1>   0.0800 
 35 H       -8.4040    -5.4340     0.3060 H     1 <1>   0.4000 
 36 H       -6.4570    -8.7370    -1.3730 H     1 <1>   0.0800 
 37 H       -6.1870    -9.3650     0.2100 H     1 <1>   0.0800 
 38 H       -3.7800   -10.1690     0.4280 H     1 <1>   0.1500 
 39 H       -1.9180    -7.1180    -1.7440 H     1 <1>   0.2700 
 40 H       -1.0560   -10.3090     0.2100 H     1 <1>   0.0800 
 41 H       -0.3640    -8.7060     0.1680 H     1 <1>   0.0800 
 42 H       -0.5460    -9.6240    -1.3110 H     1 <1>   0.0800 
@<TRIPOS>BOND
  1   1   2  1   
  2   2   3  ar  
  3   2   4  ar  
  4   3   5  1   
  5   3   6  ar  
  6   4   7  ar  
  7   4  23  1   
  8   6   8  ar  
  9   6  24  1   
 10   7   8  ar  
 11   7   9  1   
 12   8  25  1   
 13   9  10  1   
 14   9  26  1   
 15   9  27  1   
 16  10  11  1   
 17  10  12  1   
 18  10  28  1   
 19  11  13  1   
 20  11  29  1   
 21  11  30  1   
 22  12  14  1   
 23  12  31  1   
 24  12  32  1   
 25  13  14  1   
 26  13  15  1   
 27  13  33  1   
 28  14  16  1   
 29  14  34  1   
 30  15  35  1   
 31  16  17  1   
 32  16  36  1   
 33  16  37  1   
 34  17  18  2   
 35  17  19  1   
 36  18  20  1   
 37  19  21  2   
 38  19  38  1   
 39  20  21  1   
 40  20  39  1   
 41  21  22  1   
 42  22  40  1   
 43  22  41  1   
 44  22  42  1   
@<TRIPOS>SUBSTRUCTURE
  1 ****  10 GROUP 4 **** **** 0

# MOE 2024.06 (io_trps.svl 2023.06)
