@<TRIPOS>MOLECULE
NONAME
48 51 1 0 0 
SMALL
USER_CHARGES


@<TRIPOS>ATOM
  1 O        3.2960    -1.7280     2.2070 O.2   1 <1>  -0.5700 
  2 C        2.3510    -1.9460     1.4650 C.2   1 <1>   0.5440 
  3 N        1.8230    -0.8580     0.7900 N.am  1 <1>  -0.6600 
  4 C        1.8730    -3.3250     1.3220 C.ar  1 <1>   0.3960 
  5 C        2.4050     0.5000     0.8850 C.3   1 <1>   0.1400 
  6 C        0.7420    -0.8940    -0.2220 C.3   1 <1>   0.1400 
  7 N        0.5940    -3.5950     1.0050 N.ar  1 <1>  -0.6200 
  8 C        2.7960    -4.3560     1.5340 C.ar  1 <1>   0.1600 
  9 C        1.9140     1.2190    -0.3650 C.3   1 <1>  -0.1600 
 10 C        0.5840     0.5480    -0.6930 C.3   1 <1>  -0.1600 
 11 C        0.3200    -4.8850     0.9170 C.ar  1 <1>   0.4100 
 12 N        2.5460    -5.6550     1.4420 N.ar  1 <1>  -0.6200 
 13 N       -0.9890    -5.2230     0.6170 N.pl3 1 <1>  -0.8380 
 14 C        1.2880    -5.8780     1.1260 C.ar  1 <1>   0.1600 
 15 C       -1.7830    -4.3260    -0.2650 C.3   1 <1>   0.2090 
 16 C       -1.7850    -5.8860     1.6800 C.3   1 <1>   0.2090 
 17 C       -2.8970    -5.1320    -0.9340 C.3   1 <1>  -0.1600 
 18 C       -2.8950    -6.7160     1.0340 C.3   1 <1>  -0.1600 
 19 C       -3.7660    -5.8530     0.1080 C.3   1 <1>   0.0630 
 20 C       -4.8490    -6.6910    -0.5630 C.ar  1 <1>  -0.1430 
 21 C       -4.5610    -7.7380    -1.4180 C.ar  1 <1>  -0.1500 
 22 C       -6.1910    -6.4420    -0.3480 C.ar  1 <1>  -0.1500 
 23 C       -5.5920    -8.4590    -1.9960 C.ar  1 <1>   0.1600 
 24 C       -7.1460    -7.2240    -0.9760 C.ar  1 <1>   0.1600 
 25 N       -6.8780    -8.2280    -1.7950 N.ar  1 <1>  -0.6200 
 26 H        3.4810     0.4620     0.9250 H     1 <1>   0.0800 
 27 H        2.0280     0.9790     1.7730 H     1 <1>   0.0800 
 28 H       -0.1750    -1.2560     0.2100 H     1 <1>   0.0800 
 29 H        1.0390    -1.5310    -1.0380 H     1 <1>   0.0800 
 30 H        3.8040    -4.0820     1.7950 H     1 <1>   0.1500 
 31 H        2.6170     1.0490    -1.1620 H     1 <1>   0.0800 
 32 H        1.8140     2.2770    -0.2030 H     1 <1>   0.0800 
 33 H       -0.2060     1.0130    -0.1300 H     1 <1>   0.0800 
 34 H        0.3450     0.6030    -1.7410 H     1 <1>   0.0800 
 35 H        0.9740    -6.8990     1.0160 H     1 <1>   0.1500 
 36 H       -1.1430    -3.8980    -1.0190 H     1 <1>   0.0800 
 37 H       -2.2000    -3.5260     0.3230 H     1 <1>   0.0800 
 38 H       -2.2110    -5.1350     2.3240 H     1 <1>   0.0800 
 39 H       -1.1540    -6.5230     2.2770 H     1 <1>   0.0800 
 40 H       -2.4460    -5.8440    -1.6010 H     1 <1>   0.0800 
 41 H       -3.5110    -4.4740    -1.5210 H     1 <1>   0.0800 
 42 H       -3.5090    -7.1510     1.8030 H     1 <1>   0.0800 
 43 H       -2.4430    -7.5190     0.4800 H     1 <1>   0.0800 
 44 H       -4.2420    -5.1010     0.7140 H     1 <1>   0.0800 
 45 H       -3.5440    -8.0020    -1.6420 H     1 <1>   0.1500 
 46 H       -6.5070    -5.6470     0.3020 H     1 <1>   0.1500 
 47 H       -5.3440    -9.2700    -2.6590 H     1 <1>   0.1500 
 48 H       -8.1860    -7.0130    -0.7940 H     1 <1>   0.1500 
@<TRIPOS>BOND
  1   1   2  2   
  2   2   3  am  
  3   2   4  1   
  4   3   5  1   
  5   3   6  1   
  6   4   7  ar  
  7   4   8  ar  
  8   5   9  1   
  9   5  26  1   
 10   5  27  1   
 11   6  10  1   
 12   6  28  1   
 13   6  29  1   
 14   7  11  ar  
 15   8  12  ar  
 16   8  30  1   
 17   9  10  1   
 18   9  31  1   
 19   9  32  1   
 20  10  33  1   
 21  10  34  1   
 22  11  13  1   
 23  11  14  ar  
 24  12  14  ar  
 25  13  15  1   
 26  13  16  1   
 27  14  35  1   
 28  15  17  1   
 29  15  36  1   
 30  15  37  1   
 31  16  18  1   
 32  16  38  1   
 33  16  39  1   
 34  17  19  1   
 35  17  40  1   
 36  17  41  1   
 37  18  19  1   
 38  18  42  1   
 39  18  43  1   
 40  19  20  1   
 41  19  44  1   
 42  20  21  ar  
 43  20  22  ar  
 44  21  23  ar  
 45  21  45  1   
 46  22  24  ar  
 47  22  46  1   
 48  23  25  ar  
 49  23  47  1   
 50  24  25  ar  
 51  24  48  1   
@<TRIPOS>SUBSTRUCTURE
  1 ****  15 GROUP 4 **** **** 0

# MOE 2024.06 (io_trps.svl 2023.06)
