@<TRIPOS>MOLECULE
NONAME
61 63 1 0 0 
SMALL
USER_CHARGES


@<TRIPOS>ATOM
  1 O       -0.8230    -2.1610    -0.9340 O.2   1 <1>  -0.5700 
  2 C        0.2420    -1.8020    -0.4510 C.2   1 <1>   0.5440 
  3 N        0.5870    -2.1850     0.8260 N.am  1 <1>  -0.4200 
  4 C        1.1570    -0.9750    -1.1870 C.ar  1 <1>   0.0860 
  5 C        1.8060    -1.7970     1.3310 C.2   1 <1>   0.4500 
  6 C       -0.2990    -3.0280     1.7010 C.3   1 <1>   0.2810 
  7 C        2.3620    -0.6350    -0.5620 C.ar  1 <1>   0.1790 
  8 C        0.9090    -0.4950    -2.4770 C.ar  1 <1>  -0.1500 
  9 N        2.6560    -1.0730     0.7120 N.2   1 <1>  -0.6290 
 10 C       -0.8410    -4.3140     1.0240 C.2   1 <1>   0.5690 
 11 C       -1.2830    -2.1740     2.5670 C.3   1 <1>  -0.0800 
 12 C        3.2840     0.1600    -1.2340 C.ar  1 <1>  -0.1500 
 13 C        1.8320     0.2950    -3.1310 C.ar  1 <1>  -0.1500 
 14 O       -0.0130    -5.1080     0.6400 O.2   1 <1>  -0.5700 
 15 N       -2.1660    -4.6590     0.9410 N.am  1 <1>  -0.6600 
 16 C       -1.7220    -0.8250     1.9610 C.3   1 <1>  -0.2400 
 17 C       -0.6690    -1.8780     3.9470 C.3   1 <1>  -0.2400 
 18 C        3.0260     0.6230    -2.5070 C.ar  1 <1>  -0.1500 
 19 C       -2.5920    -5.9770     1.5170 C.3   1 <1>   0.3210 
 20 C       -3.2440    -3.8120     0.3390 C.3   1 <1>   0.1400 
 21 C       -2.9880    -7.0160     0.4710 C.2   1 <1>   0.0460 
 22 C       -3.5810    -4.1300    -1.1380 C.3   1 <1>   0.3430 
 23 N       -4.2120    -7.0030    -0.0980 N.2   1 <1>  -0.5650 
 24 C       -2.2610    -8.0640     0.0140 C.2   1 <1>  -0.3320 
 25 N       -2.3880    -4.1640    -2.0450 N.4   1 <1>  -0.9590 
 26 C       -4.2150    -8.0490    -0.8590 C.2   1 <1>   0.0360 
 27 N       -3.0560    -8.7370    -0.8380 N.pl3 1 <1>   0.0330 
 28 C       -0.8440    -8.5110     0.3380 C.3   1 <1>  -0.0600 
 29 C       -2.7340    -3.7320    -3.4260 C.3   1 <1>   0.2630 
 30 C       -1.7390    -5.5090    -2.0540 C.3   1 <1>   0.2630 
 31 H        2.0440    -2.1350     2.3250 H     1 <1>   0.0600 
 32 H        0.3680    -3.4660     2.4220 H     1 <1>   0.0800 
 33 H       -0.0170    -0.7440    -2.9630 H     1 <1>   0.1500 
 34 H       -2.1660    -2.7590     2.7570 H     1 <1>   0.0800 
 35 H        4.2050     0.4080    -0.7380 H     1 <1>   0.1500 
 36 H        1.6330     0.6600    -4.1250 H     1 <1>   0.1500 
 37 H       -0.8890    -0.1470     1.8890 H     1 <1>   0.0800 
 38 H       -2.4660    -0.3640     2.5870 H     1 <1>   0.0800 
 39 H       -2.1440    -0.9360     0.9820 H     1 <1>   0.0800 
 40 H        0.2210    -1.2790     3.8530 H     1 <1>   0.0800 
 41 H       -0.4170    -2.7900     4.4600 H     1 <1>   0.0800 
 42 H       -1.3700    -1.3400     4.5620 H     1 <1>   0.0800 
 43 H        3.7490     1.2380    -3.0160 H     1 <1>   0.1500 
 44 H       -3.4250    -5.8240     2.1810 H     1 <1>   0.0800 
 45 H       -1.7880    -6.3800     2.1080 H     1 <1>   0.0800 
 46 H       -2.9560    -2.7820     0.3870 H     1 <1>   0.0800 
 47 H       -4.1410    -3.9160     0.9240 H     1 <1>   0.0800 
 48 H       -4.2560    -3.3640    -1.4800 H     1 <1>   0.0800 
 49 H       -4.1130    -5.0600    -1.2040 H     1 <1>   0.0800 
 50 H       -1.6990    -3.4870    -1.6500 H     1 <1>   0.4500 
 51 H       -5.0540    -8.3640    -1.4570 H     1 <1>   0.1500 
 52 H       -2.8420    -9.6050    -1.3400 H     1 <1>   0.2700 
 53 H       -0.3630    -7.8180     1.0040 H     1 <1>   0.0800 
 54 H       -0.2560    -8.5710    -0.5610 H     1 <1>   0.0800 
 55 H       -0.8580    -9.4790     0.8080 H     1 <1>   0.0800 
 56 H       -3.4560    -4.4050    -3.8580 H     1 <1>   0.0800 
 57 H       -1.8510    -3.7250    -4.0430 H     1 <1>   0.0800 
 58 H       -3.1490    -2.7370    -3.4100 H     1 <1>   0.0800 
 59 H       -2.4380    -6.2600    -2.3820 H     1 <1>   0.0800 
 60 H       -1.4030    -5.7720    -1.0670 H     1 <1>   0.0800 
 61 H       -0.8850    -5.5090    -2.7090 H     1 <1>   0.0800 
@<TRIPOS>BOND
  1   1   2  2   
  2   2   3  am  
  3   2   4  1   
  4   3   5  1   
  5   3   6  1   
  6   4   7  ar  
  7   4   8  ar  
  8   5   9  2   
  9   5  31  1   
 10   6  10  1   
 11   6  11  1   
 12   6  32  1   
 13   7   9  1   
 14   7  12  ar  
 15   8  13  ar  
 16   8  33  1   
 17  10  14  2   
 18  10  15  am  
 19  11  16  1   
 20  11  17  1   
 21  11  34  1   
 22  12  18  ar  
 23  12  35  1   
 24  13  18  ar  
 25  13  36  1   
 26  15  19  1   
 27  15  20  1   
 28  16  37  1   
 29  16  38  1   
 30  16  39  1   
 31  17  40  1   
 32  17  41  1   
 33  17  42  1   
 34  18  43  1   
 35  19  21  1   
 36  19  44  1   
 37  19  45  1   
 38  20  22  1   
 39  20  46  1   
 40  20  47  1   
 41  21  23  1   
 42  21  24  2   
 43  22  25  1   
 44  22  48  1   
 45  22  49  1   
 46  23  26  2   
 47  24  27  1   
 48  24  28  1   
 49  25  29  1   
 50  25  30  1   
 51  25  50  1   
 52  26  27  1   
 53  26  51  1   
 54  27  52  1   
 55  28  53  1   
 56  28  54  1   
 57  28  55  1   
 58  29  56  1   
 59  29  57  1   
 60  29  58  1   
 61  30  59  1   
 62  30  60  1   
 63  30  61  1   
@<TRIPOS>SUBSTRUCTURE
  1 ****  10 GROUP 4 **** **** 0

# MOE 2024.06 (io_trps.svl 2023.06)
