@<TRIPOS>MOLECULE
NONAME
57 61 1 0 0 
SMALL
USER_CHARGES


@<TRIPOS>ATOM
  1 O       -0.6610    -1.6110     1.7210 O.2   1 <1>  -0.5700 
  2 C       -0.9010    -1.6990     0.5320 C.2   1 <1>   0.7160 
  3 N       -0.1730    -2.5810    -0.2130 N.am  1 <1>  -0.7300 
  4 C       -1.9310    -0.9070    -0.1010 C.2   1 <1>  -0.0860 
  5 C        0.9670    -3.3830     0.2870 C.3   1 <1>   0.1400 
  6 C       -2.6040     0.1930     0.3460 C.2   1 <1>  -0.0400 
  7 C       -2.4760    -1.1350    -1.3850 C.2   1 <1>  -0.1500 
  8 C        0.4570    -4.6420     1.0070 C.3   1 <1>  -0.0800 
  9 O       -3.4670     0.6140    -0.5460 O.3   1 <1>  -0.2800 
 10 C       -2.5140     0.9720     1.6440 C.3   1 <1>  -0.0600 
 11 C       -3.3990    -0.1770    -1.5910 C.2   1 <1>  -0.0400 
 12 C       -0.1860    -5.6370     0.0290 C.3   1 <1>   0.2000 
 13 C        1.5460    -5.5380     1.6410 C.3   1 <1>  -0.0800 
 14 C       -4.3090     0.1000    -2.7670 C.3   1 <1>  -0.0600 
 15 O        0.9090    -6.3920    -0.3330 O.3   1 <1>  -0.5600 
 16 C       -1.0300    -6.6810     0.7730 C.3   1 <1>  -0.1600 
 17 C        1.3140    -6.8550     0.9060 C.3   1 <1>   0.2800 
 18 C        3.0280    -5.2330     1.3790 C.3   1 <1>   0.1400 
 19 C        0.0540    -7.5720     1.3890 C.3   1 <1>  -0.1600 
 20 C        2.6540    -7.5890     0.8750 C.3   1 <1>   0.1400 
 21 N        3.6790    -6.5490     1.1590 N.am  1 <1>  -0.6600 
 22 C        5.0170    -6.7820     0.9880 C.2   1 <1>   0.5690 
 23 O        5.4320    -7.8880     0.7340 O.2   1 <1>  -0.5700 
 24 C        6.0350    -5.6560     1.1200 C.3   1 <1>   0.0440 
 25 C        5.8000    -4.5260     0.1220 C.ar  1 <1>  -0.1430 
 26 C        5.6440    -3.2150     0.5510 C.ar  1 <1>   0.1600 
 27 C        5.7150    -4.7960    -1.2290 C.ar  1 <1>  -0.1500 
 28 N        5.3960    -2.1830    -0.2380 N.ar  1 <1>  -0.6200 
 29 C        5.4690    -3.7300    -2.0680 C.ar  1 <1>  -0.1500 
 30 C        5.3180    -2.4640    -1.5290 C.ar  1 <1>   0.1600 
 31 H       -0.3100    -2.5790    -1.2230 H     1 <1>   0.3700 
 32 H        1.5950    -3.6540    -0.5450 H     1 <1>   0.0800 
 33 H        1.5450    -2.7830     0.9710 H     1 <1>   0.0800 
 34 H       -2.1980    -1.9300    -2.0520 H     1 <1>   0.1500 
 35 H       -0.2520    -4.3410     1.7590 H     1 <1>   0.0800 
 36 H       -1.7570     0.5710     2.2910 H     1 <1>   0.0800 
 37 H       -3.4600     0.9330     2.1520 H     1 <1>   0.0800 
 38 H       -2.2770     1.9980     1.4320 H     1 <1>   0.0800 
 39 H       -0.6660    -5.2010    -0.8300 H     1 <1>   0.0800 
 40 H        1.3920    -5.6620     2.6980 H     1 <1>   0.0800 
 41 H       -4.1460    -0.6240    -3.5430 H     1 <1>   0.0800 
 42 H       -4.1110     1.0830    -3.1540 H     1 <1>   0.0800 
 43 H       -5.3350     0.0510    -2.4490 H     1 <1>   0.0800 
 44 H       -1.6690    -6.2270     1.5110 H     1 <1>   0.0800 
 45 H       -1.6300    -7.2340     0.0730 H     1 <1>   0.0800 
 46 H        3.4710    -4.7150     2.2120 H     1 <1>   0.0800 
 47 H        3.1580    -4.6550     0.4830 H     1 <1>   0.0800 
 48 H        0.0140    -8.5670     0.9820 H     1 <1>   0.0800 
 49 H        0.0010    -7.6160     2.4630 H     1 <1>   0.0800 
 50 H        2.8220    -8.0510    -0.0820 H     1 <1>   0.0800 
 51 H        2.6930    -8.3330     1.6500 H     1 <1>   0.0800 
 52 H        5.9990    -5.2880     2.1270 H     1 <1>   0.0800 
 53 H        7.0170    -6.0610     0.9580 H     1 <1>   0.0800 
 54 H        5.7200    -3.0000     1.6030 H     1 <1>   0.1500 
 55 H        5.8290    -5.7960    -1.6150 H     1 <1>   0.1500 
 56 H        5.3930    -3.8790    -3.1290 H     1 <1>   0.1500 
 57 H        5.1250    -1.6400    -2.1940 H     1 <1>   0.1500 
@<TRIPOS>BOND
  1   1   2  2   
  2   2   3  am  
  3   2   4  1   
  4   3   5  1   
  5   3  31  1   
  6   4   6  2   
  7   4   7  1   
  8   5   8  1   
  9   5  32  1   
 10   5  33  1   
 11   6   9  1   
 12   6  10  1   
 13   7  11  2   
 14   7  34  1   
 15   8  12  1   
 16   8  13  1   
 17   8  35  1   
 18   9  11  1   
 19  10  36  1   
 20  10  37  1   
 21  10  38  1   
 22  11  14  1   
 23  12  15  1   
 24  12  16  1   
 25  12  39  1   
 26  13  17  1   
 27  13  18  1   
 28  13  40  1   
 29  14  41  1   
 30  14  42  1   
 31  14  43  1   
 32  15  17  1   
 33  16  19  1   
 34  16  44  1   
 35  16  45  1   
 36  17  19  1   
 37  17  20  1   
 38  18  21  1   
 39  18  46  1   
 40  18  47  1   
 41  19  48  1   
 42  19  49  1   
 43  20  21  1   
 44  20  50  1   
 45  20  51  1   
 46  21  22  am  
 47  22  23  2   
 48  22  24  1   
 49  24  25  1   
 50  24  52  1   
 51  24  53  1   
 52  25  26  ar  
 53  25  27  ar  
 54  26  28  ar  
 55  26  54  1   
 56  27  29  ar  
 57  27  55  1   
 58  28  30  ar  
 59  29  30  ar  
 60  29  56  1   
 61  30  57  1   
@<TRIPOS>SUBSTRUCTURE
  1 ****   5 GROUP 4 **** **** 0

# MOE 2024.06 (io_trps.svl 2023.06)
