@<TRIPOS>MOLECULE
NONAME
51 53 1 0 0 
SMALL
USER_CHARGES


@<TRIPOS>ATOM
  1 O       -0.4230    -0.8790     1.2880 O.3   1 <1>  -0.5600 
  2 C        0.2350    -1.5690     0.2680 C.3   1 <1>   0.4180 
  3 C       -1.2390     0.2020     0.9250 C.3   1 <1>   0.1200 
  4 C       -0.6870    -1.7660    -0.9370 C.2   1 <1>  -0.2880 
  5 C        0.6050    -2.9170     0.8840 C.3   1 <1>  -0.1600 
  6 C        1.4930    -0.7860    -0.1090 C.3   1 <1>  -0.1600 
  7 C       -2.4000    -0.2700     0.0400 C.3   1 <1>  -0.0220 
  8 C       -1.8880    -1.1950    -1.0500 C.2   1 <1>  -0.2760 
  9 C        1.5400    -3.7110    -0.0170 C.3   1 <1>   0.3430 
 10 C        2.4090    -1.6130    -1.0010 C.3   1 <1>   0.3430 
 11 C       -2.8380    -1.4040    -2.2160 C.3   1 <1>  -0.1020 
 12 N        2.7520    -2.9000    -0.3260 N.4   1 <1>  -0.9590 
 13 C        3.7420    -3.6910    -1.0920 C.3   1 <1>   0.4810 
 14 C        5.0730    -2.9920    -0.9600 C.2   1 <1>  -0.2880 
 15 C        6.0790    -3.4040    -0.1680 C.2   1 <1>  -0.1780 
 16 C        7.3760    -2.7880     0.0090 C.ar  1 <1>   0.0280 
 17 C        7.8680    -1.8120    -0.8560 C.ar  1 <1>  -0.1500 
 18 C        8.1870    -3.1700     1.0760 C.ar  1 <1>  -0.1500 
 19 C        9.1090    -1.2370    -0.6570 C.ar  1 <1>  -0.1500 
 20 C        9.4310    -2.6000     1.2810 C.ar  1 <1>  -0.1500 
 21 C        9.9020    -1.6230     0.4100 C.ar  1 <1>   0.0820 
 22 O       11.1040    -1.0120     0.5350 O.3   1 <1>  -0.3630 
 23 C       11.9920    -1.3390     1.5800 C.3   1 <1>   0.0400 
 24 H       -1.6180     0.6480     1.8290 H     1 <1>   0.0800 
 25 H       -0.6410     0.9300     0.4070 H     1 <1>   0.0800 
 26 H       -0.2950    -2.4140    -1.6970 H     1 <1>   0.1500 
 27 H        1.0780    -2.7630     1.8380 H     1 <1>   0.0800 
 28 H       -0.2940    -3.4840     1.0480 H     1 <1>   0.0800 
 29 H        1.2150     0.1060    -0.6390 H     1 <1>   0.0800 
 30 H        2.0240    -0.4980     0.7810 H     1 <1>   0.0800 
 31 H       -3.1300    -0.7830     0.6410 H     1 <1>   0.0800 
 32 H       -2.8720     0.5930    -0.3930 H     1 <1>   0.0800 
 33 H        1.0270    -3.9700    -0.9290 H     1 <1>   0.0800 
 34 H        1.8220    -4.6240     0.4830 H     1 <1>   0.0800 
 35 H        3.3060    -1.0490    -1.2020 H     1 <1>   0.0800 
 36 H        1.9160    -1.8100    -1.9390 H     1 <1>   0.0800 
 37 H       -3.7670    -1.8170    -1.8660 H     1 <1>   0.0800 
 38 H       -2.4150    -2.0810    -2.9370 H     1 <1>   0.0800 
 39 H       -3.0380    -0.4680    -2.7060 H     1 <1>   0.0800 
 40 H        3.2160    -2.6650     0.5630 H     1 <1>   0.4500 
 41 H        3.8220    -4.6800    -0.6710 H     1 <1>   0.0800 
 42 H        3.4540    -3.7790    -2.1280 H     1 <1>   0.0800 
 43 H        5.1470    -2.1140    -1.5750 H     1 <1>   0.1500 
 44 H        5.9560    -4.2920     0.4300 H     1 <1>   0.1500 
 45 H        7.2880    -1.4930    -1.7000 H     1 <1>   0.1500 
 46 H        7.8450    -3.9230     1.7620 H     1 <1>   0.1500 
 47 H        9.4780    -0.4850    -1.3300 H     1 <1>   0.1500 
 48 H       10.0190    -2.9260     2.1180 H     1 <1>   0.1500 
 49 H       12.8730    -0.7330     1.4710 H     1 <1>   0.0800 
 50 H       12.2530    -2.3790     1.5050 H     1 <1>   0.0800 
 51 H       11.5170    -1.1260     2.5220 H     1 <1>   0.0800 
@<TRIPOS>BOND
  1   1   2  1   
  2   1   3  1   
  3   2   4  1   
  4   2   5  1   
  5   2   6  1   
  6   3   7  1   
  7   3  24  1   
  8   3  25  1   
  9   4   8  2   
 10   4  26  1   
 11   5   9  1   
 12   5  27  1   
 13   5  28  1   
 14   6  10  1   
 15   6  29  1   
 16   6  30  1   
 17   7   8  1   
 18   7  31  1   
 19   7  32  1   
 20   8  11  1   
 21   9  12  1   
 22   9  33  1   
 23   9  34  1   
 24  10  12  1   
 25  10  35  1   
 26  10  36  1   
 27  11  37  1   
 28  11  38  1   
 29  11  39  1   
 30  12  13  1   
 31  12  40  1   
 32  13  14  1   
 33  13  41  1   
 34  13  42  1   
 35  14  15  2   
 36  14  43  1   
 37  15  16  1   
 38  15  44  1   
 39  16  17  ar  
 40  16  18  ar  
 41  17  19  ar  
 42  17  45  1   
 43  18  20  ar  
 44  18  46  1   
 45  19  21  ar  
 46  19  47  1   
 47  20  21  ar  
 48  20  48  1   
 49  21  22  1   
 50  22  23  1   
 51  23  49  1   
 52  23  50  1   
 53  23  51  1   
@<TRIPOS>SUBSTRUCTURE
  1 ****  12 GROUP 4 **** **** 0

# MOE 2024.06 (io_trps.svl 2023.06)
