@<TRIPOS>MOLECULE
NONAME
50 54 1 0 0 
SMALL
USER_CHARGES


@<TRIPOS>ATOM
  1 O       -2.1240     1.5130     1.6270 O.2   1 <1>  -0.5700 
  2 C       -1.6260     2.1080     0.6800 C.2   1 <1>   0.5650 
  3 N       -0.6280     3.1030     0.8770 N.pl3 1 <1>   0.5610 
  4 C       -2.0290     1.8540    -0.6720 C.2   1 <1>   0.0290 
  5 N       -0.0770     3.5820     2.0430 N.2   1 <1>  -0.7070 
  6 C       -0.0800     3.7750    -0.1870 C.2   1 <1>  -0.0680 
  7 C       -3.0280     0.8640    -0.9320 C.2   1 <1>   0.6160 
  8 C       -1.4370     2.5340    -1.7080 C.2   1 <1>  -0.0500 
  9 C        0.7690     4.4900     1.6800 C.2   1 <1>   0.1080 
 10 N       -0.4850     3.4850    -1.4960 N.pl3 1 <1>  -0.5840 
 11 C        0.8160     4.6600     0.3020 C.2   1 <1>  -0.1500 
 12 O       -2.7230    -0.0810    -1.6400 O.2   1 <1>  -0.5700 
 13 N       -4.3370     0.9630    -0.4990 N.am  1 <1>  -0.6600 
 14 C        1.5980     5.2610     2.6820 C.3   1 <1>  -0.0590 
 15 C       -4.8970     2.1180     0.2720 C.3   1 <1>   0.1400 
 16 C       -5.3060    -0.1490    -0.7540 C.3   1 <1>   0.1400 
 17 C       -6.0790     2.7680    -0.4820 C.3   1 <1>   0.1440 
 18 C       -6.7680     0.3080    -0.6100 C.3   1 <1>  -0.1600 
 19 C       -6.8570     3.6020     0.5210 C.ar  1 <1>   0.1670 
 20 C       -6.9670     1.7140    -1.1970 C.3   1 <1>  -0.1600 
 21 C       -5.5800     3.8470    -1.4800 C.3   1 <1>  -0.1600 
 22 N       -7.6710     3.1300     1.4400 N.ar  1 <1>  -0.6200 
 23 C       -6.6030     4.9330     0.3730 C.ar  1 <1>  -0.1430 
 24 C       -5.6230     5.1970    -0.7410 C.3   1 <1>  -0.0170 
 25 C       -8.2320     4.0560     2.2040 C.ar  1 <1>   0.4770 
 26 C       -7.2400     5.8060     1.2210 C.ar  1 <1>   0.1600 
 27 N       -8.0680     5.3720     2.1490 N.ar  1 <1>  -0.6200 
 28 C       -9.1750     3.5450     3.2650 C.3   1 <1>  -0.0970 
 29 H       -1.7150     2.3180    -2.7290 H     1 <1>   0.1500 
 30 H       -0.0250     3.9760    -2.2790 H     1 <1>   0.4000 
 31 H        1.4390     5.3520    -0.2340 H     1 <1>   0.1500 
 32 H        0.9480     5.7800     3.3620 H     1 <1>   0.0800 
 33 H        2.2290     5.9730     2.1830 H     1 <1>   0.0800 
 34 H        2.2110     4.5780     3.2410 H     1 <1>   0.0800 
 35 H       -4.1510     2.8610     0.4770 H     1 <1>   0.0800 
 36 H       -5.2410     1.7460     1.2230 H     1 <1>   0.0800 
 37 H       -5.1040    -0.9580    -0.0720 H     1 <1>   0.0800 
 38 H       -5.1550    -0.5160    -1.7550 H     1 <1>   0.0800 
 39 H       -7.0440     0.3080     0.4310 H     1 <1>   0.0800 
 40 H       -7.4090    -0.3960    -1.1110 H     1 <1>   0.0800 
 41 H       -6.7070     1.6660    -2.2400 H     1 <1>   0.0800 
 42 H       -8.0030     1.9980    -1.1320 H     1 <1>   0.0800 
 43 H       -6.2630     3.9100    -2.3090 H     1 <1>   0.0800 
 44 H       -4.6000     3.6270    -1.8650 H     1 <1>   0.0800 
 45 H       -5.9550     5.9920    -1.3860 H     1 <1>   0.0800 
 46 H       -4.6590     5.4380    -0.3270 H     1 <1>   0.0800 
 47 H       -7.0740     6.8660     1.1410 H     1 <1>   0.1500 
 48 H       -8.7270     2.7140     3.7770 H     1 <1>   0.0800 
 49 H      -10.0890     3.2240     2.8020 H     1 <1>   0.0800 
 50 H       -9.3950     4.3180     3.9780 H     1 <1>   0.0800 
@<TRIPOS>BOND
  1   1   2  2   
  2   2   3  1   
  3   2   4  1   
  4   3   5  1   
  5   3   6  1   
  6   4   7  1   
  7   4   8  2   
  8   5   9  2   
  9   6  10  1   
 10   6  11  2   
 11   7  12  2   
 12   7  13  am  
 13   8  10  1   
 14   8  29  1   
 15   9  11  1   
 16   9  14  1   
 17  10  30  1   
 18  11  31  1   
 19  13  15  1   
 20  13  16  1   
 21  14  32  1   
 22  14  33  1   
 23  14  34  1   
 24  15  17  1   
 25  15  35  1   
 26  15  36  1   
 27  16  18  1   
 28  16  37  1   
 29  16  38  1   
 30  17  19  1   
 31  17  20  1   
 32  17  21  1   
 33  18  20  1   
 34  18  39  1   
 35  18  40  1   
 36  19  22  ar  
 37  19  23  ar  
 38  20  41  1   
 39  20  42  1   
 40  21  24  1   
 41  21  43  1   
 42  21  44  1   
 43  22  25  ar  
 44  23  24  1   
 45  23  26  ar  
 46  24  45  1   
 47  24  46  1   
 48  25  27  ar  
 49  25  28  1   
 50  26  27  ar  
 51  26  47  1   
 52  28  48  1   
 53  28  49  1   
 54  28  50  1   
@<TRIPOS>SUBSTRUCTURE
  1 ****  15 GROUP 4 **** **** 0

# MOE 2024.06 (io_trps.svl 2023.06)
