@<TRIPOS>MOLECULE
NONAME
55 57 1 0 0 
SMALL
USER_CHARGES


@<TRIPOS>ATOM
  1 O       -2.1610     0.6970     2.0550 O.2   1 <1>  -0.5700 
  2 C       -2.1190     1.0020     0.8850 C.2   1 <1>   0.5690 
  3 N       -2.2460     0.0640    -0.1070 N.am  1 <1>  -0.6600 
  4 C       -1.9280     2.4710     0.5750 C.3   1 <1>   0.1570 
  5 C       -2.2550    -1.3990     0.2350 C.3   1 <1>   0.3640 
  6 C       -2.3200     0.4000    -1.5690 C.3   1 <1>   0.1400 
  7 N       -0.6410     2.6940    -0.1020 N.pl3 1 <1>   0.3140 
  8 C       -0.8420    -2.0050     0.1720 C.ar  1 <1>  -0.1440 
  9 C       -3.2580    -2.2060    -0.6520 C.3   1 <1>   0.2000 
 10 C       -2.5530    -0.8360    -2.4480 C.3   1 <1>   0.1200 
 11 N       -0.6060     3.2480    -1.3310 N.2   1 <1>  -0.7070 
 12 C        0.6080     2.4140     0.3420 C.2   1 <1>  -0.3320 
 13 C       -0.6600    -3.2780     0.7000 C.ar  1 <1>  -0.1500 
 14 C        0.2640    -1.3520    -0.3660 C.ar  1 <1>  -0.1500 
 15 O       -3.5660    -1.6120    -1.8930 O.3   1 <1>  -0.5600 
 16 C       -4.5940    -2.4200     0.0700 C.3   1 <1>   0.1200 
 17 C        0.6510     3.3110    -1.6350 C.2   1 <1>   0.1080 
 18 C        1.4610     2.8030    -0.6290 C.2   1 <1>  -0.1500 
 19 C        0.9480     1.7820     1.6830 C.3   1 <1>  -0.0600 
 20 C        0.5760    -3.9010     0.6740 C.ar  1 <1>   0.0830 
 21 C        1.5090    -1.9560    -0.3790 C.ar  1 <1>  -0.1500 
 22 O       -4.4320    -3.3100     1.1290 O.3   1 <1>  -0.6800 
 23 C        1.1410     3.8820    -2.9450 C.3   1 <1>  -0.0590 
 24 O        0.6460    -5.1630     1.1680 O.3   1 <1>  -0.3630 
 25 C        1.6800    -3.2220     0.1500 C.ar  1 <1>   0.0830 
 26 C        1.0100    -6.1790     0.2580 C.3   1 <1>   0.0400 
 27 O        2.9320    -3.7410     0.1430 O.3   1 <1>  -0.3630 
 28 C        3.5380    -3.9140     1.4050 C.3   1 <1>   0.0400 
 29 H       -1.9340     3.0370     1.4860 H     1 <1>   0.0800 
 30 H       -2.7220     2.8170    -0.0550 H     1 <1>   0.0800 
 31 H       -2.5720    -1.5110     1.2580 H     1 <1>   0.0800 
 32 H       -3.1230     1.0970    -1.7330 H     1 <1>   0.0800 
 33 H       -1.4060     0.8670    -1.8880 H     1 <1>   0.0800 
 34 H       -2.8410    -3.1710    -0.8770 H     1 <1>   0.0800 
 35 H       -1.6600    -1.4320    -2.5320 H     1 <1>   0.0800 
 36 H       -2.8620    -0.5380    -3.4340 H     1 <1>   0.0800 
 37 H       -1.4860    -3.8080     1.1420 H     1 <1>   0.1500 
 38 H        0.1850    -0.3600    -0.7730 H     1 <1>   0.1500 
 39 H       -5.3280    -2.8300    -0.6010 H     1 <1>   0.0800 
 40 H       -4.9510    -1.4870     0.4710 H     1 <1>   0.0800 
 41 H        2.5350     2.7460    -0.6450 H     1 <1>   0.1500 
 42 H        2.0140     1.7710     1.8280 H     1 <1>   0.0800 
 43 H        0.5940     0.7670     1.7230 H     1 <1>   0.0800 
 44 H        0.4990     2.3380     2.4860 H     1 <1>   0.0800 
 45 H        2.3570    -1.4410    -0.7920 H     1 <1>   0.1500 
 46 H       -4.3950    -4.2320     0.8060 H     1 <1>   0.4000 
 47 H        2.2130     3.8470    -2.9920 H     1 <1>   0.0800 
 48 H        0.8170     4.9030    -3.0320 H     1 <1>   0.0800 
 49 H        0.7310     3.3150    -3.7600 H     1 <1>   0.0800 
 50 H        0.8750    -7.1280     0.7440 H     1 <1>   0.0800 
 51 H        2.0400    -6.0560    -0.0210 H     1 <1>   0.0800 
 52 H        0.3770    -6.1130    -0.6090 H     1 <1>   0.0800 
 53 H        4.5470    -4.2490     1.2510 H     1 <1>   0.0800 
 54 H        2.9890    -4.6480     1.9670 H     1 <1>   0.0800 
 55 H        3.5360    -2.9710     1.9220 H     1 <1>   0.0800 
@<TRIPOS>BOND
  1   1   2  2   
  2   2   3  am  
  3   2   4  1   
  4   3   5  1   
  5   3   6  1   
  6   4   7  1   
  7   4  29  1   
  8   4  30  1   
  9   5   8  1   
 10   5   9  1   
 11   5  31  1   
 12   6  10  1   
 13   6  32  1   
 14   6  33  1   
 15   7  11  1   
 16   7  12  1   
 17   8  13  ar  
 18   8  14  ar  
 19   9  15  1   
 20   9  16  1   
 21   9  34  1   
 22  10  15  1   
 23  10  35  1   
 24  10  36  1   
 25  11  17  2   
 26  12  18  2   
 27  12  19  1   
 28  13  20  ar  
 29  13  37  1   
 30  14  21  ar  
 31  14  38  1   
 32  16  22  1   
 33  16  39  1   
 34  16  40  1   
 35  17  18  1   
 36  17  23  1   
 37  18  41  1   
 38  19  42  1   
 39  19  43  1   
 40  19  44  1   
 41  20  24  1   
 42  20  25  ar  
 43  21  25  ar  
 44  21  45  1   
 45  22  46  1   
 46  23  47  1   
 47  23  48  1   
 48  23  49  1   
 49  24  26  1   
 50  25  27  1   
 51  26  50  1   
 52  26  51  1   
 53  26  52  1   
 54  27  28  1   
 55  28  53  1   
 56  28  54  1   
 57  28  55  1   
@<TRIPOS>SUBSTRUCTURE
  1 ****  14 GROUP 4 **** **** 0

# MOE 2024.06 (io_trps.svl 2023.06)
