@<TRIPOS>MOLECULE
NONAME
38 40 1 0 0 
SMALL
USER_CHARGES


@<TRIPOS>ATOM
  1 O       -0.2750    -0.7950     1.0890 O.3   1 <1>  -0.5600 
  2 C       -1.0260    -1.8410     0.5590 C.3   1 <1>   0.1200 
  3 C       -0.9780     0.0280     1.9600 C.3   1 <1>   0.0400 
  4 C       -0.1720    -2.7410    -0.3630 C.3   1 <1>   0.0000 
  5 C        0.7010    -1.9770    -1.4020 C.3   1 <1>   0.0000 
  6 C        1.1420    -3.2800     0.2770 C.3   1 <1>   0.0000 
  7 C       -1.0140    -3.8450    -1.0220 C.3   1 <1>   0.2090 
  8 C        1.9260    -2.1690    -0.4690 C.3   1 <1>   0.0000 
  9 N       -1.6270    -4.7200     0.0110 N.pl3 1 <1>  -0.8690 
 10 C       -2.8570    -5.2770     0.0620 C.2   1 <1>   0.2710 
 11 N       -3.1090    -5.9070     1.2100 N.2   1 <1>  -0.6210 
 12 C       -3.7760    -5.2230    -0.9580 C.2   1 <1>  -0.1410 
 13 C       -4.2590    -6.4810     1.3590 C.2   1 <1>   0.9190 
 14 C       -4.9790    -5.8510    -0.7430 C.cat 1 <1>   0.7910 
 15 N       -5.2200    -6.4740     0.4090 N.pl3 1 <1>  -0.6690 
 16 N       -4.4980    -7.1070     2.5090 N.pl3 1 <1>  -0.8500 
 17 N       -6.0840    -6.0010    -1.4920 N.pl3 1 <1>  -0.3930 
 18 C       -6.4900    -6.9840     0.2990 C.2   1 <1>   0.5030 
 19 N       -7.0320    -6.7160    -0.8290 N.2   1 <1>  -0.2600 
 20 H       -1.8430    -1.4160     0.0020 H     1 <1>   0.0800 
 21 H       -1.4180    -2.4210     1.3770 H     1 <1>   0.0800 
 22 H       -0.3090     0.7980     2.3040 H     1 <1>   0.0800 
 23 H       -1.3220    -0.5520     2.7990 H     1 <1>   0.0800 
 24 H       -1.8070     0.4740     1.4390 H     1 <1>   0.0800 
 25 H        0.4250    -0.9470    -1.5440 H     1 <1>   0.0000 
 26 H        0.8200    -2.5100    -2.3300 H     1 <1>   0.0000 
 27 H        1.4130    -4.2620    -0.0710 H     1 <1>   0.0000 
 28 H        1.1820    -3.1880     1.3490 H     1 <1>   0.0000 
 29 H       -0.3900    -4.4470    -1.6620 H     1 <1>   0.0800 
 30 H       -1.7780    -3.3890    -1.6260 H     1 <1>   0.0800 
 31 H        2.1220    -1.3090     0.1470 H     1 <1>   0.0000 
 32 H        2.8000    -2.5310    -0.9800 H     1 <1>   0.0000 
 33 H       -1.0100    -4.9190     0.8090 H     1 <1>   0.4000 
 34 H       -3.5690    -4.7250    -1.8820 H     1 <1>   0.1500 
 35 H       -3.7530    -7.1030     3.2080 H     1 <1>   0.4000 
 36 H       -5.3420    -7.6090     2.7640 H     1 <1>   0.4000 
 37 H       -6.2200    -5.6370    -2.4430 H     1 <1>   0.4500 
 38 H       -6.9610    -7.5470     1.0900 H     1 <1>   0.1500 
@<TRIPOS>BOND
  1   1   2  1   
  2   1   3  1   
  3   2   4  1   
  4   2  20  1   
  5   2  21  1   
  6   3  22  1   
  7   3  23  1   
  8   3  24  1   
  9   4   5  1   
 10   4   6  1   
 11   4   7  1   
 12   5   8  1   
 13   5  25  1   
 14   5  26  1   
 15   6   8  1   
 16   6  27  1   
 17   6  28  1   
 18   7   9  1   
 19   7  29  1   
 20   7  30  1   
 21   8  31  1   
 22   8  32  1   
 23   9  10  1   
 24   9  33  1   
 25  10  11  1   
 26  10  12  2   
 27  11  13  2   
 28  12  14  1   
 29  12  34  1   
 30  13  15  1   
 31  13  16  1   
 32  14  15  ar  
 33  14  17  ar  
 34  15  18  1   
 35  16  35  1   
 36  16  36  1   
 37  17  19  1   
 38  17  37  1   
 39  18  19  2   
 40  18  38  1   
@<TRIPOS>SUBSTRUCTURE
  1 ****  10 GROUP 4 **** **** 0

# MOE 2024.06 (io_trps.svl 2023.06)
