@<TRIPOS>MOLECULE
NONAME
49 53 1 0 0 
SMALL
USER_CHARGES


@<TRIPOS>ATOM
  1 O        1.7090    -0.5790     3.2070 O.2   1 <1>  -0.5700 
  2 C        2.1370    -1.1520     2.2160 C.2   1 <1>   0.5650 
  3 N        2.6670    -0.4760     1.0850 N.pl3 1 <1>   0.5610 
  4 C        2.0940    -2.5760     2.1520 C.2   1 <1>  -0.1360 
  5 N        2.8230     0.8630     0.8320 N.2   1 <1>  -0.7070 
  6 C        3.1110    -1.1990     0.0020 C.2   1 <1>  -0.0680 
  7 C        2.5300    -3.2830     1.0730 C.2   1 <1>  -0.0380 
  8 C        3.3500     0.9350    -0.3470 C.2   1 <1>   0.1080 
  9 N        3.0570    -2.6050    -0.0120 N.pl3 1 <1>  -0.5840 
 10 C        3.5560    -0.3160    -0.9190 C.2   1 <1>  -0.1500 
 11 C        2.4360    -4.8050     1.0110 C.3   1 <1>   0.4810 
 12 C        3.6870     2.2580    -0.9960 C.3   1 <1>  -0.0590 
 13 N        1.4210    -5.1810    -0.0160 N.4   1 <1>  -0.9590 
 14 C        0.0460    -4.7480     0.3900 C.3   1 <1>   0.3430 
 15 C        1.4930    -6.6370    -0.3450 C.3   1 <1>   0.3430 
 16 C       -0.9460    -5.0450    -0.7270 C.3   1 <1>  -0.1600 
 17 C        0.5210    -6.9660    -1.4720 C.3   1 <1>  -0.1600 
 18 C       -0.9040    -6.5170    -1.1420 C.3   1 <1>   0.2820 
 19 C       -1.5890    -7.4370    -0.1170 C.ar  1 <1>  -0.1440 
 20 C       -1.8070    -6.7400    -2.3440 C.2   1 <1>  -0.2880 
 21 C       -2.6850    -8.0440    -0.7110 C.ar  1 <1>   0.0280 
 22 C       -1.2790    -7.7130     1.2070 C.ar  1 <1>  -0.1500 
 23 C       -2.7900    -7.5990    -2.0630 C.2   1 <1>  -0.1780 
 24 C       -3.4790    -8.9270     0.0040 C.ar  1 <1>  -0.1500 
 25 C       -2.0730    -8.5970     1.9220 C.ar  1 <1>  -0.1500 
 26 C       -3.1680    -9.2020     1.3230 C.ar  1 <1>  -0.1500 
 27 H        1.6830    -3.0510     3.0250 H     1 <1>   0.1500 
 28 H        3.5320    -3.0680    -0.8010 H     1 <1>   0.4000 
 29 H        3.9800    -0.5010    -1.8890 H     1 <1>   0.1500 
 30 H        2.1520    -5.1980     1.9740 H     1 <1>   0.0800 
 31 H        3.4010    -5.2080     0.7500 H     1 <1>   0.0800 
 32 H        4.3880     2.7900    -0.3800 H     1 <1>   0.0800 
 33 H        2.7950     2.8480    -1.0940 H     1 <1>   0.0800 
 34 H        4.1180     2.1050    -1.9680 H     1 <1>   0.0800 
 35 H        1.6540    -4.6440    -0.8610 H     1 <1>   0.4500 
 36 H        0.0360    -3.6880     0.5930 H     1 <1>   0.0800 
 37 H       -0.2560    -5.2620     1.2870 H     1 <1>   0.0800 
 38 H        1.2460    -7.2260     0.5230 H     1 <1>   0.0800 
 39 H        2.4930    -6.9000    -0.6530 H     1 <1>   0.0800 
 40 H       -0.7260    -4.4200    -1.5730 H     1 <1>   0.0800 
 41 H       -1.9400    -4.8000    -0.3950 H     1 <1>   0.0800 
 42 H        0.5240    -8.0280    -1.6470 H     1 <1>   0.0800 
 43 H        0.8530    -6.4900    -2.3780 H     1 <1>   0.0800 
 44 H       -1.6100    -6.2300    -3.2710 H     1 <1>   0.1500 
 45 H       -0.4420    -7.2670     1.7050 H     1 <1>   0.1500 
 46 H       -3.5760    -7.9480    -2.7110 H     1 <1>   0.1500 
 47 H       -4.3260    -9.3910    -0.4690 H     1 <1>   0.1500 
 48 H       -1.8440    -8.8210     2.9500 H     1 <1>   0.1500 
 49 H       -3.7790    -9.8870     1.8870 H     1 <1>   0.1500 
@<TRIPOS>BOND
  1   1   2  2   
  2   2   3  1   
  3   2   4  1   
  4   3   5  1   
  5   3   6  1   
  6   4   7  2   
  7   4  27  1   
  8   5   8  2   
  9   6   9  1   
 10   6  10  2   
 11   7   9  1   
 12   7  11  1   
 13   8  10  1   
 14   8  12  1   
 15   9  28  1   
 16  10  29  1   
 17  11  13  1   
 18  11  30  1   
 19  11  31  1   
 20  12  32  1   
 21  12  33  1   
 22  12  34  1   
 23  13  14  1   
 24  13  15  1   
 25  13  35  1   
 26  14  16  1   
 27  14  36  1   
 28  14  37  1   
 29  15  17  1   
 30  15  38  1   
 31  15  39  1   
 32  16  18  1   
 33  16  40  1   
 34  16  41  1   
 35  17  18  1   
 36  17  42  1   
 37  17  43  1   
 38  18  19  1   
 39  18  20  1   
 40  19  21  ar  
 41  19  22  ar  
 42  20  23  2   
 43  20  44  1   
 44  21  23  1   
 45  21  24  ar  
 46  22  25  ar  
 47  22  45  1   
 48  23  46  1   
 49  24  26  ar  
 50  24  47  1   
 51  25  26  ar  
 52  25  48  1   
 53  26  49  1   
@<TRIPOS>SUBSTRUCTURE
  1 ****  14 GROUP 4 **** **** 0

# MOE 2024.06 (io_trps.svl 2023.06)
