@<TRIPOS>MOLECULE
NONAME
44 46 1 0 0 
SMALL
USER_CHARGES


@<TRIPOS>ATOM
  1 CL      -4.8890    -5.2990     3.4770 Cl    1 <1>  -0.1240 
  2 C       -4.4960    -3.9540     2.4370 C.2   1 <1>   0.2640 
  3 O       -4.8150    -4.0430     1.1640 O.3   1 <1>  -0.2800 
  4 C       -3.9020    -2.7810     2.7300 C.2   1 <1>  -0.1500 
  5 C       -4.4300    -2.9100     0.5960 C.2   1 <1>  -0.0400 
  6 C       -3.8590    -2.0880     1.5100 C.2   1 <1>  -0.1500 
  7 C       -4.6920    -2.7320    -0.8910 C.3   1 <1>   0.5230 
  8 N       -6.1010    -3.1130    -1.1610 N.4   1 <1>  -0.9590 
  9 C       -6.3980    -3.3990    -2.5970 C.3   1 <1>   0.3430 
 10 C       -7.1200    -2.2700    -0.4740 C.3   1 <1>   0.3430 
 11 C       -7.6820    -4.2460    -2.7520 C.3   1 <1>   0.1400 
 12 C       -8.1170    -3.1560     0.2830 C.3   1 <1>  -0.1600 
 13 N       -8.0970    -4.9130    -1.4700 N.am  1 <1>  -0.6600 
 14 C       -8.9700    -4.0870    -0.5920 C.3   1 <1>   0.1400 
 15 C       -7.3670    -5.9670    -0.9630 C.2   1 <1>   0.5440 
 16 O       -6.2010    -6.0390    -1.2990 O.2   1 <1>  -0.5700 
 17 C       -7.9110    -6.8900     0.0090 C.ar  1 <1>   0.0860 
 18 C       -9.2070    -7.3850    -0.1120 C.ar  1 <1>   0.1600 
 19 C       -7.1760    -7.3150     1.1070 C.ar  1 <1>  -0.1500 
 20 N       -9.8100    -8.1970     0.7400 N.ar  1 <1>  -0.6200 
 21 C       -7.7820    -8.1680     2.0020 C.ar  1 <1>  -0.1500 
 22 C       -9.0880    -8.5750     1.7820 C.ar  1 <1>   0.1670 
 23 C       -9.7730    -9.5090     2.7570 C.3   1 <1>  -0.0970 
 24 H       -3.5350    -2.4330     3.6800 H     1 <1>   0.1500 
 25 H       -3.4430    -1.1030     1.3820 H     1 <1>   0.1500 
 26 H       -4.0310    -3.3850    -1.4370 H     1 <1>   0.0800 
 27 H       -4.5060    -1.7140    -1.1880 H     1 <1>   0.0800 
 28 H       -6.1780    -4.0560    -0.7280 H     1 <1>   0.4500 
 29 H       -5.5840    -3.9700    -3.0140 H     1 <1>   0.0800 
 30 H       -6.4840    -2.4850    -3.1620 H     1 <1>   0.0800 
 31 H       -7.6390    -1.6550    -1.1910 H     1 <1>   0.0800 
 32 H       -6.6340    -1.6200     0.2360 H     1 <1>   0.0800 
 33 H       -7.5100    -5.0000    -3.5010 H     1 <1>   0.0800 
 34 H       -8.4820    -3.6230    -3.1120 H     1 <1>   0.0800 
 35 H       -8.7870    -2.5130     0.8260 H     1 <1>   0.0800 
 36 H       -7.5930    -3.7380     1.0210 H     1 <1>   0.0800 
 37 H       -9.6490    -3.5090    -1.1970 H     1 <1>   0.0800 
 38 H       -9.5680    -4.7220     0.0400 H     1 <1>   0.0800 
 39 H       -9.7820    -7.0850    -0.9710 H     1 <1>   0.1500 
 40 H       -6.1610    -6.9850     1.2510 H     1 <1>   0.1500 
 41 H       -7.2420    -8.5140     2.8650 H     1 <1>   0.1500 
 42 H      -10.6540    -9.0350     3.1500 H     1 <1>   0.0800 
 43 H       -9.1220    -9.7660     3.5720 H     1 <1>   0.0800 
 44 H      -10.0640   -10.4090     2.2460 H     1 <1>   0.0800 
@<TRIPOS>BOND
  1   1   2  1   
  2   2   3  1   
  3   2   4  2   
  4   3   5  1   
  5   4   6  1   
  6   4  24  1   
  7   5   6  2   
  8   5   7  1   
  9   6  25  1   
 10   7   8  1   
 11   7  26  1   
 12   7  27  1   
 13   8   9  1   
 14   8  10  1   
 15   8  28  1   
 16   9  11  1   
 17   9  29  1   
 18   9  30  1   
 19  10  12  1   
 20  10  31  1   
 21  10  32  1   
 22  11  13  1   
 23  11  33  1   
 24  11  34  1   
 25  12  14  1   
 26  12  35  1   
 27  12  36  1   
 28  13  14  1   
 29  13  15  am  
 30  14  37  1   
 31  14  38  1   
 32  15  16  2   
 33  15  17  1   
 34  17  18  ar  
 35  17  19  ar  
 36  18  20  ar  
 37  18  39  1   
 38  19  21  ar  
 39  19  40  1   
 40  20  22  ar  
 41  21  22  ar  
 42  21  41  1   
 43  22  23  1   
 44  23  42  1   
 45  23  43  1   
 46  23  44  1   
@<TRIPOS>SUBSTRUCTURE
  1 ****  15 GROUP 4 **** **** 0

# MOE 2024.06 (io_trps.svl 2023.06)
