@<TRIPOS>MOLECULE
NONAME
42 44 1 0 0 
SMALL
USER_CHARGES


@<TRIPOS>ATOM
  1 O        1.7480    -0.2990    -1.4820 O.2   1 <1>  -0.5700 
  2 C        2.0290    -0.8570    -0.4500 C.2   1 <1>   0.5690 
  3 N        2.3790    -0.1640     0.6630 N.am  1 <1>  -0.7300 
  4 C        1.9870    -2.3660    -0.3860 C.3   1 <1>  -0.0990 
  5 C        2.3650     1.3170     0.7610 C.3   1 <1>   0.1400 
  6 C        0.5440    -2.8680    -0.2120 C.3   1 <1>  -0.0160 
  7 C        3.4950     1.9190    -0.0750 C.3   1 <1>   0.0960 
  8 C        0.4050    -4.3860    -0.0850 C.ar  1 <1>   0.1660 
  9 N        3.4410     3.3850     0.0100 N.pl3 1 <1>   0.3140 
 10 N        1.4830    -5.1010     0.0400 N.ar  1 <1>  -0.6200 
 11 C       -0.9080    -4.9460    -0.0990 C.ar  1 <1>   0.3920 
 12 N        3.7060     4.0490     1.1260 N.2   1 <1>  -0.7070 
 13 C        3.1230     4.2640    -0.9450 C.2   1 <1>   0.0360 
 14 C        1.2650    -6.4380     0.1440 C.ar  1 <1>   0.3100 
 15 O       -1.9500    -4.0930    -0.2190 O.3   1 <1>  -0.3630 
 16 N       -1.1520    -6.2230     0.0010 N.ar  1 <1>  -0.6200 
 17 C        3.5340     5.2780     0.7640 C.2   1 <1>   0.3660 
 18 N        3.1700     5.4710    -0.5100 N.2   1 <1>  -0.5650 
 19 C       -0.0410    -6.9890     0.1250 C.ar  1 <1>   0.3100 
 20 C        2.3610    -7.3030     0.2760 C.ar  1 <1>  -0.1500 
 21 C       -3.2860    -4.5580    -0.2540 C.3   1 <1>   0.0400 
 22 C       -0.1840    -8.3810     0.2380 C.ar  1 <1>  -0.1500 
 23 C        2.1920    -8.6600     0.3850 C.ar  1 <1>  -0.1500 
 24 C        0.9060    -9.2040     0.3660 C.ar  1 <1>  -0.1500 
 25 H        2.6000    -0.6710     1.5230 H     1 <1>   0.3700 
 26 H        2.5970    -2.7060     0.4310 H     1 <1>   0.0800 
 27 H        2.3980    -2.7620    -1.2960 H     1 <1>   0.0800 
 28 H        2.4780     1.6070     1.7930 H     1 <1>   0.0800 
 29 H        1.4170     1.6810     0.4000 H     1 <1>   0.0800 
 30 H       -0.0320    -2.5390    -1.0610 H     1 <1>   0.0800 
 31 H        0.1170    -2.4170     0.6660 H     1 <1>   0.0800 
 32 H        3.3950     1.6300    -1.1050 H     1 <1>   0.0800 
 33 H        4.4470     1.5940     0.3000 H     1 <1>   0.0800 
 34 H        2.8620     3.9740    -1.9470 H     1 <1>   0.1500 
 35 H        3.6680     6.1160     1.4300 H     1 <1>   0.1500 
 36 H        3.3430    -6.8660     0.2880 H     1 <1>   0.1500 
 37 H       -3.9370    -3.7090    -0.3570 H     1 <1>   0.0800 
 38 H       -3.4970    -5.0780     0.6640 H     1 <1>   0.0800 
 39 H       -3.4020    -5.2190    -1.0950 H     1 <1>   0.0800 
 40 H       -1.1800    -8.7830     0.2220 H     1 <1>   0.1500 
 41 H        3.0410    -9.3160     0.4860 H     1 <1>   0.1500 
 42 H        0.7830   -10.2710     0.4530 H     1 <1>   0.1500 
@<TRIPOS>BOND
  1   1   2  2   
  2   2   3  am  
  3   2   4  1   
  4   3   5  1   
  5   3  25  1   
  6   4   6  1   
  7   4  26  1   
  8   4  27  1   
  9   5   7  1   
 10   5  28  1   
 11   5  29  1   
 12   6   8  1   
 13   6  30  1   
 14   6  31  1   
 15   7   9  1   
 16   7  32  1   
 17   7  33  1   
 18   8  10  ar  
 19   8  11  ar  
 20   9  12  1   
 21   9  13  1   
 22  10  14  ar  
 23  11  15  1   
 24  11  16  ar  
 25  12  17  2   
 26  13  18  2   
 27  13  34  1   
 28  14  19  ar  
 29  14  20  ar  
 30  15  21  1   
 31  16  19  ar  
 32  17  18  1   
 33  17  35  1   
 34  19  22  ar  
 35  20  23  ar  
 36  20  36  1   
 37  21  37  1   
 38  21  38  1   
 39  21  39  1   
 40  22  24  ar  
 41  22  40  1   
 42  23  24  ar  
 43  23  41  1   
 44  24  42  1   
@<TRIPOS>SUBSTRUCTURE
  1 ****   4 GROUP 4 **** **** 0

# MOE 2024.06 (io_trps.svl 2023.06)
