@<TRIPOS>MOLECULE
NONAME
48 52 1 0 0 
SMALL
USER_CHARGES


@<TRIPOS>ATOM
  1 O       -0.5860    -0.0070    -0.5430 O.2   1 <1>  -0.5700 
  2 C       -1.6050     0.6240    -0.3220 C.2   1 <1>   0.7150 
  3 N       -2.8020    -0.0650    -0.3590 N.am  1 <1>  -0.6600 
  4 C       -1.4970     2.0380    -0.0450 C.2   1 <1>   0.0550 
  5 C       -4.1660     0.5230    -0.3710 C.3   1 <1>   0.1400 
  6 C       -2.8630    -1.5310    -0.5750 C.3   1 <1>   0.1400 
  7 O       -2.5150     2.7770     0.3380 O.3   1 <1>  -0.0190 
  8 C       -0.4350     2.8730    -0.0930 C.2   1 <1>  -0.1500 
  9 C       -5.0930    -0.6310    -0.7580 C.3   1 <1>   0.2000 
 10 C       -4.3350    -1.9050    -0.3940 C.3   1 <1>  -0.0800 
 11 N       -2.2010     4.0200     0.5370 N.2   1 <1>  -0.4100 
 12 C       -0.9420     4.1050     0.2850 C.2   1 <1>   0.2030 
 13 O       -6.2910    -0.5790    -0.0640 O.3   1 <1>  -0.6800 
 14 C       -4.7670    -3.1200    -1.2310 C.3   1 <1>  -0.0170 
 15 C       -0.1370     5.3890     0.3880 C.3   1 <1>  -0.0140 
 16 C       -3.9950    -4.3700    -0.8210 C.ar  1 <1>  -0.1440 
 17 C        1.2170     5.3940     1.0310 C.3   1 <1>  -0.2000 
 18 C        0.0570     6.0380     1.7240 C.3   1 <1>  -0.2000 
 19 C       -4.3090    -5.1030     0.3480 C.ar  1 <1>   0.0000 
 20 C       -2.9550    -4.8140    -1.5850 C.ar  1 <1>  -0.1500 
 21 C       -3.5080    -6.2320     0.6500 C.ar  1 <1>   0.3100 
 22 C       -5.3660    -4.7860     1.2320 C.ar  1 <1>  -0.1500 
 23 C       -2.2320    -5.9490    -1.2000 C.ar  1 <1>   0.1600 
 24 N       -2.4770    -6.6410    -0.1330 N.ar  1 <1>  -0.6200 
 25 C       -3.7850    -6.9710     1.8110 C.ar  1 <1>  -0.1500 
 26 C       -5.6110    -5.5290     2.3550 C.ar  1 <1>  -0.1500 
 27 C       -4.8110    -6.6340     2.6520 C.ar  1 <1>  -0.1500 
 28 H       -4.4020     0.8920     0.6120 H     1 <1>   0.0800 
 29 H       -4.2300     1.3190    -1.0930 H     1 <1>   0.0800 
 30 H       -2.5290    -1.7480    -1.5760 H     1 <1>   0.0800 
 31 H       -2.2350    -2.0500     0.1290 H     1 <1>   0.0800 
 32 H        0.5810     2.6470    -0.3600 H     1 <1>   0.1500 
 33 H       -5.3080    -0.5880    -1.8120 H     1 <1>   0.0800 
 34 H       -4.4760    -2.1140     0.6520 H     1 <1>   0.0800 
 35 H       -6.1300    -0.5860     0.8990 H     1 <1>   0.4000 
 36 H       -4.5950    -2.9140    -2.2730 H     1 <1>   0.0800 
 37 H       -5.8240    -3.2880    -1.1200 H     1 <1>   0.0800 
 38 H       -0.3000     6.0380    -0.4540 H     1 <1>   0.1000 
 39 H        1.6100     4.4800     1.4410 H     1 <1>   0.1000 
 40 H        1.9840     6.0220     0.6120 H     1 <1>   0.1000 
 41 H        0.0090     7.1110     1.7820 H     1 <1>   0.1000 
 42 H       -0.3690     5.5580     2.5880 H     1 <1>   0.1000 
 43 H       -2.6620    -4.3130    -2.4890 H     1 <1>   0.1500 
 44 H       -5.9980    -3.9440     1.0210 H     1 <1>   0.1500 
 45 H       -1.4180    -6.2650    -1.8300 H     1 <1>   0.1500 
 46 H       -3.1580    -7.8180     2.0170 H     1 <1>   0.1500 
 47 H       -6.4190    -5.2760     3.0200 H     1 <1>   0.1500 
 48 H       -5.0110    -7.2110     3.5390 H     1 <1>   0.1500 
@<TRIPOS>BOND
  1   1   2  2   
  2   2   3  am  
  3   2   4  1   
  4   3   5  1   
  5   3   6  1   
  6   4   7  1   
  7   4   8  2   
  8   5   9  1   
  9   5  28  1   
 10   5  29  1   
 11   6  10  1   
 12   6  30  1   
 13   6  31  1   
 14   7  11  1   
 15   8  12  1   
 16   8  32  1   
 17   9  10  1   
 18   9  13  1   
 19   9  33  1   
 20  10  14  1   
 21  10  34  1   
 22  11  12  2   
 23  12  15  1   
 24  13  35  1   
 25  14  16  1   
 26  14  36  1   
 27  14  37  1   
 28  15  17  1   
 29  15  18  1   
 30  15  38  1   
 31  16  19  ar  
 32  16  20  ar  
 33  17  18  1   
 34  17  39  1   
 35  17  40  1   
 36  18  41  1   
 37  18  42  1   
 38  19  21  ar  
 39  19  22  ar  
 40  20  23  ar  
 41  20  43  1   
 42  21  24  ar  
 43  21  25  ar  
 44  22  26  ar  
 45  22  44  1   
 46  23  24  ar  
 47  23  45  1   
 48  25  27  ar  
 49  25  46  1   
 50  26  27  ar  
 51  26  47  1   
 52  27  48  1   
@<TRIPOS>SUBSTRUCTURE
  1 ****   6 GROUP 4 **** **** 0

# MOE 2024.06 (io_trps.svl 2023.06)
