@<TRIPOS>MOLECULE
NONAME
60 62 1 0 0 
SMALL
USER_CHARGES


@<TRIPOS>ATOM
  1 O       -0.4820     0.4360     0.2550 O.2   1 <1>  -0.5700 
  2 C       -1.4440     1.1650     0.1690 C.2   1 <1>   0.5690 
  3 N       -2.6440     0.7170    -0.3320 N.am  1 <1>  -0.6600 
  4 C       -1.2910     2.6100     0.6290 C.3   1 <1>  -0.0990 
  5 C       -3.8810     1.5580    -0.3590 C.3   1 <1>   0.2200 
  6 C       -2.7410    -0.6740    -0.8750 C.3   1 <1>   0.0600 
  7 C        0.1560     3.0300     0.9550 C.3   1 <1>  -0.0990 
  8 C       -5.1630     0.8430     0.0670 C.3   1 <1>  -0.1600 
  9 C       -4.1920     2.0910    -1.7530 C.3   1 <1>  -0.1600 
 10 C        0.2700     4.5110     1.3000 C.2   1 <1>   0.4230 
 11 C       -6.2870     1.7120    -0.5130 C.3   1 <1>  -0.0800 
 12 C       -5.6720     2.4940    -1.6880 C.3   1 <1>  -0.0800 
 13 O       -0.6450     5.0080     1.9130 O.2   1 <1>  -0.5700 
 14 C        1.3990     5.2890     0.8470 C.ar  1 <1>   0.0860 
 15 C       -6.8190     2.7610     0.4740 C.3   1 <1>  -0.1600 
 16 C       -5.8840     3.9840    -1.3780 C.3   1 <1>  -0.1600 
 17 C        2.7220     4.8170     0.8220 C.ar  1 <1>   0.0820 
 18 C        1.1760     6.5980     0.4110 C.ar  1 <1>  -0.1500 
 19 C       -7.0220     4.0090    -0.3700 C.3   1 <1>   0.2000 
 20 O        2.9660     3.5760     1.3120 O.3   1 <1>  -0.3630 
 21 C        3.7490     5.6160     0.3240 C.ar  1 <1>  -0.1500 
 22 C        2.1950     7.3980    -0.0620 C.ar  1 <1>   0.0820 
 23 O       -6.9360     5.1360     0.4170 O.3   1 <1>  -0.6800 
 24 C        4.2510     2.9910     1.3190 C.3   1 <1>   0.0400 
 25 C        3.4990     6.8940    -0.1380 C.ar  1 <1>   0.0820 
 26 O        1.8790     8.6650    -0.4240 O.3   1 <1>  -0.3620 
 27 O        4.5570     7.5780    -0.6370 O.3   1 <1>  -0.3620 
 28 C        2.1840     9.6510     0.5370 C.3   1 <1>   0.0400 
 29 C        4.4140     8.2990    -1.8430 C.3   1 <1>   0.0400 
 30 H       -1.6620     3.2560    -0.1450 H     1 <1>   0.0800 
 31 H       -1.8950     2.7470     1.5070 H     1 <1>   0.0800 
 32 H       -3.7710     2.4020     0.2980 H     1 <1>   0.0800 
 33 H       -3.3530    -0.6950    -1.7580 H     1 <1>   0.0800 
 34 H       -3.1660    -1.3230    -0.1300 H     1 <1>   0.0800 
 35 H       -1.7660    -1.0490    -1.1370 H     1 <1>   0.0800 
 36 H        0.7770     2.8140     0.1050 H     1 <1>   0.0800 
 37 H        0.5160     2.4530     1.7880 H     1 <1>   0.0800 
 38 H       -5.2330    -0.1290    -0.3850 H     1 <1>   0.0800 
 39 H       -5.2270     0.7420     1.1360 H     1 <1>   0.0800 
 40 H       -3.5510     2.9120    -2.0200 H     1 <1>   0.0800 
 41 H       -4.0790     1.3080    -2.4800 H     1 <1>   0.0800 
 42 H       -7.1010     1.0980    -0.8610 H     1 <1>   0.0800 
 43 H       -6.1740     2.2400    -2.6070 H     1 <1>   0.0800 
 44 H       -6.0900     2.9560     1.2410 H     1 <1>   0.0800 
 45 H       -7.7410     2.4430     0.9260 H     1 <1>   0.0800 
 46 H       -6.1380     4.5370    -2.2640 H     1 <1>   0.0800 
 47 H       -4.9970     4.4020    -0.9340 H     1 <1>   0.0800 
 48 H        0.1780     6.9980     0.4470 H     1 <1>   0.1500 
 49 H       -7.9800     3.9940    -0.8630 H     1 <1>   0.0800 
 50 H        4.7620     5.2700     0.2810 H     1 <1>   0.1500 
 51 H       -6.0700     5.1670     0.8640 H     1 <1>   0.4000 
 52 H        4.1670     2.0070     1.7440 H     1 <1>   0.0800 
 53 H        4.9070     3.5940     1.9210 H     1 <1>   0.0800 
 54 H        4.6090     2.9200     0.3070 H     1 <1>   0.0800 
 55 H        1.8980    10.6080     0.1410 H     1 <1>   0.0800 
 56 H        3.2410     9.6330     0.7350 H     1 <1>   0.0800 
 57 H        1.6310     9.4430     1.4360 H     1 <1>   0.0800 
 58 H        5.3890     8.4220    -2.2770 H     1 <1>   0.0800 
 59 H        3.9880     9.2620    -1.6310 H     1 <1>   0.0800 
 60 H        3.7790     7.7450    -2.5130 H     1 <1>   0.0800 
@<TRIPOS>BOND
  1   1   2  2   
  2   2   3  am  
  3   2   4  1   
  4   3   5  1   
  5   3   6  1   
  6   4   7  1   
  7   4  30  1   
  8   4  31  1   
  9   5   8  1   
 10   5   9  1   
 11   5  32  1   
 12   6  33  1   
 13   6  34  1   
 14   6  35  1   
 15   7  10  1   
 16   7  36  1   
 17   7  37  1   
 18   8  11  1   
 19   8  38  1   
 20   8  39  1   
 21   9  12  1   
 22   9  40  1   
 23   9  41  1   
 24  10  13  2   
 25  10  14  1   
 26  11  12  1   
 27  11  15  1   
 28  11  42  1   
 29  12  16  1   
 30  12  43  1   
 31  14  17  ar  
 32  14  18  ar  
 33  15  19  1   
 34  15  44  1   
 35  15  45  1   
 36  16  19  1   
 37  16  46  1   
 38  16  47  1   
 39  17  20  1   
 40  17  21  ar  
 41  18  22  ar  
 42  18  48  1   
 43  19  23  1   
 44  19  49  1   
 45  20  24  1   
 46  21  25  ar  
 47  21  50  1   
 48  22  25  ar  
 49  22  26  1   
 50  23  51  1   
 51  24  52  1   
 52  24  53  1   
 53  24  54  1   
 54  25  27  1   
 55  26  28  1   
 56  27  29  1   
 57  28  55  1   
 58  28  56  1   
 59  28  57  1   
 60  29  58  1   
 61  29  59  1   
 62  29  60  1   
@<TRIPOS>SUBSTRUCTURE
  1 ****   4 GROUP 4 **** **** 0

# MOE 2024.06 (io_trps.svl 2023.06)
