@<TRIPOS>MOLECULE
NONAME
41 41 1 0 0 
SMALL
USER_CHARGES


@<TRIPOS>ATOM
  1 O        1.4120     3.0390    -1.7080 O.2   1 <1>  -0.5700 
  2 C        1.2740     2.7710    -0.5440 C.2   1 <1>   0.6590 
  3 O        0.3360     3.3170     0.2150 O.3   1 <1>  -0.4300 
  4 C        2.1730     1.7740     0.1290 C.3   1 <1>  -0.0380 
  5 C       -0.5900     4.2610    -0.2790 C.3   1 <1>   0.2000 
  6 C        1.5020     0.4240     0.1390 C.2   1 <1>   0.4480 
  7 C       -1.9280     4.1390     0.4910 C.3   1 <1>  -0.0800 
  8 C        0.0410     5.6520    -0.1240 C.3   1 <1>  -0.1600 
  9 O        1.2760    -0.1420     1.1630 O.2   1 <1>  -0.5700 
 10 C        1.1480    -0.2090    -1.1910 C.3   1 <1>  -0.1790 
 11 C       -2.6480     2.7630     0.3850 C.3   1 <1>  -0.0800 
 12 C       -2.8820     5.2650     0.0370 C.3   1 <1>  -0.1600 
 13 C       -0.9250     6.7570    -0.5740 C.3   1 <1>  -0.0800 
 14 C       -2.0570     1.7080     1.3330 C.3   1 <1>  -0.2400 
 15 C       -2.7030     2.1970    -1.0430 C.3   1 <1>  -0.2400 
 16 C       -2.2490     6.6540     0.1950 C.3   1 <1>  -0.1600 
 17 C       -0.2920     8.1380    -0.3720 C.3   1 <1>  -0.2400 
 18 H        3.1040     1.7110    -0.4010 H     1 <1>   0.0800 
 19 H        2.3680     2.0910     1.1360 H     1 <1>   0.0800 
 20 H       -0.7630     4.0650    -1.3240 H     1 <1>   0.0800 
 21 H       -1.7170     4.3220     1.5310 H     1 <1>   0.0800 
 22 H        0.3040     5.8060     0.9070 H     1 <1>   0.0800 
 23 H        0.9350     5.7020    -0.7200 H     1 <1>   0.0800 
 24 H        2.0060    -0.2180    -1.8380 H     1 <1>   0.0800 
 25 H        0.3530     0.3370    -1.6630 H     1 <1>   0.0800 
 26 H        0.8220    -1.2210    -1.0330 H     1 <1>   0.0800 
 27 H       -3.6650     2.9080     0.7100 H     1 <1>   0.0800 
 28 H       -3.1530     5.1220    -0.9950 H     1 <1>   0.0800 
 29 H       -3.7860     5.2320     0.6200 H     1 <1>   0.0800 
 30 H       -1.1270     6.6290    -1.6260 H     1 <1>   0.0800 
 31 H       -1.0730     1.4090     1.0290 H     1 <1>   0.0800 
 32 H       -2.6790     0.8310     1.3430 H     1 <1>   0.0800 
 33 H       -2.0030     2.0900     2.3360 H     1 <1>   0.0800 
 34 H       -1.7190     1.9450    -1.3970 H     1 <1>   0.0800 
 35 H       -3.1430     2.9070    -1.7200 H     1 <1>   0.0800 
 36 H       -3.3030     1.3050    -1.0610 H     1 <1>   0.0800 
 37 H       -2.0760     6.8480     1.2400 H     1 <1>   0.0800 
 38 H       -2.9360     7.3990    -0.1680 H     1 <1>   0.0800 
 39 H       -0.0730     8.3070     0.6680 H     1 <1>   0.0800 
 40 H       -0.9620     8.9090    -0.7110 H     1 <1>   0.0800 
 41 H        0.6230     8.2150    -0.9320 H     1 <1>   0.0800 
@<TRIPOS>BOND
  1   1   2  2   
  2   2   3  1   
  3   2   4  1   
  4   3   5  1   
  5   4   6  1   
  6   4  18  1   
  7   4  19  1   
  8   5   7  1   
  9   5   8  1   
 10   5  20  1   
 11   6   9  2   
 12   6  10  1   
 13   7  11  1   
 14   7  12  1   
 15   7  21  1   
 16   8  13  1   
 17   8  22  1   
 18   8  23  1   
 19  10  24  1   
 20  10  25  1   
 21  10  26  1   
 22  11  14  1   
 23  11  15  1   
 24  11  27  1   
 25  12  16  1   
 26  12  28  1   
 27  12  29  1   
 28  13  16  1   
 29  13  17  1   
 30  13  30  1   
 31  14  31  1   
 32  14  32  1   
 33  14  33  1   
 34  15  34  1   
 35  15  35  1   
 36  15  36  1   
 37  16  37  1   
 38  16  38  1   
 39  17  39  1   
 40  17  40  1   
 41  17  41  1   
@<TRIPOS>SUBSTRUCTURE
  1 ****   3 GROUP 4 **** **** 0

# MOE 2024.06 (io_trps.svl 2023.06)
