@<TRIPOS>MOLECULE
NONAME
53 56 1 0 0 
SMALL
USER_CHARGES


@<TRIPOS>ATOM
  1 CL      -5.4890    -2.0230    -1.8610 Cl    1 <1>  -0.1770 
  2 C       -4.5840    -0.6240    -1.3320 C.ar  1 <1>   0.1770 
  3 C       -3.3970    -0.7740    -0.6270 C.ar  1 <1>  -0.1440 
  4 C       -5.0950     0.6240    -1.6450 C.ar  1 <1>  -0.1500 
  5 C       -2.7330     0.3860    -0.2460 C.ar  1 <1>   0.1770 
  6 C       -2.8540    -2.1600    -0.2920 C.3   1 <1>   0.2840 
  7 C       -4.4150     1.7640    -1.2540 C.ar  1 <1>  -0.1500 
  8 CL      -1.2350     0.3040     0.6500 Cl    1 <1>  -0.1770 
  9 C       -3.2280     1.6430    -0.5520 C.ar  1 <1>  -0.1500 
 10 N       -3.6270    -2.7750     0.8270 N.am  1 <1>  -0.4690 
 11 C       -4.1510    -4.0570     0.6840 C.2   1 <1>   0.6160 
 12 C       -3.8010    -2.0800     2.0030 C.2   1 <1>  -0.0410 
 13 O       -3.8570    -4.7100    -0.3120 O.2   1 <1>  -0.5700 
 14 C       -4.9980    -4.5750     1.7150 C.2   1 <1>   0.0290 
 15 C       -4.5480    -2.5930     3.0170 C.2   1 <1>  -0.1500 
 16 C       -5.6410    -5.8470     1.5280 C.2   1 <1>   0.6160 
 17 C       -5.1620    -3.8500     2.8690 C.2   1 <1>  -0.1500 
 18 O       -5.5060    -6.6890     2.4000 O.2   1 <1>  -0.5700 
 19 N       -6.4480    -6.1540     0.4450 N.am  1 <1>  -0.6600 
 20 C       -7.0380    -5.1120    -0.4590 C.3   1 <1>   0.2200 
 21 C       -6.5260    -7.5800    -0.0040 C.3   1 <1>   0.0600 
 22 C       -8.1330    -5.6430    -1.3880 C.3   1 <1>  -0.1600 
 23 C       -7.7630    -4.0090     0.3170 C.3   1 <1>  -0.1600 
 24 C       -8.9110    -4.4010    -1.8310 C.3   1 <1>  -0.0800 
 25 C       -8.7710    -3.3960    -0.6660 C.3   1 <1>  -0.0800 
 26 C      -10.3510    -4.7280    -2.2800 C.3   1 <1>   0.1400 
 27 C      -10.1090    -3.0160    -0.0010 C.3   1 <1>  -0.0990 
 28 N      -11.2190    -3.5440    -2.1190 N.am  1 <1>  -0.7300 
 29 C      -11.1570    -2.7210    -1.0520 C.2   1 <1>   0.5690 
 30 O      -11.9120    -1.7910    -0.9300 O.2   1 <1>  -0.5700 
 31 H       -6.0180     0.6980    -2.1910 H     1 <1>   0.1500 
 32 H       -1.8190    -2.1180    -0.0090 H     1 <1>   0.0800 
 33 H       -2.9080    -2.7680    -1.1780 H     1 <1>   0.0800 
 34 H       -4.8060     2.7390    -1.4950 H     1 <1>   0.1500 
 35 H       -2.6850     2.5180    -0.2400 H     1 <1>   0.1500 
 36 H       -3.3280    -1.1160     2.0990 H     1 <1>   0.1500 
 37 H       -4.6840    -2.0540     3.9390 H     1 <1>   0.1500 
 38 H       -5.7630    -4.2350     3.6760 H     1 <1>   0.1500 
 39 H       -6.2610    -4.6780    -1.0670 H     1 <1>   0.0800 
 40 H       -6.2700    -7.6530    -1.0460 H     1 <1>   0.0800 
 41 H       -7.5190    -7.9610     0.1560 H     1 <1>   0.0800 
 42 H       -5.8350    -8.1930     0.5490 H     1 <1>   0.0800 
 43 H       -7.7210    -6.1660    -2.2320 H     1 <1>   0.0800 
 44 H       -8.7880    -6.2900    -0.8320 H     1 <1>   0.0800 
 45 H       -8.2790    -4.4500     1.1530 H     1 <1>   0.0800 
 46 H       -7.0860    -3.2520     0.6700 H     1 <1>   0.0800 
 47 H       -8.3950    -3.9790    -2.6780 H     1 <1>   0.0800 
 48 H       -8.3460    -2.4940    -1.0740 H     1 <1>   0.0800 
 49 H      -10.7570    -5.5240    -1.6790 H     1 <1>   0.0800 
 50 H      -10.3510    -5.0460    -3.3090 H     1 <1>   0.0800 
 51 H       -9.9780    -2.1540     0.6280 H     1 <1>   0.0800 
 52 H      -10.4720    -3.8250     0.6040 H     1 <1>   0.0800 
 53 H      -11.9510    -3.3670    -2.8110 H     1 <1>   0.3700 
@<TRIPOS>BOND
  1   1   2  1   
  2   2   3  ar  
  3   2   4  ar  
  4   3   5  ar  
  5   3   6  1   
  6   4   7  ar  
  7   4  31  1   
  8   5   8  1   
  9   5   9  ar  
 10   6  10  1   
 11   6  32  1   
 12   6  33  1   
 13   7   9  ar  
 14   7  34  1   
 15   9  35  1   
 16  10  11  am  
 17  10  12  1   
 18  11  13  2   
 19  11  14  1   
 20  12  15  2   
 21  12  36  1   
 22  14  16  1   
 23  14  17  2   
 24  15  17  1   
 25  15  37  1   
 26  16  18  2   
 27  16  19  am  
 28  17  38  1   
 29  19  20  1   
 30  19  21  1   
 31  20  22  1   
 32  20  23  1   
 33  20  39  1   
 34  21  40  1   
 35  21  41  1   
 36  21  42  1   
 37  22  24  1   
 38  22  43  1   
 39  22  44  1   
 40  23  25  1   
 41  23  45  1   
 42  23  46  1   
 43  24  25  1   
 44  24  26  1   
 45  24  47  1   
 46  25  27  1   
 47  25  48  1   
 48  26  28  1   
 49  26  49  1   
 50  26  50  1   
 51  27  29  1   
 52  27  51  1   
 53  27  52  1   
 54  28  29  am  
 55  28  53  1   
 56  29  30  2   
@<TRIPOS>SUBSTRUCTURE
  1 ****  23 GROUP 4 **** **** 0

# MOE 2024.06 (io_trps.svl 2023.06)
