@<TRIPOS>MOLECULE
NONAME
50 52 1 0 0 
SMALL
USER_CHARGES


@<TRIPOS>ATOM
  1 N       -0.1640    -0.0520    -0.2730 N.ar  1 <1>  -0.6200 
  2 C        0.8110     0.7740    -0.6140 C.ar  1 <1>   0.7710 
  3 C       -1.1780     0.4370     0.4060 C.ar  1 <1>   0.4100 
  4 N        0.7750     2.0770    -0.2980 N.ar  1 <1>  -0.1790 
  5 N        1.8760     0.2940    -1.3000 N.pl3 1 <1>  -0.8380 
  6 N       -2.1310    -0.4330     0.7900 N.pl3 1 <1>  -0.8690 
  7 C       -1.2820     1.8110     0.7430 C.ar  1 <1>  -0.1430 
  8 C       -0.2530     2.6320     0.3850 C.ar  1 <1>   0.2170 
  9 C        3.1090     1.0130    -1.7260 C.3   1 <1>   0.2090 
 10 C        1.9670    -1.1420    -1.6910 C.3   1 <1>   0.2090 
 11 C       -2.1990    -1.8710     0.5240 C.3   1 <1>   0.4690 
 12 C       -2.5390     2.2920     1.4790 C.3   1 <1>  -0.0970 
 13 C       -0.1470     4.1240     0.6780 C.3   1 <1>  -0.0970 
 14 C        4.0840    -0.0820    -2.1340 C.3   1 <1>  -0.1600 
 15 C        3.1970    -1.2370    -2.5820 C.3   1 <1>  -0.1600 
 16 C       -3.6760    -2.1720     0.3650 C.2   1 <1>  -0.3320 
 17 C       -1.5400    -2.6170     1.6920 C.3   1 <1>  -0.1600 
 18 N       -4.3560    -1.9020    -0.7710 N.pl3 1 <1>   0.3140 
 19 C       -4.5690    -2.7080     1.2300 C.2   1 <1>  -0.1500 
 20 C       -1.4510    -4.1350     1.4630 C.3   1 <1>  -0.2400 
 21 N       -5.6500    -2.2450    -0.6620 N.2   1 <1>  -0.7070 
 22 C       -3.8390    -1.3120    -2.0140 C.3   1 <1>   0.0160 
 23 C       -5.7700    -2.7280     0.5350 C.2   1 <1>   0.1390 
 24 H        1.5690     2.6160    -0.6130 H     1 <1>   0.4570 
 25 H       -2.9480    -0.1260     1.3220 H     1 <1>   0.4000 
 26 H        3.5250     1.6070    -0.9280 H     1 <1>   0.0800 
 27 H        2.8880     1.6340    -2.5790 H     1 <1>   0.0800 
 28 H        1.0810    -1.4640    -2.2140 H     1 <1>   0.0800 
 29 H        2.0990    -1.7440    -0.8070 H     1 <1>   0.0800 
 30 H       -1.6740    -2.1090    -0.3870 H     1 <1>   0.0800 
 31 H       -3.4210     1.9170     0.9880 H     1 <1>   0.0800 
 32 H       -2.6290     3.3610     1.5010 H     1 <1>   0.0800 
 33 H       -2.5330     1.9300     2.4920 H     1 <1>   0.0800 
 34 H        0.8730     4.4030     0.8740 H     1 <1>   0.0800 
 35 H       -0.7180     4.3980     1.5460 H     1 <1>   0.0800 
 36 H       -0.5060     4.6930    -0.1620 H     1 <1>   0.0800 
 37 H        4.6630    -0.3790    -1.2770 H     1 <1>   0.0800 
 38 H        4.7540     0.2430    -2.9110 H     1 <1>   0.0800 
 39 H        2.9010    -1.1000    -3.6070 H     1 <1>   0.0800 
 40 H        3.6860    -2.1910    -2.4860 H     1 <1>   0.0800 
 41 H       -2.0840    -2.4210     2.5980 H     1 <1>   0.0800 
 42 H       -0.5410    -2.2370     1.8150 H     1 <1>   0.0800 
 43 H       -4.4250    -3.0540     2.2380 H     1 <1>   0.1500 
 44 H       -2.4300    -4.5650     1.3520 H     1 <1>   0.0800 
 45 H       -0.9680    -4.6040     2.3020 H     1 <1>   0.0800 
 46 H       -0.8790    -4.3490     0.5770 H     1 <1>   0.0800 
 47 H       -3.2970    -0.4140    -1.7840 H     1 <1>   0.0800 
 48 H       -4.6650    -1.0780    -2.6610 H     1 <1>   0.0800 
 49 H       -3.1940    -2.0190    -2.4980 H     1 <1>   0.0800 
 50 H       -6.7000    -3.0990     0.9330 H     1 <1>   0.1500 
@<TRIPOS>BOND
  1   1   2  ar  
  2   1   3  ar  
  3   2   4  ar  
  4   2   5  1   
  5   3   6  1   
  6   3   7  ar  
  7   4   8  ar  
  8   4  24  1   
  9   5   9  1   
 10   5  10  1   
 11   6  11  1   
 12   6  25  1   
 13   7   8  ar  
 14   7  12  1   
 15   8  13  1   
 16   9  14  1   
 17   9  26  1   
 18   9  27  1   
 19  10  15  1   
 20  10  28  1   
 21  10  29  1   
 22  11  16  1   
 23  11  17  1   
 24  11  30  1   
 25  12  31  1   
 26  12  32  1   
 27  12  33  1   
 28  13  34  1   
 29  13  35  1   
 30  13  36  1   
 31  14  15  1   
 32  14  37  1   
 33  14  38  1   
 34  15  39  1   
 35  15  40  1   
 36  16  18  1   
 37  16  19  2   
 38  17  20  1   
 39  17  41  1   
 40  17  42  1   
 41  18  21  1   
 42  18  22  1   
 43  19  23  1   
 44  19  43  1   
 45  20  44  1   
 46  20  45  1   
 47  20  46  1   
 48  21  23  2   
 49  22  47  1   
 50  22  48  1   
 51  22  49  1   
 52  23  50  1   
@<TRIPOS>SUBSTRUCTURE
  1 ****   1 GROUP 4 **** **** 0

# MOE 2024.06 (io_trps.svl 2023.06)
