@<TRIPOS>MOLECULE
NONAME
47 50 1 0 0 
SMALL
USER_CHARGES


@<TRIPOS>ATOM
  1 O        0.0020     1.2570    -1.8240 O.2   1 <1>  -0.5700 
  2 C       -0.4920     1.4870    -0.7480 C.2   1 <1>   0.5690 
  3 N       -1.0410     0.4980    -0.0020 N.am  1 <1>  -0.7300 
  4 C       -0.4950     2.9210    -0.2060 C.3   1 <1>   0.2510 
  5 C       -1.8310     0.7380     1.2400 C.3   1 <1>   0.1400 
  6 N       -1.6020     3.1840     0.7710 N.3   1 <1>  -0.8100 
  7 C       -0.5780     3.9060    -1.3870 C.3   1 <1>   0.3430 
  8 C       -1.5950     2.1500     1.8270 C.3   1 <1>   0.1100 
  9 C       -1.5290     4.5610     1.2940 C.3   1 <1>   0.1100 
 10 N       -0.6090     5.3390    -0.9240 N.4   1 <1>  -0.9590 
 11 C       -1.6360     5.5880     0.1460 C.3   1 <1>   0.3430 
 12 C       -0.6860     6.3370    -2.0310 C.3   1 <1>   0.4860 
 13 C       -0.0180     7.6380    -1.5770 C.ar  1 <1>   0.1670 
 14 N        0.7870     7.5680    -0.5560 N.ar  1 <1>  -0.6200 
 15 C       -0.2900     8.8330    -2.2600 C.ar  1 <1>  -0.1500 
 16 C        1.3970     8.7050    -0.1150 C.ar  1 <1>   0.3100 
 17 C        0.3080     9.9880    -1.8550 C.ar  1 <1>  -0.1500 
 18 C        2.2640     8.6590     1.0090 C.ar  1 <1>   0.0820 
 19 C        1.1820     9.9470    -0.7550 C.ar  1 <1>   0.0000 
 20 O        2.4400     7.4510     1.6180 O.3   1 <1>  -0.3630 
 21 C        2.8900     9.8060     1.4510 C.ar  1 <1>  -0.1500 
 22 C        1.8400    11.0940    -0.2740 C.ar  1 <1>  -0.1500 
 23 C        3.3550     7.2720     2.6780 C.3   1 <1>   0.0400 
 24 C        2.6770    11.0250     0.8050 C.ar  1 <1>  -0.1500 
 25 H       -1.0520    -0.4440    -0.4020 H     1 <1>   0.3700 
 26 H        0.4500     3.0630     0.2870 H     1 <1>   0.0800 
 27 H       -1.5740    -0.0030     1.9780 H     1 <1>   0.0800 
 28 H       -2.8770     0.6270     1.0110 H     1 <1>   0.0800 
 29 H       -1.4700     3.6800    -1.9460 H     1 <1>   0.0800 
 30 H        0.2680     3.7430    -2.0340 H     1 <1>   0.0800 
 31 H       -0.6520     2.1640     2.3480 H     1 <1>   0.0800 
 32 H       -2.3700     2.3580     2.5450 H     1 <1>   0.0800 
 33 H       -0.6070     4.7100     1.8300 H     1 <1>   0.0800 
 34 H       -2.3430     4.7240     1.9810 H     1 <1>   0.0800 
 35 H        0.2990     5.5810    -0.4810 H     1 <1>   0.4500 
 36 H       -1.5080     6.5810     0.5470 H     1 <1>   0.0800 
 37 H       -2.6250     5.5220    -0.2770 H     1 <1>   0.0800 
 38 H       -1.7110     6.5160    -2.3080 H     1 <1>   0.0800 
 39 H       -0.1530     5.9680    -2.8910 H     1 <1>   0.0800 
 40 H       -0.9630     8.8340    -3.1000 H     1 <1>   0.1500 
 41 H        0.1290    10.9250    -2.3540 H     1 <1>   0.1500 
 42 H        3.5520     9.8050     2.2970 H     1 <1>   0.1500 
 43 H        1.6750    12.0340    -0.7720 H     1 <1>   0.1500 
 44 H        3.3460     6.2350     2.9580 H     1 <1>   0.0800 
 45 H        3.0490     7.8780     3.5120 H     1 <1>   0.0800 
 46 H        4.3390     7.5500     2.3410 H     1 <1>   0.0800 
 47 H        3.1790    11.9060     1.1680 H     1 <1>   0.1500 
@<TRIPOS>BOND
  1   1   2  2   
  2   2   3  am  
  3   2   4  1   
  4   3   5  1   
  5   3  25  1   
  6   4   6  1   
  7   4   7  1   
  8   4  26  1   
  9   5   8  1   
 10   5  27  1   
 11   5  28  1   
 12   6   8  1   
 13   6   9  1   
 14   7  10  1   
 15   7  29  1   
 16   7  30  1   
 17   8  31  1   
 18   8  32  1   
 19   9  11  1   
 20   9  33  1   
 21   9  34  1   
 22  10  11  1   
 23  10  12  1   
 24  10  35  1   
 25  11  36  1   
 26  11  37  1   
 27  12  13  1   
 28  12  38  1   
 29  12  39  1   
 30  13  14  ar  
 31  13  15  ar  
 32  14  16  ar  
 33  15  17  ar  
 34  15  40  1   
 35  16  18  ar  
 36  16  19  ar  
 37  17  19  ar  
 38  17  41  1   
 39  18  20  1   
 40  18  21  ar  
 41  19  22  ar  
 42  20  23  1   
 43  21  24  ar  
 44  21  42  1   
 45  22  24  ar  
 46  22  43  1   
 47  23  44  1   
 48  23  45  1   
 49  23  46  1   
 50  24  47  1   
@<TRIPOS>SUBSTRUCTURE
  1 ****  10 GROUP 4 **** **** 0

# MOE 2024.06 (io_trps.svl 2023.06)
