@<TRIPOS>MOLECULE
NONAME
46 48 1 0 0 
SMALL
USER_CHARGES


@<TRIPOS>ATOM
  1 CL      -0.2440    -0.1310     0.7130 Cl    1 <1>  -0.1230 
  2 C       -1.0420    -1.6930     0.7660 C.2   1 <1>   0.1230 
  3 C       -0.4140    -2.9230     0.8770 C.2   1 <1>   0.1390 
  4 C       -2.3620    -1.9430     0.7090 C.2   1 <1>  -0.3020 
  5 N       -1.2820    -3.8930     0.8880 N.2   1 <1>  -0.7070 
  6 N       -2.4880    -3.2850     0.7850 N.pl3 1 <1>   0.3140 
  7 C       -3.7540    -4.0440     0.7680 C.3   1 <1>   0.0960 
  8 C       -3.6250    -5.2780    -0.1340 C.3   1 <1>   0.1100 
  9 N       -4.9020    -6.0210    -0.2190 N.3   1 <1>  -0.8100 
 10 C       -5.8560    -5.4050    -1.1750 C.3   1 <1>   0.1100 
 11 C       -4.6540    -7.4310    -0.6030 C.3   1 <1>   0.1100 
 12 C       -7.1710    -6.2160    -1.3040 C.3   1 <1>   0.3430 
 13 C       -5.9580    -8.2590    -0.6990 C.3   1 <1>   0.3430 
 14 N       -7.1730    -7.4210    -0.4030 N.4   1 <1>  -0.9590 
 15 C       -8.4620    -8.1760    -0.3590 C.3   1 <1>   0.4230 
 16 C       -9.6170    -7.2300     0.0220 C.3   1 <1>  -0.1600 
 17 C       -8.3620    -9.3320     0.6550 C.3   1 <1>  -0.1600 
 18 C      -10.9470    -7.9770     0.1930 C.3   1 <1>  -0.1600 
 19 C       -9.6970   -10.0730     0.8240 C.3   1 <1>  -0.1600 
 20 C      -10.8210    -9.1100     1.2150 C.3   1 <1>  -0.1600 
 21 H        0.6520    -3.0610     0.9450 H     1 <1>   0.1500 
 22 H       -3.1850    -1.2580     0.6230 H     1 <1>   0.1500 
 23 H       -4.5310    -3.3960     0.4130 H     1 <1>   0.0800 
 24 H       -3.9730    -4.3520     1.7730 H     1 <1>   0.0800 
 25 H       -2.8700    -5.9160     0.2960 H     1 <1>   0.0800 
 26 H       -3.2960    -4.9860    -1.1180 H     1 <1>   0.0800 
 27 H       -5.4000    -5.3240    -2.1480 H     1 <1>   0.0800 
 28 H       -6.1000    -4.4090    -0.8510 H     1 <1>   0.0800 
 29 H       -4.0100    -7.8920     0.1290 H     1 <1>   0.0800 
 30 H       -4.1410    -7.4700    -1.5490 H     1 <1>   0.0800 
 31 H       -7.2990    -6.5230    -2.3280 H     1 <1>   0.0800 
 32 H       -7.9890    -5.5630    -1.0540 H     1 <1>   0.0800 
 33 H       -5.8880    -9.0720     0.0040 H     1 <1>   0.0800 
 34 H       -6.0360    -8.6870    -1.6850 H     1 <1>   0.0800 
 35 H       -6.9840    -7.0360     0.5340 H     1 <1>   0.4500 
 36 H       -8.6680    -8.5920    -1.3320 H     1 <1>   0.0800 
 37 H       -9.7680    -6.4910    -0.7430 H     1 <1>   0.0800 
 38 H       -9.3850    -6.7300     0.9460 H     1 <1>   0.0800 
 39 H       -8.0620    -8.9470     1.6140 H     1 <1>   0.0800 
 40 H       -7.6390   -10.0570     0.3320 H     1 <1>   0.0800 
 41 H      -11.2610    -8.3850    -0.7540 H     1 <1>   0.0800 
 42 H      -11.7100    -7.2890     0.5180 H     1 <1>   0.0800 
 43 H       -9.5970   -10.8300     1.5850 H     1 <1>   0.0800 
 44 H       -9.9570   -10.5700    -0.0960 H     1 <1>   0.0800 
 45 H      -11.7530    -9.6490     1.2720 H     1 <1>   0.0800 
 46 H      -10.6240    -8.6980     2.1900 H     1 <1>   0.0800 
@<TRIPOS>BOND
  1   1   2  1   
  2   2   3  1   
  3   2   4  2   
  4   3   5  2   
  5   3  21  1   
  6   4   6  1   
  7   4  22  1   
  8   5   6  1   
  9   6   7  1   
 10   7   8  1   
 11   7  23  1   
 12   7  24  1   
 13   8   9  1   
 14   8  25  1   
 15   8  26  1   
 16   9  10  1   
 17   9  11  1   
 18  10  12  1   
 19  10  27  1   
 20  10  28  1   
 21  11  13  1   
 22  11  29  1   
 23  11  30  1   
 24  12  14  1   
 25  12  31  1   
 26  12  32  1   
 27  13  14  1   
 28  13  33  1   
 29  13  34  1   
 30  14  15  1   
 31  14  35  1   
 32  15  16  1   
 33  15  17  1   
 34  15  36  1   
 35  16  18  1   
 36  16  37  1   
 37  16  38  1   
 38  17  19  1   
 39  17  39  1   
 40  17  40  1   
 41  18  20  1   
 42  18  41  1   
 43  18  42  1   
 44  19  20  1   
 45  19  43  1   
 46  19  44  1   
 47  20  45  1   
 48  20  46  1   
@<TRIPOS>SUBSTRUCTURE
  1 ****   9 GROUP 4 **** **** 0

# MOE 2024.06 (io_trps.svl 2023.06)
