@<TRIPOS>MOLECULE
NONAME
59 61 1 0 0 
SMALL
USER_CHARGES


@<TRIPOS>ATOM
  1 S        0.7000     0.0540    -0.0160 S.o2  1 <1>   1.3330 
  2 O        1.9490     0.1830     0.7000 O.2   1 <1>  -0.6500 
  3 O        0.7100    -0.1370    -1.4490 O.2   1 <1>  -0.6500 
  4 N       -0.1710    -1.2230     0.6850 N.am  1 <1>  -0.8490 
  5 C       -0.3260     1.4790     0.3300 C.3   1 <1>  -0.0550 
  6 C        0.0430    -1.3490     2.1300 C.3   1 <1>   0.1160 
  7 C        0.1030    -2.5040     0.0280 C.3   1 <1>   0.1160 
  8 C        0.1940     2.7770    -0.3200 C.3   1 <1>  -0.0800 
  9 C       -0.7440     3.9760    -0.1610 C.3   1 <1>   0.2000 
 10 C        1.5380     3.2700     0.2350 C.3   1 <1>   0.1400 
 11 O       -1.1870     4.0340     1.1520 O.3   1 <1>  -0.6800 
 12 C        0.1650     5.1780    -0.4050 C.3   1 <1>   0.1400 
 13 N        1.4830     4.7530     0.1300 N.am  1 <1>  -0.6600 
 14 C        2.6160     5.5360     0.1500 C.2   1 <1>   0.5440 
 15 O        3.6920     4.9970     0.3250 O.2   1 <1>  -0.5700 
 16 C        2.5550     6.9680    -0.0480 C.ar  1 <1>   0.0860 
 17 C        3.2930     7.5810    -1.0590 C.ar  1 <1>  -0.1500 
 18 C        1.7700     7.7930     0.7590 C.ar  1 <1>  -0.1500 
 19 C        3.2360     8.9450    -1.2660 C.ar  1 <1>  -0.1500 
 20 C        1.7130     9.1580     0.5560 C.ar  1 <1>  -0.1500 
 21 C        2.4450     9.7600    -0.4630 C.ar  1 <1>   0.1000 
 22 N        2.4150    11.1320    -0.6780 N.pl3 1 <1>  -0.8380 
 23 C        1.1440    11.9150    -0.6210 C.3   1 <1>   0.2090 
 24 C        3.6860    11.9150    -0.6490 C.3   1 <1>   0.2090 
 25 C        1.1850    12.9660     0.5100 C.3   1 <1>   0.3430 
 26 C        3.6670    12.9610     0.4870 C.3   1 <1>   0.3430 
 27 N        2.4270    13.8240     0.4670 N.4   1 <1>  -0.9590 
 28 C        2.4410    14.8150     1.5850 C.3   1 <1>   0.2630 
 29 H       -1.3140     1.2860    -0.0410 H     1 <1>   0.0800 
 30 H       -0.4000     1.6120     1.3920 H     1 <1>   0.0800 
 31 H       -0.5960    -2.1160     2.5330 H     1 <1>   0.0800 
 32 H       -0.1900    -0.4210     2.6240 H     1 <1>   0.0800 
 33 H        1.0700    -1.6030     2.3390 H     1 <1>   0.0800 
 34 H       -0.4760    -3.2890     0.4830 H     1 <1>   0.0800 
 35 H        1.1500    -2.7470     0.1010 H     1 <1>   0.0800 
 36 H       -0.1670    -2.4500    -1.0140 H     1 <1>   0.0800 
 37 H        0.3250     2.6020    -1.3740 H     1 <1>   0.0800 
 38 H       -1.5990     3.9470    -0.8150 H     1 <1>   0.0800 
 39 H        2.3670     2.8750    -0.3310 H     1 <1>   0.0800 
 40 H        1.6600     2.9980     1.2700 H     1 <1>   0.0800 
 41 H       -0.4210     4.2370     1.7280 H     1 <1>   0.4000 
 42 H       -0.2110     6.0600     0.0820 H     1 <1>   0.0800 
 43 H        0.2590     5.3600    -1.4620 H     1 <1>   0.0800 
 44 H        3.9170     6.9670    -1.6860 H     1 <1>   0.1500 
 45 H        1.2070     7.3460     1.5600 H     1 <1>   0.1500 
 46 H        3.8050     9.3870    -2.0630 H     1 <1>   0.1500 
 47 H        1.1030     9.7590     1.2020 H     1 <1>   0.1500 
 48 H        0.9950    12.4070    -1.5670 H     1 <1>   0.0800 
 49 H        0.3090    11.2520    -0.4710 H     1 <1>   0.0800 
 50 H        4.5200    11.2500    -0.4990 H     1 <1>   0.0800 
 51 H        3.8230    12.4050    -1.5970 H     1 <1>   0.0800 
 52 H        1.1440    12.4430     1.4510 H     1 <1>   0.0800 
 53 H        0.3070    13.5870     0.4410 H     1 <1>   0.0800 
 54 H        4.5470    13.5780     0.4070 H     1 <1>   0.0800 
 55 H        3.7210    12.4320     1.4240 H     1 <1>   0.0800 
 56 H        2.4200    14.3310    -0.4300 H     1 <1>   0.4500 
 57 H        2.4500    14.3070     2.5360 H     1 <1>   0.0800 
 58 H        1.5670    15.4450     1.5390 H     1 <1>   0.0800 
 59 H        3.3160    15.4410     1.5210 H     1 <1>   0.0800 
@<TRIPOS>BOND
  1   1   2  2   
  2   1   3  2   
  3   1   4  am  
  4   1   5  1   
  5   4   6  1   
  6   4   7  1   
  7   5   8  1   
  8   5  29  1   
  9   5  30  1   
 10   6  31  1   
 11   6  32  1   
 12   6  33  1   
 13   7  34  1   
 14   7  35  1   
 15   7  36  1   
 16   8   9  1   
 17   8  10  1   
 18   8  37  1   
 19   9  11  1   
 20   9  12  1   
 21   9  38  1   
 22  10  13  1   
 23  10  39  1   
 24  10  40  1   
 25  11  41  1   
 26  12  13  1   
 27  12  42  1   
 28  12  43  1   
 29  13  14  am  
 30  14  15  2   
 31  14  16  1   
 32  16  17  ar  
 33  16  18  ar  
 34  17  19  ar  
 35  17  44  1   
 36  18  20  ar  
 37  18  45  1   
 38  19  21  ar  
 39  19  46  1   
 40  20  21  ar  
 41  20  47  1   
 42  21  22  1   
 43  22  23  1   
 44  22  24  1   
 45  23  25  1   
 46  23  48  1   
 47  23  49  1   
 48  24  26  1   
 49  24  50  1   
 50  24  51  1   
 51  25  27  1   
 52  25  52  1   
 53  25  53  1   
 54  26  27  1   
 55  26  54  1   
 56  26  55  1   
 57  27  28  1   
 58  27  56  1   
 59  28  57  1   
 60  28  58  1   
 61  28  59  1   
@<TRIPOS>SUBSTRUCTURE
  1 ****  14 GROUP 4 **** **** 0

# MOE 2024.06 (io_trps.svl 2023.06)
