@<TRIPOS>MOLECULE
NONAME
42 44 1 0 0 
SMALL
USER_CHARGES


@<TRIPOS>ATOM
  1 CL      -2.1240    -0.4880    -2.0630 Cl    1 <1>  -0.1770 
  2 C       -2.5440     0.6510    -0.8060 C.ar  1 <1>   0.1770 
  3 C       -2.9180     0.1920     0.4590 C.ar  1 <1>   0.0860 
  4 C       -2.4880     1.9990    -1.1210 C.ar  1 <1>  -0.1500 
  5 C       -2.9790    -1.2130     0.7800 C.2   1 <1>   0.5440 
  6 C       -3.2310     1.1500     1.4230 C.ar  1 <1>  -0.1500 
  7 C       -2.8090     2.9400    -0.1570 C.ar  1 <1>  -0.1500 
  8 O       -2.1400    -1.6960     1.5140 O.2   1 <1>  -0.5700 
  9 N       -3.9850    -2.0150     0.3020 N.am  1 <1>  -0.6600 
 10 C       -3.1740     2.4910     1.0990 C.ar  1 <1>   0.1900 
 11 C       -5.1250    -1.5890    -0.5480 C.3   1 <1>   0.1400 
 12 C       -4.1190    -3.4440     0.6560 C.3   1 <1>   0.1400 
 13 F       -3.4780     3.3720     2.0130 F     1 <1>  -0.1900 
 14 C       -6.0670    -2.7990    -0.6130 C.3   1 <1>   0.2000 
 15 C       -5.1490    -3.9950    -0.3330 C.3   1 <1>  -0.0800 
 16 O       -7.0220    -2.7130     0.4070 O.3   1 <1>  -0.5600 
 17 C       -5.8750    -5.2550     0.1720 C.3   1 <1>   0.0200 
 18 C       -8.1650    -1.9820     0.0920 C.3   1 <1>   0.0400 
 19 C       -4.9690    -6.4720     0.2670 C.2   1 <1>  -0.0400 
 20 O       -5.4580    -7.5820     0.7520 O.3   1 <1>  -0.0190 
 21 C       -3.6860    -6.7010    -0.0590 C.2   1 <1>  -0.1500 
 22 N       -4.5740    -8.5380     0.7720 N.2   1 <1>  -0.4100 
 23 C       -3.4950    -8.0340     0.2900 C.2   1 <1>   0.1080 
 24 C       -2.1990    -8.7950     0.1280 C.3   1 <1>  -0.0590 
 25 H       -2.1940     2.3060    -2.1100 H     1 <1>   0.1500 
 26 H       -3.5130     0.8430     2.4150 H     1 <1>   0.1500 
 27 H       -2.7760     3.9950    -0.3670 H     1 <1>   0.1500 
 28 H       -5.6140    -0.7240    -0.1360 H     1 <1>   0.0800 
 29 H       -4.7580    -1.3660    -1.5340 H     1 <1>   0.0800 
 30 H       -3.1700    -3.9460     0.5810 H     1 <1>   0.0800 
 31 H       -4.4850    -3.5160     1.6670 H     1 <1>   0.0800 
 32 H       -6.5660    -2.8900    -1.5630 H     1 <1>   0.0800 
 33 H       -4.6340    -4.2320    -1.2460 H     1 <1>   0.0800 
 34 H       -6.6850    -5.4890    -0.4950 H     1 <1>   0.0800 
 35 H       -6.2990    -5.0670     1.1430 H     1 <1>   0.0800 
 36 H       -8.8070    -1.9810     0.9560 H     1 <1>   0.0800 
 37 H       -8.6720    -2.4520    -0.7330 H     1 <1>   0.0800 
 38 H       -7.8930    -0.9710    -0.1550 H     1 <1>   0.0800 
 39 H       -2.9470    -6.0490    -0.4860 H     1 <1>   0.1500 
 40 H       -1.4280    -8.3270     0.7120 H     1 <1>   0.0800 
 41 H       -1.9070    -8.8030    -0.9060 H     1 <1>   0.0800 
 42 H       -2.3240    -9.8090     0.4630 H     1 <1>   0.0800 
@<TRIPOS>BOND
  1   1   2  1   
  2   2   3  ar  
  3   2   4  ar  
  4   3   5  1   
  5   3   6  ar  
  6   4   7  ar  
  7   4  25  1   
  8   5   8  2   
  9   5   9  am  
 10   6  10  ar  
 11   6  26  1   
 12   7  10  ar  
 13   7  27  1   
 14   9  11  1   
 15   9  12  1   
 16  10  13  1   
 17  11  14  1   
 18  11  28  1   
 19  11  29  1   
 20  12  15  1   
 21  12  30  1   
 22  12  31  1   
 23  14  15  1   
 24  14  16  1   
 25  14  32  1   
 26  15  17  1   
 27  15  33  1   
 28  16  18  1   
 29  17  19  1   
 30  17  34  1   
 31  17  35  1   
 32  18  36  1   
 33  18  37  1   
 34  18  38  1   
 35  19  20  1   
 36  19  21  2   
 37  20  22  1   
 38  21  23  1   
 39  21  39  1   
 40  22  23  2   
 41  23  24  1   
 42  24  40  1   
 43  24  41  1   
 44  24  42  1   
@<TRIPOS>SUBSTRUCTURE
  1 ****   9 GROUP 4 **** **** 0

# MOE 2024.06 (io_trps.svl 2023.06)
