@<TRIPOS>MOLECULE
NONAME
47 49 1 0 0 
SMALL
USER_CHARGES


@<TRIPOS>ATOM
  1 S        0.6750     0.3240    -1.0320 S.o2  1 <1>   1.3330 
  2 O        1.9220     0.2170    -1.7550 O.2   1 <1>  -0.6500 
  3 O       -0.4150    -0.5740    -1.3400 O.2   1 <1>  -0.6500 
  4 N        1.0170     0.1570     0.6240 N.am  1 <1>  -0.8490 
  5 C        0.1030     2.0190    -1.1810 C.3   1 <1>  -0.0550 
  6 C       -0.1740    -0.0960     1.4430 C.3   1 <1>   0.1160 
  7 C        2.0180    -0.8850     0.8770 C.3   1 <1>   0.1160 
  8 C        1.2040     3.0810    -0.9670 C.3   1 <1>  -0.0800 
  9 C        0.7620     4.5130    -1.2730 C.3   1 <1>   0.2000 
 10 C        1.7630     3.1570     0.4600 C.3   1 <1>   0.1400 
 11 O       -0.4710     4.7440    -0.6810 O.3   1 <1>  -0.6800 
 12 C        1.8050     5.3660    -0.5580 C.3   1 <1>   0.1400 
 13 N        2.1450     4.5810     0.6590 N.am  1 <1>  -0.6600 
 14 C        2.3870     5.1220     1.9010 C.2   1 <1>   0.7160 
 15 O        2.1400     4.4480     2.8820 O.2   1 <1>  -0.5700 
 16 C        2.8860     6.4560     2.0720 C.2   1 <1>  -0.0860 
 17 C        3.7600     7.2110     1.3500 C.2   1 <1>   0.0870 
 18 C        2.5240     7.3110     3.1120 C.2   1 <1>   0.1390 
 19 O        3.8250     8.3810     1.9350 O.3   1 <1>  -0.0190 
 20 C        4.5500     6.9360     0.1780 C.ar  1 <1>   0.0530 
 21 N        3.0890     8.4570     3.0020 N.2   1 <1>  -0.4100 
 22 C        5.1630     5.6980    -0.0110 C.ar  1 <1>  -0.1500 
 23 C        4.7190     7.9010    -0.8140 C.ar  1 <1>  -0.1500 
 24 C        5.8990     5.4280    -1.1500 C.ar  1 <1>  -0.1500 
 25 C        5.4540     7.6360    -1.9550 C.ar  1 <1>  -0.1500 
 26 C        6.0450     6.3970    -2.1260 C.ar  1 <1>  -0.1500 
 27 H       -0.2930     2.1500    -2.1690 H     1 <1>   0.0800 
 28 H       -0.7030     2.1860    -0.4930 H     1 <1>   0.0800 
 29 H        0.0910    -0.1070     2.4860 H     1 <1>   0.0800 
 30 H       -0.6150    -1.0450     1.1840 H     1 <1>   0.0800 
 31 H       -0.9060     0.6780     1.2870 H     1 <1>   0.0800 
 32 H        2.2240    -0.9570     1.9310 H     1 <1>   0.0800 
 33 H        2.9380    -0.6450     0.3700 H     1 <1>   0.0800 
 34 H        1.6640    -1.8380     0.5180 H     1 <1>   0.0800 
 35 H        2.0280     2.8520    -1.6230 H     1 <1>   0.0800 
 36 H        0.6860     4.7270    -2.3260 H     1 <1>   0.0800 
 37 H        2.6190     2.5130     0.5820 H     1 <1>   0.0800 
 38 H        1.0120     2.8840     1.1830 H     1 <1>   0.0800 
 39 H       -0.3660     4.7230     0.2920 H     1 <1>   0.4000 
 40 H        1.4270     6.3470    -0.3240 H     1 <1>   0.0800 
 41 H        2.6790     5.4540    -1.1790 H     1 <1>   0.0800 
 42 H        1.8520     7.0420     3.9090 H     1 <1>   0.1500 
 43 H        5.0640     4.9370     0.7430 H     1 <1>   0.1500 
 44 H        4.2660     8.8690    -0.6880 H     1 <1>   0.1500 
 45 H        6.3620     4.4640    -1.2770 H     1 <1>   0.1500 
 46 H        5.5710     8.3950    -2.7090 H     1 <1>   0.1500 
 47 H        6.6190     6.1900    -3.0130 H     1 <1>   0.1500 
@<TRIPOS>BOND
  1   1   2  2   
  2   1   3  2   
  3   1   4  am  
  4   1   5  1   
  5   4   6  1   
  6   4   7  1   
  7   5   8  1   
  8   5  27  1   
  9   5  28  1   
 10   6  29  1   
 11   6  30  1   
 12   6  31  1   
 13   7  32  1   
 14   7  33  1   
 15   7  34  1   
 16   8   9  1   
 17   8  10  1   
 18   8  35  1   
 19   9  11  1   
 20   9  12  1   
 21   9  36  1   
 22  10  13  1   
 23  10  37  1   
 24  10  38  1   
 25  11  39  1   
 26  12  13  1   
 27  12  40  1   
 28  12  41  1   
 29  13  14  am  
 30  14  15  2   
 31  14  16  1   
 32  16  17  2   
 33  16  18  1   
 34  17  19  1   
 35  17  20  1   
 36  18  21  2   
 37  18  42  1   
 38  19  21  1   
 39  20  22  ar  
 40  20  23  ar  
 41  22  24  ar  
 42  22  43  1   
 43  23  25  ar  
 44  23  44  1   
 45  24  26  ar  
 46  24  45  1   
 47  25  26  ar  
 48  25  46  1   
 49  26  47  1   
@<TRIPOS>SUBSTRUCTURE
  1 ****  13 GROUP 4 **** **** 0

# MOE 2024.06 (io_trps.svl 2023.06)
