@<TRIPOS>MOLECULE
NONAME
50 53 1 0 0 
SMALL
USER_CHARGES


@<TRIPOS>ATOM
  1 S        1.4420    -0.0920     3.3930 S.3   1 <1>  -0.0800 
  2 C        1.6220    -0.7750     1.7970 C.2   1 <1>   0.1980 
  3 C        1.5830     1.4920     2.6950 C.2   1 <1>  -0.1100 
  4 N        1.7640     0.0870     0.8710 N.2   1 <1>  -0.5650 
  5 C        1.5680    -2.2930     1.6780 C.3   1 <1>   0.5230 
  6 C        1.7460     1.3980     1.3580 C.2   1 <1>   0.1730 
  7 N        0.2830    -2.7440     1.0510 N.4   1 <1>  -0.9590 
  8 C        1.8890     2.5020     0.4270 C.ar  1 <1>   0.0540 
  9 C        0.0080    -2.1480    -0.2890 C.3   1 <1>   0.3430 
 10 C        0.1370    -4.2190     0.8860 C.3   1 <1>   0.3430 
 11 C        1.2950     3.7410     0.6880 C.ar  1 <1>  -0.1500 
 12 C        2.6210     2.3640    -0.7560 C.ar  1 <1>  -0.1500 
 13 C       -1.0850    -3.0500    -0.8560 C.3   1 <1>   0.2000 
 14 C       -0.5970    -4.4410    -0.4450 C.3   1 <1>  -0.0800 
 15 C        1.4230     4.8020    -0.1920 C.ar  1 <1>  -0.1500 
 16 C        2.7590     3.4130    -1.6480 C.ar  1 <1>  -0.1500 
 17 O       -2.2710    -2.7830    -0.1650 O.3   1 <1>  -0.5600 
 18 C       -1.6950    -5.5200    -0.3630 C.3   1 <1>   0.0200 
 19 C        2.1540     4.6170    -1.3490 C.ar  1 <1>   0.1900 
 20 C       -3.1000    -1.8280    -0.7560 C.3   1 <1>   0.0400 
 21 C       -1.0950    -6.8750    -0.0340 C.2   1 <1>  -0.0400 
 22 F        2.2780     5.6120    -2.1840 F     1 <1>  -0.1900 
 23 O       -0.4920    -7.0610     1.1100 O.3   1 <1>  -0.0190 
 24 C       -1.0380    -8.0260    -0.7200 C.2   1 <1>  -0.1500 
 25 N       -0.0190    -8.2650     1.2200 N.2   1 <1>  -0.4100 
 26 C       -0.3400    -8.8750     0.1350 C.2   1 <1>   0.1080 
 27 C        0.0010   -10.3180    -0.1640 C.3   1 <1>  -0.0590 
 28 H        1.5350     2.3390     3.3540 H     1 <1>   0.1500 
 29 H        1.6740    -2.7280     2.6570 H     1 <1>   0.0800 
 30 H        2.3990    -2.6160     1.0730 H     1 <1>   0.0800 
 31 H       -0.5070    -2.4330     1.6370 H     1 <1>   0.4500 
 32 H       -0.3180    -1.1230    -0.2180 H     1 <1>   0.0800 
 33 H        0.8880    -2.2030    -0.9080 H     1 <1>   0.0800 
 34 H        1.0970    -4.7100     0.8590 H     1 <1>   0.0800 
 35 H       -0.4380    -4.6250     1.7030 H     1 <1>   0.0800 
 36 H        0.7210     3.8790     1.5870 H     1 <1>   0.1500 
 37 H        3.0920     1.4230    -0.9770 H     1 <1>   0.1500 
 38 H       -1.2340    -2.9500    -1.9190 H     1 <1>   0.0800 
 39 H        0.1340    -4.7650    -1.1650 H     1 <1>   0.0800 
 40 H        0.9660     5.7550     0.0070 H     1 <1>   0.1500 
 41 H        3.3230     3.3060    -2.5570 H     1 <1>   0.1500 
 42 H       -2.2090    -5.5840    -1.3060 H     1 <1>   0.0800 
 43 H       -2.4220    -5.2710     0.3910 H     1 <1>   0.0800 
 44 H       -3.9650    -1.6990    -0.1280 H     1 <1>   0.0800 
 45 H       -3.4150    -2.1780    -1.7250 H     1 <1>   0.0800 
 46 H       -2.5760    -0.8920    -0.8440 H     1 <1>   0.0800 
 47 H       -1.4220    -8.2760    -1.6920 H     1 <1>   0.1500 
 48 H        0.6140   -10.3760    -1.0440 H     1 <1>   0.0800 
 49 H       -0.9010   -10.8800    -0.3220 H     1 <1>   0.0800 
 50 H        0.5370   -10.7480     0.6630 H     1 <1>   0.0800 
@<TRIPOS>BOND
  1   1   2  1   
  2   1   3  1   
  3   2   4  2   
  4   2   5  1   
  5   3   6  2   
  6   3  28  1   
  7   4   6  1   
  8   5   7  1   
  9   5  29  1   
 10   5  30  1   
 11   6   8  1   
 12   7   9  1   
 13   7  10  1   
 14   7  31  1   
 15   8  11  ar  
 16   8  12  ar  
 17   9  13  1   
 18   9  32  1   
 19   9  33  1   
 20  10  14  1   
 21  10  34  1   
 22  10  35  1   
 23  11  15  ar  
 24  11  36  1   
 25  12  16  ar  
 26  12  37  1   
 27  13  14  1   
 28  13  17  1   
 29  13  38  1   
 30  14  18  1   
 31  14  39  1   
 32  15  19  ar  
 33  15  40  1   
 34  16  19  ar  
 35  16  41  1   
 36  17  20  1   
 37  18  21  1   
 38  18  42  1   
 39  18  43  1   
 40  19  22  1   
 41  20  44  1   
 42  20  45  1   
 43  20  46  1   
 44  21  23  1   
 45  21  24  2   
 46  23  25  1   
 47  24  26  1   
 48  24  47  1   
 49  25  26  2   
 50  26  27  1   
 51  27  48  1   
 52  27  49  1   
 53  27  50  1   
@<TRIPOS>SUBSTRUCTURE
  1 ****   9 GROUP 4 **** **** 0

# MOE 2024.06 (io_trps.svl 2023.06)
