@<TRIPOS>MOLECULE
NONAME
53 56 1 0 0 
SMALL
USER_CHARGES


@<TRIPOS>ATOM
  1 O       -0.8810    -0.2220     1.3550 O.3   1 <1>  -0.3630 
  2 C       -0.5780     1.0970     1.2420 C.ar  1 <1>   0.0830 
  3 C       -1.6990    -0.6920     2.4110 C.3   1 <1>   0.1200 
  4 C       -0.9970     2.0690     2.1480 C.ar  1 <1>  -0.1500 
  5 C        0.1890     1.4700     0.1490 C.ar  1 <1>  -0.1500 
  6 C       -1.9670    -2.1880     2.1890 C.3   1 <1>   0.3430 
  7 C       -0.6530     3.3930     1.9440 C.ar  1 <1>  -0.1500 
  8 C        0.5320     2.7950    -0.0530 C.ar  1 <1>  -0.1500 
  9 N       -2.1350    -2.4780     0.7220 N.4   1 <1>  -0.9590 
 10 C        0.1080     3.7670     0.8490 C.ar  1 <1>   0.0830 
 11 C       -3.3520    -2.0010     0.0510 C.3   1 <1>   0.4230 
 12 C       -2.1920    -3.8750     0.2760 C.3   1 <1>   0.4230 
 13 O        0.3950     5.0890     0.7300 O.3   1 <1>  -0.3630 
 14 C       -4.4130    -2.9920     0.5850 C.3   1 <1>  -0.0800 
 15 C       -2.9520    -2.3240    -1.3960 C.3   1 <1>  -0.1600 
 16 C       -3.6070    -4.2920     0.7440 C.3   1 <1>  -0.0800 
 17 C       -2.1470    -3.6310    -1.2400 C.3   1 <1>  -0.1600 
 18 C        1.1790     5.5720    -0.3370 C.3   1 <1>   0.1200 
 19 C       -5.6050    -3.3190    -0.3230 C.3   1 <1>   0.3430 
 20 C       -4.3400    -5.3670    -0.0690 C.3   1 <1>   0.3430 
 21 C        1.3230     7.0850    -0.1770 C.3   1 <1>  -0.1600 
 22 N       -5.3070    -4.6420    -0.9400 N.4   1 <1>  -0.9060 
 23 C        2.1680     7.6890    -1.3050 C.3   1 <1>  -0.2400 
 24 H       -1.1900    -0.5280     3.3450 H     1 <1>   0.0800 
 25 H       -2.6220    -0.1410     2.3990 H     1 <1>   0.0800 
 26 H       -1.5820     1.8290     3.0150 H     1 <1>   0.1500 
 27 H        0.5240     0.7220    -0.5470 H     1 <1>   0.1500 
 28 H       -2.8330    -2.4940     2.7520 H     1 <1>   0.0800 
 29 H       -1.1180    -2.7370     2.5650 H     1 <1>   0.0800 
 30 H       -0.9710     4.1530     2.6360 H     1 <1>   0.1500 
 31 H        1.1270     3.0500    -0.9090 H     1 <1>   0.1500 
 32 H       -1.3350    -2.0000     0.2700 H     1 <1>   0.4500 
 33 H       -3.5700    -0.9570     0.2210 H     1 <1>   0.0800 
 34 H       -1.3870    -4.4920     0.6470 H     1 <1>   0.0800 
 35 H       -4.7810    -2.6360     1.5320 H     1 <1>   0.0800 
 36 H       -3.7890    -2.4180    -2.0630 H     1 <1>   0.0800 
 37 H       -2.3200    -1.5390    -1.7770 H     1 <1>   0.0800 
 38 H       -3.5580    -4.6040     1.7730 H     1 <1>   0.0800 
 39 H       -1.1260    -3.4790    -1.5490 H     1 <1>   0.0800 
 40 H       -2.5420    -4.4460    -1.8180 H     1 <1>   0.0800 
 41 H        2.1420     5.0920    -0.2950 H     1 <1>   0.0800 
 42 H        0.6810     5.3330    -1.2600 H     1 <1>   0.0800 
 43 H       -5.7690    -2.5580    -1.0710 H     1 <1>   0.0800 
 44 H       -6.4950    -3.4020     0.2830 H     1 <1>   0.0800 
 45 H       -4.8840    -6.0090     0.6080 H     1 <1>   0.0800 
 46 H       -3.6610    -5.9750    -0.6460 H     1 <1>   0.0800 
 47 H        0.3450     7.5350    -0.1860 H     1 <1>   0.0800 
 48 H        1.7910     7.2970     0.7690 H     1 <1>   0.0800 
 49 H       -4.9210    -4.5210    -1.8880 H     1 <1>   0.4500 
 50 H       -6.1730    -5.1920    -1.0590 H     1 <1>   0.4500 
 51 H        1.7090     7.5030    -2.2600 H     1 <1>   0.0800 
 52 H        3.1560     7.2640    -1.3040 H     1 <1>   0.0800 
 53 H        2.2530     8.7530    -1.1690 H     1 <1>   0.0800 
@<TRIPOS>BOND
  1   1   2  1   
  2   1   3  1   
  3   2   4  ar  
  4   2   5  ar  
  5   3   6  1   
  6   3  24  1   
  7   3  25  1   
  8   4   7  ar  
  9   4  26  1   
 10   5   8  ar  
 11   5  27  1   
 12   6   9  1   
 13   6  28  1   
 14   6  29  1   
 15   7  10  ar  
 16   7  30  1   
 17   8  10  ar  
 18   8  31  1   
 19   9  11  1   
 20   9  12  1   
 21   9  32  1   
 22  10  13  1   
 23  11  14  1   
 24  11  15  1   
 25  11  33  1   
 26  12  16  1   
 27  12  17  1   
 28  12  34  1   
 29  13  18  1   
 30  14  16  1   
 31  14  19  1   
 32  14  35  1   
 33  15  17  1   
 34  15  36  1   
 35  15  37  1   
 36  16  20  1   
 37  16  38  1   
 38  17  39  1   
 39  17  40  1   
 40  18  21  1   
 41  18  41  1   
 42  18  42  1   
 43  19  22  1   
 44  19  43  1   
 45  19  44  1   
 46  20  22  1   
 47  20  45  1   
 48  20  46  1   
 49  21  23  1   
 50  21  47  1   
 51  21  48  1   
 52  22  49  1   
 53  22  50  1   
 54  23  51  1   
 55  23  52  1   
 56  23  53  1   
@<TRIPOS>SUBSTRUCTURE
  1 ****   1 GROUP 4 **** **** 0

# MOE 2024.06 (io_trps.svl 2023.06)
