@<TRIPOS>MOLECULE
NONAME
48 50 1 0 0 
SMALL
USER_CHARGES


@<TRIPOS>ATOM
  1 O        2.4190    -0.8750    -1.2000 O.2   1 <1>  -0.5700 
  2 C        2.0310    -1.0250    -0.0660 C.2   1 <1>   0.5690 
  3 N        1.5360     0.0030     0.6650 N.am  1 <1>  -0.7300 
  4 C        2.1160    -2.3990     0.5670 C.3   1 <1>  -0.0990 
  5 C        1.3500     1.3830     0.1570 C.3   1 <1>   0.2780 
  6 C        0.7710    -3.1400     0.4880 C.3   1 <1>  -0.1600 
  7 C        2.6830     2.1190     0.1280 C.2   1 <1>  -0.0380 
  8 C        0.8600    -4.5560     1.0780 C.3   1 <1>   0.0200 
  9 N        3.6830     1.6030    -0.6520 N.pl3 1 <1>  -0.5500 
 10 C        2.9730     3.2530     0.8050 C.2   1 <1>  -0.1360 
 11 C       -0.4740    -5.2720     0.9900 C.2   1 <1>   0.2980 
 12 C        4.9050     2.1970    -0.7420 C.2   1 <1>   0.4390 
 13 C        4.2600     3.8400     0.6820 C.2   1 <1>   0.7670 
 14 O       -1.4650    -4.8510     1.7310 O.3   1 <1>  -0.0190 
 15 N       -0.7320    -6.2630     0.2450 N.2   1 <1>  -0.5650 
 16 N        5.2160     3.2720    -0.1170 N.2   1 <1>  -0.6610 
 17 C        5.9170     1.5210    -1.6320 C.3   1 <1>  -0.1790 
 18 O        4.5320     4.8630     1.2900 O.2   1 <1>  -0.5700 
 19 N       -2.4450    -5.6400     1.4250 N.2   1 <1>  -0.4100 
 20 C       -2.0160    -6.4800     0.5490 C.2   1 <1>   0.4620 
 21 C       -2.8190    -7.5190    -0.0720 C.ar  1 <1>   0.0540 
 22 C       -2.4030    -8.8520    -0.2120 C.ar  1 <1>  -0.1430 
 23 C       -4.0840    -7.1830    -0.5570 C.ar  1 <1>  -0.1500 
 24 C       -3.2260    -9.7810    -0.8290 C.ar  1 <1>  -0.1500 
 25 C       -1.0510    -9.3230     0.3100 C.3   1 <1>  -0.0970 
 26 C       -4.9030    -8.1130    -1.1670 C.ar  1 <1>  -0.1500 
 27 C       -4.4720    -9.4180    -1.3060 C.ar  1 <1>  -0.1500 
 28 H        1.3110    -0.1360     1.6510 H     1 <1>   0.3700 
 29 H        2.4260    -2.2970     1.5900 H     1 <1>   0.0800 
 30 H        2.8700    -2.9630     0.0470 H     1 <1>   0.0800 
 31 H        0.6470     1.9050     0.7830 H     1 <1>   0.0800 
 32 H        0.9470     1.3430    -0.8420 H     1 <1>   0.0800 
 33 H        0.4660    -3.2110    -0.5430 H     1 <1>   0.0800 
 34 H        0.0190    -2.5780     1.0150 H     1 <1>   0.0800 
 35 H        1.1600    -4.5130     2.1100 H     1 <1>   0.0800 
 36 H        1.5930    -5.1280     0.5380 H     1 <1>   0.0800 
 37 H        3.5040     0.7130    -1.1500 H     1 <1>   0.4000 
 38 H        2.2790     3.7560     1.4470 H     1 <1>   0.1500 
 39 H        6.1070     0.5250    -1.2790 H     1 <1>   0.0800 
 40 H        6.8400     2.0730    -1.6260 H     1 <1>   0.0800 
 41 H        5.5460     1.4790    -2.6390 H     1 <1>   0.0800 
 42 H       -4.4280    -6.1680    -0.4520 H     1 <1>   0.1500 
 43 H       -2.9040   -10.8010    -0.9410 H     1 <1>   0.1500 
 44 H       -0.8930    -8.9670     1.3120 H     1 <1>   0.0800 
 45 H       -0.2650    -8.9470    -0.3210 H     1 <1>   0.0800 
 46 H       -0.9930   -10.3960     0.3230 H     1 <1>   0.0800 
 47 H       -5.8720    -7.8230    -1.5330 H     1 <1>   0.1500 
 48 H       -5.1020   -10.1480    -1.7830 H     1 <1>   0.1500 
@<TRIPOS>BOND
  1   1   2  2   
  2   2   3  am  
  3   2   4  1   
  4   3   5  1   
  5   3  28  1   
  6   4   6  1   
  7   4  29  1   
  8   4  30  1   
  9   5   7  1   
 10   5  31  1   
 11   5  32  1   
 12   6   8  1   
 13   6  33  1   
 14   6  34  1   
 15   7   9  1   
 16   7  10  2   
 17   8  11  1   
 18   8  35  1   
 19   8  36  1   
 20   9  12  1   
 21   9  37  1   
 22  10  13  1   
 23  10  38  1   
 24  11  14  1   
 25  11  15  2   
 26  12  16  2   
 27  12  17  1   
 28  13  16  1   
 29  13  18  2   
 30  14  19  1   
 31  15  20  1   
 32  17  39  1   
 33  17  40  1   
 34  17  41  1   
 35  19  20  2   
 36  20  21  1   
 37  21  22  ar  
 38  21  23  ar  
 39  22  24  ar  
 40  22  25  1   
 41  23  26  ar  
 42  23  42  1   
 43  24  27  ar  
 44  24  43  1   
 45  25  44  1   
 46  25  45  1   
 47  25  46  1   
 48  26  27  ar  
 49  26  47  1   
 50  27  48  1   
@<TRIPOS>SUBSTRUCTURE
  1 ****   6 GROUP 4 **** **** 0

# MOE 2024.06 (io_trps.svl 2023.06)
