@<TRIPOS>MOLECULE
NONAME
46 48 1 0 0 
SMALL
USER_CHARGES


@<TRIPOS>ATOM
  1 S        0.2860     0.1400    -0.7520 S.3   1 <1>  -0.4600 
  2 C        0.3260     1.9420    -0.9390 C.3   1 <1>   0.0700 
  3 C        2.0420    -0.2810    -0.6160 C.3   1 <1>   0.0700 
  4 C        1.1550     2.5470     0.2020 C.3   1 <1>   0.3430 
  5 C        2.6740     0.5690     0.4950 C.3   1 <1>   0.3430 
  6 N        2.5770     2.0450     0.2210 N.4   1 <1>  -0.9590 
  7 C        3.4000     2.8130     1.1970 C.3   1 <1>   0.4860 
  8 C        3.5130     4.2450     0.7110 C.ar  1 <1>  -0.1440 
  9 C        2.7290     5.2340     1.2850 C.ar  1 <1>  -0.1500 
 10 C        4.3890     4.5800    -0.3110 C.ar  1 <1>  -0.1500 
 11 C        2.7840     6.5470     0.8470 C.ar  1 <1>   0.0820 
 12 C        4.4630     5.8880    -0.7570 C.ar  1 <1>  -0.1500 
 13 O        1.9330     7.3900     1.4990 O.3   1 <1>  -0.3630 
 14 C        3.6730     6.8760    -0.1880 C.ar  1 <1>   0.0820 
 15 C        1.8450     8.7730     1.2250 C.3   1 <1>   0.0400 
 16 O        3.7880     8.1280    -0.6840 O.3   1 <1>  -0.3630 
 17 C        4.9710     8.8300    -0.3500 C.3   1 <1>   0.3000 
 18 C        4.7860    10.3050    -0.6360 C.2   1 <1>  -0.0400 
 19 O        5.7450    11.1260    -0.2680 O.3   1 <1>  -0.2800 
 20 C        3.7810    10.9920    -1.2200 C.2   1 <1>  -0.1500 
 21 C        5.4010    12.3730    -0.5950 C.2   1 <1>  -0.0920 
 22 C        4.1790    12.3300    -1.1940 C.2   1 <1>  -0.1500 
 23 C        6.2480    13.5250    -0.3210 C.2   1 <1>   1.0320 
 24 O        7.3550    13.4170     0.2400 O.co2 1 <1>  -0.9000 
 25 O        5.8630    14.6640    -0.6520 O.co2 1 <1>  -0.9000 
 26 H       -0.6940     2.2840    -0.9010 H     1 <1>   0.0800 
 27 H        0.7440     2.1680    -1.9040 H     1 <1>   0.0800 
 28 H        2.5010    -0.1040    -1.5720 H     1 <1>   0.0800 
 29 H        2.0940    -1.3300    -0.3800 H     1 <1>   0.0800 
 30 H        0.6740     2.3170     1.1390 H     1 <1>   0.0800 
 31 H        1.1500     3.6190     0.0840 H     1 <1>   0.0800 
 32 H        3.7090     0.2860     0.5900 H     1 <1>   0.0800 
 33 H        2.1810     0.3390     1.4260 H     1 <1>   0.0800 
 34 H        2.9760     2.2380    -0.7060 H     1 <1>   0.4500 
 35 H        4.3880     2.3870     1.2690 H     1 <1>   0.0800 
 36 H        2.9450     2.7880     2.1740 H     1 <1>   0.0800 
 37 H        2.0510     5.0080     2.0900 H     1 <1>   0.1500 
 38 H        5.0210     3.8400    -0.7710 H     1 <1>   0.1500 
 39 H        5.1350     6.1470    -1.5580 H     1 <1>   0.1500 
 40 H        1.0870     9.1930     1.8610 H     1 <1>   0.0800 
 41 H        1.5730     8.9120     0.1940 H     1 <1>   0.0800 
 42 H        2.7920     9.2360     1.4380 H     1 <1>   0.0800 
 43 H        5.7850     8.4390    -0.9320 H     1 <1>   0.0800 
 44 H        5.1720     8.6890     0.6980 H     1 <1>   0.0800 
 45 H        2.8610    10.6190    -1.6290 H     1 <1>   0.1500 
 46 H        3.6290    13.1730    -1.5730 H     1 <1>   0.1500 
@<TRIPOS>BOND
  1   1   2  1   
  2   1   3  1   
  3   2   4  1   
  4   2  26  1   
  5   2  27  1   
  6   3   5  1   
  7   3  28  1   
  8   3  29  1   
  9   4   6  1   
 10   4  30  1   
 11   4  31  1   
 12   5   6  1   
 13   5  32  1   
 14   5  33  1   
 15   6   7  1   
 16   6  34  1   
 17   7   8  1   
 18   7  35  1   
 19   7  36  1   
 20   8   9  ar  
 21   8  10  ar  
 22   9  11  ar  
 23   9  37  1   
 24  10  12  ar  
 25  10  38  1   
 26  11  13  1   
 27  11  14  ar  
 28  12  14  ar  
 29  12  39  1   
 30  13  15  1   
 31  14  16  1   
 32  15  40  1   
 33  15  41  1   
 34  15  42  1   
 35  16  17  1   
 36  17  18  1   
 37  17  43  1   
 38  17  44  1   
 39  18  19  1   
 40  18  20  2   
 41  19  21  1   
 42  20  22  1   
 43  20  45  1   
 44  21  22  2   
 45  21  23  1   
 46  22  46  1   
 47  23  24  ar  
 48  23  25  ar  
@<TRIPOS>SUBSTRUCTURE
  1 ****  14 GROUP 4 **** **** 0

# MOE 2024.06 (io_trps.svl 2023.06)
