@<TRIPOS>MOLECULE
NONAME
53 54 1 0 0 
SMALL
USER_CHARGES


@<TRIPOS>ATOM
  1 S       -0.3240     0.0120     0.3010 S.o2  1 <1>   1.3330 
  2 O       -1.0850     1.1600    -0.1380 O.2   1 <1>  -0.6500 
  3 O       -0.3500    -0.3670     1.6960 O.2   1 <1>  -0.6500 
  4 N       -0.8160    -1.3340    -0.6090 N.am  1 <1>  -0.8490 
  5 C        1.3720     0.2440    -0.2360 C.3   1 <1>  -0.0550 
  6 C       -0.4470    -2.6160     0.0010 C.3   1 <1>   0.1160 
  7 C       -2.2540    -1.3140    -0.8970 C.3   1 <1>   0.1160 
  8 C        2.0530     1.4810     0.3850 C.3   1 <1>  -0.0800 
  9 C        3.3920     1.7570    -0.2760 C.3   1 <1>   0.2200 
 10 C        2.4610     1.2430     1.8430 C.3   1 <1>   0.1200 
 11 N        3.7450     3.1800    -0.0780 N.am  1 <1>  -0.7300 
 12 C        4.3330     0.8790     0.5400 C.3   1 <1>   0.1200 
 13 O        3.7930     0.8170     1.8270 O.3   1 <1>  -0.5600 
 14 C        3.9880     4.0820    -1.0740 C.2   1 <1>   0.5440 
 15 O        3.9250     3.6980    -2.2260 O.2   1 <1>  -0.5700 
 16 C        4.3310     5.4580    -0.7590 C.ar  1 <1>   0.0860 
 17 C        5.1200     6.2170    -1.6240 C.ar  1 <1>  -0.1500 
 18 C        3.8930     6.0800     0.4120 C.ar  1 <1>  -0.1500 
 19 C        5.4680     7.5230    -1.3310 C.ar  1 <1>  -0.1500 
 20 C        4.2390     7.3860     0.7090 C.ar  1 <1>  -0.1500 
 21 C        5.0320     8.1170    -0.1590 C.ar  1 <1>  -0.1440 
 22 C        5.4110     9.5560     0.1710 C.3   1 <1>  -0.0170 
 23 C        6.5120     9.6450     1.2450 C.3   1 <1>  -0.0800 
 24 C        6.7790    11.1100     1.6130 C.3   1 <1>  -0.2400 
 25 C        7.8180     8.9840     0.7810 C.3   1 <1>  -0.2400 
 26 H        1.9430    -0.6340    -0.0080 H     1 <1>   0.0800 
 27 H        1.3630     0.3620    -1.3020 H     1 <1>   0.0800 
 28 H       -0.6990    -3.4260    -0.6610 H     1 <1>   0.0800 
 29 H       -0.9670    -2.7520     0.9360 H     1 <1>   0.0800 
 30 H        0.6120    -2.6480     0.1890 H     1 <1>   0.0800 
 31 H       -2.5280    -2.1720    -1.4870 H     1 <1>   0.0800 
 32 H       -2.5060    -0.4290    -1.4570 H     1 <1>   0.0800 
 33 H       -2.8200    -1.3170     0.0190 H     1 <1>   0.0800 
 34 H        1.3920     2.3260     0.2920 H     1 <1>   0.0800 
 35 H        3.4090     1.5030    -1.3230 H     1 <1>   0.0800 
 36 H        1.8670     0.5000     2.3460 H     1 <1>   0.0800 
 37 H        2.4230     2.1620     2.4030 H     1 <1>   0.0800 
 38 H        3.9460     3.4340     0.8910 H     1 <1>   0.3700 
 39 H        5.3330     1.2730     0.5840 H     1 <1>   0.0800 
 40 H        4.3530    -0.1230     0.1480 H     1 <1>   0.0800 
 41 H        5.4640     5.7690    -2.5410 H     1 <1>   0.1500 
 42 H        3.2660     5.5400     1.0980 H     1 <1>   0.1500 
 43 H        6.0820     8.0750    -2.0210 H     1 <1>   0.1500 
 44 H        3.8870     7.8370     1.6210 H     1 <1>   0.1500 
 45 H        5.7380    10.0590    -0.7220 H     1 <1>   0.0800 
 46 H        4.5320    10.0680     0.5200 H     1 <1>   0.0800 
 47 H        6.1690     9.1330     2.1290 H     1 <1>   0.0800 
 48 H        7.1310    11.6600     0.7570 H     1 <1>   0.0800 
 49 H        7.5230    11.1710     2.3880 H     1 <1>   0.0800 
 50 H        5.8800    11.5770     1.9750 H     1 <1>   0.0800 
 51 H        8.1790     9.4470    -0.1210 H     1 <1>   0.0800 
 52 H        7.6640     7.9360     0.5920 H     1 <1>   0.0800 
 53 H        8.5730     9.0760     1.5410 H     1 <1>   0.0800 
@<TRIPOS>BOND
  1   1   2  2   
  2   1   3  2   
  3   1   4  am  
  4   1   5  1   
  5   4   6  1   
  6   4   7  1   
  7   5   8  1   
  8   5  26  1   
  9   5  27  1   
 10   6  28  1   
 11   6  29  1   
 12   6  30  1   
 13   7  31  1   
 14   7  32  1   
 15   7  33  1   
 16   8   9  1   
 17   8  10  1   
 18   8  34  1   
 19   9  11  1   
 20   9  12  1   
 21   9  35  1   
 22  10  13  1   
 23  10  36  1   
 24  10  37  1   
 25  11  14  am  
 26  11  38  1   
 27  12  13  1   
 28  12  39  1   
 29  12  40  1   
 30  14  15  2   
 31  14  16  1   
 32  16  17  ar  
 33  16  18  ar  
 34  17  19  ar  
 35  17  41  1   
 36  18  20  ar  
 37  18  42  1   
 38  19  21  ar  
 39  19  43  1   
 40  20  21  ar  
 41  20  44  1   
 42  21  22  1   
 43  22  23  1   
 44  22  45  1   
 45  22  46  1   
 46  23  24  1   
 47  23  25  1   
 48  23  47  1   
 49  24  48  1   
 50  24  49  1   
 51  24  50  1   
 52  25  51  1   
 53  25  52  1   
 54  25  53  1   
@<TRIPOS>SUBSTRUCTURE
  1 ****  11 GROUP 4 **** **** 0

# MOE 2024.06 (io_trps.svl 2023.06)
