@<TRIPOS>MOLECULE
NONAME
58 62 1 0 0 
SMALL
USER_CHARGES


@<TRIPOS>ATOM
  1 O       -1.3760     0.0920    -1.0820 O.2   1 <1>  -0.5700 
  2 C       -2.0810     0.2780    -0.1190 C.2   1 <1>   0.6300 
  3 N       -2.8480    -0.7320     0.4170 N.am  1 <1>  -0.6600 
  4 C       -2.1040     1.6770     0.4900 C.3   1 <1>  -0.1000 
  5 C       -3.7580    -0.5760     1.5800 C.3   1 <1>   0.1400 
  6 C       -2.8230    -2.0980    -0.1660 C.3   1 <1>   0.1400 
  7 C       -3.2960     2.5800     0.3300 C.3   1 <1>  -0.2000 
  8 C       -2.0190     2.9020    -0.3770 C.3   1 <1>  -0.2000 
  9 C       -5.1820    -0.9010     1.1260 C.3   1 <1>  -0.1600 
 10 C       -4.2290    -2.4430    -0.6550 C.3   1 <1>  -0.1600 
 11 C       -5.2410    -2.2960     0.4920 C.3   1 <1>   0.4230 
 12 N       -6.6340    -2.5850     0.0490 N.4   1 <1>  -0.9590 
 13 C       -7.2010    -1.7500    -1.0530 C.3   1 <1>   0.3430 
 14 C       -6.8980    -4.0080    -0.3310 C.3   1 <1>   0.3430 
 15 C       -8.4300    -2.5380    -1.5050 C.3   1 <1>   0.2000 
 16 C       -7.9060    -3.9750    -1.4900 C.3   1 <1>  -0.0800 
 17 O       -9.4100    -2.3900    -0.5260 O.3   1 <1>  -0.6800 
 18 C       -8.9630    -5.0970    -1.4360 C.3   1 <1>  -0.0170 
 19 C       -8.2720    -6.4490    -1.2840 C.ar  1 <1>  -0.1440 
 20 C       -8.0530    -7.0750    -0.0300 C.ar  1 <1>   0.0000 
 21 C       -7.8110    -7.0880    -2.3980 C.ar  1 <1>  -0.1500 
 22 C       -7.3200    -8.2880    -0.0260 C.ar  1 <1>   0.3100 
 23 C       -8.5100    -6.5800     1.2150 C.ar  1 <1>  -0.1500 
 24 C       -7.1180    -8.2990    -2.2830 C.ar  1 <1>   0.1600 
 25 N       -6.8580    -8.8780    -1.1560 N.ar  1 <1>  -0.6200 
 26 C       -7.0490    -8.9190     1.1980 C.ar  1 <1>  -0.1500 
 27 C       -8.2320    -7.2220     2.3910 C.ar  1 <1>  -0.1500 
 28 C       -7.4880    -8.4040     2.3870 C.ar  1 <1>  -0.1500 
 29 H       -1.5540     1.7120     1.4120 H     1 <1>   0.1000 
 30 H       -3.4480    -1.2510     2.3610 H     1 <1>   0.0800 
 31 H       -3.7210     0.4230     1.9780 H     1 <1>   0.0800 
 32 H       -2.1290    -2.1540    -0.9900 H     1 <1>   0.0800 
 33 H       -2.4960    -2.7980     0.5840 H     1 <1>   0.0800 
 34 H       -4.1300     2.2540    -0.2670 H     1 <1>   0.1000 
 35 H       -3.5950     3.2020     1.1560 H     1 <1>   0.1000 
 36 H       -1.4240     3.7310    -0.0350 H     1 <1>   0.1000 
 37 H       -1.9590     2.7660    -1.4440 H     1 <1>   0.1000 
 38 H       -5.4870    -0.1470     0.4230 H     1 <1>   0.0800 
 39 H       -5.8330    -0.8590     1.9800 H     1 <1>   0.0800 
 40 H       -4.2160    -3.4510    -1.0250 H     1 <1>   0.0800 
 41 H       -4.4610    -1.7790    -1.4670 H     1 <1>   0.0800 
 42 H       -4.9730    -3.0090     1.2560 H     1 <1>   0.0800 
 43 H       -7.2680    -2.4020     0.8410 H     1 <1>   0.4500 
 44 H       -7.4720    -0.7620    -0.7170 H     1 <1>   0.0800 
 45 H       -6.5010    -1.6770    -1.8680 H     1 <1>   0.0800 
 46 H       -5.9970    -4.5100    -0.6440 H     1 <1>   0.0800 
 47 H       -7.3100    -4.5340     0.5130 H     1 <1>   0.0800 
 48 H       -8.8160    -2.2110    -2.4560 H     1 <1>   0.0800 
 49 H       -7.3340    -4.1200    -2.3900 H     1 <1>   0.0800 
 50 H      -10.2970    -2.6330    -0.8690 H     1 <1>   0.4000 
 51 H       -9.5260    -5.0920    -2.3540 H     1 <1>   0.0800 
 52 H       -9.6720    -4.9430    -0.6450 H     1 <1>   0.0800 
 53 H       -7.9570    -6.6880    -3.3850 H     1 <1>   0.1500 
 54 H       -9.1000    -5.6860     1.2580 H     1 <1>   0.1500 
 55 H       -6.7730    -8.7730    -3.1860 H     1 <1>   0.1500 
 56 H       -6.4830    -9.8320     1.1700 H     1 <1>   0.1500 
 57 H       -8.5860    -6.8370     3.3330 H     1 <1>   0.1500 
 58 H       -7.2750    -8.9010     3.3180 H     1 <1>   0.1500 
@<TRIPOS>BOND
  1   1   2  2   
  2   2   3  am  
  3   2   4  1   
  4   3   5  1   
  5   3   6  1   
  6   4   7  1   
  7   4   8  1   
  8   4  29  1   
  9   5   9  1   
 10   5  30  1   
 11   5  31  1   
 12   6  10  1   
 13   6  32  1   
 14   6  33  1   
 15   7   8  1   
 16   7  34  1   
 17   7  35  1   
 18   8  36  1   
 19   8  37  1   
 20   9  11  1   
 21   9  38  1   
 22   9  39  1   
 23  10  11  1   
 24  10  40  1   
 25  10  41  1   
 26  11  12  1   
 27  11  42  1   
 28  12  13  1   
 29  12  14  1   
 30  12  43  1   
 31  13  15  1   
 32  13  44  1   
 33  13  45  1   
 34  14  16  1   
 35  14  46  1   
 36  14  47  1   
 37  15  16  1   
 38  15  17  1   
 39  15  48  1   
 40  16  18  1   
 41  16  49  1   
 42  17  50  1   
 43  18  19  1   
 44  18  51  1   
 45  18  52  1   
 46  19  20  ar  
 47  19  21  ar  
 48  20  22  ar  
 49  20  23  ar  
 50  21  24  ar  
 51  21  53  1   
 52  22  25  ar  
 53  22  26  ar  
 54  23  27  ar  
 55  23  54  1   
 56  24  25  ar  
 57  24  55  1   
 58  26  28  ar  
 59  26  56  1   
 60  27  28  ar  
 61  27  57  1   
 62  28  58  1   
@<TRIPOS>SUBSTRUCTURE
  1 ****  14 GROUP 4 **** **** 0

# MOE 2024.06 (io_trps.svl 2023.06)
