@<TRIPOS>MOLECULE
NONAME
52 55 1 0 0 
SMALL
USER_CHARGES


@<TRIPOS>ATOM
  1 O        0.6130     0.0940     1.2960 O.3   1 <1>  -0.6800 
  2 C        1.1210    -0.3680     0.0860 C.3   1 <1>   0.2000 
  3 C        1.8390    -1.6900     0.3460 C.3   1 <1>  -0.0800 
  4 C        2.2570     0.5650    -0.3460 C.3   1 <1>   0.3430 
  5 C        3.1640    -1.2360     0.9770 C.3   1 <1>   0.3430 
  6 C        2.0490    -2.4850    -0.9620 C.3   1 <1>  -0.0170 
  7 N        3.4590     0.1140     0.4170 N.4   1 <1>  -0.9590 
  8 C        2.9240    -3.7050    -0.7430 C.ar  1 <1>   0.1670 
  9 C        3.8310     1.1000     1.4720 C.3   1 <1>   0.4860 
 10 N        4.2070    -3.5270    -0.8210 N.ar  1 <1>  -0.6200 
 11 C        2.3240    -4.9430    -0.4630 C.ar  1 <1>  -0.1500 
 12 C        4.3820     2.3670     0.8220 C.ar  1 <1>   0.1670 
 13 C        5.0080    -4.6090    -0.6310 C.ar  1 <1>   0.3100 
 14 C        3.1030    -6.0400    -0.2560 C.ar  1 <1>  -0.1500 
 15 N        5.1990     2.1920    -0.2120 N.ar  1 <1>  -0.6200 
 16 C        4.0070     3.6080     1.3140 C.ar  1 <1>  -0.1500 
 17 C        4.4970    -5.8920    -0.3350 C.ar  1 <1>   0.0000 
 18 C        6.4000    -4.4500    -0.7240 C.ar  1 <1>  -0.1500 
 19 C        5.6660     3.3020    -0.7650 C.ar  1 <1>   0.1600 
 20 C        4.4990     4.7500     0.7210 C.ar  1 <1>  -0.1500 
 21 C        5.3960    -6.9580    -0.1350 C.ar  1 <1>  -0.1500 
 22 C        7.2570    -5.5000    -0.5280 C.ar  1 <1>  -0.1500 
 23 C        5.3530     4.5880    -0.3500 C.ar  1 <1>  -0.1440 
 24 C        6.7480    -6.7670    -0.2280 C.ar  1 <1>  -0.1500 
 25 C        5.9430     5.8000    -1.0560 C.3   1 <1>  -0.0170 
 26 C        7.2620     6.2140    -0.4000 C.3   1 <1>  -0.2400 
 27 H       -0.2250    -0.3610     1.5260 H     1 <1>   0.4000 
 28 H        0.3230    -0.4220    -0.6350 H     1 <1>   0.0800 
 29 H        1.2920    -2.3100     1.0350 H     1 <1>   0.0800 
 30 H        2.0100     1.5960    -0.1530 H     1 <1>   0.0800 
 31 H        2.4400     0.4400    -1.4000 H     1 <1>   0.0800 
 32 H        3.9700    -1.9240     0.7910 H     1 <1>   0.0800 
 33 H        3.0220    -1.1570     2.0420 H     1 <1>   0.0800 
 34 H        2.5160    -1.8710    -1.7130 H     1 <1>   0.0800 
 35 H        1.0970    -2.7970    -1.3530 H     1 <1>   0.0800 
 36 H        4.2730     0.0990    -0.2240 H     1 <1>   0.4500 
 37 H        2.9730     1.3350     2.0800 H     1 <1>   0.0800 
 38 H        4.5990     0.6840     2.1020 H     1 <1>   0.0800 
 39 H        1.2520    -5.0170    -0.4150 H     1 <1>   0.1500 
 40 H        2.6820    -7.0070    -0.0390 H     1 <1>   0.1500 
 41 H        3.3390     3.6950     2.1530 H     1 <1>   0.1500 
 42 H        6.7760    -3.4710    -0.9590 H     1 <1>   0.1500 
 43 H        6.3390     3.1830    -1.5970 H     1 <1>   0.1500 
 44 H        4.2290     5.7290     1.0810 H     1 <1>   0.1500 
 45 H        4.9990    -7.9320     0.0930 H     1 <1>   0.1500 
 46 H        8.3230    -5.3660    -0.6020 H     1 <1>   0.1500 
 47 H        7.4330    -7.5840    -0.0750 H     1 <1>   0.1500 
 48 H        6.1130     5.5720    -2.0940 H     1 <1>   0.0800 
 49 H        5.2470     6.6200    -1.0130 H     1 <1>   0.0800 
 50 H        7.9760     5.4120    -0.4540 H     1 <1>   0.0800 
 51 H        7.1020     6.4650     0.6340 H     1 <1>   0.0800 
 52 H        7.6710     7.0730    -0.9030 H     1 <1>   0.0800 
@<TRIPOS>BOND
  1   1   2  1   
  2   1  27  1   
  3   2   3  1   
  4   2   4  1   
  5   2  28  1   
  6   3   5  1   
  7   3   6  1   
  8   3  29  1   
  9   4   7  1   
 10   4  30  1   
 11   4  31  1   
 12   5   7  1   
 13   5  32  1   
 14   5  33  1   
 15   6   8  1   
 16   6  34  1   
 17   6  35  1   
 18   7   9  1   
 19   7  36  1   
 20   8  10  ar  
 21   8  11  ar  
 22   9  12  1   
 23   9  37  1   
 24   9  38  1   
 25  10  13  ar  
 26  11  14  ar  
 27  11  39  1   
 28  12  15  ar  
 29  12  16  ar  
 30  13  17  ar  
 31  13  18  ar  
 32  14  17  ar  
 33  14  40  1   
 34  15  19  ar  
 35  16  20  ar  
 36  16  41  1   
 37  17  21  ar  
 38  18  22  ar  
 39  18  42  1   
 40  19  23  ar  
 41  19  43  1   
 42  20  23  ar  
 43  20  44  1   
 44  21  24  ar  
 45  21  45  1   
 46  22  24  ar  
 47  22  46  1   
 48  23  25  1   
 49  24  47  1   
 50  25  26  1   
 51  25  48  1   
 52  25  49  1   
 53  26  50  1   
 54  26  51  1   
 55  26  52  1   
@<TRIPOS>SUBSTRUCTURE
  1 ****   7 GROUP 4 **** **** 0

# MOE 2024.06 (io_trps.svl 2023.06)
