@<TRIPOS>MOLECULE
NONAME
50 52 1 0 0 
SMALL
USER_CHARGES


@<TRIPOS>ATOM
  1 S       -1.3560     1.2860     0.0490 S.o2  1 <1>   1.2040 
  2 O       -2.1810     0.4530    -0.7950 O.2   1 <1>  -0.6500 
  3 O       -1.7920     2.6250     0.3840 O.2   1 <1>  -0.6500 
  4 C        0.3150     1.3520    -0.6390 C.ar  1 <1>  -0.0090 
  5 C       -1.0590     0.4350     1.6010 C.3   1 <1>  -0.0550 
  6 C        1.1490     2.4380    -0.3990 C.ar  1 <1>  -0.1500 
  7 C        0.8180     0.3000    -1.3960 C.ar  1 <1>  -0.1500 
  8 C       -2.2630     0.4460     2.5570 C.3   1 <1>  -0.0990 
  9 C        2.4420     2.4730    -0.8940 C.ar  1 <1>  -0.1500 
 10 C        2.1090     0.3270    -1.8950 C.ar  1 <1>  -0.1500 
 11 C       -3.3900    -0.4250     2.0300 C.2   1 <1>   0.5690 
 12 C        2.9230     1.4150    -1.6430 C.ar  1 <1>  -0.1500 
 13 O       -3.2340    -1.6140     2.1780 O.2   1 <1>  -0.5700 
 14 N       -4.5060     0.0870     1.4170 N.am  1 <1>  -0.6600 
 15 C       -5.4490    -0.8600     0.7410 C.3   1 <1>   0.1400 
 16 C       -4.8040     1.5450     1.2400 C.3   1 <1>   0.1400 
 17 C       -6.1410    -0.1930    -0.4480 C.3   1 <1>  -0.1600 
 18 C       -6.3150     1.7590     1.1830 C.3   1 <1>  -0.1600 
 19 C       -6.9420     1.0510    -0.0320 C.3   1 <1>   0.4180 
 20 O       -6.8880     1.9120    -1.1420 O.3   1 <1>  -0.5600 
 21 C       -8.3880     0.6560     0.2680 C.2   1 <1>  -0.2880 
 22 C       -7.8890     2.8840    -1.2700 C.3   1 <1>   0.1200 
 23 C       -9.4540     1.1630    -0.3570 C.2   1 <1>  -0.2760 
 24 C       -9.2680     2.2280    -1.4210 C.3   1 <1>  -0.0220 
 25 C      -10.8890     0.7440    -0.0940 C.3   1 <1>  -0.1020 
 26 H       -0.2370     0.9090     2.1020 H     1 <1>   0.0800 
 27 H       -0.7780    -0.5830     1.4050 H     1 <1>   0.0800 
 28 H        0.7840     3.2710     0.1780 H     1 <1>   0.1500 
 29 H        0.1890    -0.5510    -1.6040 H     1 <1>   0.1500 
 30 H       -2.5770     1.4530     2.7430 H     1 <1>   0.0800 
 31 H       -1.9550     0.0340     3.5000 H     1 <1>   0.0800 
 32 H        3.0710     3.3250    -0.6990 H     1 <1>   0.1500 
 33 H        2.4780    -0.4980    -2.4810 H     1 <1>   0.1500 
 34 H        3.9280     1.4400    -2.0300 H     1 <1>   0.1500 
 35 H       -6.1810    -1.1950     1.4560 H     1 <1>   0.0800 
 36 H       -4.9070    -1.7220     0.3890 H     1 <1>   0.0800 
 37 H       -4.3550     1.8950     0.3240 H     1 <1>   0.0800 
 38 H       -4.4120     2.1190     2.0570 H     1 <1>   0.0800 
 39 H       -6.7920    -0.8990    -0.9290 H     1 <1>   0.0800 
 40 H       -5.3780     0.0820    -1.1560 H     1 <1>   0.0800 
 41 H       -6.5340     2.8080     1.1650 H     1 <1>   0.0800 
 42 H       -6.7360     1.3630     2.0890 H     1 <1>   0.0800 
 43 H       -8.4620    -0.0920     1.0360 H     1 <1>   0.1500 
 44 H       -7.6610     3.4780    -2.1370 H     1 <1>   0.0800 
 45 H       -7.8700     3.5170    -0.4020 H     1 <1>   0.0800 
 46 H       -9.3570     1.7880    -2.3980 H     1 <1>   0.0800 
 47 H      -10.0200     2.9900    -1.3230 H     1 <1>   0.0800 
 48 H      -11.3320     0.3580    -0.9950 H     1 <1>   0.0800 
 49 H      -11.4660     1.5840     0.2470 H     1 <1>   0.0800 
 50 H      -10.9240    -0.0230     0.6590 H     1 <1>   0.0800 
@<TRIPOS>BOND
  1   1   2  2   
  2   1   3  2   
  3   1   4  1   
  4   1   5  1   
  5   4   6  ar  
  6   4   7  ar  
  7   5   8  1   
  8   5  26  1   
  9   5  27  1   
 10   6   9  ar  
 11   6  28  1   
 12   7  10  ar  
 13   7  29  1   
 14   8  11  1   
 15   8  30  1   
 16   8  31  1   
 17   9  12  ar  
 18   9  32  1   
 19  10  12  ar  
 20  10  33  1   
 21  11  13  2   
 22  11  14  am  
 23  12  34  1   
 24  14  15  1   
 25  14  16  1   
 26  15  17  1   
 27  15  35  1   
 28  15  36  1   
 29  16  18  1   
 30  16  37  1   
 31  16  38  1   
 32  17  19  1   
 33  17  39  1   
 34  17  40  1   
 35  18  19  1   
 36  18  41  1   
 37  18  42  1   
 38  19  20  1   
 39  19  21  1   
 40  20  22  1   
 41  21  23  2   
 42  21  43  1   
 43  22  24  1   
 44  22  44  1   
 45  22  45  1   
 46  23  24  1   
 47  23  25  1   
 48  24  46  1   
 49  24  47  1   
 50  25  48  1   
 51  25  49  1   
 52  25  50  1   
@<TRIPOS>SUBSTRUCTURE
  1 ****  16 GROUP 4 **** **** 0

# MOE 2024.06 (io_trps.svl 2023.06)
