@<TRIPOS>MOLECULE
NONAME
19 20 1 0 0 
SMALL
USER_CHARGES


@<TRIPOS>ATOM
  1 O        5.9720     1.3700     2.1620 O.co2 1 <1>  -0.9000 
  2 C        5.5610     1.6010     1.0180 C.2   1 <1>   0.9060 
  3 O        4.8560     2.5860     0.7700 O.co2 1 <1>  -0.9000 
  4 C        5.6590     0.5390    -0.1050 C.3   1 <1>   0.1740 
  5 O        7.0650    -0.0070    -0.2250 O.3   1 <1>  -0.5600 
  6 C        4.0840     0.0710    -0.0610 C.3   1 <1>   0.3430 
  7 C        5.5040    -0.7690     0.0090 C.3   1 <1>  -0.1600 
  8 C        7.1300    -1.5120     0.0050 C.3   1 <1>   0.1200 
  9 N        4.0630    -1.5890     0.1630 N.4   1 <1>  -0.9060 
 10 C        5.5790    -2.0720     0.0410 C.3   1 <1>   0.4230 
 11 H        3.6080     0.3470    -0.9880 H     1 <1>   0.0800 
 12 H        3.5620     0.5760     0.7390 H     1 <1>   0.0800 
 13 H        5.5300    -0.8620    -1.1830 H     1 <1>   0.0800 
 14 H        5.6410    -0.7080     1.1780 H     1 <1>   0.0800 
 15 H        7.6380    -1.6890     0.9400 H     1 <1>   0.0800 
 16 H        7.7020    -1.9590    -0.7900 H     1 <1>   0.0800 
 17 H        3.4390    -2.0570    -0.4990 H     1 <1>   0.4500 
 18 H        3.7430    -1.7650     1.1230 H     1 <1>   0.4500 
 19 H        5.5640    -2.6260    -0.8860 H     1 <1>   0.0800 
@<TRIPOS>BOND
  1   1   2  ar  
  2   2   3  ar  
  3   2   4  1   
  4   4   5  1   
  5   4   6  1   
  6   4   7  1   
  7   5   8  1   
  8   6   9  1   
  9   6  11  1   
 10   6  12  1   
 11   7  10  1   
 12   7  13  1   
 13   7  14  1   
 14   8  10  1   
 15   8  15  1   
 16   8  16  1   
 17   9  10  1   
 18   9  17  1   
 19   9  18  1   
 20  10  19  1   
@<TRIPOS>SUBSTRUCTURE
  1 ****   4 GROUP 4 **** **** 0

# MOE 2024.06 (io_trps.svl 2023.06)
