@<TRIPOS>MOLECULE
NONAME
55 57 1 0 0 
SMALL
USER_CHARGES


@<TRIPOS>ATOM
  1 O        0.5750     0.4200    -0.7130 O.3   1 <1>  -0.6800 
  2 C        1.6390    -0.2720    -1.2790 C.3   1 <1>   0.2000 
  3 C        1.7720    -1.6080    -0.5510 C.3   1 <1>  -0.0800 
  4 C        2.9430     0.4620    -0.9260 C.3   1 <1>   0.3430 
  5 C        2.4430    -1.1630     0.7510 C.3   1 <1>   0.3430 
  6 C        2.6110    -2.6140    -1.3840 C.3   1 <1>   0.0210 
  7 N        3.4600    -0.1760     0.3230 N.4   1 <1>  -0.9590 
  8 C        3.7640    -3.2540    -0.6300 C.2   1 <1>   0.1080 
  9 C        3.8740     0.7620     1.3970 C.3   1 <1>   0.4810 
 10 N        4.8720    -2.6250    -0.3670 N.2   1 <1>  -0.7070 
 11 C        3.7710    -4.5590    -0.1540 C.2   1 <1>  -0.1500 
 12 C        4.6670     1.9390     0.8350 C.2   1 <1>  -0.2760 
 13 N        5.6360    -3.5440     0.2690 N.pl3 1 <1>   0.3000 
 14 C        4.9830    -4.7130     0.4190 C.2   1 <1>  -0.3320 
 15 C        5.8280     1.8040     0.1630 C.2   1 <1>  -0.2760 
 16 C        4.0440     3.3130     1.1750 C.3   1 <1>   0.1380 
 17 C        5.5710    -5.9360     1.1000 C.3   1 <1>  -0.0600 
 18 C        6.6320     2.9880    -0.3700 C.3   1 <1>  -0.0220 
 19 C        6.5360     0.4890    -0.1520 C.3   1 <1>  -0.1020 
 20 C        4.7270     4.4420     0.3700 C.3   1 <1>  -0.1600 
 21 C        2.5360     3.4140     0.8680 C.3   1 <1>  -0.2400 
 22 C        4.2410     3.5610     2.6790 C.3   1 <1>  -0.2400 
 23 C        6.2480     4.3010     0.3120 C.3   1 <1>  -0.1600 
 24 H       -0.2840     0.1040    -1.0640 H     1 <1>   0.4000 
 25 H        1.4770    -0.3480    -2.3410 H     1 <1>   0.0800 
 26 H        0.8110    -2.0460    -0.3410 H     1 <1>   0.0800 
 27 H        2.7540     1.5100    -0.7950 H     1 <1>   0.0800 
 28 H        3.6670     0.3340    -1.7130 H     1 <1>   0.0800 
 29 H        2.8870    -1.9880     1.2850 H     1 <1>   0.0800 
 30 H        1.7100    -0.6800     1.3760 H     1 <1>   0.0800 
 31 H        3.0320    -2.1370    -2.2510 H     1 <1>   0.0800 
 32 H        1.9640    -3.3930    -1.7490 H     1 <1>   0.0800 
 33 H        4.2870    -0.7420     0.0460 H     1 <1>   0.4500 
 34 H        3.0030     1.1210     1.9140 H     1 <1>   0.0800 
 35 H        4.4840     0.2400     2.1150 H     1 <1>   0.0800 
 36 H        2.9760    -5.2790    -0.2410 H     1 <1>   0.1500 
 37 H        6.5990    -3.3560     0.5780 H     1 <1>   0.2700 
 38 H        4.8610    -6.7440     1.0900 H     1 <1>   0.0800 
 39 H        5.8190    -5.7130     2.1230 H     1 <1>   0.0800 
 40 H        6.4600    -6.2580     0.5870 H     1 <1>   0.0800 
 41 H        7.6850     2.8320    -0.2100 H     1 <1>   0.0800 
 42 H        6.4700     3.0700    -1.4310 H     1 <1>   0.0800 
 43 H        7.5740     0.5500     0.1250 H     1 <1>   0.0800 
 44 H        6.4800     0.2790    -1.2060 H     1 <1>   0.0800 
 45 H        6.1230    -0.3370     0.3900 H     1 <1>   0.0800 
 46 H        4.3610     4.4290    -0.6420 H     1 <1>   0.0800 
 47 H        4.4720     5.4000     0.7880 H     1 <1>   0.0800 
 48 H        2.1730     4.3850     1.1550 H     1 <1>   0.0800 
 49 H        1.9530     2.6880     1.4010 H     1 <1>   0.0800 
 50 H        2.3490     3.3050    -0.1840 H     1 <1>   0.0800 
 51 H        3.9240     4.5540     2.9450 H     1 <1>   0.0800 
 52 H        5.2770     3.4550     2.9470 H     1 <1>   0.0800 
 53 H        3.6720     2.8640     3.2660 H     1 <1>   0.0800 
 54 H        6.6720     5.1260    -0.2340 H     1 <1>   0.0800 
 55 H        6.6580     4.3210     1.3060 H     1 <1>   0.0800 
@<TRIPOS>BOND
  1   1   2  1   
  2   1  24  1   
  3   2   3  1   
  4   2   4  1   
  5   2  25  1   
  6   3   5  1   
  7   3   6  1   
  8   3  26  1   
  9   4   7  1   
 10   4  27  1   
 11   4  28  1   
 12   5   7  1   
 13   5  29  1   
 14   5  30  1   
 15   6   8  1   
 16   6  31  1   
 17   6  32  1   
 18   7   9  1   
 19   7  33  1   
 20   8  10  2   
 21   8  11  1   
 22   9  12  1   
 23   9  34  1   
 24   9  35  1   
 25  10  13  1   
 26  11  14  2   
 27  11  36  1   
 28  12  15  2   
 29  12  16  1   
 30  13  14  1   
 31  13  37  1   
 32  14  17  1   
 33  15  18  1   
 34  15  19  1   
 35  16  20  1   
 36  16  21  1   
 37  16  22  1   
 38  17  38  1   
 39  17  39  1   
 40  17  40  1   
 41  18  23  1   
 42  18  41  1   
 43  18  42  1   
 44  19  43  1   
 45  19  44  1   
 46  19  45  1   
 47  20  23  1   
 48  20  46  1   
 49  20  47  1   
 50  21  48  1   
 51  21  49  1   
 52  21  50  1   
 53  22  51  1   
 54  22  52  1   
 55  22  53  1   
 56  23  54  1   
 57  23  55  1   
@<TRIPOS>SUBSTRUCTURE
  1 ****   7 GROUP 4 **** **** 0

# MOE 2024.06 (io_trps.svl 2023.06)
