@<TRIPOS>MOLECULE
NONAME
51 54 1 0 0 
SMALL
USER_CHARGES


@<TRIPOS>ATOM
  1 O       -0.3550     0.2630     0.5860 O.co2 1 <1>  -0.9000 
  2 C       -1.4800     0.0940     0.0550 C.2   1 <1>   1.0330 
  3 O       -1.8030    -1.0820    -0.2080 O.co2 1 <1>  -0.9000 
  4 C       -2.3470     1.2620    -0.2250 C.2   1 <1>   0.0560 
  5 N       -3.5450     1.3000    -0.8060 N.2   1 <1>  -0.7070 
  6 C       -1.9780     2.5750     0.1170 C.2   1 <1>  -0.1810 
  7 N       -3.9150     2.5850    -0.8300 N.pl3 1 <1>   0.3140 
  8 C       -2.9840     3.3740    -0.2670 C.2   1 <1>  -0.3320 
  9 C       -0.6970     3.0410     0.7840 C.3   1 <1>   0.3900 
 10 C       -5.1920     2.9980    -1.4170 C.3   1 <1>   0.0160 
 11 C       -2.9670     4.8750    -0.0570 C.3   1 <1>   0.0200 
 12 N       -0.6210     4.5530     0.8120 N.pl3 1 <1>  -0.8380 
 13 C       -1.9530     5.2130     1.0530 C.3   1 <1>   0.2090 
 14 C        0.5180     5.2410     0.5370 C.ar  1 <1>   0.4100 
 15 N        0.4080     6.5100     0.1850 N.ar  1 <1>  -0.6200 
 16 C        1.7830     4.6240     0.6250 C.ar  1 <1>  -0.1500 
 17 C        1.5030     7.1880    -0.1220 C.ar  1 <1>   0.7710 
 18 C        2.8940     5.3280     0.3030 C.ar  1 <1>   0.2180 
 19 N        2.7190     6.6140    -0.0750 N.ar  1 <1>  -0.1790 
 20 N        1.4000     8.4930    -0.4990 N.pl3 1 <1>  -0.8380 
 21 C        4.3020     4.7480     0.3520 C.3   1 <1>  -0.0170 
 22 C        2.5180     9.4710    -0.7480 C.3   1 <1>   0.2090 
 23 C        0.0580     9.1500    -0.7200 C.3   1 <1>   0.2090 
 24 C        4.9680     4.7280    -1.0310 C.3   1 <1>  -0.2400 
 25 C        2.2840    10.7910     0.0110 C.3   1 <1>   0.1200 
 26 C       -0.0400    10.4900     0.0290 C.3   1 <1>   0.1200 
 27 O        1.0330    11.3210    -0.3070 O.3   1 <1>  -0.5600 
 28 H        0.1220     2.6330     0.2220 H     1 <1>   0.0800 
 29 H       -0.6560     2.6500     1.7860 H     1 <1>   0.0800 
 30 H       -5.6570     2.1430    -1.8720 H     1 <1>   0.0800 
 31 H       -5.0110     3.7500    -2.1600 H     1 <1>   0.0800 
 32 H       -5.8250     3.3830    -0.6410 H     1 <1>   0.0800 
 33 H       -3.9400     5.2220     0.2360 H     1 <1>   0.0800 
 34 H       -2.6810     5.3660    -0.9690 H     1 <1>   0.0800 
 35 H       -2.3400     4.8510     1.9900 H     1 <1>   0.0800 
 36 H       -1.8520     6.2790     1.1360 H     1 <1>   0.0800 
 37 H        1.8520     3.6040     0.9510 H     1 <1>   0.1500 
 38 H        3.4950     7.1920    -0.3630 H     1 <1>   0.4570 
 39 H        4.2580     3.7390     0.7260 H     1 <1>   0.0800 
 40 H        4.9060     5.3170     1.0390 H     1 <1>   0.0800 
 41 H        2.5700     9.6900    -1.8020 H     1 <1>   0.0800 
 42 H        3.4690     9.0740    -0.4440 H     1 <1>   0.0800 
 43 H       -0.7570     8.5250    -0.4010 H     1 <1>   0.0800 
 44 H       -0.0760     9.3340    -1.7730 H     1 <1>   0.0800 
 45 H        4.3730     4.1570    -1.7240 H     1 <1>   0.0800 
 46 H        5.9360     4.2610    -0.9610 H     1 <1>   0.0800 
 47 H        5.1040     5.7200    -1.4220 H     1 <1>   0.0800 
 48 H        3.0250    11.5190    -0.2680 H     1 <1>   0.0800 
 49 H        2.3330    10.6400     1.0750 H     1 <1>   0.0800 
 50 H       -0.0390    10.3330     1.0940 H     1 <1>   0.0800 
 51 H       -0.9470    11.0010    -0.2420 H     1 <1>   0.0800 
@<TRIPOS>BOND
  1   1   2  ar  
  2   2   3  ar  
  3   2   4  1   
  4   4   5  2   
  5   4   6  1   
  6   5   7  1   
  7   6   8  2   
  8   6   9  1   
  9   7   8  1   
 10   7  10  1   
 11   8  11  1   
 12   9  12  1   
 13   9  28  1   
 14   9  29  1   
 15  10  30  1   
 16  10  31  1   
 17  10  32  1   
 18  11  13  1   
 19  11  33  1   
 20  11  34  1   
 21  12  13  1   
 22  12  14  1   
 23  13  35  1   
 24  13  36  1   
 25  14  15  ar  
 26  14  16  ar  
 27  15  17  ar  
 28  16  18  ar  
 29  16  37  1   
 30  17  19  ar  
 31  17  20  1   
 32  18  19  ar  
 33  18  21  1   
 34  19  38  1   
 35  20  22  1   
 36  20  23  1   
 37  21  24  1   
 38  21  39  1   
 39  21  40  1   
 40  22  25  1   
 41  22  41  1   
 42  22  42  1   
 43  23  26  1   
 44  23  43  1   
 45  23  44  1   
 46  24  45  1   
 47  24  46  1   
 48  24  47  1   
 49  25  27  1   
 50  25  48  1   
 51  25  49  1   
 52  26  27  1   
 53  26  50  1   
 54  26  51  1   
@<TRIPOS>SUBSTRUCTURE
  1 ****  14 GROUP 4 **** **** 0

# MOE 2024.06 (io_trps.svl 2023.06)
