@<TRIPOS>MOLECULE
NONAME
48 50 1 0 0 
SMALL
USER_CHARGES


@<TRIPOS>ATOM
  1 O       -0.8960     0.1720     0.3230 O.2   1 <1>  -0.5700 
  2 C       -1.6600     1.1090     0.1880 C.2   1 <1>   0.5440 
  3 N       -2.9940     0.9380     0.5120 N.am  1 <1>  -0.6600 
  4 C       -1.1450     2.3670    -0.3170 C.ar  1 <1>   0.0860 
  5 C       -4.0530     1.8580    -0.0020 C.3   1 <1>   0.2200 
  6 C       -3.4100    -0.2970     1.2480 C.3   1 <1>   0.0600 
  7 C       -1.2460     3.5450     0.4240 C.ar  1 <1>  -0.1500 
  8 C       -0.5320     2.4400    -1.5670 C.ar  1 <1>  -0.1500 
  9 C       -4.7670     2.6220     1.1110 C.3   1 <1>  -0.1600 
 10 C       -5.1730     1.1530    -0.7680 C.3   1 <1>  -0.1600 
 11 C       -0.7750     4.7480    -0.0700 C.ar  1 <1>  -0.1500 
 12 C       -0.0590     3.6400    -2.0670 C.ar  1 <1>  -0.1500 
 13 C       -6.1000     3.0570     0.4850 C.3   1 <1>  -0.0800 
 14 C       -6.3480     2.1390    -0.7170 C.3   1 <1>  -0.0800 
 15 C       -0.1830     4.7970    -1.3200 C.ar  1 <1>  -0.1500 
 16 C       -7.3330     2.9030     1.3890 C.3   1 <1>  -0.1600 
 17 C       -7.7290     1.5050    -0.4860 C.3   1 <1>  -0.1600 
 18 C       -8.4670     2.4590     0.4590 C.3   1 <1>   0.4230 
 19 N       -9.0320     3.6260    -0.2940 N.4   1 <1>  -0.9590 
 20 C       -9.6390     4.6590     0.6060 C.3   1 <1>   0.2630 
 21 C      -10.0620     3.2170    -1.3040 C.3   1 <1>   0.2630 
 22 H       -3.6190     2.5800    -0.6730 H     1 <1>   0.0800 
 23 H       -4.3050    -0.1270     1.8160 H     1 <1>   0.0800 
 24 H       -2.6300    -0.6000     1.9260 H     1 <1>   0.0800 
 25 H       -3.5780    -1.0940     0.5450 H     1 <1>   0.0800 
 26 H       -1.6940     3.5050     1.4010 H     1 <1>   0.1500 
 27 H       -0.4280     1.5370    -2.1440 H     1 <1>   0.1500 
 28 H       -4.9330     1.9770     1.9530 H     1 <1>   0.0800 
 29 H       -4.1900     3.4720     1.4280 H     1 <1>   0.0800 
 30 H       -4.8740     0.9450    -1.7810 H     1 <1>   0.0800 
 31 H       -5.4410     0.2330    -0.2850 H     1 <1>   0.0800 
 32 H       -0.8640     5.6460     0.5170 H     1 <1>   0.1500 
 33 H        0.4090     3.6720    -3.0360 H     1 <1>   0.1500 
 34 H       -6.0180     4.0730     0.1360 H     1 <1>   0.0800 
 35 H       -6.3540     2.7350    -1.6160 H     1 <1>   0.0800 
 36 H        0.1850     5.7320    -1.7070 H     1 <1>   0.1500 
 37 H       -7.5330     3.7870     1.9630 H     1 <1>   0.0800 
 38 H       -7.1650     2.1010     2.0880 H     1 <1>   0.0800 
 39 H       -7.6120     0.5710     0.0360 H     1 <1>   0.0800 
 40 H       -8.2390     1.2900    -1.4060 H     1 <1>   0.0800 
 41 H       -9.2470     1.9490     1.0040 H     1 <1>   0.0800 
 42 H       -8.2390     4.0530    -0.7930 H     1 <1>   0.4500 
 43 H      -10.4140     4.2190     1.2130 H     1 <1>   0.0800 
 44 H      -10.0710     5.4550     0.0220 H     1 <1>   0.0800 
 45 H       -8.8940     5.0880     1.2550 H     1 <1>   0.0800 
 46 H      -10.8670     2.6840    -0.8240 H     1 <1>   0.0800 
 47 H       -9.6290     2.5840    -2.0600 H     1 <1>   0.0800 
 48 H      -10.4710     4.0880    -1.7920 H     1 <1>   0.0800 
@<TRIPOS>BOND
  1   1   2  2   
  2   2   3  am  
  3   2   4  1   
  4   3   5  1   
  5   3   6  1   
  6   4   7  ar  
  7   4   8  ar  
  8   5   9  1   
  9   5  10  1   
 10   5  22  1   
 11   6  23  1   
 12   6  24  1   
 13   6  25  1   
 14   7  11  ar  
 15   7  26  1   
 16   8  12  ar  
 17   8  27  1   
 18   9  13  1   
 19   9  28  1   
 20   9  29  1   
 21  10  14  1   
 22  10  30  1   
 23  10  31  1   
 24  11  15  ar  
 25  11  32  1   
 26  12  15  ar  
 27  12  33  1   
 28  13  14  1   
 29  13  16  1   
 30  13  34  1   
 31  14  17  1   
 32  14  35  1   
 33  15  36  1   
 34  16  18  1   
 35  16  37  1   
 36  16  38  1   
 37  17  18  1   
 38  17  39  1   
 39  17  40  1   
 40  18  19  1   
 41  18  41  1   
 42  19  20  1   
 43  19  21  1   
 44  19  42  1   
 45  20  43  1   
 46  20  44  1   
 47  20  45  1   
 48  21  46  1   
 49  21  47  1   
 50  21  48  1   
@<TRIPOS>SUBSTRUCTURE
  1 ****   5 GROUP 4 **** **** 0

# MOE 2024.06 (io_trps.svl 2023.06)
