@<TRIPOS>MOLECULE
NONAME
33 34 1 0 0 
SMALL
USER_CHARGES


@<TRIPOS>ATOM
  1 O        0.4020     0.3950     0.5560 O.2   1 <1>  -0.5700 
  2 C        1.5140    -0.0280     0.3370 C.2   1 <1>   0.7800 
  3 O        1.8860    -1.2170     0.7850 O.3   1 <1>  -0.4300 
  4 N        2.4800     0.5610    -0.4220 N.am  1 <1>  -0.4200 
  5 C        3.1350    -1.5900     0.2480 C.3   1 <1>   0.1200 
  6 C        2.4360     1.7510    -1.1050 C.2   1 <1>   0.5690 
  7 C        3.6430    -0.3350    -0.4760 C.3   1 <1>   0.2200 
  8 O        3.2150     1.9720    -2.0020 O.2   1 <1>  -0.5700 
  9 C        1.4180     2.8320    -0.7420 C.3   1 <1>   0.1810 
 10 C        4.8550     0.3030     0.2260 C.3   1 <1>  -0.0170 
 11 O        1.6460     3.3050     0.5610 O.3   1 <1>  -0.5600 
 12 C        6.0400    -0.6500     0.2380 C.ar  1 <1>  -0.1440 
 13 C        0.5830     4.0270     1.0930 C.3   1 <1>   0.0400 
 14 C        6.4360    -1.2750     1.4110 C.ar  1 <1>  -0.1500 
 15 C        6.7350    -0.9040    -0.9350 C.ar  1 <1>  -0.1500 
 16 C        7.5070    -2.1510     1.4100 C.ar  1 <1>  -0.1500 
 17 C        7.8070    -1.7800    -0.9370 C.ar  1 <1>  -0.1500 
 18 C        8.1920    -2.4060     0.2350 C.ar  1 <1>  -0.1500 
 19 H        3.7770    -1.9110     1.0480 H     1 <1>   0.0800 
 20 H        2.9810    -2.4010    -0.4430 H     1 <1>   0.0800 
 21 H        3.8880    -0.5650    -1.4990 H     1 <1>   0.0800 
 22 H        0.4220     2.4360    -0.8130 H     1 <1>   0.0800 
 23 H        1.5160     3.6620    -1.4190 H     1 <1>   0.0800 
 24 H        5.1440     1.1990    -0.2950 H     1 <1>   0.0800 
 25 H        4.5920     0.5770     1.2330 H     1 <1>   0.0800 
 26 H        0.8680     4.3720     2.0710 H     1 <1>   0.0800 
 27 H       -0.2760     3.3820     1.1750 H     1 <1>   0.0800 
 28 H        0.3690     4.8690     0.4580 H     1 <1>   0.0800 
 29 H        5.9160    -1.0840     2.3340 H     1 <1>   0.1500 
 30 H        6.4500    -0.4180    -1.8530 H     1 <1>   0.1500 
 31 H        7.8090    -2.6340     2.3230 H     1 <1>   0.1500 
 32 H        8.3420    -1.9730    -1.8510 H     1 <1>   0.1500 
 33 H        9.0260    -3.0870     0.2340 H     1 <1>   0.1500 
@<TRIPOS>BOND
  1   1   2  2   
  2   2   3  1   
  3   2   4  am  
  4   3   5  1   
  5   4   6  am  
  6   4   7  1   
  7   5   7  1   
  8   5  19  1   
  9   5  20  1   
 10   6   8  2   
 11   6   9  1   
 12   7  10  1   
 13   7  21  1   
 14   9  11  1   
 15   9  22  1   
 16   9  23  1   
 17  10  12  1   
 18  10  24  1   
 19  10  25  1   
 20  11  13  1   
 21  12  14  ar  
 22  12  15  ar  
 23  13  26  1   
 24  13  27  1   
 25  13  28  1   
 26  14  16  ar  
 27  14  29  1   
 28  15  17  ar  
 29  15  30  1   
 30  16  18  ar  
 31  16  31  1   
 32  17  18  ar  
 33  17  32  1   
 34  18  33  1   
@<TRIPOS>SUBSTRUCTURE
  1 ****   7 GROUP 4 **** **** 0

# MOE 2024.06 (io_trps.svl 2023.06)
