@<TRIPOS>MOLECULE
NONAME
48 50 1 0 0 
SMALL
USER_CHARGES


@<TRIPOS>ATOM
  1 O        0.3250     4.6380     1.9400 O.2   1 <1>  -0.5700 
  2 C        0.4110     4.2190     0.8070 C.2   1 <1>   0.5690 
  3 N       -0.7070     3.8700     0.0880 N.am  1 <1>  -0.6600 
  4 C        1.8100     4.1000     0.2260 C.3   1 <1>   0.0440 
  5 C       -2.0450     3.8070     0.7610 C.3   1 <1>   0.1400 
  6 C       -0.6540     3.4080    -1.3330 C.3   1 <1>   0.1400 
  7 C        2.1710     2.6740    -0.1730 C.ar  1 <1>   0.1660 
  8 C       -2.8790     2.5950     0.2810 C.3   1 <1>   0.0000 
  9 C       -2.0290     3.5090    -1.9970 C.3   1 <1>  -0.1600 
 10 N        2.4580     2.5210    -1.4600 N.ar  1 <1>  -0.6200 
 11 C        2.1930     1.6310     0.7570 C.ar  1 <1>  -0.1440 
 12 C       -4.1960     2.5370     1.0850 C.3   1 <1>   0.2000 
 13 C       -3.1100     2.7020    -1.2520 C.3   1 <1>  -0.1600 
 14 C       -2.1940     1.2740     0.6930 C.3   1 <1>  -0.1600 
 15 C        2.7690     1.2970    -1.8480 C.ar  1 <1>   0.1600 
 16 C        2.5150     0.3600     0.3220 C.ar  1 <1>  -0.1500 
 17 C        1.8740     1.8220     2.2360 C.3   1 <1>  -0.0970 
 18 O       -5.1100     1.7060     0.4250 O.3   1 <1>  -0.5600 
 19 C       -3.8240     1.8800     2.4210 C.3   1 <1>  -0.1600 
 20 C       -2.5590     1.0510     2.1640 C.3   1 <1>  -0.1600 
 21 C        2.8080     0.1980    -1.0120 C.ar  1 <1>  -0.1500 
 22 C       -6.4490     1.9490     0.7200 C.3   1 <1>   0.0400 
 23 H        1.8810     4.7540    -0.6220 H     1 <1>   0.0800 
 24 H        2.5230     4.4460     0.9490 H     1 <1>   0.0800 
 25 H       -1.9110     3.7570     1.8270 H     1 <1>   0.0800 
 26 H       -2.5770     4.7160     0.5440 H     1 <1>   0.0800 
 27 H        0.0520     4.0040    -1.8860 H     1 <1>   0.0800 
 28 H       -0.3220     2.3840    -1.3600 H     1 <1>   0.0800 
 29 H       -2.3100     4.5480    -2.0250 H     1 <1>   0.0800 
 30 H       -1.9630     3.1670    -3.0140 H     1 <1>   0.0800 
 31 H       -4.6290     3.5160     1.2060 H     1 <1>   0.0800 
 32 H       -3.1760     1.7150    -1.6740 H     1 <1>   0.0800 
 33 H       -4.0560     3.1800    -1.4410 H     1 <1>   0.0800 
 34 H       -2.6120     0.4630     0.1210 H     1 <1>   0.0800 
 35 H       -1.1290     1.2780     0.5460 H     1 <1>   0.0800 
 36 H        3.0040     1.1620    -2.8900 H     1 <1>   0.1500 
 37 H        2.5390    -0.4780     0.9960 H     1 <1>   0.1500 
 38 H        2.2300     0.9890     2.8150 H     1 <1>   0.0800 
 39 H        0.8110     1.9000     2.3750 H     1 <1>   0.0800 
 40 H        2.3410     2.7110     2.6180 H     1 <1>   0.0800 
 41 H       -3.6010     2.6450     3.1430 H     1 <1>   0.0800 
 42 H       -4.6220     1.2700     2.8050 H     1 <1>   0.0800 
 43 H       -1.7600     1.3960     2.7980 H     1 <1>   0.0800 
 44 H       -2.7310     0.0060     2.3550 H     1 <1>   0.0800 
 45 H        3.0670    -0.7700    -1.4020 H     1 <1>   0.1500 
 46 H       -7.0440     1.2330     0.1820 H     1 <1>   0.0800 
 47 H       -6.7060     2.9450     0.4020 H     1 <1>   0.0800 
 48 H       -6.6130     1.8350     1.7770 H     1 <1>   0.0800 
@<TRIPOS>BOND
  1   1   2  2   
  2   2   3  am  
  3   2   4  1   
  4   3   5  1   
  5   3   6  1   
  6   4   7  1   
  7   4  23  1   
  8   4  24  1   
  9   5   8  1   
 10   5  25  1   
 11   5  26  1   
 12   6   9  1   
 13   6  27  1   
 14   6  28  1   
 15   7  10  ar  
 16   7  11  ar  
 17   8  12  1   
 18   8  13  1   
 19   8  14  1   
 20   9  13  1   
 21   9  29  1   
 22   9  30  1   
 23  10  15  ar  
 24  11  16  ar  
 25  11  17  1   
 26  12  18  1   
 27  12  19  1   
 28  12  31  1   
 29  13  32  1   
 30  13  33  1   
 31  14  20  1   
 32  14  34  1   
 33  14  35  1   
 34  15  21  ar  
 35  15  36  1   
 36  16  21  ar  
 37  16  37  1   
 38  17  38  1   
 39  17  39  1   
 40  17  40  1   
 41  18  22  1   
 42  19  20  1   
 43  19  41  1   
 44  19  42  1   
 45  20  43  1   
 46  20  44  1   
 47  21  45  1   
 48  22  46  1   
 49  22  47  1   
 50  22  48  1   
@<TRIPOS>SUBSTRUCTURE
  1 ****   3 GROUP 4 **** **** 0

# MOE 2024.06 (io_trps.svl 2023.06)
