@<TRIPOS>MOLECULE
NONAME
56 59 1 0 0 
SMALL
USER_CHARGES


@<TRIPOS>ATOM
  1 O       -0.5450     0.6150    -0.5570 O.2   1 <1>  -0.5700 
  2 C       -1.6150     1.0970    -0.2660 C.2   1 <1>   0.5690 
  3 N       -2.6490     0.3080     0.1920 N.am  1 <1>  -0.6600 
  4 C       -1.7770     2.6110    -0.4190 C.3   1 <1>  -0.0190 
  5 C       -4.0170     0.7840     0.5820 C.3   1 <1>   0.1400 
  6 C       -2.4620    -1.1650     0.3360 C.3   1 <1>   0.1400 
  7 C       -0.7300     3.3130    -1.3140 C.3   1 <1>  -0.0160 
  8 C       -1.7260     3.3660     0.9240 C.3   1 <1>  -0.0160 
  9 C       -5.1170     0.0510    -0.2270 C.3   1 <1>   0.1900 
 10 C       -3.5310    -1.8980    -0.4780 C.3   1 <1>  -0.1600 
 11 C       -0.6830     4.7060    -0.7350 C.ar  1 <1>  -0.1440 
 12 C       -1.2380     4.7350     0.5200 C.ar  1 <1>  -0.1440 
 13 N       -6.5150     0.4590     0.1230 N.3   1 <1>  -0.8100 
 14 C       -4.9700    -1.4910    -0.0800 C.3   1 <1>   0.0000 
 15 C       -0.1710     5.8540    -1.3090 C.ar  1 <1>  -0.1500 
 16 C       -1.2970     5.9130     1.2410 C.ar  1 <1>  -0.1500 
 17 C       -7.4590    -0.1330    -0.8540 C.3   1 <1>   0.1100 
 18 C       -6.7310     1.9440     0.1610 C.3   1 <1>   0.1710 
 19 C       -5.9590    -2.1640    -1.0600 C.3   1 <1>  -0.1600 
 20 C       -5.2690    -1.9150     1.3870 C.3   1 <1>   0.1200 
 21 C       -0.2260     7.0420    -0.5960 C.ar  1 <1>  -0.1500 
 22 C       -0.7860     7.0710     0.6740 C.ar  1 <1>  -0.1500 
 23 C       -7.3930    -1.6620    -0.8420 C.3   1 <1>  -0.1600 
 24 C       -8.1110     2.3920     0.6630 C.2   1 <1>   0.5690 
 25 O       -5.1460    -3.2880     1.5530 O.3   1 <1>  -0.6800 
 26 O       -8.6230     3.3830     0.2100 O.2   1 <1>  -0.5700 
 27 N       -8.7410     1.6740     1.6130 N.am  1 <1>  -0.8000 
 28 H       -2.7250     2.8110    -0.8800 H     1 <1>   0.0800 
 29 H       -4.1580     0.6140     1.6340 H     1 <1>   0.0800 
 30 H       -4.0950     1.8360     0.4070 H     1 <1>   0.0800 
 31 H       -1.4890    -1.4680    -0.0150 H     1 <1>   0.0800 
 32 H       -2.5250    -1.4350     1.3750 H     1 <1>   0.0800 
 33 H       -1.0270     3.3120    -2.3470 H     1 <1>   0.0800 
 34 H        0.2450     2.8690    -1.2150 H     1 <1>   0.0800 
 35 H       -1.0080     2.9140     1.5860 H     1 <1>   0.0800 
 36 H       -2.6880     3.4120     1.4010 H     1 <1>   0.0800 
 37 H       -4.9490     0.3070    -1.2600 H     1 <1>   0.0800 
 38 H       -3.3600    -1.6830    -1.5180 H     1 <1>   0.0800 
 39 H       -3.3950    -2.9570    -0.3490 H     1 <1>   0.0800 
 40 H        0.2650     5.8260    -2.2920 H     1 <1>   0.1500 
 41 H       -1.7300     5.9330     2.2250 H     1 <1>   0.1500 
 42 H       -8.4700     0.1600    -0.6260 H     1 <1>   0.0800 
 43 H       -7.2280     0.2270    -1.8430 H     1 <1>   0.0800 
 44 H       -6.0300     2.4000     0.8310 H     1 <1>   0.0800 
 45 H       -6.5740     2.3600    -0.8190 H     1 <1>   0.0800 
 46 H       -5.6710    -1.9260    -2.0700 H     1 <1>   0.0800 
 47 H       -5.9270    -3.2350    -0.9670 H     1 <1>   0.0800 
 48 H       -6.2660    -1.6360     1.6800 H     1 <1>   0.0800 
 49 H       -4.5880    -1.4550     2.0780 H     1 <1>   0.0800 
 50 H        0.1690     7.9440    -1.0280 H     1 <1>   0.1500 
 51 H       -0.8230     7.9970     1.2210 H     1 <1>   0.1500 
 52 H       -7.7840    -2.0240     0.0910 H     1 <1>   0.0800 
 53 H       -8.0270    -2.0450    -1.6220 H     1 <1>   0.0800 
 54 H       -5.7880    -3.7520     0.9810 H     1 <1>   0.4000 
 55 H       -9.6670     1.9450     1.9440 H     1 <1>   0.3700 
 56 H       -8.3550     0.7850     1.9380 H     1 <1>   0.3700 
@<TRIPOS>BOND
  1   1   2  2   
  2   2   3  am  
  3   2   4  1   
  4   3   5  1   
  5   3   6  1   
  6   4   7  1   
  7   4   8  1   
  8   4  28  1   
  9   5   9  1   
 10   5  29  1   
 11   5  30  1   
 12   6  10  1   
 13   6  31  1   
 14   6  32  1   
 15   7  11  1   
 16   7  33  1   
 17   7  34  1   
 18   8  12  1   
 19   8  35  1   
 20   8  36  1   
 21   9  13  1   
 22   9  14  1   
 23   9  37  1   
 24  10  14  1   
 25  10  38  1   
 26  10  39  1   
 27  11  12  ar  
 28  11  15  ar  
 29  12  16  ar  
 30  13  17  1   
 31  13  18  1   
 32  14  19  1   
 33  14  20  1   
 34  15  21  ar  
 35  15  40  1   
 36  16  22  ar  
 37  16  41  1   
 38  17  23  1   
 39  17  42  1   
 40  17  43  1   
 41  18  24  1   
 42  18  44  1   
 43  18  45  1   
 44  19  23  1   
 45  19  46  1   
 46  19  47  1   
 47  20  25  1   
 48  20  48  1   
 49  20  49  1   
 50  21  22  ar  
 51  21  50  1   
 52  22  51  1   
 53  23  52  1   
 54  23  53  1   
 55  24  26  2   
 56  24  27  am  
 57  25  54  1   
 58  27  55  1   
 59  27  56  1   
@<TRIPOS>SUBSTRUCTURE
  1 ****   5 GROUP 4 **** **** 0

# MOE 2024.06 (io_trps.svl 2023.06)
