@<TRIPOS>MOLECULE
NONAME
46 48 1 0 0 
SMALL
USER_CHARGES


@<TRIPOS>ATOM
  1 CL      -2.0960    -0.5600    -1.7870 Cl    1 <1>  -0.1770 
  2 C       -1.5770    -1.9430    -0.8580 C.ar  1 <1>   0.1770 
  3 C       -1.7170    -3.2080    -1.3970 C.ar  1 <1>  -0.1500 
  4 C       -1.0410    -1.7520     0.4010 C.ar  1 <1>  -0.1500 
  5 C       -1.3200    -4.3140    -0.6600 C.ar  1 <1>  -0.1440 
  6 C       -0.6350    -2.8540     1.1330 C.ar  1 <1>  -0.1500 
  7 C       -0.7740    -4.1270     0.6030 C.ar  1 <1>  -0.1500 
  8 C       -1.4850    -5.7240    -1.2240 C.3   1 <1>   0.0450 
  9 C       -2.1790    -6.6880    -0.2650 C.2   1 <1>   0.5690 
 10 O       -1.5170    -7.6210     0.1260 O.2   1 <1>  -0.5700 
 11 N       -3.4900    -6.5220     0.1340 N.am  1 <1>  -0.6600 
 12 C       -4.3450    -5.3790    -0.3110 C.3   1 <1>   0.2200 
 13 C       -4.0890    -7.5000     1.0980 C.3   1 <1>   0.0600 
 14 C       -5.7670    -5.7630    -0.7150 C.3   1 <1>  -0.1600 
 15 C       -4.5360    -4.3290     0.7780 C.3   1 <1>  -0.1600 
 16 C       -6.5450    -4.4410    -0.6550 C.3   1 <1>  -0.0800 
 17 C       -5.7680    -3.5350     0.3300 C.3   1 <1>  -0.0800 
 18 C       -8.0370    -4.6390    -0.3220 C.3   1 <1>   0.1400 
 19 C       -6.6190    -3.0260     1.5070 C.3   1 <1>  -0.0990 
 20 N       -8.6360    -3.3570     0.1260 N.am  1 <1>  -0.6600 
 21 C       -7.9750    -2.5590     1.0190 C.2   1 <1>   0.5690 
 22 C       -9.9870    -3.0250    -0.3990 C.3   1 <1>   0.0600 
 23 O       -8.4200    -1.5160     1.4360 O.2   1 <1>  -0.5700 
 24 H       -2.1350    -3.3120    -2.3820 H     1 <1>   0.1500 
 25 H       -0.9430    -0.7570     0.7960 H     1 <1>   0.1500 
 26 H       -0.2120    -2.7240     2.1150 H     1 <1>   0.1500 
 27 H       -0.4560    -4.9780     1.1830 H     1 <1>   0.1500 
 28 H       -0.5080    -6.1120    -1.4480 H     1 <1>   0.0800 
 29 H       -2.0340    -5.7050    -2.1460 H     1 <1>   0.0800 
 30 H       -3.9040    -4.8930    -1.1620 H     1 <1>   0.0800 
 31 H       -4.7340    -7.0030     1.7970 H     1 <1>   0.0800 
 32 H       -3.3200    -8.0040     1.6580 H     1 <1>   0.0800 
 33 H       -4.6540    -8.2380     0.5560 H     1 <1>   0.0800 
 34 H       -5.7930    -6.1950    -1.6990 H     1 <1>   0.0800 
 35 H       -6.1910    -6.4530    -0.0090 H     1 <1>   0.0800 
 36 H       -4.7250    -4.8050     1.7230 H     1 <1>   0.0800 
 37 H       -3.6750    -3.6930     0.8720 H     1 <1>   0.0800 
 38 H       -6.4910    -3.9800    -1.6270 H     1 <1>   0.0800 
 39 H       -5.4320    -2.6740    -0.2250 H     1 <1>   0.0800 
 40 H       -8.1500    -5.3560     0.4730 H     1 <1>   0.0800 
 41 H       -8.5550    -5.0100    -1.1890 H     1 <1>   0.0800 
 42 H       -6.1150    -2.2150     2.0030 H     1 <1>   0.0800 
 43 H       -6.7830    -3.8080     2.2240 H     1 <1>   0.0800 
 44 H      -10.6830    -3.7990    -0.1290 H     1 <1>   0.0800 
 45 H       -9.9490    -2.9350    -1.4700 H     1 <1>   0.0800 
 46 H      -10.3330    -2.0920     0.0120 H     1 <1>   0.0800 
@<TRIPOS>BOND
  1   1   2  1   
  2   2   3  ar  
  3   2   4  ar  
  4   3   5  ar  
  5   3  24  1   
  6   4   6  ar  
  7   4  25  1   
  8   5   7  ar  
  9   5   8  1   
 10   6   7  ar  
 11   6  26  1   
 12   7  27  1   
 13   8   9  1   
 14   8  28  1   
 15   8  29  1   
 16   9  10  2   
 17   9  11  am  
 18  11  12  1   
 19  11  13  1   
 20  12  14  1   
 21  12  15  1   
 22  12  30  1   
 23  13  31  1   
 24  13  32  1   
 25  13  33  1   
 26  14  16  1   
 27  14  34  1   
 28  14  35  1   
 29  15  17  1   
 30  15  36  1   
 31  15  37  1   
 32  16  17  1   
 33  16  18  1   
 34  16  38  1   
 35  17  19  1   
 36  17  39  1   
 37  18  20  1   
 38  18  40  1   
 39  18  41  1   
 40  19  21  1   
 41  19  42  1   
 42  19  43  1   
 43  20  21  am  
 44  20  22  1   
 45  21  23  2   
 46  22  44  1   
 47  22  45  1   
 48  22  46  1   
@<TRIPOS>SUBSTRUCTURE
  1 ****  15 GROUP 4 **** **** 0

# MOE 2024.06 (io_trps.svl 2023.06)
