@<TRIPOS>MOLECULE
NONAME
48 50 1 0 0 
SMALL
USER_CHARGES


@<TRIPOS>ATOM
  1 O       -2.4480     0.2740     2.1260 O.2   1 <1>  -0.5700 
  2 C       -2.4920     1.3830     1.6230 C.2   1 <1>   0.5440 
  3 N       -3.6250     2.1420     1.8150 N.am  1 <1>  -0.6600 
  4 C       -1.3770     1.8710     0.8360 C.ar  1 <1>   0.0860 
  5 C       -4.6570     1.7550     2.8190 C.3   1 <1>   0.1400 
  6 C       -3.9600     3.3460     1.0050 C.3   1 <1>   0.1400 
  7 C       -1.1150     1.4260    -0.4670 C.ar  1 <1>  -0.1440 
  8 C       -0.5300     2.8360     1.3850 C.ar  1 <1>  -0.1500 
  9 C       -5.6580     0.7290     2.2600 C.3   1 <1>   0.1400 
 10 C       -4.9780     3.0180    -0.0960 C.3   1 <1>  -0.1600 
 11 C       -0.0480     1.9470    -1.1790 C.ar  1 <1>  -0.1500 
 12 C       -1.9850     0.3620    -1.1240 C.3   1 <1>  -0.0960 
 13 C        0.5350     3.3540     0.6740 C.ar  1 <1>  -0.1500 
 14 N       -5.9690     0.9150     0.8010 N.am  1 <1>  -0.6600 
 15 C       -6.2590     2.3220     0.3860 C.3   1 <1>   0.1400 
 16 C        0.7710     2.9060    -0.6140 C.ar  1 <1>   0.0820 
 17 C       -6.0110    -0.1140    -0.1240 C.2   1 <1>   0.7030 
 18 O        1.7940     3.3930    -1.3230 O.3   1 <1>  -0.5320 
 19 O       -6.4250     0.1250    -1.2440 O.2   1 <1>  -0.5700 
 20 C       -5.6200    -1.4870     0.1760 C.2   1 <1>   0.2770 
 21 N       -6.3970    -2.6320    -0.0320 N.pl3 1 <1>  -0.7640 
 22 C       -4.4420    -1.9380     0.6750 C.2   1 <1>   0.2000 
 23 C       -5.6900    -3.6880     0.3460 C.cat 1 <1>   0.6500 
 24 C       -7.7600    -2.6080    -0.6330 C.3   1 <1>   0.2740 
 25 N       -4.5040    -3.3000     0.7860 N.pl3 1 <1>  -0.7000 
 26 H       -5.1880     2.6320     3.1450 H     1 <1>   0.0800 
 27 H       -4.1740     1.3400     3.6880 H     1 <1>   0.0800 
 28 H       -3.0730     3.7540     0.5510 H     1 <1>   0.0800 
 29 H       -4.3620     4.1060     1.6540 H     1 <1>   0.0800 
 30 H       -0.7180     3.1790     2.3880 H     1 <1>   0.1500 
 31 H       -6.5720     0.7990     2.8240 H     1 <1>   0.0800 
 32 H       -5.2540    -0.2480     2.4420 H     1 <1>   0.0800 
 33 H       -4.5110     2.4220    -0.8590 H     1 <1>   0.0800 
 34 H       -5.2600     3.9450    -0.5620 H     1 <1>   0.0800 
 35 H        0.1670     1.6160    -2.1800 H     1 <1>   0.1500 
 36 H       -3.0260     0.5970    -1.0030 H     1 <1>   0.0800 
 37 H       -1.7830    -0.5930    -0.6750 H     1 <1>   0.0800 
 38 H       -1.7770     0.2950    -2.1770 H     1 <1>   0.0800 
 39 H        1.1720     4.0960     1.1200 H     1 <1>   0.1500 
 40 H       -6.9790     2.3220    -0.4150 H     1 <1>   0.0800 
 41 H       -6.6950     2.8690     1.2040 H     1 <1>   0.0800 
 42 H        2.3320     4.0470    -0.8430 H     1 <1>   0.4500 
 43 H       -3.5710    -1.3700     0.9450 H     1 <1>   0.1500 
 44 H       -6.0270    -4.7150     0.2970 H     1 <1>   0.1500 
 45 H       -8.4100    -1.9800    -0.0480 H     1 <1>   0.0800 
 46 H       -8.1760    -3.6000    -0.6710 H     1 <1>   0.0800 
 47 H       -7.7110    -2.2140    -1.6350 H     1 <1>   0.0800 
 48 H       -3.7520    -3.9010     1.1400 H     1 <1>   0.4500 
@<TRIPOS>BOND
  1   1   2  2   
  2   2   3  am  
  3   2   4  1   
  4   3   5  1   
  5   3   6  1   
  6   4   7  ar  
  7   4   8  ar  
  8   5   9  1   
  9   5  26  1   
 10   5  27  1   
 11   6  10  1   
 12   6  28  1   
 13   6  29  1   
 14   7  11  ar  
 15   7  12  1   
 16   8  13  ar  
 17   8  30  1   
 18   9  14  1   
 19   9  31  1   
 20   9  32  1   
 21  10  15  1   
 22  10  33  1   
 23  10  34  1   
 24  11  16  ar  
 25  11  35  1   
 26  12  36  1   
 27  12  37  1   
 28  12  38  1   
 29  13  16  ar  
 30  13  39  1   
 31  14  15  1   
 32  14  17  am  
 33  15  40  1   
 34  15  41  1   
 35  16  18  1   
 36  17  19  2   
 37  17  20  1   
 38  18  42  1   
 39  20  21  1   
 40  20  22  2   
 41  21  23  ar  
 42  21  24  1   
 43  22  25  1   
 44  22  43  1   
 45  23  25  ar  
 46  23  44  1   
 47  24  45  1   
 48  24  46  1   
 49  24  47  1   
 50  25  48  1   
@<TRIPOS>SUBSTRUCTURE
  1 ****   2 GROUP 4 **** **** 0

# MOE 2024.06 (io_trps.svl 2023.06)
