@<TRIPOS>MOLECULE
NONAME
49 52 1 0 0 
SMALL
USER_CHARGES


@<TRIPOS>ATOM
  1 O        1.2530     1.0930     2.4310 O.2   1 <1>  -0.5700 
  2 C        1.0850     2.2970     2.4340 C.2   1 <1>   0.7160 
  3 N        0.7860     2.8410     3.6440 N.am  1 <1>  -0.8000 
  4 C        1.1930     3.1320     1.2320 C.2   1 <1>   0.4300 
  5 N        1.5260     2.7450     0.0450 N.2   1 <1>  -0.4100 
  6 N        0.9520     4.4560     1.2580 N.2   1 <1>  -0.5650 
  7 O        1.5210     3.7780    -0.7320 O.3   1 <1>  -0.0190 
  8 C        1.1800     4.7700     0.0480 C.2   1 <1>   0.2980 
  9 C        1.0930     6.1680    -0.5580 C.3   1 <1>   0.2900 
 10 N        2.3530     6.9500    -0.4130 N.3   1 <1>  -0.8100 
 11 C        2.1550     8.3540    -0.7530 C.3   1 <1>   0.1100 
 12 C        3.4730     6.3650    -1.1510 C.3   1 <1>   0.1100 
 13 C        3.3780     9.1380    -0.2810 C.3   1 <1>  -0.1600 
 14 C        4.7570     7.0570    -0.7030 C.3   1 <1>  -0.1600 
 15 C        4.6830     8.5820    -0.8780 C.3   1 <1>   0.4230 
 16 N        5.8650     9.2240    -0.2200 N.4   1 <1>  -0.9590 
 17 C        5.8370    10.7190    -0.2690 C.3   1 <1>   0.4860 
 18 C        7.1880     8.7560    -0.7460 C.3   1 <1>   0.3430 
 19 C        7.0180    11.3090     0.4840 C.ar  1 <1>  -0.1430 
 20 C        8.3120     9.1480     0.2150 C.3   1 <1>  -0.0170 
 21 C        8.1820    10.5810     0.7020 C.ar  1 <1>  -0.1430 
 22 C        6.9290    12.6120     0.9540 C.ar  1 <1>  -0.1500 
 23 C        9.2400    11.1600     1.3840 C.ar  1 <1>  -0.1500 
 24 C        7.9880    13.1850     1.6340 C.ar  1 <1>  -0.1500 
 25 C        9.1450    12.4590     1.8490 C.ar  1 <1>  -0.1500 
 26 H        0.7240     2.2440     4.4680 H     1 <1>   0.3700 
 27 H        0.6400     3.8450     3.7560 H     1 <1>   0.3700 
 28 H        0.3020     6.6860    -0.0460 H     1 <1>   0.0800 
 29 H        0.8230     6.0910    -1.5970 H     1 <1>   0.0800 
 30 H        1.2810     8.7330    -0.2470 H     1 <1>   0.0800 
 31 H        2.0100     8.4650    -1.8160 H     1 <1>   0.0800 
 32 H        3.3220     6.4770    -2.2120 H     1 <1>   0.0800 
 33 H        3.5610     5.3140    -0.9300 H     1 <1>   0.0800 
 34 H        3.4090     9.0840     0.7930 H     1 <1>   0.0800 
 35 H        3.2310    10.1610    -0.5740 H     1 <1>   0.0800 
 36 H        5.5570     6.6440    -1.2870 H     1 <1>   0.0800 
 37 H        4.9200     6.8090     0.3320 H     1 <1>   0.0800 
 38 H        4.6920     8.8020    -1.9330 H     1 <1>   0.0800 
 39 H        5.8320     8.9800     0.7780 H     1 <1>   0.4500 
 40 H        4.9310    11.0870     0.1820 H     1 <1>   0.0800 
 41 H        5.8680    11.0540    -1.2920 H     1 <1>   0.0800 
 42 H        7.3700     9.2040    -1.7100 H     1 <1>   0.0800 
 43 H        7.2010     7.6870    -0.8640 H     1 <1>   0.0800 
 44 H        9.2570     9.0180    -0.2840 H     1 <1>   0.0800 
 45 H        8.3000     8.4860     1.0630 H     1 <1>   0.0800 
 46 H        6.0400    13.1990     0.7970 H     1 <1>   0.1500 
 47 H       10.1470    10.6070     1.5620 H     1 <1>   0.1500 
 48 H        7.9170    14.1970     1.9970 H     1 <1>   0.1500 
 49 H        9.9700    12.9050     2.3780 H     1 <1>   0.1500 
@<TRIPOS>BOND
  1   1   2  2   
  2   2   3  am  
  3   2   4  1   
  4   3  26  1   
  5   3  27  1   
  6   4   5  2   
  7   4   6  1   
  8   5   7  1   
  9   6   8  2   
 10   7   8  1   
 11   8   9  1   
 12   9  10  1   
 13   9  28  1   
 14   9  29  1   
 15  10  11  1   
 16  10  12  1   
 17  11  13  1   
 18  11  30  1   
 19  11  31  1   
 20  12  14  1   
 21  12  32  1   
 22  12  33  1   
 23  13  15  1   
 24  13  34  1   
 25  13  35  1   
 26  14  15  1   
 27  14  36  1   
 28  14  37  1   
 29  15  16  1   
 30  15  38  1   
 31  16  17  1   
 32  16  18  1   
 33  16  39  1   
 34  17  19  1   
 35  17  40  1   
 36  17  41  1   
 37  18  20  1   
 38  18  42  1   
 39  18  43  1   
 40  19  21  ar  
 41  19  22  ar  
 42  20  21  1   
 43  20  44  1   
 44  20  45  1   
 45  21  23  ar  
 46  22  24  ar  
 47  22  46  1   
 48  23  25  ar  
 49  23  47  1   
 50  24  25  ar  
 51  24  48  1   
 52  25  49  1   
@<TRIPOS>SUBSTRUCTURE
  1 ****  14 GROUP 4 **** **** 0

# MOE 2024.06 (io_trps.svl 2023.06)
