@<TRIPOS>MOLECULE
NONAME
33 34 1 0 0 
SMALL
USER_CHARGES


@<TRIPOS>ATOM
  1 O        1.1060     2.7330     0.2420 O.2   1 <1>  -0.5700 
  2 C       -0.0540     2.3990     0.1960 C.2   1 <1>   0.5690 
  3 N       -0.9140     2.7200    -0.7920 N.am  1 <1>  -0.6600 
  4 C       -0.7430     1.6090     1.2720 C.3   1 <1>  -0.0990 
  5 C       -2.2940     2.2860    -0.5200 C.3   1 <1>   0.1400 
  6 C       -0.5820     3.5250    -2.0130 C.3   1 <1>   0.2010 
  7 C       -2.2350     1.7420     0.9160 C.3   1 <1>  -0.1600 
  8 C       -0.3520     5.0070    -1.7220 C.2   1 <1>   0.5690 
  9 O       -1.0020     5.8230    -2.3370 O.2   1 <1>  -0.5700 
 10 N        0.5850     5.3290    -0.7880 N.am  1 <1>  -0.4930 
 11 C        1.0040     6.5930    -0.3070 C.2   1 <1>   0.0630 
 12 C        1.9270     6.8270     0.7130 C.2   1 <1>   0.1080 
 13 C        0.6230     7.8230    -0.7040 C.2   1 <1>  -0.3020 
 14 N        2.1070     8.0930     0.9350 N.2   1 <1>  -0.7070 
 15 C        2.6500     5.7490     1.4900 C.3   1 <1>  -0.0590 
 16 N        1.2980     8.7090     0.0560 N.pl3 1 <1>   0.3140 
 17 C        1.2040    10.1690    -0.0240 C.3   1 <1>   0.0160 
 18 H       -0.5240     2.0160     2.2420 H     1 <1>   0.0800 
 19 H       -0.4190     0.5870     1.2170 H     1 <1>   0.0800 
 20 H       -2.5740     1.5120    -1.2150 H     1 <1>   0.0800 
 21 H       -2.9760     3.1160    -0.5970 H     1 <1>   0.0800 
 22 H       -1.3760     3.4310    -2.7310 H     1 <1>   0.0800 
 23 H        0.3130     3.1280    -2.4560 H     1 <1>   0.0800 
 24 H       -2.7030     2.4530     1.5760 H     1 <1>   0.0800 
 25 H       -2.7530     0.8030     1.0000 H     1 <1>   0.0800 
 26 H        1.0130     4.5190    -0.3170 H     1 <1>   0.3700 
 27 H       -0.0780     8.0990    -1.4690 H     1 <1>   0.1500 
 28 H        3.2310     5.1440     0.8200 H     1 <1>   0.0800 
 29 H        1.9380     5.1280     2.0010 H     1 <1>   0.0800 
 30 H        3.3060     6.1970     2.2140 H     1 <1>   0.0800 
 31 H        0.1710    10.4560    -0.0580 H     1 <1>   0.0800 
 32 H        1.7100    10.5040    -0.9090 H     1 <1>   0.0800 
 33 H        1.6710    10.5980     0.8440 H     1 <1>   0.0800 
@<TRIPOS>BOND
  1   1   2  2   
  2   2   3  am  
  3   2   4  1   
  4   3   5  1   
  5   3   6  1   
  6   4   7  1   
  7   4  18  1   
  8   4  19  1   
  9   5   7  1   
 10   5  20  1   
 11   5  21  1   
 12   6   8  1   
 13   6  22  1   
 14   6  23  1   
 15   7  24  1   
 16   7  25  1   
 17   8   9  2   
 18   8  10  am  
 19  10  11  1   
 20  10  26  1   
 21  11  12  1   
 22  11  13  2   
 23  12  14  2   
 24  12  15  1   
 25  13  16  1   
 26  13  27  1   
 27  14  16  1   
 28  15  28  1   
 29  15  29  1   
 30  15  30  1   
 31  16  17  1   
 32  17  31  1   
 33  17  32  1   
 34  17  33  1   
@<TRIPOS>SUBSTRUCTURE
  1 ****  10 GROUP 4 **** **** 0

# MOE 2024.06 (io_trps.svl 2023.06)
