@<TRIPOS>MOLECULE
NONAME
37 38 1 0 0 
SMALL
USER_CHARGES


@<TRIPOS>ATOM
  1 O       -1.7570    -1.7870     0.8280 O.co2 1 <1>  -0.9000 
  2 C       -2.1020    -0.6150     0.9670 C.2   1 <1>   0.9060 
  3 O       -2.2880    -0.0920     2.0760 O.co2 1 <1>  -0.9000 
  4 C       -2.2500     0.2590    -0.2970 C.3   1 <1>   0.3170 
  5 N       -2.1410     1.7760    -0.0840 N.4   1 <1>  -0.9590 
  6 C       -3.5850    -0.1060    -0.9870 C.3   1 <1>   0.1200 
  7 C       -3.3710     2.2520     0.6310 C.3   1 <1>   0.3430 
  8 C       -0.9200     2.1130     0.6870 C.3   1 <1>   0.5240 
  9 O       -4.3790     1.0320    -1.2250 O.3   1 <1>  -0.5600 
 10 C       -4.6630     1.7570    -0.0570 C.3   1 <1>   0.1200 
 11 C       -0.7820     3.6180     0.6980 C.2   1 <1>  -0.1810 
 12 C       -0.9770     4.4260     1.8100 C.2   1 <1>   0.1390 
 13 C       -0.4740     4.4760    -0.3010 C.2   1 <1>  -0.3020 
 14 N       -0.8200     5.6810     1.5310 N.2   1 <1>  -0.7070 
 15 N       -0.4970     5.7210     0.2200 N.pl3 1 <1>   0.3140 
 16 C       -0.2120     6.9880    -0.5150 C.3   1 <1>   0.1760 
 17 C        0.9780     7.7270     0.1150 C.3   1 <1>  -0.2400 
 18 C       -1.4570     7.8860    -0.5470 C.3   1 <1>  -0.2400 
 19 H       -1.4540    -0.0580    -0.9450 H     1 <1>   0.0800 
 20 H       -2.1230     2.2300    -1.0000 H     1 <1>   0.4500 
 21 H       -4.1520    -0.7990    -0.3870 H     1 <1>   0.0800 
 22 H       -3.3890    -0.5780    -1.9330 H     1 <1>   0.0800 
 23 H       -3.3640     1.8880     1.6470 H     1 <1>   0.0800 
 24 H       -3.3790     3.3290     0.6740 H     1 <1>   0.0800 
 25 H       -0.9960     1.7370     1.6960 H     1 <1>   0.0800 
 26 H       -0.0540     1.6720     0.2220 H     1 <1>   0.0800 
 27 H       -5.2820     2.5940    -0.3290 H     1 <1>   0.0800 
 28 H       -5.2210     1.1250     0.6130 H     1 <1>   0.0800 
 29 H       -1.2330     4.0720     2.7960 H     1 <1>   0.1500 
 30 H       -0.2410     4.2850    -1.3330 H     1 <1>   0.1500 
 31 H        0.0470     6.7270    -1.5250 H     1 <1>   0.0800 
 32 H        0.7470     8.0120     1.1270 H     1 <1>   0.0800 
 33 H        1.2040     8.6150    -0.4460 H     1 <1>   0.0800 
 34 H        1.8470     7.0950     0.1190 H     1 <1>   0.0800 
 35 H       -1.7380     8.1700     0.4530 H     1 <1>   0.0800 
 36 H       -2.2780     7.3690    -1.0090 H     1 <1>   0.0800 
 37 H       -1.2550     8.7790    -1.1110 H     1 <1>   0.0800 
@<TRIPOS>BOND
  1   1   2  ar  
  2   2   3  ar  
  3   2   4  1   
  4   4   5  1   
  5   4   6  1   
  6   4  19  1   
  7   5   7  1   
  8   5   8  1   
  9   5  20  1   
 10   6   9  1   
 11   6  21  1   
 12   6  22  1   
 13   7  10  1   
 14   7  23  1   
 15   7  24  1   
 16   8  11  1   
 17   8  25  1   
 18   8  26  1   
 19   9  10  1   
 20  10  27  1   
 21  10  28  1   
 22  11  12  1   
 23  11  13  2   
 24  12  14  2   
 25  12  29  1   
 26  13  15  1   
 27  13  30  1   
 28  14  15  1   
 29  15  16  1   
 30  16  17  1   
 31  16  18  1   
 32  16  31  1   
 33  17  32  1   
 34  17  33  1   
 35  17  34  1   
 36  18  35  1   
 37  18  36  1   
 38  18  37  1   
@<TRIPOS>SUBSTRUCTURE
  1 ****   8 GROUP 4 **** **** 0

# MOE 2024.06 (io_trps.svl 2023.06)
