@<TRIPOS>MOLECULE
NONAME
42 44 1 0 0 
SMALL
USER_CHARGES


@<TRIPOS>ATOM
  1 F        0.3620    -1.0790    -0.6500 F     1 <1>  -0.3400 
  2 C       -0.1930    -1.6890     0.3950 C.3   1 <1>   1.1640 
  3 F        0.4650    -1.2420     1.4610 F     1 <1>  -0.3400 
  4 F       -1.4250    -1.1950     0.4830 F     1 <1>  -0.3400 
  5 C       -0.1720    -3.2430     0.2790 C.ar  1 <1>   0.1660 
  6 N       -0.7320    -3.9730     1.2530 N.ar  1 <1>  -0.6200 
  7 C        0.4260    -3.8440    -0.8280 C.ar  1 <1>  -0.1500 
  8 C       -0.6920    -5.2880     1.1170 C.ar  1 <1>   0.1600 
  9 C        0.4480    -5.2160    -0.9530 C.ar  1 <1>  -0.1500 
 10 C       -0.1410    -5.9780     0.0430 C.ar  1 <1>   0.0860 
 11 C       -0.1820    -7.4230    -0.0200 C.2   1 <1>   0.5440 
 12 O        0.8230    -8.0380    -0.3160 O.2   1 <1>  -0.5700 
 13 N       -1.3390    -8.1220     0.2300 N.am  1 <1>  -0.6600 
 14 C       -2.7120    -7.5620     0.1130 C.3   1 <1>   0.1400 
 15 C       -1.3840    -9.6070     0.1890 C.3   1 <1>   0.1400 
 16 C       -3.5780    -8.7450    -0.3120 C.3   1 <1>   0.2000 
 17 C       -2.8680    -9.9740     0.2460 C.3   1 <1>  -0.0800 
 18 O       -4.8600    -8.6490     0.2030 O.3   1 <1>  -0.6800 
 19 C       -3.2090   -11.2680    -0.5090 C.3   1 <1>   0.0210 
 20 C       -2.4070   -12.4340     0.0320 C.2   1 <1>   0.1080 
 21 N       -2.5160   -12.8560     1.2530 N.2   1 <1>  -0.7070 
 22 C       -1.4720   -13.1640    -0.6950 C.2   1 <1>  -0.1500 
 23 N       -1.6460   -13.8800     1.3380 N.pl3 1 <1>   0.3000 
 24 C       -1.0000   -14.0850     0.1710 C.2   1 <1>  -0.3320 
 25 C        0.0450   -15.1620    -0.0480 C.3   1 <1>  -0.0600 
 26 H        0.8820    -3.2500    -1.6030 H     1 <1>   0.1500 
 27 H       -1.1260    -5.8690     1.9130 H     1 <1>   0.1500 
 28 H        0.9090    -5.7000    -1.7980 H     1 <1>   0.1500 
 29 H       -3.0270    -7.1910     1.0720 H     1 <1>   0.0800 
 30 H       -2.7490    -6.7790    -0.6240 H     1 <1>   0.0800 
 31 H       -0.9370    -9.9480    -0.7290 H     1 <1>   0.0800 
 32 H       -0.8450   -10.0300     1.0210 H     1 <1>   0.0800 
 33 H       -3.6440    -8.7790    -1.3860 H     1 <1>   0.0800 
 34 H       -3.1210   -10.0980     1.2850 H     1 <1>   0.0800 
 35 H       -4.8610    -8.8580     1.1580 H     1 <1>   0.4000 
 36 H       -3.0060   -11.1500    -1.5580 H     1 <1>   0.0800 
 37 H       -4.2550   -11.4870    -0.3920 H     1 <1>   0.0800 
 38 H       -1.2020   -13.0070    -1.7240 H     1 <1>   0.1500 
 39 H       -1.5170   -14.4180     2.2040 H     1 <1>   0.2700 
 40 H        0.4120   -15.1220    -1.0590 H     1 <1>   0.0800 
 41 H       -0.3810   -16.1350     0.1230 H     1 <1>   0.0800 
 42 H        0.8740   -15.0190     0.6220 H     1 <1>   0.0800 
@<TRIPOS>BOND
  1   1   2  1   
  2   2   3  1   
  3   2   4  1   
  4   2   5  1   
  5   5   6  ar  
  6   5   7  ar  
  7   6   8  ar  
  8   7   9  ar  
  9   7  26  1   
 10   8  10  ar  
 11   8  27  1   
 12   9  10  ar  
 13   9  28  1   
 14  10  11  1   
 15  11  12  2   
 16  11  13  am  
 17  13  14  1   
 18  13  15  1   
 19  14  16  1   
 20  14  29  1   
 21  14  30  1   
 22  15  17  1   
 23  15  31  1   
 24  15  32  1   
 25  16  17  1   
 26  16  18  1   
 27  16  33  1   
 28  17  19  1   
 29  17  34  1   
 30  18  35  1   
 31  19  20  1   
 32  19  36  1   
 33  19  37  1   
 34  20  21  2   
 35  20  22  1   
 36  21  23  1   
 37  22  24  2   
 38  22  38  1   
 39  23  24  1   
 40  23  39  1   
 41  24  25  1   
 42  25  40  1   
 43  25  41  1   
 44  25  42  1   
@<TRIPOS>SUBSTRUCTURE
  1 ****  13 GROUP 4 **** **** 0

# MOE 2024.06 (io_trps.svl 2023.06)
