@<TRIPOS>MOLECULE
NONAME
48 51 1 0 0 
SMALL
USER_CHARGES


@<TRIPOS>ATOM
  1 CL      -0.6940    -0.4610    -0.0060 Cl    1 <1>  -0.1770 
  2 C        0.8310    -1.3180    -0.0520 C.ar  1 <1>   0.1770 
  3 C        1.1400    -2.2800     0.9060 C.ar  1 <1>  -0.1440 
  4 C        1.7030    -1.0070    -1.0790 C.ar  1 <1>  -0.1500 
  5 C        2.3650    -2.9300     0.8150 C.ar  1 <1>  -0.1500 
  6 C        0.1960    -2.6530     2.0500 C.3   1 <1>   0.0450 
  7 C        2.9140    -1.6670    -1.1630 C.ar  1 <1>   0.0830 
  8 C        3.2490    -2.6270    -0.2060 C.ar  1 <1>   0.0830 
  9 C       -0.1640    -4.1310     2.0340 C.2   1 <1>   0.5690 
 10 O        3.7550    -1.3680    -2.1850 O.3   1 <1>  -0.3630 
 11 O        4.4400    -3.2760    -0.2530 O.3   1 <1>  -0.3630 
 12 O        0.2780    -4.8330     2.9130 O.2   1 <1>  -0.5700 
 13 N       -0.9620    -4.6510     1.0510 N.am  1 <1>  -0.6600 
 14 C        4.8320    -2.2580    -2.4150 C.3   1 <1>   0.1200 
 15 C        5.4410    -2.7150    -1.0820 C.3   1 <1>   0.1200 
 16 C       -1.5330    -3.9230    -0.1130 C.3   1 <1>   0.1400 
 17 C       -1.2100    -6.1070     0.9200 C.3   1 <1>   0.1400 
 18 C       -2.4830    -4.9280    -0.7600 C.3   1 <1>   0.2000 
 19 C       -1.8240    -6.2820    -0.4740 C.3   1 <1>  -0.0800 
 20 O       -3.7020    -4.8590    -0.1000 O.3   1 <1>  -0.6800 
 21 C       -2.7560    -7.5010    -0.5970 C.3   1 <1>   0.0200 
 22 C       -2.0230    -8.8240    -0.4480 C.2   1 <1>  -0.0400 
 23 O       -2.7230    -9.9260    -0.3920 O.3   1 <1>  -0.0190 
 24 C       -0.7260    -9.1620    -0.3560 C.2   1 <1>  -0.1500 
 25 N       -1.9680   -10.9790    -0.2640 N.2   1 <1>  -0.4100 
 26 C       -0.7590   -10.5480    -0.2380 C.2   1 <1>   0.1080 
 27 C        0.4580   -11.4350    -0.0990 C.3   1 <1>  -0.0590 
 28 H        1.4440    -0.2610    -1.8080 H     1 <1>   0.1500 
 29 H        2.6450    -3.6790     1.5380 H     1 <1>   0.1500 
 30 H       -0.7120    -2.0830     2.0320 H     1 <1>   0.0800 
 31 H        0.6850    -2.4330     2.9810 H     1 <1>   0.0800 
 32 H        4.4560    -3.1040    -2.9620 H     1 <1>   0.0800 
 33 H        5.5630    -1.7460    -3.0140 H     1 <1>   0.0800 
 34 H        5.8760    -1.8790    -0.5630 H     1 <1>   0.0800 
 35 H        6.1960    -3.4630    -1.2420 H     1 <1>   0.0800 
 36 H       -2.0470    -3.0240     0.1830 H     1 <1>   0.0800 
 37 H       -0.7390    -3.6790    -0.7980 H     1 <1>   0.0800 
 38 H       -0.2920    -6.6580     1.0280 H     1 <1>   0.0800 
 39 H       -1.8990    -6.4140     1.6890 H     1 <1>   0.0800 
 40 H       -2.6490    -4.7420    -1.8080 H     1 <1>   0.0800 
 41 H       -1.0160    -6.3990    -1.1750 H     1 <1>   0.0800 
 42 H       -3.5380    -4.8640     0.8640 H     1 <1>   0.4000 
 43 H       -3.2380    -7.4870    -1.5590 H     1 <1>   0.0800 
 44 H       -3.5260    -7.4530     0.1530 H     1 <1>   0.0800 
 45 H        0.1580    -8.5520    -0.3670 H     1 <1>   0.1500 
 46 H        1.0190   -11.1500     0.7720 H     1 <1>   0.0800 
 47 H        1.0800   -11.3400    -0.9700 H     1 <1>   0.0800 
 48 H        0.1540   -12.4610     0.0020 H     1 <1>   0.0800 
@<TRIPOS>BOND
  1   1   2  1   
  2   2   3  ar  
  3   2   4  ar  
  4   3   5  ar  
  5   3   6  1   
  6   4   7  ar  
  7   4  28  1   
  8   5   8  ar  
  9   5  29  1   
 10   6   9  1   
 11   6  30  1   
 12   6  31  1   
 13   7   8  ar  
 14   7  10  1   
 15   8  11  1   
 16   9  12  2   
 17   9  13  am  
 18  10  14  1   
 19  11  15  1   
 20  13  16  1   
 21  13  17  1   
 22  14  15  1   
 23  14  32  1   
 24  14  33  1   
 25  15  34  1   
 26  15  35  1   
 27  16  18  1   
 28  16  36  1   
 29  16  37  1   
 30  17  19  1   
 31  17  38  1   
 32  17  39  1   
 33  18  19  1   
 34  18  20  1   
 35  18  40  1   
 36  19  21  1   
 37  19  41  1   
 38  20  42  1   
 39  21  22  1   
 40  21  43  1   
 41  21  44  1   
 42  22  23  1   
 43  22  24  2   
 44  23  25  1   
 45  24  26  1   
 46  24  45  1   
 47  25  26  2   
 48  26  27  1   
 49  27  46  1   
 50  27  47  1   
 51  27  48  1   
@<TRIPOS>SUBSTRUCTURE
  1 ****  13 GROUP 4 **** **** 0

# MOE 2024.06 (io_trps.svl 2023.06)
