@<TRIPOS>MOLECULE
NONAME
51 52 1 0 0 
SMALL
USER_CHARGES


@<TRIPOS>ATOM
  1 O       -1.5740    -0.5570    -1.4630 O.2   1 <1>  -0.5700 
  2 C       -1.7360     0.1790    -0.5170 C.2   1 <1>   0.5690 
  3 N       -2.3910    -0.2740     0.6080 N.am  1 <1>  -0.6600 
  4 C       -1.1990     1.6260    -0.6020 C.3   1 <1>   0.2610 
  5 C       -2.5650    -1.7530     0.8110 C.3   1 <1>   0.3210 
  6 C       -2.8510     0.5860     1.7500 C.3   1 <1>   0.1400 
  7 O       -2.3010     2.5260    -0.6490 O.3   1 <1>  -0.3630 
  8 C       -0.3120     1.9150    -1.8230 C.3   1 <1>  -0.2400 
  9 C       -3.9930    -2.2270     0.5440 C.2   1 <1>   0.0460 
 10 C       -4.3390     1.0090     1.6900 C.3   1 <1>   0.3430 
 11 C       -2.2240     3.8220    -0.2610 C.ar  1 <1>   0.0820 
 12 N       -4.9760    -2.0470     1.4530 N.2   1 <1>  -0.5650 
 13 C       -4.4620    -2.8880    -0.5420 C.2   1 <1>  -0.3320 
 14 N       -4.7640     1.5960     0.3750 N.4   1 <1>  -0.9590 
 15 C       -1.3130     4.3020     0.6760 C.ar  1 <1>  -0.1500 
 16 C       -3.1370     4.6930    -0.8360 C.ar  1 <1>  -0.1500 
 17 C       -6.0020    -2.6290     0.9220 C.2   1 <1>   0.0360 
 18 N       -5.7570    -3.1580    -0.2940 N.pl3 1 <1>   0.0330 
 19 C       -3.7680    -3.3210    -1.8240 C.3   1 <1>  -0.0600 
 20 C       -5.8540     2.5950     0.5530 C.3   1 <1>   0.2630 
 21 C       -5.1720     0.5240    -0.5860 C.3   1 <1>   0.2630 
 22 C       -1.3300     5.6390     1.0320 C.ar  1 <1>  -0.1500 
 23 C       -3.1520     6.0290    -0.4770 C.ar  1 <1>  -0.1500 
 24 C       -2.2490     6.5010     0.4590 C.ar  1 <1>  -0.1500 
 25 H       -0.6320     1.7990     0.2900 H     1 <1>   0.0800 
 26 H       -2.3000    -2.0130     1.8200 H     1 <1>   0.0800 
 27 H       -1.8940    -2.2940     0.1670 H     1 <1>   0.0800 
 28 H       -2.2510     1.4750     1.8080 H     1 <1>   0.0800 
 29 H       -2.6930     0.0540     2.6730 H     1 <1>   0.0800 
 30 H       -0.8680     1.7640    -2.7310 H     1 <1>   0.0800 
 31 H        0.5290     1.2460    -1.8270 H     1 <1>   0.0800 
 32 H        0.0570     2.9250    -1.7920 H     1 <1>   0.0800 
 33 H       -4.4940     1.7390     2.4660 H     1 <1>   0.0800 
 34 H       -4.9650     0.1680     1.9300 H     1 <1>   0.0800 
 35 H       -3.9380     2.0740    -0.0320 H     1 <1>   0.4500 
 36 H       -0.5850     3.6680     1.1440 H     1 <1>   0.1500 
 37 H       -3.8270     4.3300    -1.5750 H     1 <1>   0.1500 
 38 H       -6.9700    -2.7030     1.3900 H     1 <1>   0.1500 
 39 H       -6.4110    -3.6810    -0.8860 H     1 <1>   0.2700 
 40 H       -2.7470    -2.9820    -1.8430 H     1 <1>   0.0800 
 41 H       -4.2710    -2.9080    -2.6790 H     1 <1>   0.0800 
 42 H       -3.7690    -4.3940    -1.9040 H     1 <1>   0.0800 
 43 H       -6.7220     2.1280     0.9880 H     1 <1>   0.0800 
 44 H       -6.1290     3.0180    -0.3990 H     1 <1>   0.0800 
 45 H       -5.5260     3.3930     1.1990 H     1 <1>   0.0800 
 46 H       -5.9590    -0.0780    -0.1620 H     1 <1>   0.0800 
 47 H       -4.3380    -0.1210    -0.8080 H     1 <1>   0.0800 
 48 H       -5.5180     0.9580    -1.5090 H     1 <1>   0.0800 
 49 H       -0.6260     6.0160     1.7550 H     1 <1>   0.1500 
 50 H       -3.8580     6.7050    -0.9290 H     1 <1>   0.1500 
 51 H       -2.2570     7.5420     0.7380 H     1 <1>   0.1500 
@<TRIPOS>BOND
  1   1   2  2   
  2   2   3  am  
  3   2   4  1   
  4   3   5  1   
  5   3   6  1   
  6   4   7  1   
  7   4   8  1   
  8   4  25  1   
  9   5   9  1   
 10   5  26  1   
 11   5  27  1   
 12   6  10  1   
 13   6  28  1   
 14   6  29  1   
 15   7  11  1   
 16   8  30  1   
 17   8  31  1   
 18   8  32  1   
 19   9  12  1   
 20   9  13  2   
 21  10  14  1   
 22  10  33  1   
 23  10  34  1   
 24  11  15  ar  
 25  11  16  ar  
 26  12  17  2   
 27  13  18  1   
 28  13  19  1   
 29  14  20  1   
 30  14  21  1   
 31  14  35  1   
 32  15  22  ar  
 33  15  36  1   
 34  16  23  ar  
 35  16  37  1   
 36  17  18  1   
 37  17  38  1   
 38  18  39  1   
 39  19  40  1   
 40  19  41  1   
 41  19  42  1   
 42  20  43  1   
 43  20  44  1   
 44  20  45  1   
 45  21  46  1   
 46  21  47  1   
 47  21  48  1   
 48  22  24  ar  
 49  22  49  1   
 50  23  24  ar  
 51  23  50  1   
 52  24  51  1   
@<TRIPOS>SUBSTRUCTURE
  1 ****   3 GROUP 4 **** **** 0

# MOE 2024.06 (io_trps.svl 2023.06)
