@<TRIPOS>MOLECULE
NONAME
52 53 1 0 0 
SMALL
USER_CHARGES


@<TRIPOS>ATOM
  1 O        0.4370     0.2680     0.2350 O.2   1 <1>  -0.5700 
  2 C        1.4770    -0.3630     0.2410 C.2   1 <1>   0.7160 
  3 N        2.6570     0.2830     0.5600 N.am  1 <1>  -0.6600 
  4 C        1.4520    -1.7690    -0.0690 C.2   1 <1>  -0.0860 
  5 C        3.8740    -0.4760     0.9940 C.3   1 <1>   0.1400 
  6 C        2.6600     1.7630     0.7610 C.3   1 <1>   0.1400 
  7 C        2.0760    -2.3810    -1.1570 C.2   1 <1>   0.1390 
  8 C        0.8530    -2.8120     0.5680 C.2   1 <1>  -0.3020 
  9 C        4.9330    -0.5590    -0.1160 C.3   1 <1>   0.1400 
 10 C        3.9820     2.4540     0.3960 C.3   1 <1>  -0.1600 
 11 N        1.9090    -3.6640    -1.1820 N.2   1 <1>  -0.7070 
 12 N        1.1380    -3.9320    -0.1130 N.pl3 1 <1>   0.3140 
 13 N        5.5980     0.7570    -0.3590 N.am  1 <1>  -0.6600 
 14 C        4.6950     1.8490    -0.8170 C.3   1 <1>   0.1400 
 15 C        0.6940    -5.3040     0.2060 C.3   1 <1>   0.0960 
 16 C        6.9580     0.9080    -0.1900 C.2   1 <1>   0.5690 
 17 C       -0.7320    -5.5540    -0.2990 C.3   1 <1>  -0.2400 
 18 O        7.6610    -0.0440     0.0700 O.2   1 <1>  -0.5700 
 19 C        7.6300     2.2980    -0.3200 C.3   1 <1>   0.2610 
 20 O        7.8460     2.6220    -1.6620 O.3   1 <1>  -0.6800 
 21 C        8.9750     2.4150     0.4270 C.3   1 <1>  -0.1600 
 22 C        9.6400     3.8060     0.3740 C.3   1 <1>  -0.0800 
 23 C       11.0030     3.7530     1.0730 C.3   1 <1>  -0.2400 
 24 C        8.7710     4.8880     1.0290 C.3   1 <1>  -0.2400 
 25 H        3.5960    -1.4760     1.2750 H     1 <1>   0.0800 
 26 H        4.3040    -0.0130     1.8650 H     1 <1>   0.0800 
 27 H        2.4110     1.9780     1.7860 H     1 <1>   0.0800 
 28 H        1.8860     2.1940     0.1480 H     1 <1>   0.0800 
 29 H        2.6350    -1.8460    -1.9060 H     1 <1>   0.1500 
 30 H        0.2460    -2.7940     1.4550 H     1 <1>   0.1500 
 31 H        4.4860    -0.9060    -1.0290 H     1 <1>   0.0800 
 32 H        5.6640    -1.2920     0.1770 H     1 <1>   0.0800 
 33 H        4.6400     2.4570     1.2470 H     1 <1>   0.0800 
 34 H        3.7540     3.4820     0.1780 H     1 <1>   0.0800 
 35 H        5.2600     2.6110    -1.3230 H     1 <1>   0.0800 
 36 H        3.9790     1.4640    -1.5240 H     1 <1>   0.0800 
 37 H        0.7430    -5.4390     1.2710 H     1 <1>   0.0800 
 38 H        1.3750    -5.9930    -0.2590 H     1 <1>   0.0800 
 39 H       -1.4220    -4.8750     0.1700 H     1 <1>   0.0800 
 40 H       -1.0300    -6.5610    -0.0690 H     1 <1>   0.0800 
 41 H       -0.7720    -5.4200    -1.3660 H     1 <1>   0.0800 
 42 H        6.9550     3.0310     0.0780 H     1 <1>   0.0800 
 43 H        8.4120     1.9330    -2.0630 H     1 <1>   0.4000 
 44 H        9.6520     1.6810     0.0260 H     1 <1>   0.0800 
 45 H        8.8070     2.1510     1.4570 H     1 <1>   0.0800 
 46 H        9.8060     4.0780    -0.6560 H     1 <1>   0.0800 
 47 H       10.8880     3.4920     2.1110 H     1 <1>   0.0800 
 48 H       11.4920     4.7090     1.0120 H     1 <1>   0.0800 
 49 H       11.6360     3.0210     0.6030 H     1 <1>   0.0800 
 50 H        8.5320     4.6220     2.0440 H     1 <1>   0.0800 
 51 H        7.8590     5.0300     0.4790 H     1 <1>   0.0800 
 52 H        9.2960     5.8270     1.0380 H     1 <1>   0.0800 
@<TRIPOS>BOND
  1   1   2  2   
  2   2   3  am  
  3   2   4  1   
  4   3   5  1   
  5   3   6  1   
  6   4   7  1   
  7   4   8  2   
  8   5   9  1   
  9   5  25  1   
 10   5  26  1   
 11   6  10  1   
 12   6  27  1   
 13   6  28  1   
 14   7  11  2   
 15   7  29  1   
 16   8  12  1   
 17   8  30  1   
 18   9  13  1   
 19   9  31  1   
 20   9  32  1   
 21  10  14  1   
 22  10  33  1   
 23  10  34  1   
 24  11  12  1   
 25  12  15  1   
 26  13  14  1   
 27  13  16  am  
 28  14  35  1   
 29  14  36  1   
 30  15  17  1   
 31  15  37  1   
 32  15  38  1   
 33  16  18  2   
 34  16  19  1   
 35  17  39  1   
 36  17  40  1   
 37  17  41  1   
 38  19  20  1   
 39  19  21  1   
 40  19  42  1   
 41  20  43  1   
 42  21  22  1   
 43  21  44  1   
 44  21  45  1   
 45  22  23  1   
 46  22  24  1   
 47  22  46  1   
 48  23  47  1   
 49  23  48  1   
 50  23  49  1   
 51  24  50  1   
 52  24  51  1   
 53  24  52  1   
@<TRIPOS>SUBSTRUCTURE
  1 ****   9 GROUP 4 **** **** 0

# MOE 2024.06 (io_trps.svl 2023.06)
