@<TRIPOS>MOLECULE
NONAME
45 46 1 0 0 
SMALL
USER_CHARGES


@<TRIPOS>ATOM
  1 S       -0.6370    -0.9020     0.1390 S.o2  1 <1>   1.3330 
  2 O       -2.0630    -1.0300     0.3170 O.2   1 <1>  -0.6500 
  3 O        0.0460     0.2720     0.6210 O.2   1 <1>  -0.6500 
  4 N        0.0880    -2.2880     0.8840 N.am  1 <1>  -0.6930 
  5 C       -0.2370    -1.1320    -1.5810 C.3   1 <1>  -0.1350 
  6 C        1.4600    -2.3750     1.1080 C.ar  1 <1>   0.1990 
  7 C       -0.7730    -3.5000     1.0680 C.3   1 <1>   0.2570 
  8 C        2.2330    -3.3310     0.4580 C.ar  1 <1>  -0.1500 
  9 C        2.0880    -1.5050     1.9980 C.ar  1 <1>  -0.1500 
 10 C       -1.3590    -4.0730    -0.2360 C.2   1 <1>   0.5690 
 11 C        3.5870    -3.3890     0.7150 C.ar  1 <1>   0.1900 
 12 C        3.4500    -1.5760     2.2430 C.ar  1 <1>  -0.1500 
 13 O       -0.5580    -4.5010    -1.0370 O.2   1 <1>  -0.5700 
 14 N       -2.7090    -4.1170    -0.5110 N.am  1 <1>  -0.6600 
 15 F        4.3050    -4.2910     0.1010 F     1 <1>  -0.1900 
 16 C        4.2160    -2.5310     1.5960 C.ar  1 <1>  -0.1500 
 17 C       -3.2130    -4.7460    -1.7750 C.3   1 <1>   0.1400 
 18 C       -3.7950    -3.4830     0.2940 C.3   1 <1>   0.1400 
 19 C       -4.3020    -5.7850    -1.4640 C.3   1 <1>   0.2000 
 20 C       -4.8560    -4.5280     0.6520 C.3   1 <1>  -0.1600 
 21 O       -4.8250    -6.2660    -2.6540 O.3   1 <1>  -0.6800 
 22 C       -5.4430    -5.2030    -0.6070 C.3   1 <1>  -0.0800 
 23 C       -6.4680    -6.2950    -0.2590 C.3   1 <1>   0.1200 
 24 O       -7.5050    -5.7480     0.4780 O.3   1 <1>  -0.6800 
 25 H       -0.6800    -2.0330    -1.9570 H     1 <1>   0.0800 
 26 H        0.8270    -1.1930    -1.7070 H     1 <1>   0.0800 
 27 H       -0.6030    -0.3050    -2.1560 H     1 <1>   0.0800 
 28 H       -0.1800    -4.2760     1.5160 H     1 <1>   0.0800 
 29 H       -1.5440    -3.2640     1.7710 H     1 <1>   0.0800 
 30 H        1.7940    -4.0180    -0.2400 H     1 <1>   0.1500 
 31 H        1.4960    -0.7610     2.5020 H     1 <1>   0.1500 
 32 H        3.9090    -0.8900     2.9340 H     1 <1>   0.1500 
 33 H        5.2740    -2.6100     1.7670 H     1 <1>   0.1500 
 34 H       -3.6160    -3.9720    -2.4040 H     1 <1>   0.0800 
 35 H       -2.4140    -5.2350    -2.3040 H     1 <1>   0.0800 
 36 H       -3.4230    -3.0330     1.1940 H     1 <1>   0.0800 
 37 H       -4.2420    -2.6950    -0.2900 H     1 <1>   0.0800 
 38 H       -3.8470    -6.6200    -0.9580 H     1 <1>   0.0800 
 39 H       -4.4170    -5.2660     1.2990 H     1 <1>   0.0800 
 40 H       -5.6390    -4.0320     1.1990 H     1 <1>   0.0800 
 41 H       -5.3220    -5.5670    -3.1220 H     1 <1>   0.4000 
 42 H       -5.9420    -4.4470    -1.1890 H     1 <1>   0.0800 
 43 H       -6.0190    -7.0860     0.3180 H     1 <1>   0.0800 
 44 H       -6.8950    -6.7170    -1.1540 H     1 <1>   0.0800 
 45 H       -7.1940    -5.4760     1.3630 H     1 <1>   0.4000 
@<TRIPOS>BOND
  1   1   2  2   
  2   1   3  2   
  3   1   4  am  
  4   1   5  1   
  5   4   6  1   
  6   4   7  1   
  7   5  25  1   
  8   5  26  1   
  9   5  27  1   
 10   6   8  ar  
 11   6   9  ar  
 12   7  10  1   
 13   7  28  1   
 14   7  29  1   
 15   8  11  ar  
 16   8  30  1   
 17   9  12  ar  
 18   9  31  1   
 19  10  13  2   
 20  10  14  am  
 21  11  15  1   
 22  11  16  ar  
 23  12  16  ar  
 24  12  32  1   
 25  14  17  1   
 26  14  18  1   
 27  16  33  1   
 28  17  19  1   
 29  17  34  1   
 30  17  35  1   
 31  18  20  1   
 32  18  36  1   
 33  18  37  1   
 34  19  21  1   
 35  19  22  1   
 36  19  38  1   
 37  20  22  1   
 38  20  39  1   
 39  20  40  1   
 40  21  41  1   
 41  22  23  1   
 42  22  42  1   
 43  23  24  1   
 44  23  43  1   
 45  23  44  1   
 46  24  45  1   
@<TRIPOS>SUBSTRUCTURE
  1 ****  10 GROUP 4 **** **** 0

# MOE 2024.06 (io_trps.svl 2023.06)
