@<TRIPOS>MOLECULE
NONAME
49 50 1 0 0 
SMALL
USER_CHARGES


@<TRIPOS>ATOM
  1 F       -1.2130     2.1300    -2.2710 F     1 <1>  -0.3400 
  2 C       -2.1840     3.0320    -2.2290 C.3   1 <1>   1.2000 
  3 F       -1.7030     4.1220    -2.8090 F     1 <1>  -0.3400 
  4 F       -3.1550     2.5830    -3.0100 F     1 <1>  -0.3400 
  5 C       -2.6460     3.3000    -0.8120 C.2   1 <1>  -0.3320 
  6 N       -1.8310     3.7570     0.1620 N.pl3 1 <1>   0.3140 
  7 C       -3.8720     3.1470    -0.2580 C.2   1 <1>  -0.1500 
  8 N       -2.4970     3.8930     1.3220 N.2   1 <1>  -0.7070 
  9 C       -0.3850     4.0890     0.1260 C.3   1 <1>   0.0960 
 10 C       -3.7120     3.5300     1.0660 C.2   1 <1>   0.1080 
 11 C       -0.0860     5.5520    -0.2840 C.3   1 <1>  -0.0800 
 12 C       -4.8000     3.5340     2.1140 C.3   1 <1>  -0.0590 
 13 C        1.3980     5.8340     0.0060 C.3   1 <1>   0.2090 
 14 C       -1.0150     6.5730     0.4120 C.3   1 <1>  -0.2400 
 15 N        1.7930     7.1890    -0.4570 N.pl3 1 <1>  -0.8690 
 16 C        1.9320     8.3560     0.1810 C.ar  1 <1>   0.7710 
 17 N        2.4010     9.3530    -0.5320 N.ar  1 <1>  -0.6200 
 18 N        1.5920     8.4740     1.4730 N.ar  1 <1>  -0.1790 
 19 C        2.5660    10.5170     0.0690 C.ar  1 <1>   0.4100 
 20 C        1.7090     9.6590     2.1160 C.ar  1 <1>   0.2110 
 21 N        3.1040    11.5080    -0.6860 N.pl3 1 <1>  -0.8380 
 22 C        2.1980    10.7190     1.4250 C.ar  1 <1>  -0.1430 
 23 C        4.3610    12.2130    -0.3110 C.3   1 <1>   0.1290 
 24 C        2.7130    11.6940    -2.1140 C.3   1 <1>   0.1290 
 25 C        2.3000    12.0900     2.0930 C.3   1 <1>  -0.0970 
 26 H       -4.7860     2.8040    -0.7120 H     1 <1>   0.1500 
 27 H        0.1150     3.4060    -0.5350 H     1 <1>   0.0800 
 28 H       -0.0070     3.9120     1.1170 H     1 <1>   0.0800 
 29 H       -0.2320     5.6350    -1.3470 H     1 <1>   0.0800 
 30 H       -5.7240     3.1780     1.6990 H     1 <1>   0.0800 
 31 H       -4.9410     4.5330     2.4830 H     1 <1>   0.0800 
 32 H       -4.5130     2.8990     2.9310 H     1 <1>   0.0800 
 33 H        2.0080     5.1080    -0.5090 H     1 <1>   0.0800 
 34 H        1.5940     5.7280     1.0600 H     1 <1>   0.0800 
 35 H       -0.9420     6.4970     1.4820 H     1 <1>   0.0800 
 36 H       -2.0410     6.3900     0.1400 H     1 <1>   0.0800 
 37 H       -0.7960     7.5780     0.1010 H     1 <1>   0.0800 
 38 H        2.0400     7.2410    -1.4530 H     1 <1>   0.4000 
 39 H        1.2070     7.6450     1.9100 H     1 <1>   0.4570 
 40 H        1.4020     9.7240     3.1480 H     1 <1>   0.1500 
 41 H        4.7780    11.7900     0.5860 H     1 <1>   0.0800 
 42 H        4.1610    13.2590    -0.1530 H     1 <1>   0.0800 
 43 H        5.0880    12.1110    -1.0990 H     1 <1>   0.0800 
 44 H        1.7560    11.2400    -2.3020 H     1 <1>   0.0800 
 45 H        3.4460    11.2370    -2.7560 H     1 <1>   0.0800 
 46 H        2.6460    12.7440    -2.3420 H     1 <1>   0.0800 
 47 H        1.9270    12.8520     1.4300 H     1 <1>   0.0800 
 48 H        3.3230    12.3170     2.3340 H     1 <1>   0.0800 
 49 H        1.7240    12.1290     3.0000 H     1 <1>   0.0800 
@<TRIPOS>BOND
  1   1   2  1   
  2   2   3  1   
  3   2   4  1   
  4   2   5  1   
  5   5   6  1   
  6   5   7  2   
  7   6   8  1   
  8   6   9  1   
  9   7  10  1   
 10   7  26  1   
 11   8  10  2   
 12   9  11  1   
 13   9  27  1   
 14   9  28  1   
 15  10  12  1   
 16  11  13  1   
 17  11  14  1   
 18  11  29  1   
 19  12  30  1   
 20  12  31  1   
 21  12  32  1   
 22  13  15  1   
 23  13  33  1   
 24  13  34  1   
 25  14  35  1   
 26  14  36  1   
 27  14  37  1   
 28  15  16  1   
 29  15  38  1   
 30  16  17  ar  
 31  16  18  ar  
 32  17  19  ar  
 33  18  20  ar  
 34  18  39  1   
 35  19  21  1   
 36  19  22  ar  
 37  20  22  ar  
 38  20  40  1   
 39  21  23  1   
 40  21  24  1   
 41  22  25  1   
 42  23  41  1   
 43  23  42  1   
 44  23  43  1   
 45  24  44  1   
 46  24  45  1   
 47  24  46  1   
 48  25  47  1   
 49  25  48  1   
 50  25  49  1   
@<TRIPOS>SUBSTRUCTURE
  1 ****  14 GROUP 4 **** **** 0

# MOE 2024.06 (io_trps.svl 2023.06)
