@<TRIPOS>MOLECULE
NONAME
51 54 1 0 0 
SMALL
USER_CHARGES


@<TRIPOS>ATOM
  1 O       -1.0660     0.0960     2.0660 O.2   1 <1>  -0.5700 
  2 C       -1.6720     0.5670     1.1300 C.2   1 <1>   0.5690 
  3 N       -2.6660    -0.1730     0.5320 N.am  1 <1>  -0.6600 
  4 C       -1.3000     2.0050     0.6750 C.3   1 <1>   0.0610 
  5 C       -3.7310     0.2850    -0.3930 C.3   1 <1>   0.1400 
  6 C       -2.9170    -1.5870     0.9230 C.3   1 <1>   0.1400 
  7 C        0.1680     2.3390     1.0070 C.3   1 <1>  -0.1600 
  8 C       -1.3160     2.2200    -0.8520 C.3   1 <1>  -0.1600 
  9 C       -2.2170     3.0340     1.3730 C.3   1 <1>  -0.2400 
 10 C       -4.8860    -0.6840    -0.1500 C.3   1 <1>   0.2000 
 11 C       -4.2040    -2.0090     0.1930 C.3   1 <1>  -0.0800 
 12 C        0.5920     3.4630     0.0610 C.3   1 <1>  -0.1600 
 13 C       -0.3230     3.3470    -1.1590 C.3   1 <1>  -0.1600 
 14 O       -5.5810    -0.2580     0.9690 O.3   1 <1>  -0.6800 
 15 C       -3.9070    -2.8190    -1.0840 C.3   1 <1>  -0.0170 
 16 C       -3.3040    -4.1780    -0.7680 C.ar  1 <1>   0.1670 
 17 N       -2.0230    -4.3150    -0.9160 N.ar  1 <1>  -0.6200 
 18 C       -4.1520    -5.2110    -0.3360 C.ar  1 <1>  -0.1500 
 19 C       -1.4780    -5.5240    -0.6280 C.ar  1 <1>   0.3100 
 20 C       -3.6330    -6.4350    -0.0430 C.ar  1 <1>  -0.1500 
 21 C       -2.2480    -6.6220    -0.1860 C.ar  1 <1>   0.0000 
 22 C       -0.0920    -5.6950    -0.7710 C.ar  1 <1>  -0.1500 
 23 C       -1.6040    -7.8450     0.0890 C.ar  1 <1>  -0.1500 
 24 C        0.5160    -6.8920    -0.4980 C.ar  1 <1>  -0.1500 
 25 C       -0.2500    -7.9790    -0.0630 C.ar  1 <1>  -0.1500 
 26 H       -4.0330     1.2990    -0.2070 H     1 <1>   0.0800 
 27 H       -3.3800     0.1890    -1.4050 H     1 <1>   0.0800 
 28 H       -2.0720    -2.2000     0.6600 H     1 <1>   0.0800 
 29 H       -3.0590    -1.6370     1.9890 H     1 <1>   0.0800 
 30 H        0.3030     2.6040     2.0420 H     1 <1>   0.0800 
 31 H        0.7780     1.4750     0.8020 H     1 <1>   0.0800 
 32 H       -0.9720     1.3200    -1.3330 H     1 <1>   0.0800 
 33 H       -2.2920     2.4640    -1.2270 H     1 <1>   0.0800 
 34 H       -1.9610     4.0400     1.0970 H     1 <1>   0.0800 
 35 H       -2.1200     2.9400     2.4410 H     1 <1>   0.0800 
 36 H       -3.2460     2.8670     1.1180 H     1 <1>   0.0800 
 37 H       -5.5750    -0.7430    -0.9760 H     1 <1>   0.0800 
 38 H       -4.8280    -2.6040     0.8370 H     1 <1>   0.0800 
 39 H        0.4430     4.4170     0.5380 H     1 <1>   0.0800 
 40 H        1.6290     3.3680    -0.2100 H     1 <1>   0.0800 
 41 H        0.2420     3.1220    -2.0480 H     1 <1>   0.0800 
 42 H       -0.8480     4.2750    -1.3070 H     1 <1>   0.0800 
 43 H       -4.9390    -0.1030     1.6920 H     1 <1>   0.4000 
 44 H       -3.2290    -2.2740    -1.7190 H     1 <1>   0.0800 
 45 H       -4.8160    -2.9710    -1.6370 H     1 <1>   0.0800 
 46 H       -5.2050    -5.0210    -0.2400 H     1 <1>   0.1500 
 47 H       -4.2500    -7.2500     0.2910 H     1 <1>   0.1500 
 48 H        0.4780    -4.8480    -1.1050 H     1 <1>   0.1500 
 49 H       -2.1980    -8.6760     0.4240 H     1 <1>   0.1500 
 50 H        1.5800    -7.0100    -0.6120 H     1 <1>   0.1500 
 51 H        0.2400    -8.9140     0.1480 H     1 <1>   0.1500 
@<TRIPOS>BOND
  1   1   2  2   
  2   2   3  am  
  3   2   4  1   
  4   3   5  1   
  5   3   6  1   
  6   4   7  1   
  7   4   8  1   
  8   4   9  1   
  9   5  10  1   
 10   5  26  1   
 11   5  27  1   
 12   6  11  1   
 13   6  28  1   
 14   6  29  1   
 15   7  12  1   
 16   7  30  1   
 17   7  31  1   
 18   8  13  1   
 19   8  32  1   
 20   8  33  1   
 21   9  34  1   
 22   9  35  1   
 23   9  36  1   
 24  10  11  1   
 25  10  14  1   
 26  10  37  1   
 27  11  15  1   
 28  11  38  1   
 29  12  13  1   
 30  12  39  1   
 31  12  40  1   
 32  13  41  1   
 33  13  42  1   
 34  14  43  1   
 35  15  16  1   
 36  15  44  1   
 37  15  45  1   
 38  16  17  ar  
 39  16  18  ar  
 40  17  19  ar  
 41  18  20  ar  
 42  18  46  1   
 43  19  21  ar  
 44  19  22  ar  
 45  20  21  ar  
 46  20  47  1   
 47  21  23  ar  
 48  22  24  ar  
 49  22  48  1   
 50  23  25  ar  
 51  23  49  1   
 52  24  25  ar  
 53  24  50  1   
 54  25  51  1   
@<TRIPOS>SUBSTRUCTURE
  1 ****   6 GROUP 4 **** **** 0

# MOE 2024.06 (io_trps.svl 2023.06)
