@<TRIPOS>MOLECULE
NONAME
51 54 1 0 0 
SMALL
USER_CHARGES


@<TRIPOS>ATOM
  1 O        1.1270     0.3390    -0.6220 O.2   1 <1>  -0.5700 
  2 C        1.7630    -0.5140    -0.0300 C.2   1 <1>   0.5440 
  3 N        2.8070    -0.1190     0.7840 N.am  1 <1>  -0.6600 
  4 C        1.4130    -1.9100    -0.2150 C.ar  1 <1>   0.0860 
  5 C        3.9270    -1.0250     1.1860 C.3   1 <1>   0.1400 
  6 C        3.0230     1.3100     1.1370 C.3   1 <1>   0.1400 
  7 C        1.2890    -2.4520    -1.4930 C.ar  1 <1>  -0.1500 
  8 C        1.1830    -2.7570     0.8700 C.ar  1 <1>  -0.1500 
  9 C        5.2510    -0.5480     0.5760 C.3   1 <1>   0.2000 
 10 C        4.2930     1.8090     0.4470 C.3   1 <1>  -0.1600 
 11 C        0.9670    -3.7830    -1.6840 C.ar  1 <1>  -0.1500 
 12 C        0.8620    -4.0900     0.6870 C.ar  1 <1>  -0.1500 
 13 O        6.2730    -1.3050     1.1360 O.3   1 <1>  -0.6800 
 14 C        5.5060     0.9550     0.8330 C.3   1 <1>   0.2200 
 15 C        0.7550    -4.6060    -0.5920 C.ar  1 <1>  -0.1500 
 16 N        6.6710     1.4500     0.0630 N.am  1 <1>  -0.7300 
 17 C        7.9950     1.2760     0.3390 C.2   1 <1>   0.7160 
 18 O        8.2890     0.5290     1.2580 O.2   1 <1>  -0.5700 
 19 C        8.9800     1.9700    -0.4800 C.2   1 <1>   0.2030 
 20 N        8.6730     2.7910    -1.4740 N.2   1 <1>  -0.7070 
 21 C       10.3760     1.8830    -0.3500 C.2   1 <1>  -0.1810 
 22 N        9.8490     3.2220    -1.9600 N.pl3 1 <1>   0.3000 
 23 C       10.8880     2.6900    -1.2920 C.2   1 <1>  -0.3320 
 24 C       11.2270     1.0830     0.6220 C.3   1 <1>   0.0210 
 25 C       12.3640     2.9350    -1.5430 C.3   1 <1>   0.0200 
 26 C       12.6920     1.0420     0.1440 C.3   1 <1>  -0.1600 
 27 C       13.1820     2.4200    -0.3440 C.3   1 <1>  -0.1600 
 28 H        4.0060    -1.0220     2.2590 H     1 <1>   0.0800 
 29 H        3.7460    -2.0320     0.8570 H     1 <1>   0.0800 
 30 H        2.1820     1.9100     0.8320 H     1 <1>   0.0800 
 31 H        3.1200     1.3980     2.2060 H     1 <1>   0.0800 
 32 H        1.4460    -1.8100    -2.3440 H     1 <1>   0.1500 
 33 H        1.2560    -2.3590     1.8670 H     1 <1>   0.1500 
 34 H        5.2420    -0.7380    -0.4840 H     1 <1>   0.0800 
 35 H        4.4660     2.8310     0.7340 H     1 <1>   0.0800 
 36 H        4.1350     1.7740    -0.6170 H     1 <1>   0.0800 
 37 H        0.8800    -4.1790    -2.6810 H     1 <1>   0.1500 
 38 H        0.6920    -4.7270     1.5380 H     1 <1>   0.1500 
 39 H        7.1070    -0.7660     1.1520 H     1 <1>   0.4000 
 40 H        5.6960     1.0910     1.8850 H     1 <1>   0.0800 
 41 H        0.5050    -5.6430    -0.7380 H     1 <1>   0.1500 
 42 H        6.4810     2.0650    -0.7350 H     1 <1>   0.3700 
 43 H        9.9160     3.8790    -2.7470 H     1 <1>   0.2700 
 44 H       11.1710     1.5470     1.5910 H     1 <1>   0.0800 
 45 H       10.8490     0.0790     0.7070 H     1 <1>   0.0800 
 46 H       12.6590     2.4100    -2.4350 H     1 <1>   0.0800 
 47 H       12.5530     3.9850    -1.6840 H     1 <1>   0.0800 
 48 H       13.3180     0.6920     0.9460 H     1 <1>   0.0800 
 49 H       12.7710     0.3380    -0.6670 H     1 <1>   0.0800 
 50 H       14.2210     2.3630    -0.6180 H     1 <1>   0.0800 
 51 H       13.0920     3.1240     0.4650 H     1 <1>   0.0800 
@<TRIPOS>BOND
  1   1   2  2   
  2   2   3  am  
  3   2   4  1   
  4   3   5  1   
  5   3   6  1   
  6   4   7  ar  
  7   4   8  ar  
  8   5   9  1   
  9   5  28  1   
 10   5  29  1   
 11   6  10  1   
 12   6  30  1   
 13   6  31  1   
 14   7  11  ar  
 15   7  32  1   
 16   8  12  ar  
 17   8  33  1   
 18   9  13  1   
 19   9  14  1   
 20   9  34  1   
 21  10  14  1   
 22  10  35  1   
 23  10  36  1   
 24  11  15  ar  
 25  11  37  1   
 26  12  15  ar  
 27  12  38  1   
 28  13  39  1   
 29  14  16  1   
 30  14  40  1   
 31  15  41  1   
 32  16  17  am  
 33  16  42  1   
 34  17  18  2   
 35  17  19  1   
 36  19  20  2   
 37  19  21  1   
 38  20  22  1   
 39  21  23  2   
 40  21  24  1   
 41  22  23  1   
 42  22  43  1   
 43  23  25  1   
 44  24  26  1   
 45  24  44  1   
 46  24  45  1   
 47  25  27  1   
 48  25  46  1   
 49  25  47  1   
 50  26  27  1   
 51  26  48  1   
 52  26  49  1   
 53  27  50  1   
 54  27  51  1   
@<TRIPOS>SUBSTRUCTURE
  1 ****   9 GROUP 4 **** **** 0

# MOE 2024.06 (io_trps.svl 2023.06)
