@<TRIPOS>MOLECULE
NONAME
61 64 1 0 0 
SMALL
USER_CHARGES


@<TRIPOS>ATOM
  1 O       -3.2170     2.4150     1.9530 O.2   1 <1>  -0.5700 
  2 C       -3.1720     1.9840     0.8230 C.2   1 <1>   0.5690 
  3 N       -4.1510     1.1320     0.3600 N.am  1 <1>  -0.6600 
  4 C       -1.9670     2.4390    -0.0290 C.3   1 <1>   0.0610 
  5 C       -4.2670     0.5310    -1.0010 C.3   1 <1>   0.1400 
  6 C       -5.3050     0.7510     1.2320 C.3   1 <1>   0.1400 
  7 C       -0.9730     3.1780     0.8780 C.3   1 <1>   0.3430 
  8 C       -1.1120     1.2760    -0.5800 C.3   1 <1>  -0.1600 
  9 C       -2.3960     3.4070    -1.1590 C.3   1 <1>  -0.2400 
 10 C       -4.2870    -0.9940    -0.8830 C.3   1 <1>  -0.1600 
 11 C       -5.3460    -0.7710     1.3870 C.3   1 <1>  -0.1600 
 12 N        0.3670     2.9590     0.2710 N.4   1 <1>  -0.9590 
 13 C        0.3410     1.5550    -0.2030 C.3   1 <1>   0.3430 
 14 C       -5.4250    -1.4810     0.0250 C.3   1 <1>   0.4240 
 15 C        1.4830     3.2440     1.2230 C.3   1 <1>   0.2630 
 16 O       -6.6070    -1.0670    -0.6170 O.3   1 <1>  -0.5600 
 17 C       -5.3620    -3.0150     0.1820 C.ar  1 <1>  -0.1440 
 18 C       -7.7830    -1.7450    -0.2980 C.3   1 <1>   0.1200 
 19 C       -6.4200    -3.8240    -0.2090 C.ar  1 <1>  -0.1440 
 20 C       -4.2380    -3.6220     0.7270 C.ar  1 <1>  -0.1500 
 21 C       -7.6700    -3.1870    -0.7840 C.3   1 <1>  -0.0170 
 22 C       -6.3400    -5.2010    -0.0780 C.ar  1 <1>  -0.1500 
 23 C       -4.1430    -4.9950     0.8760 C.ar  1 <1>   0.0820 
 24 C       -5.2060    -5.8090     0.4530 C.ar  1 <1>   0.0820 
 25 O       -2.9740    -5.4200     1.4370 O.3   1 <1>  -0.3630 
 26 O       -5.1130    -7.1690     0.5510 O.3   1 <1>  -0.3620 
 27 C       -2.8900    -6.6310     2.1550 C.3   1 <1>   0.0400 
 28 C       -6.0210    -8.0300    -0.1000 C.3   1 <1>   0.0400 
 29 H       -3.4580     0.8220    -1.6400 H     1 <1>   0.0800 
 30 H       -5.1820     0.8720    -1.4570 H     1 <1>   0.0800 
 31 H       -6.2180     1.0990     0.7800 H     1 <1>   0.0800 
 32 H       -5.2270     1.2060     2.2050 H     1 <1>   0.0800 
 33 H       -0.9940     2.7390     1.8630 H     1 <1>   0.0800 
 34 H       -1.2170     4.2250     0.9600 H     1 <1>   0.0800 
 35 H       -1.2010     1.1860    -1.6480 H     1 <1>   0.0800 
 36 H       -1.4040     0.3370    -0.1410 H     1 <1>   0.0800 
 37 H       -2.9040     4.2590    -0.7390 H     1 <1>   0.0800 
 38 H       -3.0750     2.9370    -1.8450 H     1 <1>   0.0800 
 39 H       -1.5500     3.7610    -1.7200 H     1 <1>   0.0800 
 40 H       -3.3410    -1.3210    -0.4980 H     1 <1>   0.0800 
 41 H       -4.4100    -1.4350    -1.8560 H     1 <1>   0.0800 
 42 H       -6.1800    -1.0550     2.0000 H     1 <1>   0.0800 
 43 H       -4.4580    -1.0780     1.9070 H     1 <1>   0.0800 
 44 H        0.4430     3.5760    -0.5500 H     1 <1>   0.4500 
 45 H        1.0050     1.4100    -1.0410 H     1 <1>   0.0800 
 46 H        0.6330     0.8940     0.5980 H     1 <1>   0.0800 
 47 H        1.4060     2.6090     2.0910 H     1 <1>   0.0800 
 48 H        1.4460     4.2720     1.5440 H     1 <1>   0.0800 
 49 H        2.4350     3.0670     0.7480 H     1 <1>   0.0800 
 50 H       -8.5970    -1.2440    -0.7920 H     1 <1>   0.0800 
 51 H       -7.9390    -1.7050     0.7660 H     1 <1>   0.0800 
 52 H       -3.4030    -3.0310     1.0550 H     1 <1>   0.1500 
 53 H       -7.6230    -3.1990    -1.8580 H     1 <1>   0.0800 
 54 H       -8.5420    -3.7330    -0.4750 H     1 <1>   0.0800 
 55 H       -7.1790    -5.7880    -0.3980 H     1 <1>   0.1500 
 56 H       -1.9970    -6.6060     2.7520 H     1 <1>   0.0800 
 57 H       -2.8360    -7.4450     1.4550 H     1 <1>   0.0800 
 58 H       -3.7550    -6.7250     2.7870 H     1 <1>   0.0800 
 59 H       -5.6730    -9.0390     0.0260 H     1 <1>   0.0800 
 60 H       -6.0490    -7.7820    -1.1470 H     1 <1>   0.0800 
 61 H       -6.9910    -7.9210     0.3510 H     1 <1>   0.0800 
@<TRIPOS>BOND
  1   1   2  2   
  2   2   3  am  
  3   2   4  1   
  4   3   5  1   
  5   3   6  1   
  6   4   7  1   
  7   4   8  1   
  8   4   9  1   
  9   5  10  1   
 10   5  29  1   
 11   5  30  1   
 12   6  11  1   
 13   6  31  1   
 14   6  32  1   
 15   7  12  1   
 16   7  33  1   
 17   7  34  1   
 18   8  13  1   
 19   8  35  1   
 20   8  36  1   
 21   9  37  1   
 22   9  38  1   
 23   9  39  1   
 24  10  14  1   
 25  10  40  1   
 26  10  41  1   
 27  11  14  1   
 28  11  42  1   
 29  11  43  1   
 30  12  13  1   
 31  12  15  1   
 32  12  44  1   
 33  13  45  1   
 34  13  46  1   
 35  14  16  1   
 36  14  17  1   
 37  15  47  1   
 38  15  48  1   
 39  15  49  1   
 40  16  18  1   
 41  17  19  ar  
 42  17  20  ar  
 43  18  21  1   
 44  18  50  1   
 45  18  51  1   
 46  19  21  1   
 47  19  22  ar  
 48  20  23  ar  
 49  20  52  1   
 50  21  53  1   
 51  21  54  1   
 52  22  24  ar  
 53  22  55  1   
 54  23  24  ar  
 55  23  25  1   
 56  24  26  1   
 57  25  27  1   
 58  26  28  1   
 59  27  56  1   
 60  27  57  1   
 61  27  58  1   
 62  28  59  1   
 63  28  60  1   
 64  28  61  1   
@<TRIPOS>SUBSTRUCTURE
  1 ****  10 GROUP 4 **** **** 0

# MOE 2024.06 (io_trps.svl 2023.06)
