@<TRIPOS>MOLECULE
NONAME
55 58 1 0 0 
SMALL
USER_CHARGES


@<TRIPOS>ATOM
  1 O        0.8890    -0.7240     0.6430 O.2   1 <1>  -0.5700 
  2 C        2.0410    -0.4100     0.4530 C.2   1 <1>   0.7150 
  3 N        2.9500    -1.4110     0.3480 N.am  1 <1>  -0.7300 
  4 C        2.4610     0.9590     0.3810 C.2   1 <1>  -0.2370 
  5 C        4.4050    -1.1990     0.5710 C.3   1 <1>   0.1400 
  6 N        3.5150     1.3900    -0.3560 N.pl3 1 <1>   0.3140 
  7 C        1.9760     2.0680     0.9940 C.2   1 <1>  -0.1500 
  8 C        5.0700    -0.5690    -0.6670 C.3   1 <1>   0.2000 
  9 N        3.7350     2.7000    -0.2180 N.2   1 <1>  -0.7070 
 10 C        4.2830     0.5780    -1.3260 C.3   1 <1>   0.0960 
 11 C        2.7930     3.1270     0.6100 C.2   1 <1>   0.2030 
 12 O        5.2190    -1.5680    -1.6170 O.3   1 <1>  -0.6800 
 13 C        2.6410     4.5050     1.0480 C.2   1 <1>   0.7160 
 14 O        1.7600     4.8650     1.8090 O.2   1 <1>  -0.5700 
 15 N        3.5180     5.4440     0.5830 N.am  1 <1>  -0.7300 
 16 C        3.5140     6.8640     0.9310 C.3   1 <1>   0.2200 
 17 C        2.7450     7.6330    -0.1360 C.3   1 <1>  -0.1600 
 18 C        4.9490     7.3660     1.0280 C.3   1 <1>  -0.1600 
 19 C        2.7970     9.1300     0.1470 C.3   1 <1>   0.3430 
 20 C        4.9670     8.8700     1.2900 C.3   1 <1>   0.3430 
 21 N        4.2200     9.6000     0.2130 N.4   1 <1>  -0.9590 
 22 C        4.3300    11.0920     0.3420 C.3   1 <1>   0.4230 
 23 C        3.5900    11.7830    -0.8160 C.3   1 <1>  -0.1600 
 24 C        5.8070    11.5190     0.3600 C.3   1 <1>  -0.1600 
 25 C        3.8890    13.2820    -0.8470 C.3   1 <1>   0.1200 
 26 C        5.9450    13.0370     0.2440 C.3   1 <1>   0.1200 
 27 O        5.2650    13.4510    -0.8910 O.3   1 <1>  -0.5600 
 28 H        2.5750    -2.3410     0.5530 H     1 <1>   0.3700 
 29 H        4.8850    -2.1320     0.8120 H     1 <1>   0.0800 
 30 H        4.5350    -0.5410     1.4150 H     1 <1>   0.0800 
 31 H        1.1310     2.1390     1.6590 H     1 <1>   0.1500 
 32 H        6.0590    -0.2290    -0.4100 H     1 <1>   0.0800 
 33 H        4.9630     1.2240    -1.8500 H     1 <1>   0.0800 
 34 H        3.5790     0.1810    -2.0320 H     1 <1>   0.0800 
 35 H        4.3640    -2.0250    -1.7570 H     1 <1>   0.4000 
 36 H        4.2160     5.0880    -0.0770 H     1 <1>   0.3700 
 37 H        3.0260     6.9930     1.8860 H     1 <1>   0.0800 
 38 H        1.7170     7.3140    -0.1260 H     1 <1>   0.0800 
 39 H        3.1480     7.4350    -1.1130 H     1 <1>   0.0800 
 40 H        5.4880     7.1540     0.1210 H     1 <1>   0.0800 
 41 H        5.4450     6.8650     1.8400 H     1 <1>   0.0800 
 42 H        2.2990     9.3370     1.0810 H     1 <1>   0.0800 
 43 H        2.2670     9.6430    -0.6390 H     1 <1>   0.0800 
 44 H        5.9940     9.1960     1.3230 H     1 <1>   0.0800 
 45 H        4.5170     9.0730     2.2480 H     1 <1>   0.0800 
 46 H        4.6620     9.3580    -0.6840 H     1 <1>   0.4500 
 47 H        3.8760    11.4080     1.2680 H     1 <1>   0.0800 
 48 H        2.5270    11.6710    -0.7140 H     1 <1>   0.0800 
 49 H        3.8960    11.3660    -1.7600 H     1 <1>   0.0800 
 50 H        6.3370    11.0760    -0.4650 H     1 <1>   0.0800 
 51 H        6.2810    11.2250     1.2770 H     1 <1>   0.0800 
 52 H        3.5010    13.7930     0.0190 H     1 <1>   0.0800 
 53 H        3.4750    13.7350    -1.7330 H     1 <1>   0.0800 
 54 H        6.9790    13.3180     0.1260 H     1 <1>   0.0800 
 55 H        5.5400    13.5510     1.1010 H     1 <1>   0.0800 
@<TRIPOS>BOND
  1   1   2  2   
  2   2   3  am  
  3   2   4  1   
  4   3   5  1   
  5   3  28  1   
  6   4   6  1   
  7   4   7  2   
  8   5   8  1   
  9   5  29  1   
 10   5  30  1   
 11   6   9  1   
 12   6  10  1   
 13   7  11  1   
 14   7  31  1   
 15   8  10  1   
 16   8  12  1   
 17   8  32  1   
 18   9  11  2   
 19  10  33  1   
 20  10  34  1   
 21  11  13  1   
 22  12  35  1   
 23  13  14  2   
 24  13  15  am  
 25  15  16  1   
 26  15  36  1   
 27  16  17  1   
 28  16  18  1   
 29  16  37  1   
 30  17  19  1   
 31  17  38  1   
 32  17  39  1   
 33  18  20  1   
 34  18  40  1   
 35  18  41  1   
 36  19  21  1   
 37  19  42  1   
 38  19  43  1   
 39  20  21  1   
 40  20  44  1   
 41  20  45  1   
 42  21  22  1   
 43  21  46  1   
 44  22  23  1   
 45  22  24  1   
 46  22  47  1   
 47  23  25  1   
 48  23  48  1   
 49  23  49  1   
 50  24  26  1   
 51  24  50  1   
 52  24  51  1   
 53  25  27  1   
 54  25  52  1   
 55  25  53  1   
 56  26  27  1   
 57  26  54  1   
 58  26  55  1   
@<TRIPOS>SUBSTRUCTURE
  1 ****  15 GROUP 4 **** **** 0

# MOE 2024.06 (io_trps.svl 2023.06)
