@<TRIPOS>MOLECULE
NONAME
55 57 1 0 0 
SMALL
USER_CHARGES


@<TRIPOS>ATOM
  1 N       -1.2910    -0.2630    -1.1440 N.ar  1 <1>  -0.6200 
  2 C       -1.8910     0.6710    -0.4250 C.ar  1 <1>   0.4100 
  3 C       -0.3600     0.2480    -1.9480 C.ar  1 <1>   0.1600 
  4 N       -2.8900     0.1530     0.4100 N.pl3 1 <1>  -0.8380 
  5 C       -1.5890     2.0760    -0.5290 C.ar  1 <1>   0.4100 
  6 C       -0.0600     1.5920    -2.0450 C.ar  1 <1>   0.1600 
  7 C       -2.6510    -1.0390     1.3020 C.3   1 <1>   0.2090 
  8 C       -4.2500     0.7450     0.3390 C.3   1 <1>   0.2090 
  9 N       -0.6640     2.5420    -1.3480 N.ar  1 <1>  -0.6200 
 10 N       -2.2510     3.0440     0.2410 N.pl3 1 <1>  -0.8380 
 11 C       -3.0110    -2.4060     0.6100 C.3   1 <1>   0.5030 
 12 C       -5.3190    -0.3520     0.3400 C.3   1 <1>  -0.1600 
 13 C       -1.7990     3.1430     1.6530 C.3   1 <1>   0.1290 
 14 C       -2.4960     4.3790    -0.3770 C.3   1 <1>   0.1290 
 15 N       -3.6990    -2.0560    -0.6990 N.4   1 <1>  -0.9590 
 16 C       -3.9100    -3.2610     1.5310 C.3   1 <1>  -0.1600 
 17 C       -1.6890    -3.1860     0.3900 C.3   1 <1>  -0.1600 
 18 C       -5.0970    -1.4950    -0.6670 C.3   1 <1>   0.3430 
 19 C       -3.4980    -2.8750    -1.9310 C.3   1 <1>   0.2630 
 20 C       -4.0790    -4.6990     1.0490 C.3   1 <1>   0.3430 
 21 C       -1.8320    -4.6640     0.0220 C.3   1 <1>   0.3430 
 22 N       -2.7450    -5.3540     0.9730 N.4   1 <1>  -0.9590 
 23 C       -2.8840    -6.8060     0.6180 C.3   1 <1>   0.2630 
 24 H        0.1930    -0.4410    -2.5630 H     1 <1>   0.1500 
 25 H        0.7110     1.9100    -2.7260 H     1 <1>   0.1500 
 26 H       -3.2250    -0.9130     2.2040 H     1 <1>   0.0800 
 27 H       -1.6180    -1.0290     1.6050 H     1 <1>   0.0800 
 28 H       -4.3350     1.3370    -0.5590 H     1 <1>   0.0800 
 29 H       -4.3940     1.4080     1.1770 H     1 <1>   0.0800 
 30 H       -6.2600     0.1130     0.1050 H     1 <1>   0.0800 
 31 H       -5.4310    -0.7310     1.3370 H     1 <1>   0.0800 
 32 H       -1.6400     2.1600     2.0600 H     1 <1>   0.0800 
 33 H       -2.5450     3.6460     2.2420 H     1 <1>   0.0800 
 34 H       -0.8750     3.6940     1.7020 H     1 <1>   0.0800 
 35 H       -2.7900     4.2580    -1.4050 H     1 <1>   0.0800 
 36 H       -1.5960     4.9710    -0.3440 H     1 <1>   0.0800 
 37 H       -3.2800     4.8920     0.1510 H     1 <1>   0.0800 
 38 H       -3.1450    -1.1780    -0.8860 H     1 <1>   0.4500 
 39 H       -4.8810    -2.8260     1.6510 H     1 <1>   0.0800 
 40 H       -3.4750    -3.2950     2.5150 H     1 <1>   0.0800 
 41 H       -1.1150    -3.1570     1.3000 H     1 <1>   0.0800 
 42 H       -1.0840    -2.6980    -0.3520 H     1 <1>   0.0800 
 43 H       -5.3260    -1.1080    -1.6470 H     1 <1>   0.0800 
 44 H       -5.8020    -2.2840    -0.4630 H     1 <1>   0.0800 
 45 H       -3.9720    -3.8360    -1.8310 H     1 <1>   0.0800 
 46 H       -2.4470    -3.0090    -2.1240 H     1 <1>   0.0800 
 47 H       -3.9250    -2.3690    -2.7820 H     1 <1>   0.0800 
 48 H       -4.5520    -4.7090     0.0800 H     1 <1>   0.0800 
 49 H       -4.7110    -5.2360     1.7390 H     1 <1>   0.0800 
 50 H       -0.8590    -5.1320     0.0460 H     1 <1>   0.0800 
 51 H       -2.2140    -4.7620    -0.9800 H     1 <1>   0.0800 
 52 H       -2.3150    -5.3210     1.9120 H     1 <1>   0.4500 
 53 H       -3.3300    -6.9180    -0.3570 H     1 <1>   0.0800 
 54 H       -3.5050    -7.3110     1.3400 H     1 <1>   0.0800 
 55 H       -1.9170    -7.2850     0.6100 H     1 <1>   0.0800 
@<TRIPOS>BOND
  1   1   2  ar  
  2   1   3  ar  
  3   2   4  1   
  4   2   5  ar  
  5   3   6  ar  
  6   3  24  1   
  7   4   7  1   
  8   4   8  1   
  9   5   9  ar  
 10   5  10  1   
 11   6   9  ar  
 12   6  25  1   
 13   7  11  1   
 14   7  26  1   
 15   7  27  1   
 16   8  12  1   
 17   8  28  1   
 18   8  29  1   
 19  10  13  1   
 20  10  14  1   
 21  11  15  1   
 22  11  16  1   
 23  11  17  1   
 24  12  18  1   
 25  12  30  1   
 26  12  31  1   
 27  13  32  1   
 28  13  33  1   
 29  13  34  1   
 30  14  35  1   
 31  14  36  1   
 32  14  37  1   
 33  15  18  1   
 34  15  19  1   
 35  15  38  1   
 36  16  20  1   
 37  16  39  1   
 38  16  40  1   
 39  17  21  1   
 40  17  41  1   
 41  17  42  1   
 42  18  43  1   
 43  18  44  1   
 44  19  45  1   
 45  19  46  1   
 46  19  47  1   
 47  20  22  1   
 48  20  48  1   
 49  20  49  1   
 50  21  22  1   
 51  21  50  1   
 52  21  51  1   
 53  22  23  1   
 54  22  52  1   
 55  23  53  1   
 56  23  54  1   
 57  23  55  1   
@<TRIPOS>SUBSTRUCTURE
  1 ****   4 GROUP 4 **** **** 0

# MOE 2024.06 (io_trps.svl 2023.06)
