@<TRIPOS>MOLECULE
NONAME
39 41 1 0 0 
SMALL
USER_CHARGES


@<TRIPOS>ATOM
  1 S        2.5230    -0.2570     1.3980 S.3   1 <1>  -0.0800 
  2 C        0.8300    -0.3370     0.9880 C.2   1 <1>   0.1980 
  3 C        2.5950    -1.9850     1.2910 C.2   1 <1>  -0.1100 
  4 N        0.3920    -1.5140     0.7980 N.2   1 <1>  -0.5650 
  5 C        0.0750     0.9680     0.9020 C.3   1 <1>  -0.0600 
  6 C        1.3870    -2.4990     0.9640 C.2   1 <1>   0.1410 
  7 C        1.1410    -3.9360     0.8070 C.2   1 <1>   0.7160 
  8 O        2.0460    -4.7110     1.0700 O.2   1 <1>  -0.5700 
  9 N       -0.0490    -4.4910     0.3700 N.am  1 <1>  -0.6600 
 10 C       -1.2370    -3.7620    -0.1410 C.3   1 <1>   0.1400 
 11 C       -0.2670    -5.9570     0.2940 C.3   1 <1>   0.1400 
 12 C       -2.1490    -4.8440    -0.7190 C.3   1 <1>   0.2000 
 13 C       -1.7580    -6.1300     0.0030 C.3   1 <1>  -0.0800 
 14 O       -3.4870    -4.5590    -0.5010 O.3   1 <1>  -0.6800 
 15 C       -2.0870    -7.3980    -0.7980 C.3   1 <1>   0.0210 
 16 C       -1.5650    -8.6380    -0.0980 C.2   1 <1>   0.1080 
 17 N       -1.9640    -9.0010     1.0810 N.2   1 <1>  -0.7070 
 18 C       -0.6110    -9.5050    -0.6210 C.2   1 <1>  -0.1500 
 19 N       -1.2680   -10.1230     1.3450 N.pl3 1 <1>   0.3000 
 20 C       -0.4410   -10.4480     0.3290 C.2   1 <1>  -0.3320 
 21 C        0.4750   -11.6580     0.3300 C.3   1 <1>  -0.0600 
 22 H        3.5350    -2.4710     1.4840 H     1 <1>   0.1500 
 23 H       -0.9510     0.7790     0.6440 H     1 <1>   0.0800 
 24 H        0.5160     1.5960     0.1500 H     1 <1>   0.0800 
 25 H        0.1100     1.4720     1.8510 H     1 <1>   0.0800 
 26 H       -1.7160    -3.2510     0.6760 H     1 <1>   0.0800 
 27 H       -0.9510    -3.0590    -0.9030 H     1 <1>   0.0800 
 28 H        0.3330    -6.3580    -0.5060 H     1 <1>   0.0800 
 29 H        0.0090    -6.4370     1.2180 H     1 <1>   0.0800 
 30 H       -1.9870    -4.9220    -1.7810 H     1 <1>   0.0800 
 31 H       -2.2580    -6.1770     0.9550 H     1 <1>   0.0800 
 32 H       -3.6830    -4.5810     0.4560 H     1 <1>   0.4000 
 33 H       -1.6550    -7.3370    -1.7810 H     1 <1>   0.0800 
 34 H       -3.1530    -7.4870    -0.9060 H     1 <1>   0.0800 
 35 H       -0.1290    -9.4180    -1.5780 H     1 <1>   0.1500 
 36 H       -1.3820   -10.6420     2.2240 H     1 <1>   0.2700 
 37 H        1.0330   -11.7000    -0.5890 H     1 <1>   0.0800 
 38 H       -0.1010   -12.5610     0.4220 H     1 <1>   0.0800 
 39 H        1.1690   -11.5990     1.1490 H     1 <1>   0.0800 
@<TRIPOS>BOND
  1   1   2  1   
  2   1   3  1   
  3   2   4  2   
  4   2   5  1   
  5   3   6  2   
  6   3  22  1   
  7   4   6  1   
  8   5  23  1   
  9   5  24  1   
 10   5  25  1   
 11   6   7  1   
 12   7   8  2   
 13   7   9  am  
 14   9  10  1   
 15   9  11  1   
 16  10  12  1   
 17  10  26  1   
 18  10  27  1   
 19  11  13  1   
 20  11  28  1   
 21  11  29  1   
 22  12  13  1   
 23  12  14  1   
 24  12  30  1   
 25  13  15  1   
 26  13  31  1   
 27  14  32  1   
 28  15  16  1   
 29  15  33  1   
 30  15  34  1   
 31  16  17  2   
 32  16  18  1   
 33  17  19  1   
 34  18  20  2   
 35  18  35  1   
 36  19  20  1   
 37  19  36  1   
 38  20  21  1   
 39  21  37  1   
 40  21  38  1   
 41  21  39  1   
@<TRIPOS>SUBSTRUCTURE
  1 ****  11 GROUP 4 **** **** 0

# MOE 2024.06 (io_trps.svl 2023.06)
