@<TRIPOS>MOLECULE
NONAME
42 43 1 0 0 
SMALL
USER_CHARGES


@<TRIPOS>ATOM
  1 CL      -4.6420    -2.0970     1.9550 Cl    1 <1>  -0.1770 
  2 C       -3.7690    -3.5180     1.4410 C.ar  1 <1>   0.1770 
  3 C       -3.6860    -4.6040     2.2900 C.ar  1 <1>  -0.1500 
  4 C       -3.1740    -3.5360     0.1920 C.ar  1 <1>  -0.1500 
  5 C       -2.9890    -5.7120     1.8500 C.ar  1 <1>   0.1900 
  6 C       -2.4810    -4.6620    -0.2250 C.ar  1 <1>  -0.1500 
  7 F       -2.9110    -6.7400     2.6590 F     1 <1>  -0.1900 
  8 C       -2.3720    -5.7810     0.5990 C.ar  1 <1>   0.1170 
  9 N       -1.6940    -6.9450     0.1960 N.am  1 <1>  -0.5470 
 10 C       -0.6310    -7.1290    -0.6400 C.2   1 <1>   0.5690 
 11 O       -0.1090    -6.2170    -1.2360 O.2   1 <1>  -0.5700 
 12 C       -0.0380    -8.5340    -0.8420 C.3   1 <1>   0.1710 
 13 N       -0.6870    -9.7190    -0.2000 N.3   1 <1>  -0.8100 
 14 C       -1.8870   -10.2450    -0.8990 C.3   1 <1>   0.3710 
 15 C       -0.6870    -9.7120     1.2760 C.3   1 <1>   0.0300 
 16 C       -3.1340    -9.3560    -0.7750 C.2   1 <1>   0.0460 
 17 C       -2.1730   -11.6800    -0.4540 C.3   1 <1>  -0.2400 
 18 N       -3.7700    -9.2510     0.4630 N.2   1 <1>  -0.5650 
 19 C       -3.6840    -8.6430    -1.7760 C.2   1 <1>  -0.1400 
 20 C       -4.7870    -8.4920     0.4060 C.2   1 <1>   0.1980 
 21 S       -5.0800    -7.7990    -1.1690 S.3   1 <1>  -0.0800 
 22 C       -3.3550    -8.4230    -3.2400 C.3   1 <1>  -0.0600 
 23 C       -5.7450    -8.1280     1.5150 C.3   1 <1>  -0.0600 
 24 H       -4.1460    -4.5850     3.2600 H     1 <1>   0.1500 
 25 H       -3.2530    -2.6750    -0.4490 H     1 <1>   0.1500 
 26 H       -2.0250    -4.6710    -1.1990 H     1 <1>   0.1500 
 27 H       -2.1010    -7.8260     0.5440 H     1 <1>   0.3700 
 28 H        0.9780    -8.4890    -0.4920 H     1 <1>   0.0800 
 29 H        0.0170    -8.7070    -1.9010 H     1 <1>   0.0800 
 30 H       -1.6360   -10.3040    -1.9430 H     1 <1>   0.0800 
 31 H        0.2470    -9.3200     1.6430 H     1 <1>   0.0800 
 32 H       -0.7920   -10.7150     1.6510 H     1 <1>   0.0800 
 33 H       -1.4900    -9.1170     1.6710 H     1 <1>   0.0800 
 34 H       -2.5220   -11.7040     0.5610 H     1 <1>   0.0800 
 35 H       -1.2870   -12.2800    -0.5480 H     1 <1>   0.0800 
 36 H       -2.9420   -12.0990    -1.0770 H     1 <1>   0.0800 
 37 H       -2.4780    -8.9720    -3.5280 H     1 <1>   0.0800 
 38 H       -3.1760    -7.3770    -3.4170 H     1 <1>   0.0800 
 39 H       -4.1800    -8.7420    -3.8520 H     1 <1>   0.0800 
 40 H       -5.4160    -8.5700     2.4380 H     1 <1>   0.0800 
 41 H       -6.7270    -8.4940     1.2810 H     1 <1>   0.0800 
 42 H       -5.7810    -7.0610     1.6300 H     1 <1>   0.0800 
@<TRIPOS>BOND
  1   1   2  1   
  2   2   3  ar  
  3   2   4  ar  
  4   3   5  ar  
  5   3  24  1   
  6   4   6  ar  
  7   4  25  1   
  8   5   7  1   
  9   5   8  ar  
 10   6   8  ar  
 11   6  26  1   
 12   8   9  1   
 13   9  10  am  
 14   9  27  1   
 15  10  11  2   
 16  10  12  1   
 17  12  13  1   
 18  12  28  1   
 19  12  29  1   
 20  13  14  1   
 21  13  15  1   
 22  14  16  1   
 23  14  17  1   
 24  14  30  1   
 25  15  31  1   
 26  15  32  1   
 27  15  33  1   
 28  16  18  1   
 29  16  19  2   
 30  17  34  1   
 31  17  35  1   
 32  17  36  1   
 33  18  20  2   
 34  19  21  1   
 35  19  22  1   
 36  20  21  1   
 37  20  23  1   
 38  22  37  1   
 39  22  38  1   
 40  22  39  1   
 41  23  40  1   
 42  23  41  1   
 43  23  42  1   
@<TRIPOS>SUBSTRUCTURE
  1 ****   9 GROUP 4 **** **** 0

# MOE 2024.06 (io_trps.svl 2023.06)
