@<TRIPOS>MOLECULE
NONAME
54 56 1 0 0 
SMALL
USER_CHARGES


@<TRIPOS>ATOM
  1 O        3.0820     1.3340     2.2130 O.co2 1 <1>  -0.9000 
  2 C        2.7980     0.6130     1.2490 C.2   1 <1>   0.9060 
  3 O        2.5940    -0.6030     1.3840 O.co2 1 <1>  -0.9000 
  4 C        2.7980     1.1810    -0.1710 C.3   1 <1>  -0.1060 
  5 C        4.0530     0.5300    -0.8020 C.3   1 <1>   0.2000 
  6 C        2.9400     2.7340    -0.2080 C.3   1 <1>  -0.1600 
  7 C        1.4820     0.7900    -0.9100 C.3   1 <1>  -0.0160 
  8 O        3.7580    -0.7480    -1.2530 O.3   1 <1>  -0.6800 
  9 C        4.6750     1.3810    -1.9150 C.3   1 <1>   0.1400 
 10 C        4.3970     3.1940    -0.1510 C.3   1 <1>   0.1400 
 11 C        0.2540     1.5970    -0.4910 C.ar  1 <1>  -0.1440 
 12 N        5.1420     2.7000    -1.3590 N.am  1 <1>  -0.6600 
 13 C       -0.3130     2.5190    -1.3590 C.ar  1 <1>  -0.1500 
 14 C       -0.3100     1.4140     0.7620 C.ar  1 <1>  -0.1500 
 15 C        6.2520     3.3030    -1.8980 C.2   1 <1>   0.5690 
 16 C       -1.4260     3.2500    -0.9790 C.ar  1 <1>  -0.1500 
 17 C       -1.4210     2.1450     1.1450 C.ar  1 <1>  -0.1500 
 18 O        6.7460     2.9080    -2.9280 O.2   1 <1>  -0.5700 
 19 C        6.9350     4.4950    -1.2370 C.3   1 <1>  -0.0990 
 20 C       -1.9800     3.0640     0.2750 C.ar  1 <1>  -0.1500 
 21 C        8.1600     4.0920    -0.3910 C.3   1 <1>  -0.0800 
 22 C        7.7730     3.1950     0.7990 C.3   1 <1>  -0.1600 
 23 C        8.8970     5.3500     0.1040 C.3   1 <1>  -0.1600 
 24 C        8.9920     2.8370     1.6590 C.3   1 <1>  -0.1600 
 25 C       10.1180     4.9890     0.9600 C.3   1 <1>  -0.1600 
 26 C        9.7210     4.0960     2.1420 C.3   1 <1>  -0.1600 
 27 H        4.8110     0.4080    -0.0450 H     1 <1>   0.0800 
 28 H        2.3950     3.1660     0.6130 H     1 <1>   0.0800 
 29 H        2.5140     3.1310    -1.1120 H     1 <1>   0.0800 
 30 H        1.6320     0.9100    -1.9680 H     1 <1>   0.0800 
 31 H        1.2630    -0.2510    -0.7490 H     1 <1>   0.0800 
 32 H        3.3400    -1.2090    -0.4810 H     1 <1>   0.4000 
 33 H        3.9490     1.5600    -2.6870 H     1 <1>   0.0800 
 34 H        5.5100     0.8480    -2.3360 H     1 <1>   0.0800 
 35 H        4.8570     2.8110     0.7450 H     1 <1>   0.0800 
 36 H        4.4060     4.2670    -0.1110 H     1 <1>   0.0800 
 37 H        0.1120     2.6700    -2.3350 H     1 <1>   0.1500 
 38 H        0.1210     0.7020     1.4470 H     1 <1>   0.1500 
 39 H       -1.8580     3.9630    -1.6580 H     1 <1>   0.1500 
 40 H       -1.8410     1.9950     2.1240 H     1 <1>   0.1500 
 41 H        7.2650     5.1420    -2.0290 H     1 <1>   0.0800 
 42 H        6.2500     5.0620    -0.6420 H     1 <1>   0.0800 
 43 H       -2.8420     3.6320     0.5750 H     1 <1>   0.1500 
 44 H        8.8310     3.5360    -1.0260 H     1 <1>   0.0800 
 45 H        7.0480     3.7000     1.4140 H     1 <1>   0.0800 
 46 H        7.3250     2.2830     0.4440 H     1 <1>   0.0800 
 47 H        9.2210     5.9360    -0.7390 H     1 <1>   0.0800 
 48 H        8.2240     5.9530     0.6890 H     1 <1>   0.0800 
 49 H        8.6740     2.2550     2.5070 H     1 <1>   0.0800 
 50 H        9.6690     2.2320     1.0790 H     1 <1>   0.0800 
 51 H       10.8400     4.4720     0.3510 H     1 <1>   0.0800 
 52 H       10.5800     5.8890     1.3280 H     1 <1>   0.0800 
 53 H       10.6010     3.8140     2.6940 H     1 <1>   0.0800 
 54 H        9.0760     4.6470     2.8060 H     1 <1>   0.0800 
@<TRIPOS>BOND
  1   1   2  ar  
  2   2   3  ar  
  3   2   4  1   
  4   4   5  1   
  5   4   6  1   
  6   4   7  1   
  7   5   8  1   
  8   5   9  1   
  9   5  27  1   
 10   6  10  1   
 11   6  28  1   
 12   6  29  1   
 13   7  11  1   
 14   7  30  1   
 15   7  31  1   
 16   8  32  1   
 17   9  12  1   
 18   9  33  1   
 19   9  34  1   
 20  10  12  1   
 21  10  35  1   
 22  10  36  1   
 23  11  13  ar  
 24  11  14  ar  
 25  12  15  am  
 26  13  16  ar  
 27  13  37  1   
 28  14  17  ar  
 29  14  38  1   
 30  15  18  2   
 31  15  19  1   
 32  16  20  ar  
 33  16  39  1   
 34  17  20  ar  
 35  17  40  1   
 36  19  21  1   
 37  19  41  1   
 38  19  42  1   
 39  20  43  1   
 40  21  22  1   
 41  21  23  1   
 42  21  44  1   
 43  22  24  1   
 44  22  45  1   
 45  22  46  1   
 46  23  25  1   
 47  23  47  1   
 48  23  48  1   
 49  24  26  1   
 50  24  49  1   
 51  24  50  1   
 52  25  26  1   
 53  25  51  1   
 54  25  52  1   
 55  26  53  1   
 56  26  54  1   
@<TRIPOS>SUBSTRUCTURE
  1 ****  10 GROUP 4 **** **** 0

# MOE 2024.06 (io_trps.svl 2023.06)
