@<TRIPOS>MOLECULE
NONAME
58 61 1 0 0 
SMALL
USER_CHARGES


@<TRIPOS>ATOM
  1 O       -2.3880     0.4820    -0.0140 O.2   1 <1>  -0.5700 
  2 C       -2.8270     1.3940    -0.6960 C.2   1 <1>   0.5440 
  3 N       -3.9420     1.1020    -1.4450 N.am  1 <1>  -0.6600 
  4 C       -2.2600     2.7300    -0.6510 C.ar  1 <1>   0.0860 
  5 C       -5.2620     1.3420    -0.7860 C.3   1 <1>   0.1400 
  6 C       -3.9320    -0.1640    -2.2520 C.3   1 <1>   0.1400 
  7 C       -1.4230     3.1210     0.3920 C.ar  1 <1>  -0.1500 
  8 C       -2.5280     3.6820    -1.6350 C.ar  1 <1>  -0.1500 
  9 C       -5.6150     0.1880     0.1950 C.3   1 <1>   0.4230 
 10 C       -4.6040    -1.3420    -1.5020 C.3   1 <1>   0.3430 
 11 C       -0.8800     4.3890     0.4730 C.ar  1 <1>   0.0830 
 12 C       -2.0000     4.9590    -1.5740 C.ar  1 <1>  -0.1500 
 13 N       -4.7540    -1.0330    -0.0390 N.4   1 <1>  -0.9590 
 14 C       -7.1170    -0.1720     0.1290 C.3   1 <1>   0.1200 
 15 O       -0.0860     4.5990     1.5600 O.3   1 <1>  -0.3630 
 16 C       -1.1740     5.3390    -0.5190 C.ar  1 <1>   0.0830 
 17 C       -5.1700    -2.1610     0.8450 C.3   1 <1>   0.5180 
 18 O       -7.4110    -1.2370     0.9890 O.3   1 <1>  -0.5600 
 19 C        1.0210     5.4670     1.5020 C.3   1 <1>   0.1200 
 20 O       -0.6720     6.6000    -0.4270 O.3   1 <1>  -0.3630 
 21 C       -4.3450    -3.4130     0.5230 C.3   1 <1>  -0.1950 
 22 C       -6.6900    -2.4180     0.7510 C.3   1 <1>   0.1200 
 23 C        1.9770     5.0880     2.6290 C.3   1 <1>  -0.2400 
 24 C       -0.9560     7.6110    -1.3660 C.3   1 <1>   0.1200 
 25 C       -3.8320    -4.2780     1.6330 C.3   1 <1>  -0.2000 
 26 C       -2.8740    -3.4710     0.8050 C.3   1 <1>  -0.2000 
 27 C       -0.2280     8.8770    -0.9260 C.3   1 <1>  -0.2400 
 28 H       -5.2390     2.2740    -0.2450 H     1 <1>   0.0800 
 29 H       -6.0190     1.4330    -1.5470 H     1 <1>   0.0800 
 30 H       -4.4280     0.0000    -3.1920 H     1 <1>   0.0800 
 31 H       -2.9120    -0.4330    -2.4730 H     1 <1>   0.0800 
 32 H       -1.1820     2.4160     1.1680 H     1 <1>   0.1500 
 33 H       -3.1590     3.4200    -2.4660 H     1 <1>   0.1500 
 34 H       -5.4230     0.5490     1.1920 H     1 <1>   0.0800 
 35 H       -3.9980    -2.2220    -1.6390 H     1 <1>   0.0800 
 36 H       -5.5710    -1.5370    -1.9350 H     1 <1>   0.0800 
 37 H       -2.2460     5.6450    -2.3620 H     1 <1>   0.1500 
 38 H       -3.7950    -0.7390     0.2470 H     1 <1>   0.4500 
 39 H       -7.4120    -0.4470    -0.8690 H     1 <1>   0.0800 
 40 H       -7.7140     0.6680     0.4410 H     1 <1>   0.0800 
 41 H       -4.9550    -1.8840     1.8640 H     1 <1>   0.0800 
 42 H        1.4970     5.3580     0.5430 H     1 <1>   0.0800 
 43 H        0.6690     6.4760     1.6290 H     1 <1>   0.0800 
 44 H       -4.7110    -3.9430    -0.3400 H     1 <1>   0.1000 
 45 H       -6.9850    -3.1370     1.4950 H     1 <1>   0.0800 
 46 H       -6.9610    -2.8000    -0.2180 H     1 <1>   0.0800 
 47 H        2.3110     4.0730     2.5030 H     1 <1>   0.0800 
 48 H        1.4850     5.1900     3.5800 H     1 <1>   0.0800 
 49 H        2.8340     5.7360     2.6130 H     1 <1>   0.0800 
 50 H       -0.6080     7.2890    -2.3320 H     1 <1>   0.0800 
 51 H       -2.0200     7.7710    -1.3830 H     1 <1>   0.0800 
 52 H       -3.9740    -3.9900     2.6610 H     1 <1>   0.1000 
 53 H       -3.8320    -5.3490     1.5080 H     1 <1>   0.1000 
 54 H       -2.2250    -3.9980     0.1240 H     1 <1>   0.1000 
 55 H       -2.3770    -2.6380     1.2750 H     1 <1>   0.1000 
 56 H        0.8330     8.7020    -0.8960 H     1 <1>   0.0800 
 57 H       -0.5700     9.1790     0.0480 H     1 <1>   0.0800 
 58 H       -0.4260     9.6720    -1.6210 H     1 <1>   0.0800 
@<TRIPOS>BOND
  1   1   2  2   
  2   2   3  am  
  3   2   4  1   
  4   3   5  1   
  5   3   6  1   
  6   4   7  ar  
  7   4   8  ar  
  8   5   9  1   
  9   5  28  1   
 10   5  29  1   
 11   6  10  1   
 12   6  30  1   
 13   6  31  1   
 14   7  11  ar  
 15   7  32  1   
 16   8  12  ar  
 17   8  33  1   
 18   9  13  1   
 19   9  14  1   
 20   9  34  1   
 21  10  13  1   
 22  10  35  1   
 23  10  36  1   
 24  11  15  1   
 25  11  16  ar  
 26  12  16  ar  
 27  12  37  1   
 28  13  17  1   
 29  13  38  1   
 30  14  18  1   
 31  14  39  1   
 32  14  40  1   
 33  15  19  1   
 34  16  20  1   
 35  17  21  1   
 36  17  22  1   
 37  17  41  1   
 38  18  22  1   
 39  19  23  1   
 40  19  42  1   
 41  19  43  1   
 42  20  24  1   
 43  21  25  1   
 44  21  26  1   
 45  21  44  1   
 46  22  45  1   
 47  22  46  1   
 48  23  47  1   
 49  23  48  1   
 50  23  49  1   
 51  24  27  1   
 52  24  50  1   
 53  24  51  1   
 54  25  26  1   
 55  25  52  1   
 56  25  53  1   
 57  26  54  1   
 58  26  55  1   
 59  27  56  1   
 60  27  57  1   
 61  27  58  1   
@<TRIPOS>SUBSTRUCTURE
  1 ****   2 GROUP 4 **** **** 0

# MOE 2024.06 (io_trps.svl 2023.06)
