@<TRIPOS>MOLECULE
NONAME
47 49 1 0 0 
SMALL
USER_CHARGES


@<TRIPOS>ATOM
  1 S       -0.1680     0.1460     1.0690 S.3   1 <1>  -0.0800 
  2 C        0.9650    -0.9080     0.2510 C.2   1 <1>  -0.0450 
  3 C        0.6040     1.5380     0.3520 C.2   1 <1>   0.1980 
  4 C        1.8050    -0.1130    -0.4510 C.2   1 <1>   0.0460 
  5 C        0.8890    -2.3340     0.4390 C.2   1 <1>   0.7150 
  6 N        1.5910     1.2470    -0.4000 N.2   1 <1>  -0.5650 
  7 C        0.0230     2.9070     0.6970 C.3   1 <1>   0.1000 
  8 C        2.9750    -0.5710    -1.2980 C.3   1 <1>  -0.0590 
  9 O        1.8960    -2.9550     0.7230 O.2   1 <1>  -0.5700 
 10 N       -0.2860    -3.0380     0.2810 N.am  1 <1>  -0.6600 
 11 C       -1.2510     3.1720    -0.1150 C.3   1 <1>  -0.2400 
 12 C        1.0390     4.0340     0.4590 C.3   1 <1>  -0.2400 
 13 C       -1.4880    -2.5450    -0.4440 C.3   1 <1>   0.1400 
 14 C       -0.3470    -4.5170     0.4180 C.3   1 <1>   0.1400 
 15 C       -2.4850    -3.7010    -0.3670 C.3   1 <1>   0.2000 
 16 C       -1.5950    -4.9470    -0.3620 C.3   1 <1>  -0.0800 
 17 O       -3.1580    -3.6060     0.8420 O.3   1 <1>  -0.6800 
 18 C       -2.2560    -6.2290     0.1770 C.3   1 <1>  -0.0170 
 19 C       -1.3100    -7.4150     0.0650 C.ar  1 <1>  -0.1430 
 20 C       -1.1610    -8.1170    -1.1140 C.ar  1 <1>  -0.1500 
 21 C       -0.5490    -7.8490     1.1330 C.ar  1 <1>  -0.1500 
 22 C       -0.2810    -9.1850    -1.1680 C.ar  1 <1>   0.1600 
 23 C        0.3020    -8.9290     0.9720 C.ar  1 <1>   0.1600 
 24 N        0.4560    -9.6070    -0.1540 N.ar  1 <1>  -0.6200 
 25 H       -0.2290     2.9040     1.7440 H     1 <1>   0.0800 
 26 H        3.0620    -1.6420    -1.2940 H     1 <1>   0.0800 
 27 H        3.8840    -0.1490    -0.9100 H     1 <1>   0.0800 
 28 H        2.8410    -0.2350    -2.3100 H     1 <1>   0.0800 
 29 H       -1.0270     3.1620    -1.1670 H     1 <1>   0.0800 
 30 H       -1.6680     4.1300     0.1420 H     1 <1>   0.0800 
 31 H       -1.9860     2.4140     0.0860 H     1 <1>   0.0800 
 32 H        1.3100     4.0780    -0.5810 H     1 <1>   0.0800 
 33 H        1.9300     3.8500     1.0330 H     1 <1>   0.0800 
 34 H        0.6290     4.9830     0.7530 H     1 <1>   0.0800 
 35 H       -1.8990    -1.6550    -0.0040 H     1 <1>   0.0800 
 36 H       -1.2250    -2.3530    -1.4700 H     1 <1>   0.0800 
 37 H        0.5390    -4.9850     0.0200 H     1 <1>   0.0800 
 38 H       -0.4390    -4.7660     1.4610 H     1 <1>   0.0800 
 39 H       -3.2080    -3.6920    -1.1640 H     1 <1>   0.0800 
 40 H       -1.2870    -5.1290    -1.3760 H     1 <1>   0.0800 
 41 H       -2.5070    -3.4370     1.5530 H     1 <1>   0.4000 
 42 H       -3.1500    -6.4340    -0.3860 H     1 <1>   0.0800 
 43 H       -2.5470    -6.1000     1.2050 H     1 <1>   0.0800 
 44 H       -1.7200    -7.8450    -1.9900 H     1 <1>   0.1500 
 45 H       -0.6090    -7.3600     2.0880 H     1 <1>   0.1500 
 46 H       -0.1780    -9.7210    -2.0960 H     1 <1>   0.1500 
 47 H        0.8890    -9.2530     1.8150 H     1 <1>   0.1500 
@<TRIPOS>BOND
  1   1   2  1   
  2   1   3  1   
  3   2   4  2   
  4   2   5  1   
  5   3   6  2   
  6   3   7  1   
  7   4   6  1   
  8   4   8  1   
  9   5   9  2   
 10   5  10  am  
 11   7  11  1   
 12   7  12  1   
 13   7  25  1   
 14   8  26  1   
 15   8  27  1   
 16   8  28  1   
 17  10  13  1   
 18  10  14  1   
 19  11  29  1   
 20  11  30  1   
 21  11  31  1   
 22  12  32  1   
 23  12  33  1   
 24  12  34  1   
 25  13  15  1   
 26  13  35  1   
 27  13  36  1   
 28  14  16  1   
 29  14  37  1   
 30  14  38  1   
 31  15  16  1   
 32  15  17  1   
 33  15  39  1   
 34  16  18  1   
 35  16  40  1   
 36  17  41  1   
 37  18  19  1   
 38  18  42  1   
 39  18  43  1   
 40  19  20  ar  
 41  19  21  ar  
 42  20  22  ar  
 43  20  44  1   
 44  21  23  ar  
 45  21  45  1   
 46  22  24  ar  
 47  22  46  1   
 48  23  24  ar  
 49  23  47  1   
@<TRIPOS>SUBSTRUCTURE
  1 ****  10 GROUP 4 **** **** 0

# MOE 2024.06 (io_trps.svl 2023.06)
