@<TRIPOS>MOLECULE
NONAME
43 46 1 0 0 
SMALL
USER_CHARGES


@<TRIPOS>ATOM
  1 O        0.5780    -0.1600    -1.6050 O.2   1 <1>  -0.5700 
  2 C        1.3720    -0.6450    -0.8210 C.2   1 <1>   0.5440 
  3 N        2.3070     0.1440    -0.2120 N.am  1 <1>  -0.4930 
  4 C        1.3490    -2.0550    -0.5300 C.ar  1 <1>   0.0860 
  5 C        2.5070     1.5480    -0.3080 C.2   1 <1>   0.0630 
  6 C        0.2410    -2.6880     0.0570 C.ar  1 <1>   0.0000 
  7 C        2.4220    -2.8820    -0.7970 C.ar  1 <1>  -0.1500 
  8 C        3.5550     2.2240     0.2230 C.2   1 <1>  -0.0680 
  9 C        1.7100     2.5290    -0.9040 C.2   1 <1>   0.1390 
 10 C        0.3130    -4.0400     0.3230 C.ar  1 <1>   0.1050 
 11 C       -1.0420    -2.3230     0.5130 C.2   1 <1>   0.1080 
 12 C        2.3840    -4.2460    -0.4870 C.ar  1 <1>   0.1670 
 13 N        3.3260     3.5360    -0.0460 N.pl3 1 <1>   0.3140 
 14 N        4.6930     1.7520     0.9240 N.pl3 1 <1>  -0.8530 
 15 N        2.1910     3.7300    -0.7550 N.2   1 <1>  -0.7070 
 16 N        1.3620    -4.8420     0.0690 N.ar  1 <1>  -0.5670 
 17 N       -0.8770    -4.3780     0.8920 N.pl3 1 <1>   0.3140 
 18 N       -1.7030    -3.3160     1.0080 N.2   1 <1>  -0.7070 
 19 C       -1.6320    -0.9300     0.4510 C.3   1 <1>  -0.0590 
 20 C        3.5820    -5.1190    -0.8000 C.3   1 <1>  -0.0970 
 21 C        4.2410     4.6170     0.3560 C.3   1 <1>   0.0960 
 22 C        5.7730     2.7480     1.1710 C.3   1 <1>   0.2090 
 23 C       -1.2660    -5.7220     1.3350 C.3   1 <1>   0.0160 
 24 C        5.1750     4.1290     1.4790 C.3   1 <1>  -0.1600 
 25 H        2.8920    -0.2890     0.5010 H     1 <1>   0.3700 
 26 H        3.3010    -2.4730    -1.2590 H     1 <1>   0.1500 
 27 H        0.7930     2.3190    -1.4280 H     1 <1>   0.1500 
 28 H        5.0750     0.8890     0.5200 H     1 <1>   0.4000 
 29 H       -0.9480    -0.2160     0.8700 H     1 <1>   0.0800 
 30 H       -2.5510    -0.8960     1.0070 H     1 <1>   0.0800 
 31 H       -1.8370    -0.6680    -0.5700 H     1 <1>   0.0800 
 32 H        4.3800    -4.5490    -1.2380 H     1 <1>   0.0800 
 33 H        3.2900    -5.8930    -1.4860 H     1 <1>   0.0800 
 34 H        3.9390    -5.5780     0.1050 H     1 <1>   0.0800 
 35 H        3.6580     5.4580     0.6820 H     1 <1>   0.0800 
 36 H        4.8100     4.9010    -0.5090 H     1 <1>   0.0800 
 37 H        6.4050     2.8080     0.3010 H     1 <1>   0.0800 
 38 H        6.3710     2.4190     2.0050 H     1 <1>   0.0800 
 39 H       -0.5810    -6.0530     2.0930 H     1 <1>   0.0800 
 40 H       -1.2300    -6.3910     0.4960 H     1 <1>   0.0800 
 41 H       -2.2630    -5.6900     1.7330 H     1 <1>   0.0800 
 42 H        4.6210     4.0690     2.4000 H     1 <1>   0.0800 
 43 H        5.9660     4.8420     1.6220 H     1 <1>   0.0800 
@<TRIPOS>BOND
  1   1   2  2   
  2   2   3  am  
  3   2   4  1   
  4   3   5  1   
  5   3  25  1   
  6   4   6  ar  
  7   4   7  ar  
  8   5   8  2   
  9   5   9  1   
 10   6  10  ar  
 11   6  11  1   
 12   7  12  ar  
 13   7  26  1   
 14   8  13  1   
 15   8  14  1   
 16   9  15  2   
 17   9  27  1   
 18  10  16  ar  
 19  10  17  1   
 20  11  18  2   
 21  11  19  1   
 22  12  16  ar  
 23  12  20  1   
 24  13  15  1   
 25  13  21  1   
 26  14  22  1   
 27  14  28  1   
 28  17  18  1   
 29  17  23  1   
 30  19  29  1   
 31  19  30  1   
 32  19  31  1   
 33  20  32  1   
 34  20  33  1   
 35  20  34  1   
 36  21  24  1   
 37  21  35  1   
 38  21  36  1   
 39  22  24  1   
 40  22  37  1   
 41  22  38  1   
 42  23  39  1   
 43  23  40  1   
 44  23  41  1   
 45  24  42  1   
 46  24  43  1   
@<TRIPOS>SUBSTRUCTURE
  1 ****   2 GROUP 4 **** **** 0

# MOE 2024.06 (io_trps.svl 2023.06)
