@<TRIPOS>MOLECULE
NONAME
37 38 1 0 0 
SMALL
USER_CHARGES


@<TRIPOS>ATOM
  1 S        1.7810     0.6140     2.0570 S.3   1 <1>  -0.0800 
  2 C        1.8090     0.1360     0.3660 C.2   1 <1>  -0.1400 
  3 C        0.1050     0.1210     2.2150 C.2   1 <1>  -0.1100 
  4 C        0.6120    -0.3580    -0.0030 C.2   1 <1>  -0.1500 
  5 C        3.1030     0.3270    -0.4000 C.3   1 <1>   0.0200 
  6 C       -0.3590    -0.3650     1.0500 C.2   1 <1>  -0.1500 
  7 C        3.3770     1.8170    -0.6410 C.3   1 <1>  -0.1600 
  8 C        4.7100     2.0400    -1.3750 C.3   1 <1>  -0.0990 
  9 C        4.9720     3.5050    -1.6720 C.2   1 <1>   0.5690 
 10 O        5.0240     3.8530    -2.8240 O.2   1 <1>  -0.5700 
 11 N        5.1360     4.3460    -0.6090 N.am  1 <1>  -0.4940 
 12 C        5.4020     5.7200    -0.5930 C.2   1 <1>   0.2040 
 13 O        5.6210     6.4070    -1.6890 O.3   1 <1>  -0.0190 
 14 C        5.4920     6.5730     0.4480 C.2   1 <1>  -0.1810 
 15 N        5.8530     7.6700    -1.4340 N.2   1 <1>  -0.4100 
 16 C        5.7810     7.7960    -0.1580 C.2   1 <1>   0.1080 
 17 C        5.3250     6.3130     1.9360 C.3   1 <1>  -0.0590 
 18 C        5.9910     9.1200     0.5560 C.3   1 <1>   0.0210 
 19 C        7.4450     9.2820     1.0130 C.3   1 <1>  -0.2400 
 20 H       -0.3610     0.2490     3.1760 H     1 <1>   0.1500 
 21 H        0.3600    -0.7240    -0.9830 H     1 <1>   0.1500 
 22 H        3.0310    -0.1830    -1.3450 H     1 <1>   0.0800 
 23 H        3.9090    -0.1170     0.1590 H     1 <1>   0.0800 
 24 H       -1.3550    -0.7340     0.8790 H     1 <1>   0.1500 
 25 H        3.3910     2.3310     0.3040 H     1 <1>   0.0800 
 26 H        2.5730     2.2290    -1.2280 H     1 <1>   0.0800 
 27 H        4.6970     1.5050    -2.3090 H     1 <1>   0.0800 
 28 H        5.5260     1.6560    -0.7910 H     1 <1>   0.0800 
 29 H        5.0330     3.9200     0.3060 H     1 <1>   0.3700 
 30 H        5.1090     5.2770     2.1200 H     1 <1>   0.0800 
 31 H        4.5150     6.9050     2.3220 H     1 <1>   0.0800 
 32 H        6.2270     6.5740     2.4580 H     1 <1>   0.0800 
 33 H        5.3310     9.1830     1.4020 H     1 <1>   0.0800 
 34 H        5.7390     9.9200    -0.1180 H     1 <1>   0.0800 
 35 H        7.7140     8.4990     1.6990 H     1 <1>   0.0800 
 36 H        7.5780    10.2320     1.4990 H     1 <1>   0.0800 
 37 H        8.1020     9.2340     0.1620 H     1 <1>   0.0800 
@<TRIPOS>BOND
  1   1   2  1   
  2   1   3  1   
  3   2   4  2   
  4   2   5  1   
  5   3   6  2   
  6   3  20  1   
  7   4   6  1   
  8   4  21  1   
  9   5   7  1   
 10   5  22  1   
 11   5  23  1   
 12   6  24  1   
 13   7   8  1   
 14   7  25  1   
 15   7  26  1   
 16   8   9  1   
 17   8  27  1   
 18   8  28  1   
 19   9  10  2   
 20   9  11  am  
 21  11  12  1   
 22  11  29  1   
 23  12  13  1   
 24  12  14  2   
 25  13  15  1   
 26  14  16  1   
 27  14  17  1   
 28  15  16  2   
 29  16  18  1   
 30  17  30  1   
 31  17  31  1   
 32  17  32  1   
 33  18  19  1   
 34  18  33  1   
 35  18  34  1   
 36  19  35  1   
 37  19  36  1   
 38  19  37  1   
@<TRIPOS>SUBSTRUCTURE
  1 ****  11 GROUP 4 **** **** 0

# MOE 2024.06 (io_trps.svl 2023.06)
