@<TRIPOS>MOLECULE
NONAME
46 47 1 0 0 
SMALL
USER_CHARGES


@<TRIPOS>ATOM
  1 S        1.7240     0.2300    -1.1620 S.o2  1 <1>   1.3330 
  2 O        2.2520     1.0700    -2.2090 O.2   1 <1>  -0.6500 
  3 O        2.4840    -0.8740    -0.6290 O.2   1 <1>  -0.6500 
  4 N        1.2860     1.2380     0.1820 N.am  1 <1>  -0.6930 
  5 C        0.1410    -0.3960    -1.6860 C.3   1 <1>  -0.1350 
  6 C        1.1970     2.6230     0.0780 C.ar  1 <1>   0.1990 
  7 C        1.2870     0.5890     1.5170 C.3   1 <1>   0.1160 
  8 C        1.8880     3.4560     0.9550 C.ar  1 <1>  -0.1500 
  9 C        0.4130     3.2300    -0.8990 C.ar  1 <1>  -0.1500 
 10 C        1.7940     4.8310     0.8640 C.ar  1 <1>  -0.1500 
 11 C        0.3200     4.6050    -0.9890 C.ar  1 <1>  -0.1500 
 12 C        1.0090     5.4470    -0.1150 C.ar  1 <1>   0.0860 
 13 C        0.9070     6.8890    -0.2290 C.2   1 <1>   0.5440 
 14 O       -0.0680     7.4100    -0.7360 O.2   1 <1>  -0.5700 
 15 N        1.9100     7.6970     0.2200 N.am  1 <1>  -0.7300 
 16 C        1.9550     9.1500     0.0340 C.3   1 <1>   0.4010 
 17 C        3.4220     9.5410     0.0120 C.2   1 <1>  -0.1810 
 18 C        1.1780     9.8330     1.1690 C.3   1 <1>  -0.1600 
 19 C        4.3100     9.4800     1.0800 C.2   1 <1>   0.1390 
 20 C        4.1640    10.0080    -1.0160 C.2   1 <1>  -0.3020 
 21 C        1.1890    11.3660     1.0660 C.3   1 <1>  -0.2400 
 22 N        5.5030     9.8670     0.7510 N.2   1 <1>  -0.7070 
 23 N        5.4130    10.1980    -0.5470 N.pl3 1 <1>   0.3140 
 24 C        6.5720    10.6990    -1.2930 C.3   1 <1>   0.0160 
 25 H        0.2710    -1.0680    -2.5110 H     1 <1>   0.0800 
 26 H       -0.4970     0.4060    -1.9950 H     1 <1>   0.0800 
 27 H       -0.3310    -0.9260    -0.8830 H     1 <1>   0.0800 
 28 H        0.7300    -0.3310     1.4780 H     1 <1>   0.0800 
 29 H        0.8360     1.2350     2.2500 H     1 <1>   0.0800 
 30 H        2.3000     0.3680     1.8100 H     1 <1>   0.0800 
 31 H        2.5130     3.0180     1.7110 H     1 <1>   0.1500 
 32 H       -0.1290     2.6220    -1.5960 H     1 <1>   0.1500 
 33 H        2.3360     5.4370     1.5670 H     1 <1>   0.1500 
 34 H       -0.2960     5.0480    -1.7540 H     1 <1>   0.1500 
 35 H        2.8290     7.2940     0.4000 H     1 <1>   0.3700 
 36 H        1.5040     9.4010    -0.9120 H     1 <1>   0.0800 
 37 H        1.5920     9.5400     2.1170 H     1 <1>   0.0800 
 38 H        0.1570     9.4950     1.1310 H     1 <1>   0.0800 
 39 H        4.0510     9.1510     2.0730 H     1 <1>   0.1500 
 40 H        3.8800    10.2090    -2.0320 H     1 <1>   0.1500 
 41 H        2.1920    11.7480     1.1470 H     1 <1>   0.0800 
 42 H        0.5990    11.7910     1.8600 H     1 <1>   0.0800 
 43 H        0.7730    11.6820     0.1250 H     1 <1>   0.0800 
 44 H        6.3520    10.6990    -2.3440 H     1 <1>   0.0800 
 45 H        7.4130    10.0610    -1.0960 H     1 <1>   0.0800 
 46 H        6.7920    11.6960    -0.9640 H     1 <1>   0.0800 
@<TRIPOS>BOND
  1   1   2  2   
  2   1   3  2   
  3   1   4  am  
  4   1   5  1   
  5   4   6  1   
  6   4   7  1   
  7   5  25  1   
  8   5  26  1   
  9   5  27  1   
 10   6   8  ar  
 11   6   9  ar  
 12   7  28  1   
 13   7  29  1   
 14   7  30  1   
 15   8  10  ar  
 16   8  31  1   
 17   9  11  ar  
 18   9  32  1   
 19  10  12  ar  
 20  10  33  1   
 21  11  12  ar  
 22  11  34  1   
 23  12  13  1   
 24  13  14  2   
 25  13  15  am  
 26  15  16  1   
 27  15  35  1   
 28  16  17  1   
 29  16  18  1   
 30  16  36  1   
 31  17  19  1   
 32  17  20  2   
 33  18  21  1   
 34  18  37  1   
 35  18  38  1   
 36  19  22  2   
 37  19  39  1   
 38  20  23  1   
 39  20  40  1   
 40  21  41  1   
 41  21  42  1   
 42  21  43  1   
 43  22  23  1   
 44  23  24  1   
 45  24  44  1   
 46  24  45  1   
 47  24  46  1   
@<TRIPOS>SUBSTRUCTURE
  1 ****  12 GROUP 4 **** **** 0

# MOE 2024.06 (io_trps.svl 2023.06)
