@<TRIPOS>MOLECULE
NONAME
53 55 1 0 0 
SMALL
USER_CHARGES


@<TRIPOS>ATOM
  1 S        0.4640     0.1060    -0.7230 S.o2  1 <1>   1.3330 
  2 O        0.1910     0.0510     0.6970 O.2   1 <1>  -0.6500 
  3 O        0.5010    -1.1200    -1.4880 O.2   1 <1>  -0.6500 
  4 N       -0.6810     1.1410    -1.4280 N.am  1 <1>  -0.8490 
  5 C        2.0120     0.9670    -0.9840 C.3   1 <1>  -0.0550 
  6 C       -1.0320     2.2880    -0.5850 C.3   1 <1>   0.1160 
  7 C       -1.8940     0.4260    -1.8320 C.3   1 <1>   0.1160 
  8 C        3.2460     0.1430    -0.5660 C.3   1 <1>  -0.0800 
  9 C        4.5850     0.8210    -0.8150 C.3   1 <1>   0.2200 
 10 C        3.3150    -0.2080     0.9260 C.3   1 <1>   0.1200 
 11 N        4.5390     2.2460    -0.4050 N.am  1 <1>  -0.7300 
 12 C        5.4630     0.0610     0.1690 C.3   1 <1>   0.1200 
 13 O        4.6620    -0.1190     1.2970 O.3   1 <1>  -0.5600 
 14 C        4.3630     3.3110    -1.2420 C.2   1 <1>   0.5440 
 15 O        4.1940     3.0720    -2.4230 O.2   1 <1>  -0.5700 
 16 C        4.3550     4.6730    -0.7420 C.ar  1 <1>   0.0860 
 17 C        4.2110     4.9760     0.6160 C.ar  1 <1>  -0.1500 
 18 C        4.4900     5.7590    -1.6090 C.ar  1 <1>  -0.1500 
 19 C        4.2040     6.2800     1.0710 C.ar  1 <1>  -0.1500 
 20 C        4.4820     7.0630    -1.1550 C.ar  1 <1>  -0.1500 
 21 C        4.3320     7.3580     0.1990 C.ar  1 <1>   0.1000 
 22 N        4.3220     8.6680     0.6790 N.pl3 1 <1>  -0.8380 
 23 C        4.5790     9.8550    -0.1710 C.3   1 <1>   0.2090 
 24 C        3.5680     9.0630     1.8950 C.3   1 <1>   0.2090 
 25 C        4.2720    11.0490     0.7220 C.3   1 <1>  -0.1600 
 26 C        3.2120    10.5300     1.6880 C.3   1 <1>  -0.1600 
 27 H        2.1020     1.2090    -2.0260 H     1 <1>   0.0800 
 28 H        1.9910     1.8890    -0.4390 H     1 <1>   0.0800 
 29 H       -1.6990     2.9450    -1.1160 H     1 <1>   0.0800 
 30 H       -0.1480     2.8430    -0.3240 H     1 <1>   0.0800 
 31 H       -1.5130     1.9560     0.3210 H     1 <1>   0.0800 
 32 H       -2.5900     1.1030    -2.2970 H     1 <1>   0.0800 
 33 H       -2.3610    -0.0330    -0.9760 H     1 <1>   0.0800 
 34 H       -1.6480    -0.3430    -2.5460 H     1 <1>   0.0800 
 35 H        3.2340    -0.7830    -1.1170 H     1 <1>   0.0800 
 36 H        4.9250     0.7250    -1.8330 H     1 <1>   0.0800 
 37 H        2.9620    -1.2070     1.1200 H     1 <1>   0.0800 
 38 H        2.7650     0.4940     1.5290 H     1 <1>   0.0800 
 39 H        4.6970     2.3890     0.5950 H     1 <1>   0.3700 
 40 H        6.3560     0.5980     0.4350 H     1 <1>   0.0800 
 41 H        5.7180    -0.9110    -0.2170 H     1 <1>   0.0800 
 42 H        4.1000     4.1840     1.3330 H     1 <1>   0.1500 
 43 H        4.6040     5.5690    -2.6630 H     1 <1>   0.1500 
 44 H        4.1070     6.4680     2.1230 H     1 <1>   0.1500 
 45 H        4.5930     7.8570    -1.8660 H     1 <1>   0.1500 
 46 H        5.6000     9.8670    -0.5130 H     1 <1>   0.0800 
 47 H        3.9080     9.8450    -1.0130 H     1 <1>   0.0800 
 48 H        2.6830     8.4600     2.0150 H     1 <1>   0.0800 
 49 H        4.2070     8.9500     2.7530 H     1 <1>   0.0800 
 50 H        5.1620    11.3160     1.2640 H     1 <1>   0.0800 
 51 H        3.9340    11.8970     0.1550 H     1 <1>   0.0800 
 52 H        2.2400    10.5900     1.2310 H     1 <1>   0.0800 
 53 H        3.2000    11.0730     2.6160 H     1 <1>   0.0800 
@<TRIPOS>BOND
  1   1   2  2   
  2   1   3  2   
  3   1   4  am  
  4   1   5  1   
  5   4   6  1   
  6   4   7  1   
  7   5   8  1   
  8   5  27  1   
  9   5  28  1   
 10   6  29  1   
 11   6  30  1   
 12   6  31  1   
 13   7  32  1   
 14   7  33  1   
 15   7  34  1   
 16   8   9  1   
 17   8  10  1   
 18   8  35  1   
 19   9  11  1   
 20   9  12  1   
 21   9  36  1   
 22  10  13  1   
 23  10  37  1   
 24  10  38  1   
 25  11  14  am  
 26  11  39  1   
 27  12  13  1   
 28  12  40  1   
 29  12  41  1   
 30  14  15  2   
 31  14  16  1   
 32  16  17  ar  
 33  16  18  ar  
 34  17  19  ar  
 35  17  42  1   
 36  18  20  ar  
 37  18  43  1   
 38  19  21  ar  
 39  19  44  1   
 40  20  21  ar  
 41  20  45  1   
 42  21  22  1   
 43  22  23  1   
 44  22  24  1   
 45  23  25  1   
 46  23  46  1   
 47  23  47  1   
 48  24  26  1   
 49  24  48  1   
 50  24  49  1   
 51  25  26  1   
 52  25  50  1   
 53  25  51  1   
 54  26  52  1   
 55  26  53  1   
@<TRIPOS>SUBSTRUCTURE
  1 ****  16 GROUP 4 **** **** 0

# MOE 2024.06 (io_trps.svl 2023.06)
