@<TRIPOS>MOLECULE
NONAME
46 48 1 0 0 
SMALL
USER_CHARGES


@<TRIPOS>ATOM
  1 O       -0.0340     1.0640     1.0790 O.2   1 <1>  -0.5700 
  2 C       -0.0100     2.2340     0.7950 C.2   1 <1>   0.5690 
  3 N       -1.0910     3.0160     1.0100 N.am  1 <1>  -0.7300 
  4 C        1.2400     2.8450     0.1550 C.3   1 <1>   0.1810 
  5 C       -1.1150     4.4740     0.7360 C.3   1 <1>   0.3640 
  6 O        1.2800     4.2530     0.2510 O.3   1 <1>  -0.5600 
  7 C       -2.4360     4.8220     0.0580 C.ar  1 <1>  -0.1440 
  8 C        0.0870     4.9150    -0.1410 C.3   1 <1>   0.2610 
  9 C       -2.9420     4.0450    -0.9760 C.ar  1 <1>   0.1600 
 10 C       -3.1510     5.9360     0.4550 C.ar  1 <1>  -0.1500 
 11 C        0.2700     6.4450    -0.1200 C.2   1 <1>   0.5690 
 12 N       -4.0660     4.2880    -1.6310 N.ar  1 <1>  -0.6200 
 13 C       -4.3270     6.2010    -0.2120 C.ar  1 <1>  -0.1500 
 14 O       -0.2060     7.0730     0.8020 O.2   1 <1>  -0.5700 
 15 N        0.9390     7.0920    -1.1370 N.am  1 <1>  -0.6600 
 16 C       -4.7330     5.3580    -1.2330 C.ar  1 <1>   0.1600 
 17 C        0.9970     8.5780    -1.1740 C.3   1 <1>   0.1400 
 18 C        1.6740     6.4020    -2.2350 C.3   1 <1>   0.0600 
 19 C        2.2300     9.0660    -0.4120 C.3   1 <1>  -0.1600 
 20 C        2.2900    10.5990    -0.4030 C.3   1 <1>   0.0960 
 21 N        3.4780    11.0810     0.3270 N.pl3 1 <1>   0.3140 
 22 N        3.3800    11.6770     1.5290 N.2   1 <1>  -0.7070 
 23 C        4.7620    11.0160    -0.0820 C.2   1 <1>  -0.3020 
 24 C        4.6010    11.9690     1.8570 C.2   1 <1>   0.1390 
 25 C        5.5140    11.5800     0.8850 C.2   1 <1>  -0.1500 
 26 H       -1.9050     2.6090     1.4740 H     1 <1>   0.3700 
 27 H        1.2790     2.5730    -0.8830 H     1 <1>   0.0800 
 28 H        2.1140     2.4590     0.6470 H     1 <1>   0.0800 
 29 H       -1.0610     4.9800     1.6850 H     1 <1>   0.0800 
 30 H       -0.1170     4.6290    -1.1560 H     1 <1>   0.0800 
 31 H       -2.3950     3.1710    -1.2880 H     1 <1>   0.1500 
 32 H       -2.8070     6.5810     1.2470 H     1 <1>   0.1500 
 33 H       -4.9250     7.0530     0.0530 H     1 <1>   0.1500 
 34 H       -5.6530     5.5770    -1.7480 H     1 <1>   0.1500 
 35 H        1.0270     8.9130    -2.1970 H     1 <1>   0.0800 
 36 H        0.1070     8.9830    -0.7200 H     1 <1>   0.0800 
 37 H        2.5610     6.9540    -2.4900 H     1 <1>   0.0800 
 38 H        1.0440     6.3320    -3.1050 H     1 <1>   0.0800 
 39 H        1.9760     5.4140    -1.9350 H     1 <1>   0.0800 
 40 H        3.1180     8.6730    -0.8730 H     1 <1>   0.0800 
 41 H        2.1750     8.7150     0.6050 H     1 <1>   0.0800 
 42 H        1.4170    10.9980     0.0820 H     1 <1>   0.0800 
 43 H        2.3330    10.9820    -1.4050 H     1 <1>   0.0800 
 44 H        5.0620    10.5820    -1.0170 H     1 <1>   0.1500 
 45 H        4.8640    12.4580     2.7800 H     1 <1>   0.1500 
 46 H        6.5800    11.7140     0.9260 H     1 <1>   0.1500 
@<TRIPOS>BOND
  1   1   2  2   
  2   2   3  am  
  3   2   4  1   
  4   3   5  1   
  5   3  26  1   
  6   4   6  1   
  7   4  27  1   
  8   4  28  1   
  9   5   7  1   
 10   5   8  1   
 11   5  29  1   
 12   6   8  1   
 13   7   9  ar  
 14   7  10  ar  
 15   8  11  1   
 16   8  30  1   
 17   9  12  ar  
 18   9  31  1   
 19  10  13  ar  
 20  10  32  1   
 21  11  14  2   
 22  11  15  am  
 23  12  16  ar  
 24  13  16  ar  
 25  13  33  1   
 26  15  17  1   
 27  15  18  1   
 28  16  34  1   
 29  17  19  1   
 30  17  35  1   
 31  17  36  1   
 32  18  37  1   
 33  18  38  1   
 34  18  39  1   
 35  19  20  1   
 36  19  40  1   
 37  19  41  1   
 38  20  21  1   
 39  20  42  1   
 40  20  43  1   
 41  21  22  1   
 42  21  23  1   
 43  22  24  2   
 44  23  25  2   
 45  23  44  1   
 46  24  25  1   
 47  24  45  1   
 48  25  46  1   
@<TRIPOS>SUBSTRUCTURE
  1 ****  11 GROUP 4 **** **** 0

# MOE 2024.06 (io_trps.svl 2023.06)
