@<TRIPOS>MOLECULE
NONAME
47 51 1 0 0 
SMALL
USER_CHARGES


@<TRIPOS>ATOM
  1 O        0.9540    -0.7490    -1.7590 O.3   1 <1>  -0.5600 
  2 C        1.8830    -1.0300    -0.7320 C.3   1 <1>   0.4600 
  3 C       -0.4040    -1.0360    -1.5240 C.3   1 <1>   0.1200 
  4 C        1.5150    -2.3540    -0.0740 C.2   1 <1>  -0.3320 
  5 C        3.2520    -1.1430    -1.4110 C.3   1 <1>  -0.1600 
  6 C        1.8670     0.1140     0.2910 C.3   1 <1>  -0.1600 
  7 C       -0.6270    -2.5460    -1.3280 C.3   1 <1>   0.0210 
  8 N        2.2530    -3.0230     0.8620 N.pl3 1 <1>   0.0330 
  9 C        0.3910    -3.0490    -0.3350 C.2   1 <1>  -0.1810 
 10 C        3.6930     0.1940    -2.0000 C.3   1 <1>   0.2090 
 11 C        2.3350     1.4270    -0.3310 C.3   1 <1>   0.2090 
 12 C        1.5770    -4.1730     1.1930 C.ar  1 <1>  -0.1520 
 13 C        0.3990    -4.2200     0.4510 C.ar  1 <1>   0.0000 
 14 N        3.6870     1.2100    -0.9120 N.pl3 1 <1>  -0.8380 
 15 C        1.8990    -5.1940     2.0900 C.ar  1 <1>  -0.1500 
 16 C       -0.4730    -5.3030     0.6040 C.ar  1 <1>  -0.1500 
 17 C        4.8390     1.7330    -0.3570 C.ar  1 <1>   0.7200 
 18 C        1.0320    -6.2530     2.2320 C.ar  1 <1>  -0.1500 
 19 C       -0.1540    -6.3080     1.4880 C.ar  1 <1>  -0.1500 
 20 N        4.6960     2.7280     0.5180 N.ar  1 <1>  -0.6200 
 21 N        5.9980     1.1920    -0.7340 N.ar  1 <1>  -0.6200 
 22 C        5.7900     3.2230     1.0370 C.ar  1 <1>   0.1670 
 23 C        7.0790     1.7040    -0.2010 C.ar  1 <1>   0.1600 
 24 C        7.0300     2.7360     0.7030 C.ar  1 <1>  -0.1500 
 25 C        5.6290     4.3590     2.0250 C.3   1 <1>  -0.0970 
 26 H       -0.9650    -0.6860    -2.3720 H     1 <1>   0.0800 
 27 H       -0.7220    -0.4960    -0.6510 H     1 <1>   0.0800 
 28 H        3.2040    -1.8880    -2.1830 H     1 <1>   0.0800 
 29 H        3.9910    -1.4540    -0.6980 H     1 <1>   0.0800 
 30 H        2.5310    -0.1250     1.1010 H     1 <1>   0.0800 
 31 H        0.8860     0.2290     0.7070 H     1 <1>   0.0800 
 32 H       -0.5070    -3.0600    -2.2640 H     1 <1>   0.0800 
 33 H       -1.6210    -2.7210    -0.9610 H     1 <1>   0.0800 
 34 H        3.1560    -2.7340     1.2490 H     1 <1>   0.2700 
 35 H        3.0070     0.5010    -2.7720 H     1 <1>   0.0800 
 36 H        4.6660     0.0980    -2.4490 H     1 <1>   0.0800 
 37 H        2.3410     2.2010     0.4160 H     1 <1>   0.0800 
 38 H        1.6590     1.7290    -1.1140 H     1 <1>   0.0800 
 39 H        2.8110    -5.1440     2.6560 H     1 <1>   0.1500 
 40 H       -1.3780    -5.3310     0.0270 H     1 <1>   0.1500 
 41 H        1.2570    -7.0520     2.9160 H     1 <1>   0.1500 
 42 H       -0.8140    -7.1470     1.6170 H     1 <1>   0.1500 
 43 H        8.0280     1.2900    -0.4920 H     1 <1>   0.1500 
 44 H        7.9290     3.1410     1.1270 H     1 <1>   0.1500 
 45 H        5.1290     5.1800     1.5450 H     1 <1>   0.0800 
 46 H        6.5820     4.6940     2.3880 H     1 <1>   0.0800 
 47 H        5.0330     4.0290     2.8560 H     1 <1>   0.0800 
@<TRIPOS>BOND
  1   1   2  1   
  2   1   3  1   
  3   2   4  1   
  4   2   5  1   
  5   2   6  1   
  6   3   7  1   
  7   3  26  1   
  8   3  27  1   
  9   4   8  1   
 10   4   9  2   
 11   5  10  1   
 12   5  28  1   
 13   5  29  1   
 14   6  11  1   
 15   6  30  1   
 16   6  31  1   
 17   7   9  1   
 18   7  32  1   
 19   7  33  1   
 20   8  12  1   
 21   8  34  1   
 22   9  13  1   
 23  10  14  1   
 24  10  35  1   
 25  10  36  1   
 26  11  14  1   
 27  11  37  1   
 28  11  38  1   
 29  12  13  ar  
 30  12  15  ar  
 31  13  16  ar  
 32  14  17  1   
 33  15  18  ar  
 34  15  39  1   
 35  16  19  ar  
 36  16  40  1   
 37  17  20  ar  
 38  17  21  ar  
 39  18  19  ar  
 40  18  41  1   
 41  19  42  1   
 42  20  22  ar  
 43  21  23  ar  
 44  22  24  ar  
 45  22  25  1   
 46  23  24  ar  
 47  23  43  1   
 48  24  44  1   
 49  25  45  1   
 50  25  46  1   
 51  25  47  1   
@<TRIPOS>SUBSTRUCTURE
  1 ****   2 GROUP 4 **** **** 0

# MOE 2024.06 (io_trps.svl 2023.06)
