@<TRIPOS>MOLECULE
NONAME
43 44 1 0 0 
SMALL
USER_CHARGES


@<TRIPOS>ATOM
  1 F       -0.4890     1.3570     1.2420 F     1 <1>  -0.1900 
  2 C       -1.3460     2.3400     1.1530 C.ar  1 <1>   0.1900 
  3 C       -1.1560     3.3330     0.2020 C.ar  1 <1>  -0.1440 
  4 C       -2.4190     2.3400     2.0260 C.ar  1 <1>  -0.1500 
  5 C       -2.0920     4.3560     0.1420 C.ar  1 <1>  -0.1500 
  6 C        0.0290     3.3120    -0.7560 C.3   1 <1>   0.2540 
  7 C       -3.3420     3.3690     1.9490 C.ar  1 <1>  -0.1500 
  8 C       -3.1760     4.3740     1.0080 C.ar  1 <1>  -0.1500 
  9 N        0.7820     4.5800    -0.7010 N.3   1 <1>  -0.8100 
 10 C        1.8100     4.6270    -1.7870 C.3   1 <1>   0.1710 
 11 C        1.4120     4.7570     0.6210 C.3   1 <1>   0.0300 
 12 C        2.3760     6.0240    -2.0710 C.2   1 <1>   0.5690 
 13 O        3.4430     6.1330    -2.6280 O.2   1 <1>  -0.5700 
 14 N        1.6490     7.1020    -1.6820 N.am  1 <1>  -0.7300 
 15 C        2.0210     8.5150    -1.8730 C.3   1 <1>   0.1400 
 16 C        2.7000     9.0260    -0.6040 C.3   1 <1>  -0.1600 
 17 C        3.1820    10.4710    -0.7780 C.3   1 <1>   0.0200 
 18 C        3.8580    10.9760     0.4820 C.2   1 <1>   0.0060 
 19 N        3.3250    11.8370     1.2850 N.2   1 <1>  -0.5650 
 20 N        5.0860    10.5640     0.8700 N.pl3 1 <1>   0.0330 
 21 C        4.2520    11.9990     2.2490 C.2   1 <1>   0.0770 
 22 C        5.3360    11.2290     2.0120 C.2   1 <1>  -0.3020 
 23 H       -2.5270     1.5510     2.7470 H     1 <1>   0.1500 
 24 H       -1.9710     5.1440    -0.5810 H     1 <1>   0.1500 
 25 H       -0.3550     3.1700    -1.7520 H     1 <1>   0.0800 
 26 H        0.6890     2.4900    -0.5380 H     1 <1>   0.0800 
 27 H       -4.1850     3.3900     2.6180 H     1 <1>   0.1500 
 28 H       -3.8920     5.1750     0.9490 H     1 <1>   0.1500 
 29 H        1.3710     4.2840    -2.7060 H     1 <1>   0.0800 
 30 H        2.6260     3.9680    -1.5480 H     1 <1>   0.0800 
 31 H        0.6590     4.8080     1.3880 H     1 <1>   0.0800 
 32 H        1.9770     5.6730     0.6500 H     1 <1>   0.0800 
 33 H        2.0730     3.9340     0.8390 H     1 <1>   0.0800 
 34 H        0.8030     6.8940    -1.1400 H     1 <1>   0.3700 
 35 H        1.1370     9.0910    -2.0900 H     1 <1>   0.0800 
 36 H        2.6960     8.5940    -2.7090 H     1 <1>   0.0800 
 37 H        3.5410     8.3940    -0.3780 H     1 <1>   0.0800 
 38 H        2.0070     8.9850     0.2190 H     1 <1>   0.0800 
 39 H        2.3420    11.1080    -0.9960 H     1 <1>   0.0800 
 40 H        3.8720    10.5370    -1.6010 H     1 <1>   0.0800 
 41 H        5.6880     9.8890     0.3900 H     1 <1>   0.2700 
 42 H        4.0870    12.6720     3.0740 H     1 <1>   0.1500 
 43 H        6.2430    11.1220     2.5780 H     1 <1>   0.1500 
@<TRIPOS>BOND
  1   1   2  1   
  2   2   3  ar  
  3   2   4  ar  
  4   3   5  ar  
  5   3   6  1   
  6   4   7  ar  
  7   4  23  1   
  8   5   8  ar  
  9   5  24  1   
 10   6   9  1   
 11   6  25  1   
 12   6  26  1   
 13   7   8  ar  
 14   7  27  1   
 15   8  28  1   
 16   9  10  1   
 17   9  11  1   
 18  10  12  1   
 19  10  29  1   
 20  10  30  1   
 21  11  31  1   
 22  11  32  1   
 23  11  33  1   
 24  12  13  2   
 25  12  14  am  
 26  14  15  1   
 27  14  34  1   
 28  15  16  1   
 29  15  35  1   
 30  15  36  1   
 31  16  17  1   
 32  16  37  1   
 33  16  38  1   
 34  17  18  1   
 35  17  39  1   
 36  17  40  1   
 37  18  19  2   
 38  18  20  1   
 39  19  21  1   
 40  20  22  1   
 41  20  41  1   
 42  21  22  2   
 43  21  42  1   
 44  22  43  1   
@<TRIPOS>SUBSTRUCTURE
  1 ****  11 GROUP 4 **** **** 0

# MOE 2024.06 (io_trps.svl 2023.06)
