@<TRIPOS>MOLECULE
NONAME
45 46 1 0 0 
SMALL
USER_CHARGES


@<TRIPOS>ATOM
  1 S        0.3810    -0.0030     0.7000 S.o2  1 <1>   1.3330 
  2 O        1.7100     0.0780     1.2640 O.2   1 <1>  -0.6500 
  3 O       -0.7690    -0.0150     1.5760 O.2   1 <1>  -0.6500 
  4 N        0.3180    -1.3810    -0.2890 N.am  1 <1>  -0.8490 
  5 C        0.1570     1.3350    -0.4700 C.3   1 <1>  -0.0550 
  6 C        1.6040    -1.7120    -0.9120 C.3   1 <1>   0.1160 
  7 C       -0.2070    -2.5510     0.4210 C.3   1 <1>   0.1160 
  8 C        0.0750     2.7160     0.2010 C.3   1 <1>  -0.0800 
  9 C       -0.2270     3.8270    -0.7990 C.3   1 <1>   0.2000 
 10 C        1.3730     3.1660     0.8760 C.3   1 <1>   0.1400 
 11 O       -1.5890     3.8910    -1.0430 O.3   1 <1>  -0.6800 
 12 C        0.2990     5.1040    -0.1500 C.3   1 <1>   0.1400 
 13 N        1.3860     4.6430     0.7470 N.am  1 <1>  -0.6600 
 14 C        2.4990     5.3980     1.0460 C.2   1 <1>   0.7160 
 15 O        3.4980     4.8230     1.4410 O.2   1 <1>  -0.5700 
 16 C        2.4880     6.8360     0.8730 C.2   1 <1>  -0.0860 
 17 C        3.4120     7.6650     0.2800 C.2   1 <1>  -0.3320 
 18 C        1.4580     7.6930     1.3120 C.2   1 <1>  -0.1500 
 19 N        2.9910     8.9530     0.3360 N.pl3 1 <1>   0.0480 
 20 C        4.7320     7.2580    -0.3580 C.3   1 <1>  -0.0600 
 21 C        1.7910     8.9600     0.9680 C.2   1 <1>  -0.3020 
 22 C        3.6930    10.1440    -0.1730 C.3   1 <1>   0.0160 
 23 H        0.9610     1.3300    -1.1800 H     1 <1>   0.0800 
 24 H       -0.7560     1.1650    -1.0080 H     1 <1>   0.0800 
 25 H        1.4830    -2.5340    -1.5960 H     1 <1>   0.0800 
 26 H        2.3280    -1.9840    -0.1610 H     1 <1>   0.0800 
 27 H        1.9800    -0.8660    -1.4610 H     1 <1>   0.0800 
 28 H       -0.2490    -3.4010    -0.2390 H     1 <1>   0.0800 
 29 H       -1.2060    -2.3520     0.7730 H     1 <1>   0.0800 
 30 H        0.4170    -2.7880     1.2670 H     1 <1>   0.0800 
 31 H       -0.6910     2.7010     0.9590 H     1 <1>   0.0800 
 32 H        0.2780     3.6630    -1.7360 H     1 <1>   0.0800 
 33 H        2.2360     2.7610     0.3730 H     1 <1>   0.0800 
 34 H        1.4050     2.8760     1.9140 H     1 <1>   0.0800 
 35 H       -2.0840     3.9990    -0.2070 H     1 <1>   0.4000 
 36 H       -0.4660     5.5790     0.4390 H     1 <1>   0.0800 
 37 H        0.6760     5.7870    -0.8930 H     1 <1>   0.0800 
 38 H        0.5770     7.3650     1.8350 H     1 <1>   0.1500 
 39 H        4.8540     6.1900    -0.3370 H     1 <1>   0.0800 
 40 H        5.5520     7.6990     0.1800 H     1 <1>   0.0800 
 41 H        4.7670     7.5810    -1.3820 H     1 <1>   0.0800 
 42 H        1.2400     9.8660     1.1470 H     1 <1>   0.1500 
 43 H        3.1140    11.0230     0.0430 H     1 <1>   0.0800 
 44 H        3.8220    10.0510    -1.2350 H     1 <1>   0.0800 
 45 H        4.6520    10.2190     0.3040 H     1 <1>   0.0800 
@<TRIPOS>BOND
  1   1   2  2   
  2   1   3  2   
  3   1   4  am  
  4   1   5  1   
  5   4   6  1   
  6   4   7  1   
  7   5   8  1   
  8   5  23  1   
  9   5  24  1   
 10   6  25  1   
 11   6  26  1   
 12   6  27  1   
 13   7  28  1   
 14   7  29  1   
 15   7  30  1   
 16   8   9  1   
 17   8  10  1   
 18   8  31  1   
 19   9  11  1   
 20   9  12  1   
 21   9  32  1   
 22  10  13  1   
 23  10  33  1   
 24  10  34  1   
 25  11  35  1   
 26  12  13  1   
 27  12  36  1   
 28  12  37  1   
 29  13  14  am  
 30  14  15  2   
 31  14  16  1   
 32  16  17  2   
 33  16  18  1   
 34  17  19  1   
 35  17  20  1   
 36  18  21  2   
 37  18  38  1   
 38  19  21  1   
 39  19  22  1   
 40  20  39  1   
 41  20  40  1   
 42  20  41  1   
 43  21  42  1   
 44  22  43  1   
 45  22  44  1   
 46  22  45  1   
@<TRIPOS>SUBSTRUCTURE
  1 ****  13 GROUP 4 **** **** 0

# MOE 2024.06 (io_trps.svl 2023.06)
