@<TRIPOS>MOLECULE
NONAME
49 51 1 0 0 
SMALL
USER_CHARGES


@<TRIPOS>ATOM
  1 O        0.1820    -0.8330     1.7060 O.3   1 <1>  -0.5600 
  2 C        0.6310    -1.9420     0.9890 C.3   1 <1>   0.2000 
  3 C       -0.8980    -1.0710     2.5530 C.3   1 <1>   0.0400 
  4 C        1.9800    -1.6690     0.2990 C.3   1 <1>   0.0000 
  5 C       -0.3300    -2.3260    -0.1390 C.3   1 <1>  -0.1600 
  6 C        3.1350    -1.7920     1.3110 C.3   1 <1>   0.2090 
  7 C        2.0390    -0.2670    -0.3720 C.3   1 <1>  -0.1600 
  8 C        2.0000    -2.7820    -0.7650 C.3   1 <1>  -0.1600 
  9 C        0.5500    -2.9230    -1.2470 C.3   1 <1>  -0.1600 
 10 N        4.4570    -1.5620     0.6370 N.pl3 1 <1>  -0.8380 
 11 C        3.4380     0.0640    -0.9230 C.3   1 <1>  -0.1600 
 12 C        5.4450    -2.4760     0.4690 C.ar  1 <1>   0.4100 
 13 C        4.5350    -0.1560     0.1240 C.3   1 <1>   0.2090 
 14 N        6.5940    -2.0510    -0.0810 N.ar  1 <1>  -0.6200 
 15 C        5.3230    -3.8250     0.8350 C.ar  1 <1>  -0.1500 
 16 C        7.5680    -2.8910    -0.2500 C.ar  1 <1>   0.5280 
 17 C        6.3630    -4.6850     0.6440 C.ar  1 <1>   0.2180 
 18 N        7.4890    -4.1910     0.0950 N.ar  1 <1>  -0.1790 
 19 C        8.8630    -2.3830    -0.8730 C.3   1 <1>  -0.0170 
 20 C        6.3030    -6.1570     1.0170 C.3   1 <1>  -0.0970 
 21 C       10.0800    -2.5300     0.0550 C.3   1 <1>  -0.2400 
 22 H        0.7390    -2.7720     1.6670 H     1 <1>   0.0800 
 23 H       -1.1210    -0.1560     3.0720 H     1 <1>   0.0800 
 24 H       -0.6350    -1.8350     3.2620 H     1 <1>   0.0800 
 25 H       -1.7520    -1.3690     1.9710 H     1 <1>   0.0800 
 26 H       -1.0590    -3.0390     0.2030 H     1 <1>   0.0800 
 27 H       -0.8280    -1.4470    -0.5110 H     1 <1>   0.0800 
 28 H        3.0940    -2.7430     1.8030 H     1 <1>   0.0800 
 29 H        3.0020    -1.0430     2.0740 H     1 <1>   0.0800 
 30 H        1.3120    -0.1900    -1.1610 H     1 <1>   0.0800 
 31 H        1.7940     0.4830     0.3590 H     1 <1>   0.0800 
 32 H        2.6730    -2.5770    -1.5780 H     1 <1>   0.0800 
 33 H        2.2990    -3.7090    -0.3080 H     1 <1>   0.0800 
 34 H        0.3060    -3.9550    -1.4310 H     1 <1>   0.0800 
 35 H        0.4080    -2.3670    -2.1580 H     1 <1>   0.0800 
 36 H        3.4590     1.0910    -1.2410 H     1 <1>   0.0800 
 37 H        3.6560    -0.5410    -1.7840 H     1 <1>   0.0800 
 38 H        4.3930     0.5260     0.9450 H     1 <1>   0.0800 
 39 H        5.4910     0.0640    -0.3170 H     1 <1>   0.0800 
 40 H        4.4080    -4.1820     1.2590 H     1 <1>   0.1500 
 41 H        8.2990    -4.7880    -0.0650 H     1 <1>   0.4570 
 42 H        9.0430    -2.9040    -1.7970 H     1 <1>   0.0800 
 43 H        8.7420    -1.3410    -1.1170 H     1 <1>   0.0800 
 44 H        5.3440    -6.4000     1.4410 H     1 <1>   0.0800 
 45 H        7.0590    -6.3910     1.7460 H     1 <1>   0.0800 
 46 H        6.4490    -6.7720     0.1470 H     1 <1>   0.0800 
 47 H       10.2990    -3.5600     0.2690 H     1 <1>   0.0800 
 48 H        9.9060    -2.0090     0.9820 H     1 <1>   0.0800 
 49 H       10.9460    -2.0940    -0.4120 H     1 <1>   0.0800 
@<TRIPOS>BOND
  1   1   2  1   
  2   1   3  1   
  3   2   4  1   
  4   2   5  1   
  5   2  22  1   
  6   3  23  1   
  7   3  24  1   
  8   3  25  1   
  9   4   6  1   
 10   4   7  1   
 11   4   8  1   
 12   5   9  1   
 13   5  26  1   
 14   5  27  1   
 15   6  10  1   
 16   6  28  1   
 17   6  29  1   
 18   7  11  1   
 19   7  30  1   
 20   7  31  1   
 21   8   9  1   
 22   8  32  1   
 23   8  33  1   
 24   9  34  1   
 25   9  35  1   
 26  10  12  1   
 27  10  13  1   
 28  11  13  1   
 29  11  36  1   
 30  11  37  1   
 31  12  14  ar  
 32  12  15  ar  
 33  13  38  1   
 34  13  39  1   
 35  14  16  ar  
 36  15  17  ar  
 37  15  40  1   
 38  16  18  ar  
 39  16  19  1   
 40  17  18  ar  
 41  17  20  1   
 42  18  41  1   
 43  19  21  1   
 44  19  42  1   
 45  19  43  1   
 46  20  44  1   
 47  20  45  1   
 48  20  46  1   
 49  21  47  1   
 50  21  48  1   
 51  21  49  1   
@<TRIPOS>SUBSTRUCTURE
  1 ****  10 GROUP 4 **** **** 0

# MOE 2024.06 (io_trps.svl 2023.06)
