@<TRIPOS>MOLECULE
NONAME
52 54 1 0 0 
SMALL
USER_CHARGES


@<TRIPOS>ATOM
  1 O        0.1380     0.3090    -1.9330 O.3   1 <1>  -0.0190 
  2 N        0.1940     1.5750    -1.6510 N.2   1 <1>  -0.4100 
  3 C        1.0480    -0.2270    -1.1590 C.2   1 <1>   0.2980 
  4 C        1.0960     1.7260    -0.7630 C.2   1 <1>   0.3350 
  5 N        1.6820     0.5880    -0.4110 N.2   1 <1>  -0.5650 
  6 C        1.2670    -1.7350    -1.2200 C.3   1 <1>   0.2900 
  7 C        1.5100     3.0490    -0.1150 C.3   1 <1>   0.1010 
  8 N        0.0970    -2.5280    -0.7690 N.3   1 <1>  -0.8100 
  9 C        0.8190     3.2230     1.2440 C.3   1 <1>  -0.2400 
 10 C        1.2170     4.2630    -1.0130 C.3   1 <1>  -0.2400 
 11 C        0.3000    -3.9710    -1.0410 C.3   1 <1>   0.1100 
 12 C       -0.2790    -2.2470     0.6210 C.3   1 <1>   0.1100 
 13 C       -0.7290    -4.9150    -0.3500 C.3   1 <1>   0.0000 
 14 C       -1.6510    -2.8660     0.9210 C.3   1 <1>  -0.1600 
 15 C       -1.9720    -4.0600     0.0090 C.3   1 <1>   0.2000 
 16 C       -1.1850    -5.9910    -1.3660 C.3   1 <1>   0.1200 
 17 C       -0.1430    -5.5810     0.9370 C.3   1 <1>  -0.0160 
 18 O       -2.9610    -4.8230     0.6160 O.3   1 <1>  -0.6800 
 19 O       -0.1000    -6.6140    -1.9740 O.3   1 <1>  -0.6800 
 20 C        1.0410    -6.5260     0.7410 C.ar  1 <1>  -0.1440 
 21 C        2.3430    -6.0490     0.7790 C.ar  1 <1>  -0.1500 
 22 C        0.8250    -7.8830     0.5460 C.ar  1 <1>  -0.1500 
 23 C        3.4110    -6.9090     0.5950 C.ar  1 <1>  -0.1500 
 24 C        1.8920    -8.7440     0.3620 C.ar  1 <1>  -0.1500 
 25 C        3.1860    -8.2570     0.3830 C.ar  1 <1>  -0.1500 
 26 H        2.1220    -1.9830    -0.6150 H     1 <1>   0.0800 
 27 H        1.4940    -1.9930    -2.2390 H     1 <1>   0.0800 
 28 H        2.5730     3.0080     0.0470 H     1 <1>   0.0800 
 29 H       -0.2480     3.2570     1.1170 H     1 <1>   0.0800 
 30 H        1.1450     4.1310     1.7190 H     1 <1>   0.0800 
 31 H        1.0610     2.3940     1.8860 H     1 <1>   0.0800 
 32 H        0.1590     4.3570    -1.1840 H     1 <1>   0.0800 
 33 H        1.7070     4.1420    -1.9630 H     1 <1>   0.0800 
 34 H        1.5760     5.1660    -0.5530 H     1 <1>   0.0800 
 35 H        0.2270    -4.0970    -2.1090 H     1 <1>   0.0800 
 36 H        1.2980    -4.2570    -0.7700 H     1 <1>   0.0800 
 37 H        0.4720    -2.6440     1.2820 H     1 <1>   0.0800 
 38 H       -0.3390    -1.1840     0.7910 H     1 <1>   0.0800 
 39 H       -2.4030    -2.1130     0.7660 H     1 <1>   0.0800 
 40 H       -1.6740    -3.1480     1.9570 H     1 <1>   0.0800 
 41 H       -2.3910    -3.6770    -0.9080 H     1 <1>   0.0800 
 42 H       -1.7720    -5.5430    -2.1500 H     1 <1>   0.0800 
 43 H       -1.7830    -6.7460    -0.8840 H     1 <1>   0.0800 
 44 H        0.1580    -4.8260     1.6380 H     1 <1>   0.0800 
 45 H       -0.9180    -6.1460     1.4230 H     1 <1>   0.0800 
 46 H       -2.7520    -4.9600     1.5580 H     1 <1>   0.4000 
 47 H        0.5130    -6.9630    -1.2870 H     1 <1>   0.4000 
 48 H        2.5360    -5.0050     0.9540 H     1 <1>   0.1500 
 49 H       -0.1760    -8.2790     0.5330 H     1 <1>   0.1500 
 50 H        4.4190    -6.5310     0.6200 H     1 <1>   0.1500 
 51 H        1.7150    -9.7940     0.2030 H     1 <1>   0.1500 
 52 H        4.0160    -8.9270     0.2390 H     1 <1>   0.1500 
@<TRIPOS>BOND
  1   1   2  1   
  2   1   3  1   
  3   2   4  2   
  4   3   5  2   
  5   3   6  1   
  6   4   5  1   
  7   4   7  1   
  8   6   8  1   
  9   6  26  1   
 10   6  27  1   
 11   7   9  1   
 12   7  10  1   
 13   7  28  1   
 14   8  11  1   
 15   8  12  1   
 16   9  29  1   
 17   9  30  1   
 18   9  31  1   
 19  10  32  1   
 20  10  33  1   
 21  10  34  1   
 22  11  13  1   
 23  11  35  1   
 24  11  36  1   
 25  12  14  1   
 26  12  37  1   
 27  12  38  1   
 28  13  15  1   
 29  13  16  1   
 30  13  17  1   
 31  14  15  1   
 32  14  39  1   
 33  14  40  1   
 34  15  18  1   
 35  15  41  1   
 36  16  19  1   
 37  16  42  1   
 38  16  43  1   
 39  17  20  1   
 40  17  44  1   
 41  17  45  1   
 42  18  46  1   
 43  19  47  1   
 44  20  21  ar  
 45  20  22  ar  
 46  21  23  ar  
 47  21  48  1   
 48  22  24  ar  
 49  22  49  1   
 50  23  25  ar  
 51  23  50  1   
 52  24  25  ar  
 53  24  51  1   
 54  25  52  1   
@<TRIPOS>SUBSTRUCTURE
  1 ****   8 GROUP 4 **** **** 0

# MOE 2024.06 (io_trps.svl 2023.06)
