@<TRIPOS>MOLECULE
NONAME
52 53 1 0 0 
SMALL
USER_CHARGES


@<TRIPOS>ATOM
  1 O        1.5920     1.3990     0.9950 O.2   1 <1>  -0.5700 
  2 C        0.7300     1.8580     0.2840 C.2   1 <1>   0.5690 
  3 N       -0.1650     2.7890     0.7380 N.am  1 <1>  -0.6600 
  4 C        0.6790     1.3790    -1.1570 C.3   1 <1>  -0.0990 
  5 C       -1.1140     3.5310    -0.1400 C.3   1 <1>   0.1400 
  6 C       -0.1760     3.2290     2.1770 C.3   1 <1>   0.2010 
  7 C       -0.0210     2.3670    -2.1000 C.3   1 <1>  -0.1600 
  8 C       -1.3440     2.8140    -1.4740 C.3   1 <1>  -0.1600 
  9 C        0.1250     4.7210     2.3780 C.2   1 <1>   0.5690 
 10 O       -0.8290     5.4390     2.5810 O.2   1 <1>  -0.5700 
 11 N        1.4060     5.2290     2.3290 N.am  1 <1>  -0.6600 
 12 C        2.6170     4.3960     2.0510 C.3   1 <1>   0.1400 
 13 C        1.6480     6.6830     2.5640 C.3   1 <1>   0.1400 
 14 C        2.9550     4.3780     0.5520 C.3   1 <1>   0.1100 
 15 C        2.7370     7.2870     1.6680 C.3   1 <1>  -0.1600 
 16 N        3.5800     5.6240     0.0590 N.3   1 <1>  -0.8100 
 17 C        2.7030     6.7990     0.2180 C.3   1 <1>   0.1100 
 18 C        3.9820     5.4530    -1.3720 C.3   1 <1>   0.1710 
 19 C        4.9960     6.4850    -1.8790 C.2   1 <1>   0.5690 
 20 O        5.0940     6.6930    -3.0650 O.2   1 <1>  -0.5700 
 21 N        5.7570     7.1370    -0.9680 N.am  1 <1>  -0.7300 
 22 C        6.7810     8.1430    -1.2540 C.3   1 <1>   0.2780 
 23 C        7.8290     8.0380    -0.1680 C.2   1 <1>  -0.2880 
 24 C        8.1240     8.9920     0.7220 C.2   1 <1>  -0.3000 
 25 H        0.1540     0.4420    -1.1670 H     1 <1>   0.0800 
 26 H        1.6810     1.1990    -1.5010 H     1 <1>   0.0800 
 27 H       -0.7090     4.5120    -0.3270 H     1 <1>   0.0800 
 28 H       -2.0560     3.6530     0.3670 H     1 <1>   0.0800 
 29 H        0.5130     2.6470     2.7580 H     1 <1>   0.0800 
 30 H       -1.1540     3.0350     2.5780 H     1 <1>   0.0800 
 31 H       -0.1980     1.8990    -3.0530 H     1 <1>   0.0800 
 32 H        0.6110     3.2250    -2.2570 H     1 <1>   0.0800 
 33 H       -1.8590     3.4790    -2.1450 H     1 <1>   0.0800 
 34 H       -1.9800     1.9610    -1.3110 H     1 <1>   0.0800 
 35 H        2.4500     3.3870     2.3760 H     1 <1>   0.0800 
 36 H        3.4600     4.7660     2.6070 H     1 <1>   0.0800 
 37 H        1.9120     6.8290     3.5970 H     1 <1>   0.0800 
 38 H        0.7350     7.2260     2.3860 H     1 <1>   0.0800 
 39 H        2.0650     4.1710    -0.0130 H     1 <1>   0.0800 
 40 H        3.6420     3.5650     0.3900 H     1 <1>   0.0800 
 41 H        3.7100     7.1100     2.0920 H     1 <1>   0.0800 
 42 H        2.5910     8.3520     1.6690 H     1 <1>   0.0800 
 43 H        3.0650     7.5990    -0.4050 H     1 <1>   0.0800 
 44 H        1.6960     6.5710    -0.0920 H     1 <1>   0.0800 
 45 H        3.1100     5.4880    -2.0010 H     1 <1>   0.0800 
 46 H        4.4390     4.4890    -1.4990 H     1 <1>   0.0800 
 47 H        5.5680     6.9380     0.0190 H     1 <1>   0.3700 
 48 H        6.3300     9.1200    -1.2520 H     1 <1>   0.0800 
 49 H        7.2180     7.9620    -2.2220 H     1 <1>   0.0800 
 50 H        8.3300     7.0850    -0.1840 H     1 <1>   0.1500 
 51 H        8.8760     8.8880     1.4850 H     1 <1>   0.1500 
 52 H        7.6410     9.9540     0.7650 H     1 <1>   0.1500 
@<TRIPOS>BOND
  1   1   2  2   
  2   2   3  am  
  3   2   4  1   
  4   3   5  1   
  5   3   6  1   
  6   4   7  1   
  7   4  25  1   
  8   4  26  1   
  9   5   8  1   
 10   5  27  1   
 11   5  28  1   
 12   6   9  1   
 13   6  29  1   
 14   6  30  1   
 15   7   8  1   
 16   7  31  1   
 17   7  32  1   
 18   8  33  1   
 19   8  34  1   
 20   9  10  2   
 21   9  11  am  
 22  11  12  1   
 23  11  13  1   
 24  12  14  1   
 25  12  35  1   
 26  12  36  1   
 27  13  15  1   
 28  13  37  1   
 29  13  38  1   
 30  14  16  1   
 31  14  39  1   
 32  14  40  1   
 33  15  17  1   
 34  15  41  1   
 35  15  42  1   
 36  16  17  1   
 37  16  18  1   
 38  17  43  1   
 39  17  44  1   
 40  18  19  1   
 41  18  45  1   
 42  18  46  1   
 43  19  20  2   
 44  19  21  am  
 45  21  22  1   
 46  21  47  1   
 47  22  23  1   
 48  22  48  1   
 49  22  49  1   
 50  23  24  2   
 51  23  50  1   
 52  24  51  1   
 53  24  52  1   
@<TRIPOS>SUBSTRUCTURE
  1 ****  14 GROUP 4 **** **** 0

# MOE 2024.06 (io_trps.svl 2023.06)
