@<TRIPOS>MOLECULE
NONAME
49 50 1 0 0 
SMALL
USER_CHARGES


@<TRIPOS>ATOM
  1 O       -1.5090     0.0760     0.8990 O.2   1 <1>  -0.5700 
  2 C       -2.2660     0.9840     1.1880 C.2   1 <1>   0.5440 
  3 N       -3.5150     0.6640     1.6740 N.am  1 <1>  -0.6600 
  4 C       -1.9020     2.3580     0.9100 C.ar  1 <1>   0.0860 
  5 C       -3.7580    -0.6840     2.2590 C.3   1 <1>   0.3200 
  6 C       -4.7380     1.3740     1.1830 C.3   1 <1>   0.1400 
  7 C       -1.2840     2.7000    -0.2900 C.ar  1 <1>  -0.1500 
  8 C       -2.1830     3.3900     1.8050 C.ar  1 <1>  -0.1500 
  9 C       -4.2990    -1.5520     1.1470 C.2   1 <1>  -0.3320 
 10 C       -4.7970     1.3280    -0.3600 C.3   1 <1>   0.3430 
 11 C       -0.9920     4.0140    -0.6140 C.ar  1 <1>   0.0830 
 12 C       -1.9030     4.7060     1.4910 C.ar  1 <1>  -0.1500 
 13 N       -3.5320    -1.9420     0.1120 N.pl3 1 <1>   0.0330 
 14 C       -5.5310    -2.0570     0.9270 C.2   1 <1>   0.0770 
 15 N       -6.1750     1.5170    -0.9210 N.4   1 <1>  -0.9590 
 16 O       -0.3990     4.2410    -1.8110 O.3   1 <1>  -0.3620 
 17 C       -1.3240     5.0450     0.2790 C.ar  1 <1>   0.0830 
 18 C       -4.3660    -2.6250    -0.7000 C.2   1 <1>   0.0360 
 19 N       -5.5810    -2.6960    -0.2560 N.2   1 <1>  -0.5650 
 20 C       -6.9830     0.2600    -0.7840 C.3   1 <1>   0.2630 
 21 C       -6.0890     1.8980    -2.3650 C.3   1 <1>   0.2630 
 22 C        0.9550     3.8580    -1.9170 C.3   1 <1>   0.0400 
 23 O       -1.1400     6.3780     0.0890 O.3   1 <1>  -0.3630 
 24 C       -0.7500     6.9430    -1.1430 C.3   1 <1>   0.0400 
 25 H       -4.4670    -0.6090     3.0650 H     1 <1>   0.0800 
 26 H       -2.8430    -1.0990     2.6520 H     1 <1>   0.0800 
 27 H       -4.7210     2.3960     1.5180 H     1 <1>   0.0800 
 28 H       -5.6080     0.8980     1.5980 H     1 <1>   0.0800 
 29 H       -1.0300     1.9200    -0.9860 H     1 <1>   0.1500 
 30 H       -2.6260     3.1570     2.7590 H     1 <1>   0.1500 
 31 H       -4.4190     0.3730    -0.6890 H     1 <1>   0.0800 
 32 H       -4.1430     2.0940    -0.7430 H     1 <1>   0.0800 
 33 H       -2.1320     5.4920     2.1900 H     1 <1>   0.1500 
 34 H       -2.5300    -1.7350    -0.0090 H     1 <1>   0.2700 
 35 H       -6.4040    -1.9840     1.5580 H     1 <1>   0.1500 
 36 H       -6.6480     2.2810    -0.4150 H     1 <1>   0.4500 
 37 H       -4.0300    -3.0630    -1.6250 H     1 <1>   0.1500 
 38 H       -6.4930    -0.5590    -1.2880 H     1 <1>   0.0800 
 39 H       -7.9620     0.3910    -1.2150 H     1 <1>   0.0800 
 40 H       -7.0990    -0.0050     0.2530 H     1 <1>   0.0800 
 41 H       -5.6050     1.1170    -2.9300 H     1 <1>   0.0800 
 42 H       -5.5240     2.8090    -2.4800 H     1 <1>   0.0800 
 43 H       -7.0760     2.0530    -2.7700 H     1 <1>   0.0800 
 44 H        1.3210     4.1750    -2.8770 H     1 <1>   0.0800 
 45 H        1.0320     2.7890    -1.8300 H     1 <1>   0.0800 
 46 H        1.5150     4.3380    -1.1330 H     1 <1>   0.0800 
 47 H       -0.8100     8.0130    -1.0540 H     1 <1>   0.0800 
 48 H       -1.4180     6.6010    -1.9130 H     1 <1>   0.0800 
 49 H        0.2620     6.6530    -1.3550 H     1 <1>   0.0800 
@<TRIPOS>BOND
  1   1   2  2   
  2   2   3  am  
  3   2   4  1   
  4   3   5  1   
  5   3   6  1   
  6   4   7  ar  
  7   4   8  ar  
  8   5   9  1   
  9   5  25  1   
 10   5  26  1   
 11   6  10  1   
 12   6  27  1   
 13   6  28  1   
 14   7  11  ar  
 15   7  29  1   
 16   8  12  ar  
 17   8  30  1   
 18   9  13  1   
 19   9  14  2   
 20  10  15  1   
 21  10  31  1   
 22  10  32  1   
 23  11  16  1   
 24  11  17  ar  
 25  12  17  ar  
 26  12  33  1   
 27  13  18  1   
 28  13  34  1   
 29  14  19  1   
 30  14  35  1   
 31  15  20  1   
 32  15  21  1   
 33  15  36  1   
 34  16  22  1   
 35  17  23  1   
 36  18  19  2   
 37  18  37  1   
 38  20  38  1   
 39  20  39  1   
 40  20  40  1   
 41  21  41  1   
 42  21  42  1   
 43  21  43  1   
 44  22  44  1   
 45  22  45  1   
 46  22  46  1   
 47  23  24  1   
 48  24  47  1   
 49  24  48  1   
 50  24  49  1   
@<TRIPOS>SUBSTRUCTURE
  1 ****   2 GROUP 4 **** **** 0

# MOE 2024.06 (io_trps.svl 2023.06)
