@<TRIPOS>MOLECULE
NONAME
48 49 1 0 0 
SMALL
USER_CHARGES


@<TRIPOS>ATOM
  1 CL       0.8710     3.6780     2.7670 Cl    1 <1>  -0.1770 
  2 C        0.7880     3.5680     1.0240 C.ar  1 <1>   0.1770 
  3 C        1.6890     2.7920     0.3040 C.ar  1 <1>  -0.1440 
  4 C       -0.2240     4.2720     0.3960 C.ar  1 <1>  -0.1500 
  5 C        1.5290     2.7170    -1.0760 C.ar  1 <1>  -0.1500 
  6 C        2.8240     2.0320     0.9920 C.3   1 <1>   0.3640 
  7 C       -0.3590     4.1990    -0.9790 C.ar  1 <1>  -0.1500 
  8 C        0.5170     3.4170    -1.7120 C.ar  1 <1>  -0.1500 
  9 N        2.6120     0.5860     0.7370 N.am  1 <1>  -0.7300 
 10 C        4.2190     2.4860     0.4810 C.3   1 <1>   0.2610 
 11 C        3.6090    -0.2740     0.4340 C.2   1 <1>   0.5690 
 12 O        5.2160     1.5410     0.8370 O.3   1 <1>  -0.5600 
 13 C        4.5980     3.8940     0.9720 C.2   1 <1>   0.5690 
 14 O        3.3800    -1.4440     0.2650 O.2   1 <1>  -0.5700 
 15 C        5.0370     0.2580     0.2740 C.3   1 <1>   0.1810 
 16 O        3.9570     4.3850     1.8730 O.2   1 <1>  -0.5700 
 17 N        5.6310     4.5980     0.3900 N.am  1 <1>  -0.6600 
 18 C        6.5360     4.0570    -0.6700 C.3   1 <1>   0.1400 
 19 C        5.9730     5.9710     0.8720 C.3   1 <1>   0.1400 
 20 C        7.7830     3.4290    -0.0470 C.3   1 <1>   0.1200 
 21 C        4.9940     6.9960     0.3010 C.3   1 <1>   0.1200 
 22 O        8.5480     2.8800    -1.0730 O.3   1 <1>  -0.5600 
 23 O        5.4770     8.2720     0.5800 O.3   1 <1>  -0.5600 
 24 C        9.7130     2.2610    -0.6330 C.3   1 <1>   0.0400 
 25 C        4.6180     9.2930     0.1890 C.3   1 <1>   0.0400 
 26 H       -0.9000     4.8680     0.9830 H     1 <1>   0.1500 
 27 H        2.1870     2.1070    -1.6700 H     1 <1>   0.1500 
 28 H        2.7930     2.1830     2.0560 H     1 <1>   0.0800 
 29 H       -1.1440     4.7440    -1.4750 H     1 <1>   0.1500 
 30 H        0.4080     3.3520    -2.7810 H     1 <1>   0.1500 
 31 H        1.6680     0.2200     0.8690 H     1 <1>   0.3700 
 32 H        4.1850     2.5210    -0.5910 H     1 <1>   0.0800 
 33 H        5.2860     0.3080    -0.7700 H     1 <1>   0.0800 
 34 H        5.7220    -0.4110     0.7610 H     1 <1>   0.0800 
 35 H        6.0300     3.3150    -1.2580 H     1 <1>   0.0800 
 36 H        6.8320     4.8560    -1.3280 H     1 <1>   0.0800 
 37 H        5.9230     5.9980     1.9470 H     1 <1>   0.0800 
 38 H        6.9740     6.2280     0.5710 H     1 <1>   0.0800 
 39 H        7.5100     2.6430     0.6350 H     1 <1>   0.0800 
 40 H        8.3690     4.1760     0.4590 H     1 <1>   0.0800 
 41 H        4.0280     6.8780     0.7610 H     1 <1>   0.0800 
 42 H        4.9180     6.8880    -0.7670 H     1 <1>   0.0800 
 43 H       10.2310     1.8710    -1.4920 H     1 <1>   0.0800 
 44 H        9.4580     1.4540     0.0330 H     1 <1>   0.0800 
 45 H       10.3340     2.9840    -0.1330 H     1 <1>   0.0800 
 46 H        5.0790    10.2320     0.4390 H     1 <1>   0.0800 
 47 H        3.6860     9.1940     0.7180 H     1 <1>   0.0800 
 48 H        4.4600     9.2370    -0.8740 H     1 <1>   0.0800 
@<TRIPOS>BOND
  1   1   2  1   
  2   2   3  ar  
  3   2   4  ar  
  4   3   5  ar  
  5   3   6  1   
  6   4   7  ar  
  7   4  26  1   
  8   5   8  ar  
  9   5  27  1   
 10   6   9  1   
 11   6  10  1   
 12   6  28  1   
 13   7   8  ar  
 14   7  29  1   
 15   8  30  1   
 16   9  11  am  
 17   9  31  1   
 18  10  12  1   
 19  10  13  1   
 20  10  32  1   
 21  11  14  2   
 22  11  15  1   
 23  12  15  1   
 24  13  16  2   
 25  13  17  am  
 26  15  33  1   
 27  15  34  1   
 28  17  18  1   
 29  17  19  1   
 30  18  20  1   
 31  18  35  1   
 32  18  36  1   
 33  19  21  1   
 34  19  37  1   
 35  19  38  1   
 36  20  22  1   
 37  20  39  1   
 38  20  40  1   
 39  21  23  1   
 40  21  41  1   
 41  21  42  1   
 42  22  24  1   
 43  23  25  1   
 44  24  43  1   
 45  24  44  1   
 46  24  45  1   
 47  25  46  1   
 48  25  47  1   
 49  25  48  1   
@<TRIPOS>SUBSTRUCTURE
  1 ****  10 GROUP 4 **** **** 0

# MOE 2024.06 (io_trps.svl 2023.06)
