@<TRIPOS>MOLECULE
NONAME
61 64 1 0 0 
SMALL
USER_CHARGES


@<TRIPOS>ATOM
  1 F       -0.7710     0.7090    -0.5280 F     1 <1>  -0.1900 
  2 C       -1.8330     0.0170    -0.2240 C.ar  1 <1>   0.1900 
  3 C       -2.7930     0.5870     0.5890 C.ar  1 <1>  -0.1500 
  4 C       -1.9620    -1.2650    -0.7230 C.ar  1 <1>  -0.1500 
  5 C       -3.9180    -0.1540     0.9040 C.ar  1 <1>  -0.1500 
  6 C       -3.0950    -1.9910    -0.3980 C.ar  1 <1>  -0.1500 
  7 C       -4.0990    -1.4520     0.4120 C.ar  1 <1>   0.0860 
  8 C       -5.2830    -2.2280     0.7330 C.2   1 <1>   0.5440 
  9 O       -5.1540    -3.3660     1.1420 O.2   1 <1>  -0.5700 
 10 N       -6.5560    -1.7190     0.5750 N.am  1 <1>  -0.6600 
 11 C       -6.8500    -0.5340    -0.2830 C.3   1 <1>   0.1400 
 12 C       -7.7270    -2.4590     1.1300 C.3   1 <1>   0.1400 
 13 C       -8.2010    -0.7200    -0.9710 C.3   1 <1>  -0.1600 
 14 C       -8.9100    -1.5110     1.3430 C.3   1 <1>  -0.1600 
 15 C       -9.3540    -0.7880     0.0490 C.3   1 <1>   0.2800 
 16 O       -9.5950     0.5440     0.4260 O.3   1 <1>  -0.5600 
 17 C      -10.5880    -1.4600    -0.6180 C.3   1 <1>  -0.1600 
 18 C      -10.8350     1.1250     0.1220 C.3   1 <1>   0.1200 
 19 C      -11.9870    -1.1180    -0.0300 C.3   1 <1>   0.3000 
 20 C      -11.9480     0.2560     0.7100 C.3   1 <1>   0.2000 
 21 N      -12.8920    -1.0250    -1.2040 N.am  1 <1>  -0.7300 
 22 C      -12.5050    -2.2920     0.8240 C.3   1 <1>  -0.2400 
 23 O      -11.6710     0.1070     2.0660 O.3   1 <1>  -0.6800 
 24 C      -14.2030    -0.7210    -1.3830 C.2   1 <1>   0.5690 
 25 O      -14.6210    -0.7340    -2.5140 O.2   1 <1>  -0.5700 
 26 C      -15.1710    -0.3660    -0.2460 C.3   1 <1>  -0.0190 
 27 C      -16.3710    -1.3100    -0.1390 C.3   1 <1>  -0.1600 
 28 C      -15.8250     1.0100    -0.3940 C.3   1 <1>  -0.1600 
 29 C      -17.4230    -0.5290     0.6520 C.3   1 <1>  -0.1600 
 30 C      -17.0670     0.9550     0.4970 C.3   1 <1>  -0.1600 
 31 H       -2.6550     1.5850     0.9650 H     1 <1>   0.1500 
 32 H       -1.1920    -1.6810    -1.3480 H     1 <1>   0.1500 
 33 H       -4.6720     0.2680     1.5460 H     1 <1>   0.1500 
 34 H       -3.2130    -2.9950    -0.7680 H     1 <1>   0.1500 
 35 H       -6.8730     0.3540     0.3270 H     1 <1>   0.0800 
 36 H       -6.0820    -0.4190    -1.0290 H     1 <1>   0.0800 
 37 H       -7.9970    -3.2480     0.4490 H     1 <1>   0.0800 
 38 H       -7.4520    -2.9100     2.0700 H     1 <1>   0.0800 
 39 H       -8.1550    -1.6280    -1.5460 H     1 <1>   0.0800 
 40 H       -8.3740     0.0880    -1.6590 H     1 <1>   0.0800 
 41 H       -8.6050    -0.7890     2.0810 H     1 <1>   0.0800 
 42 H       -9.7170    -2.0730     1.7660 H     1 <1>   0.0800 
 43 H      -10.5690    -1.1570    -1.6500 H     1 <1>   0.0800 
 44 H      -10.4390    -2.5240    -0.6240 H     1 <1>   0.0800 
 45 H      -10.8590     2.1090     0.5560 H     1 <1>   0.0800 
 46 H      -10.9290     1.2170    -0.9470 H     1 <1>   0.0800 
 47 H      -12.8860     0.7680     0.6340 H     1 <1>   0.0800 
 48 H      -12.4440    -1.2960    -2.0800 H     1 <1>   0.3700 
 49 H      -11.8360    -2.5050     1.6340 H     1 <1>   0.0800 
 50 H      -12.6010    -3.1810     0.2270 H     1 <1>   0.0800 
 51 H      -13.4560    -2.0700     1.2640 H     1 <1>   0.0800 
 52 H      -10.6950     0.1300     2.1630 H     1 <1>   0.4000 
 53 H      -14.6710    -0.3810     0.7000 H     1 <1>   0.0800 
 54 H      -16.7530    -1.5180    -1.1250 H     1 <1>   0.0800 
 55 H      -16.1110    -2.2390     0.3370 H     1 <1>   0.0800 
 56 H      -15.1600     1.8070    -0.1120 H     1 <1>   0.0800 
 57 H      -16.1320     1.1540    -1.4170 H     1 <1>   0.0800 
 58 H      -18.4110    -0.7370     0.2790 H     1 <1>   0.0800 
 59 H      -17.3790    -0.8050     1.6920 H     1 <1>   0.0800 
 60 H      -16.8430     1.3730     1.4640 H     1 <1>   0.0800 
 61 H      -17.8790     1.5100     0.0580 H     1 <1>   0.0800 
@<TRIPOS>BOND
  1   1   2  1   
  2   2   3  ar  
  3   2   4  ar  
  4   3   5  ar  
  5   3  31  1   
  6   4   6  ar  
  7   4  32  1   
  8   5   7  ar  
  9   5  33  1   
 10   6   7  ar  
 11   6  34  1   
 12   7   8  1   
 13   8   9  2   
 14   8  10  am  
 15  10  11  1   
 16  10  12  1   
 17  11  13  1   
 18  11  35  1   
 19  11  36  1   
 20  12  14  1   
 21  12  37  1   
 22  12  38  1   
 23  13  15  1   
 24  13  39  1   
 25  13  40  1   
 26  14  15  1   
 27  14  41  1   
 28  14  42  1   
 29  15  16  1   
 30  15  17  1   
 31  16  18  1   
 32  17  19  1   
 33  17  43  1   
 34  17  44  1   
 35  18  20  1   
 36  18  45  1   
 37  18  46  1   
 38  19  20  1   
 39  19  21  1   
 40  19  22  1   
 41  20  23  1   
 42  20  47  1   
 43  21  24  am  
 44  21  48  1   
 45  22  49  1   
 46  22  50  1   
 47  22  51  1   
 48  23  52  1   
 49  24  25  2   
 50  24  26  1   
 51  26  27  1   
 52  26  28  1   
 53  26  53  1   
 54  27  29  1   
 55  27  54  1   
 56  27  55  1   
 57  28  30  1   
 58  28  56  1   
 59  28  57  1   
 60  29  30  1   
 61  29  58  1   
 62  29  59  1   
 63  30  60  1   
 64  30  61  1   
@<TRIPOS>SUBSTRUCTURE
  1 ****  15 GROUP 4 **** **** 0

# MOE 2024.06 (io_trps.svl 2023.06)
