@<TRIPOS>MOLECULE
NONAME
53 55 1 0 0 
SMALL
USER_CHARGES


@<TRIPOS>ATOM
  1 F       -0.5150    -2.0750     2.5330 F     1 <1>  -0.1900 
  2 C       -1.2150    -2.0830     1.4260 C.ar  1 <1>   0.1900 
  3 C       -1.8150    -3.2620     0.9930 C.ar  1 <1>   0.0830 
  4 C       -1.3240    -0.8940     0.7350 C.ar  1 <1>  -0.1500 
  5 O       -1.6580    -4.4070     1.6960 O.3   1 <1>  -0.3630 
  6 C       -2.5870    -3.2470    -0.1760 C.ar  1 <1>   0.0860 
  7 C       -2.0640    -0.8760    -0.4340 C.ar  1 <1>  -0.1500 
  8 C       -0.4040    -5.0490     1.6080 C.3   1 <1>   0.0400 
  9 C       -3.2840    -4.4100    -0.6900 C.2   1 <1>   0.5440 
 10 C       -2.6790    -2.0360    -0.8740 C.ar  1 <1>  -0.1500 
 11 O       -3.3400    -4.6040    -1.8900 O.2   1 <1>  -0.5700 
 12 N       -4.0190    -5.2300     0.1250 N.am  1 <1>  -0.6600 
 13 C       -4.0060    -6.7190    -0.0110 C.3   1 <1>   0.3640 
 14 C       -5.3560    -4.7400     0.5420 C.3   1 <1>   0.1400 
 15 C       -2.6070    -7.2850    -0.2950 C.ar  1 <1>  -0.1430 
 16 C       -5.1340    -7.1820    -0.9710 C.3   1 <1>   0.2000 
 17 C       -6.4240    -5.2710    -0.4330 C.3   1 <1>   0.1200 
 18 C       -1.8820    -7.8260     0.7580 C.ar  1 <1>  -0.1500 
 19 C       -2.0420    -7.2960    -1.5650 C.ar  1 <1>  -0.1500 
 20 O       -6.3670    -6.6690    -0.5180 O.3   1 <1>  -0.5600 
 21 C       -5.2950    -8.7110    -1.0300 C.3   1 <1>   0.1200 
 22 C       -0.6230    -8.3650     0.5600 C.ar  1 <1>   0.0830 
 23 C       -0.7780    -7.8220    -1.7740 C.ar  1 <1>  -0.1500 
 24 O       -4.2610    -9.3150    -1.7410 O.3   1 <1>  -0.6800 
 25 O        0.0060    -8.8900     1.6390 O.3   1 <1>  -0.3630 
 26 C       -0.0540    -8.3420    -0.7170 C.ar  1 <1>   0.0830 
 27 C        0.2460   -10.2810     1.6100 C.3   1 <1>   0.0400 
 28 O        1.1920    -8.8060    -0.9760 O.3   1 <1>  -0.3630 
 29 C        2.2580    -8.0690    -0.4200 C.3   1 <1>   0.0400 
 30 H       -0.8420    -0.0060     1.1040 H     1 <1>   0.1500 
 31 H       -2.1600     0.0370    -0.9970 H     1 <1>   0.1500 
 32 H       -0.4220    -5.9140     2.2460 H     1 <1>   0.0800 
 33 H        0.3690    -4.3750     1.9310 H     1 <1>   0.0800 
 34 H       -0.2410    -5.3500     0.5880 H     1 <1>   0.0800 
 35 H       -3.2500    -2.0120    -1.7870 H     1 <1>   0.1500 
 36 H       -4.2830    -7.1080     0.9530 H     1 <1>   0.0800 
 37 H       -5.5720    -5.0770     1.5410 H     1 <1>   0.0800 
 38 H       -5.3710    -3.6640     0.5420 H     1 <1>   0.0800 
 39 H       -4.9630    -6.8030    -1.9640 H     1 <1>   0.0800 
 40 H       -6.2730    -4.8600    -1.4170 H     1 <1>   0.0800 
 41 H       -7.4080    -5.0010    -0.0920 H     1 <1>   0.0800 
 42 H       -2.2880    -7.8330     1.7550 H     1 <1>   0.1500 
 43 H       -2.5800    -6.8930    -2.4070 H     1 <1>   0.1500 
 44 H       -6.2120    -8.9600    -1.5360 H     1 <1>   0.0800 
 45 H       -5.3100    -9.1300    -0.0400 H     1 <1>   0.0800 
 46 H       -0.3480    -7.8210    -2.7590 H     1 <1>   0.1500 
 47 H       -3.3840    -9.0280    -1.4030 H     1 <1>   0.4000 
 48 H        0.6310   -10.5760     2.5690 H     1 <1>   0.0800 
 49 H        0.9660   -10.5030     0.8430 H     1 <1>   0.0800 
 50 H       -0.6800   -10.7890     1.4110 H     1 <1>   0.0800 
 51 H        3.1810    -8.4960    -0.7690 H     1 <1>   0.0800 
 52 H        2.2100    -8.1270     0.6530 H     1 <1>   0.0800 
 53 H        2.1790    -7.0470    -0.7440 H     1 <1>   0.0800 
@<TRIPOS>BOND
  1   1   2  1   
  2   2   3  ar  
  3   2   4  ar  
  4   3   5  1   
  5   3   6  ar  
  6   4   7  ar  
  7   4  30  1   
  8   5   8  1   
  9   6   9  1   
 10   6  10  ar  
 11   7  10  ar  
 12   7  31  1   
 13   8  32  1   
 14   8  33  1   
 15   8  34  1   
 16   9  11  2   
 17   9  12  am  
 18  10  35  1   
 19  12  13  1   
 20  12  14  1   
 21  13  15  1   
 22  13  16  1   
 23  13  36  1   
 24  14  17  1   
 25  14  37  1   
 26  14  38  1   
 27  15  18  ar  
 28  15  19  ar  
 29  16  20  1   
 30  16  21  1   
 31  16  39  1   
 32  17  20  1   
 33  17  40  1   
 34  17  41  1   
 35  18  22  ar  
 36  18  42  1   
 37  19  23  ar  
 38  19  43  1   
 39  21  24  1   
 40  21  44  1   
 41  21  45  1   
 42  22  25  1   
 43  22  26  ar  
 44  23  26  ar  
 45  23  46  1   
 46  24  47  1   
 47  25  27  1   
 48  26  28  1   
 49  27  48  1   
 50  27  49  1   
 51  27  50  1   
 52  28  29  1   
 53  29  51  1   
 54  29  52  1   
 55  29  53  1   
@<TRIPOS>SUBSTRUCTURE
  1 ****  15 GROUP 4 **** **** 0

# MOE 2024.06 (io_trps.svl 2023.06)
