@<TRIPOS>MOLECULE
NONAME
44 47 1 0 0 
SMALL
USER_CHARGES


@<TRIPOS>ATOM
  1 O        2.1760    -0.7200    -2.8390 O.2   1 <1>  -0.5700 
  2 C        2.1630    -0.9670    -1.6470 C.2   1 <1>   0.5440 
  3 N        2.6900     0.0010    -0.8010 N.am  1 <1>  -0.6600 
  4 C        1.6340    -2.2550    -1.1980 C.ar  1 <1>   0.3960 
  5 C        2.4430     0.0010     0.6910 C.3   1 <1>   0.2200 
  6 C        3.5350     1.0960    -1.3830 C.3   1 <1>   0.1400 
  7 N        2.1370    -2.8760    -0.1470 N.ar  1 <1>  -0.6200 
  8 C        0.5680    -2.8190    -1.9490 C.ar  1 <1>   0.1600 
  9 C        2.0770     1.3870     1.2470 C.3   1 <1>   0.1200 
 10 C        3.6600    -0.5920     1.4430 C.3   1 <1>   0.3430 
 11 C        4.5360     1.7420    -0.4060 C.3   1 <1>  -0.0800 
 12 C        1.5550    -4.0700     0.1430 C.ar  1 <1>   0.3100 
 13 N       -0.0180    -3.9460    -1.6920 N.ar  1 <1>  -0.6200 
 14 O        3.2250     2.1070     1.5840 O.3   1 <1>  -0.5600 
 15 N        4.9040    -0.5940     0.5950 N.4   1 <1>  -0.9590 
 16 C        3.8580     2.7520     0.5320 C.3   1 <1>   0.1200 
 17 C        5.4680     0.7740     0.3570 C.3   1 <1>   0.3430 
 18 C        0.4840    -4.6020    -0.6180 C.ar  1 <1>   0.3100 
 19 C        2.0250    -4.8100     1.2420 C.ar  1 <1>  -0.1500 
 20 C        5.9280    -1.5340     1.1310 C.3   1 <1>   0.2630 
 21 C       -0.0660    -5.8370    -0.2470 C.ar  1 <1>  -0.1500 
 22 C        1.4690    -6.0160     1.5830 C.ar  1 <1>  -0.1500 
 23 C        0.4120    -6.5350     0.8310 C.ar  1 <1>  -0.1500 
 24 H        1.5880    -0.6180     0.8980 H     1 <1>   0.0800 
 25 H        4.0900     0.6950    -2.2160 H     1 <1>   0.0800 
 26 H        2.8810     1.8530    -1.7850 H     1 <1>   0.0800 
 27 H        0.2210    -2.2580    -2.8000 H     1 <1>   0.1500 
 28 H        1.5200     1.2640     2.1600 H     1 <1>   0.0800 
 29 H        1.4690     1.9500     0.5590 H     1 <1>   0.0800 
 30 H        3.4150    -1.6060     1.7100 H     1 <1>   0.0800 
 31 H        3.8270    -0.0460     2.3570 H     1 <1>   0.0800 
 32 H        5.1810     2.3470    -1.0180 H     1 <1>   0.0800 
 33 H        4.5690    -0.9320    -0.3240 H     1 <1>   0.4500 
 34 H        3.1420     3.3660     0.0110 H     1 <1>   0.0800 
 35 H        4.5990     3.4020     0.9670 H     1 <1>   0.0800 
 36 H        5.7380     1.2210     1.3000 H     1 <1>   0.0800 
 37 H        6.3720     0.6680    -0.2200 H     1 <1>   0.0800 
 38 H        2.8390    -4.4080     1.8150 H     1 <1>   0.1500 
 39 H        6.2640    -1.2060     2.1020 H     1 <1>   0.0800 
 40 H        6.7770    -1.5800     0.4680 H     1 <1>   0.0800 
 41 H        5.5130    -2.5240     1.2230 H     1 <1>   0.0800 
 42 H       -0.8780    -6.2220    -0.8390 H     1 <1>   0.1500 
 43 H        1.8350    -6.5770     2.4270 H     1 <1>   0.1500 
 44 H       -0.0170    -7.4840     1.1080 H     1 <1>   0.1500 
@<TRIPOS>BOND
  1   1   2  2   
  2   2   3  am  
  3   2   4  1   
  4   3   5  1   
  5   3   6  1   
  6   4   7  ar  
  7   4   8  ar  
  8   5   9  1   
  9   5  10  1   
 10   5  24  1   
 11   6  11  1   
 12   6  25  1   
 13   6  26  1   
 14   7  12  ar  
 15   8  13  ar  
 16   8  27  1   
 17   9  14  1   
 18   9  28  1   
 19   9  29  1   
 20  10  15  1   
 21  10  30  1   
 22  10  31  1   
 23  11  16  1   
 24  11  17  1   
 25  11  32  1   
 26  12  18  ar  
 27  12  19  ar  
 28  13  18  ar  
 29  14  16  1   
 30  15  17  1   
 31  15  20  1   
 32  15  33  1   
 33  16  34  1   
 34  16  35  1   
 35  17  36  1   
 36  17  37  1   
 37  18  21  ar  
 38  19  22  ar  
 39  19  38  1   
 40  20  39  1   
 41  20  40  1   
 42  20  41  1   
 43  21  23  ar  
 44  21  42  1   
 45  22  23  ar  
 46  22  43  1   
 47  23  44  1   
@<TRIPOS>SUBSTRUCTURE
  1 ****   7 GROUP 4 **** **** 0

# MOE 2024.06 (io_trps.svl 2023.06)
