@<TRIPOS>MOLECULE
NONAME
45 48 1 0 0 
SMALL
USER_CHARGES


@<TRIPOS>ATOM
  1 S        0.3490     0.5250    -0.3180 S.3   1 <1>  -0.3320 
  2 C       -0.6280    -0.2680     0.9410 C.ar  1 <1>   0.7220 
  3 C        0.0610     2.3260    -0.0260 C.3   1 <1>   0.2500 
  4 N       -0.5780    -1.5890     0.9260 N.ar  1 <1>  -0.6200 
  5 N       -1.2960     0.5380     1.7520 N.ar  1 <1>  -0.6200 
  6 C        0.8530     3.1450    -1.0310 C.2   1 <1>  -0.0400 
  7 C       -1.2990    -2.1730     1.8560 C.ar  1 <1>   0.1600 
  8 C       -2.0070    -0.0820     2.6690 C.ar  1 <1>   0.1600 
  9 O        0.8030     4.4540    -0.9340 O.3   1 <1>  -0.2800 
 10 C        1.6460     2.7880    -2.0660 C.2   1 <1>  -0.1500 
 11 C       -2.0420    -1.4540     2.7640 C.ar  1 <1>  -0.1500 
 12 C        1.5570     4.9950    -1.8880 C.2   1 <1>   0.0550 
 13 C        2.1000     3.9830    -2.6230 C.2   1 <1>  -0.1500 
 14 C        1.6860     6.4320    -1.9990 C.2   1 <1>   0.7150 
 15 O        0.7010     7.1400    -1.8710 O.2   1 <1>  -0.5700 
 16 N        2.9040     7.0330    -2.2550 N.am  1 <1>  -0.6600 
 17 C        3.0130     8.5220    -2.3560 C.3   1 <1>   0.3210 
 18 C        4.2130     6.3250    -2.1490 C.3   1 <1>   0.0600 
 19 C        3.5660     9.1220    -1.0700 C.2   1 <1>   0.1080 
 20 N        4.7460     9.6730    -0.9660 N.2   1 <1>  -0.7070 
 21 C        2.8890     9.1490     0.1440 C.2   1 <1>  -0.1810 
 22 N        4.8350    10.0650     0.3280 N.pl3 1 <1>   0.3000 
 23 C        3.7120     9.7470     0.9970 C.2   1 <1>  -0.3320 
 24 C        1.5970     8.7340     0.7890 C.3   1 <1>   0.0210 
 25 C        3.1650     9.8760     2.3890 C.3   1 <1>   0.0200 
 26 C        1.7240     9.3310     2.2150 C.3   1 <1>  -0.1600 
 27 H        0.3770     2.5430     0.9780 H     1 <1>   0.0800 
 28 H       -0.9930     2.5070    -0.1300 H     1 <1>   0.0800 
 29 H       -1.2970    -3.2500     1.8930 H     1 <1>   0.1500 
 30 H       -2.5740     0.5190     3.3610 H     1 <1>   0.1500 
 31 H        1.8940     1.8000    -2.4120 H     1 <1>   0.1500 
 32 H       -2.6270    -1.9460     3.5180 H     1 <1>   0.1500 
 33 H        2.7500     4.0640    -3.4750 H     1 <1>   0.1500 
 34 H        2.0550     8.9650    -2.5640 H     1 <1>   0.0800 
 35 H        3.6700     8.7730    -3.1690 H     1 <1>   0.0800 
 36 H        4.1270     5.4580    -1.5170 H     1 <1>   0.0800 
 37 H        4.9580     6.9730    -1.7190 H     1 <1>   0.0800 
 38 H        4.5420     6.0220    -3.1270 H     1 <1>   0.0800 
 39 H        5.6620    10.5370     0.7100 H     1 <1>   0.2700 
 40 H        1.5310     7.6610     0.8200 H     1 <1>   0.0800 
 41 H        0.7520     9.1380     0.2590 H     1 <1>   0.0800 
 42 H        3.1600    10.9010     2.7170 H     1 <1>   0.0800 
 43 H        3.7300     9.2660     3.0730 H     1 <1>   0.0800 
 44 H        1.5030     8.5870     2.9590 H     1 <1>   0.0800 
 45 H        1.0260    10.1420     2.3180 H     1 <1>   0.0800 
@<TRIPOS>BOND
  1   1   2  1   
  2   1   3  1   
  3   2   4  ar  
  4   2   5  ar  
  5   3   6  1   
  6   3  27  1   
  7   3  28  1   
  8   4   7  ar  
  9   5   8  ar  
 10   6   9  1   
 11   6  10  2   
 12   7  11  ar  
 13   7  29  1   
 14   8  11  ar  
 15   8  30  1   
 16   9  12  1   
 17  10  13  1   
 18  10  31  1   
 19  11  32  1   
 20  12  13  2   
 21  12  14  1   
 22  13  33  1   
 23  14  15  2   
 24  14  16  am  
 25  16  17  1   
 26  16  18  1   
 27  17  19  1   
 28  17  34  1   
 29  17  35  1   
 30  18  36  1   
 31  18  37  1   
 32  18  38  1   
 33  19  20  2   
 34  19  21  1   
 35  20  22  1   
 36  21  23  2   
 37  21  24  1   
 38  22  23  1   
 39  22  39  1   
 40  23  25  1   
 41  24  26  1   
 42  24  40  1   
 43  24  41  1   
 44  25  26  1   
 45  25  42  1   
 46  25  43  1   
 47  26  44  1   
 48  26  45  1   
@<TRIPOS>SUBSTRUCTURE
  1 ****   9 GROUP 4 **** **** 0

# MOE 2024.06 (io_trps.svl 2023.06)
