@<TRIPOS>MOLECULE
NONAME
39 41 1 0 0 
SMALL
USER_CHARGES


@<TRIPOS>ATOM
  1 CL       0.2950    -0.3240     0.1450 Cl    1 <1>  -0.1770 
  2 C       -0.6450    -1.7670    -0.1330 C.ar  1 <1>   0.1770 
  3 C       -0.0980    -2.8050    -0.8610 C.ar  1 <1>  -0.1500 
  4 C       -1.9250    -1.8570     0.3750 C.ar  1 <1>  -0.1500 
  5 C       -0.8480    -3.9470    -1.0790 C.ar  1 <1>  -0.1500 
  6 C       -2.6650    -3.0030     0.1490 C.ar  1 <1>  -0.1500 
  7 C       -2.1500    -4.0780    -0.5830 C.ar  1 <1>   0.0530 
  8 C       -2.9140    -5.2810    -0.8320 C.2   1 <1>   0.0870 
  9 O       -2.5190    -6.1280    -1.7540 O.3   1 <1>  -0.0190 
 10 C       -4.0530    -5.7950    -0.3000 C.2   1 <1>  -0.2330 
 11 N       -3.3060    -7.1640    -1.8680 N.2   1 <1>  -0.4100 
 12 C       -4.2440    -6.9860    -1.0020 C.2   1 <1>   0.3720 
 13 C       -4.8740    -5.2810     0.7480 C.2   1 <1>   1.0330 
 14 N       -5.2840    -7.9070    -0.8040 N.pl3 1 <1>  -0.8210 
 15 O       -4.4450    -5.2110     1.9120 O.co2 1 <1>  -0.9000 
 16 O       -5.9980    -4.8080     0.5000 O.co2 1 <1>  -0.9000 
 17 C       -5.2870    -9.1550    -1.6130 C.3   1 <1>   0.2090 
 18 C       -6.6670    -7.3530    -0.8150 C.3   1 <1>   0.2090 
 19 C       -6.7200    -9.6680    -1.5090 C.3   1 <1>   0.2200 
 20 C       -7.5280    -8.3810    -1.5500 C.3   1 <1>  -0.1600 
 21 N       -6.9130   -10.2890    -0.1820 N.am  1 <1>  -0.7300 
 22 C       -7.4560   -11.5010     0.0590 C.2   1 <1>   0.5690 
 23 O       -7.8800   -12.2100    -0.8190 O.2   1 <1>  -0.5700 
 24 C       -7.5240   -11.9700     1.4880 C.3   1 <1>  -0.1790 
 25 H        0.9010    -2.7180    -1.2480 H     1 <1>   0.1500 
 26 H       -2.3390    -1.0440     0.9440 H     1 <1>   0.1500 
 27 H       -0.4180    -4.7550    -1.6430 H     1 <1>   0.1500 
 28 H       -3.6610    -3.0580     0.5530 H     1 <1>   0.1500 
 29 H       -5.0540    -8.9260    -2.6380 H     1 <1>   0.0800 
 30 H       -4.5770    -9.8670    -1.2310 H     1 <1>   0.0800 
 31 H       -7.0040    -7.2290     0.2010 H     1 <1>   0.0800 
 32 H       -6.7010    -6.3970    -1.3120 H     1 <1>   0.0800 
 33 H       -6.9740   -10.3550    -2.2990 H     1 <1>   0.0800 
 34 H       -7.6440    -8.0620    -2.5700 H     1 <1>   0.0800 
 35 H       -8.5020    -8.4870    -1.1080 H     1 <1>   0.0800 
 36 H       -6.5150    -9.7190     0.5720 H     1 <1>   0.3700 
 37 H       -8.0840   -11.2650     2.0730 H     1 <1>   0.0800 
 38 H       -6.5310   -12.0600     1.8850 H     1 <1>   0.0800 
 39 H       -8.0090   -12.9280     1.5330 H     1 <1>   0.0800 
@<TRIPOS>BOND
  1   1   2  1   
  2   2   3  ar  
  3   2   4  ar  
  4   3   5  ar  
  5   3  25  1   
  6   4   6  ar  
  7   4  26  1   
  8   5   7  ar  
  9   5  27  1   
 10   6   7  ar  
 11   6  28  1   
 12   7   8  1   
 13   8   9  1   
 14   8  10  2   
 15   9  11  1   
 16  10  12  1   
 17  10  13  1   
 18  11  12  2   
 19  12  14  1   
 20  13  15  ar  
 21  13  16  ar  
 22  14  17  1   
 23  14  18  1   
 24  17  19  1   
 25  17  29  1   
 26  17  30  1   
 27  18  20  1   
 28  18  31  1   
 29  18  32  1   
 30  19  20  1   
 31  19  21  1   
 32  19  33  1   
 33  20  34  1   
 34  20  35  1   
 35  21  22  am  
 36  21  36  1   
 37  22  23  2   
 38  22  24  1   
 39  24  37  1   
 40  24  38  1   
 41  24  39  1   
@<TRIPOS>SUBSTRUCTURE
  1 ****  10 GROUP 4 **** **** 0

# MOE 2024.06 (io_trps.svl 2023.06)
