@<TRIPOS>MOLECULE
NONAME
56 58 1 0 0 
SMALL
USER_CHARGES


@<TRIPOS>ATOM
  1 O       -1.5610     0.5820    -1.4290 O.2   1 <1>  -0.5700 
  2 C       -1.5440     0.6680    -0.2250 C.2   1 <1>   0.5690 
  3 N       -1.6810    -0.4290     0.5590 N.am  1 <1>  -0.7300 
  4 C       -1.3920     2.0280     0.4540 C.3   1 <1>  -0.0190 
  5 C       -1.8140    -1.8170     0.0590 C.3   1 <1>   0.2200 
  6 C       -2.7680     2.6320     0.7870 C.3   1 <1>  -0.1600 
  7 C       -0.5740     3.0260    -0.3900 C.3   1 <1>  -0.1600 
  8 C       -3.2550    -2.3020     0.1450 C.3   1 <1>  -0.0800 
  9 C       -1.1460    -2.7580     1.0520 C.3   1 <1>   0.1200 
 10 C       -2.6340     3.9960     1.4700 C.3   1 <1>   0.1400 
 11 C       -0.4570     4.3890     0.2970 C.3   1 <1>   0.1400 
 12 C       -3.3690    -2.8020     1.5910 C.3   1 <1>   0.1200 
 13 C       -4.3370    -1.2840    -0.2610 C.3   1 <1>  -0.0170 
 14 O       -2.0650    -2.8880     2.0920 O.3   1 <1>  -0.5600 
 15 N       -1.8160     4.9060     0.6240 N.am  1 <1>  -0.6600 
 16 C       -5.7150    -1.9260    -0.2500 C.ar  1 <1>  -0.1440 
 17 C       -2.2800     6.1540     0.2660 C.2   1 <1>   0.5690 
 18 C       -6.5780    -1.8020     0.8200 C.ar  1 <1>  -0.1500 
 19 C       -6.1730    -2.6720    -1.3170 C.ar  1 <1>  -0.1500 
 20 O       -3.3880     6.5270     0.5830 O.2   1 <1>  -0.5700 
 21 C       -1.4490     7.1220    -0.5840 C.3   1 <1>   0.1810 
 22 C       -7.8180    -2.4180     0.7750 C.ar  1 <1>   0.1600 
 23 C       -7.4320    -3.2460    -1.2630 C.ar  1 <1>   0.1600 
 24 O       -0.2210     7.4600     0.0160 O.3   1 <1>  -0.5600 
 25 N       -8.2650    -3.1390    -0.2400 N.ar  1 <1>  -0.6200 
 26 C        0.5070     8.4090    -0.6840 C.3   1 <1>   0.1200 
 27 C        1.8180     8.6200     0.0610 C.3   1 <1>  -0.2400 
 28 H       -1.7090    -0.3540     1.5780 H     1 <1>   0.3700 
 29 H       -0.8610     1.8710     1.3760 H     1 <1>   0.0800 
 30 H       -1.4030    -1.9070    -0.9330 H     1 <1>   0.0800 
 31 H       -3.3120     1.9680     1.4340 H     1 <1>   0.0800 
 32 H       -3.3400     2.7510    -0.1170 H     1 <1>   0.0800 
 33 H       -1.0420     3.1640    -1.3490 H     1 <1>   0.0800 
 34 H        0.4110     2.6300    -0.5630 H     1 <1>   0.0800 
 35 H       -3.3480    -3.1600    -0.4970 H     1 <1>   0.0800 
 36 H       -0.2150    -2.3760     1.4310 H     1 <1>   0.0800 
 37 H       -0.9950    -3.7310     0.6170 H     1 <1>   0.0800 
 38 H       -2.1540     3.8860     2.4270 H     1 <1>   0.0800 
 39 H       -3.6150     4.4080     1.6380 H     1 <1>   0.0800 
 40 H        0.0740     5.0610    -0.3520 H     1 <1>   0.0800 
 41 H        0.1080     4.2970     1.2090 H     1 <1>   0.0800 
 42 H       -3.8270    -3.7750     1.6400 H     1 <1>   0.0800 
 43 H       -3.9120    -2.1130     2.2130 H     1 <1>   0.0800 
 44 H       -4.1240    -0.9140    -1.2490 H     1 <1>   0.0800 
 45 H       -4.3310    -0.4400     0.4060 H     1 <1>   0.0800 
 46 H       -6.3010    -1.2330     1.6880 H     1 <1>   0.1500 
 47 H       -5.5620    -2.8120    -2.1910 H     1 <1>   0.1500 
 48 H       -2.0140     8.0250    -0.7280 H     1 <1>   0.0800 
 49 H       -1.2520     6.6710    -1.5390 H     1 <1>   0.0800 
 50 H       -8.4780    -2.3120     1.6190 H     1 <1>   0.1500 
 51 H       -7.7710    -3.8250    -2.1050 H     1 <1>   0.1500 
 52 H        0.6910     8.0460    -1.6820 H     1 <1>   0.0800 
 53 H       -0.0610     9.3250    -0.7220 H     1 <1>   0.0800 
 54 H        2.3690     7.6980     0.1070 H     1 <1>   0.0800 
 55 H        1.6220     8.9700     1.0590 H     1 <1>   0.0800 
 56 H        2.4150     9.3530    -0.4490 H     1 <1>   0.0800 
@<TRIPOS>BOND
  1   1   2  2   
  2   2   3  am  
  3   2   4  1   
  4   3   5  1   
  5   3  28  1   
  6   4   6  1   
  7   4   7  1   
  8   4  29  1   
  9   5   8  1   
 10   5   9  1   
 11   5  30  1   
 12   6  10  1   
 13   6  31  1   
 14   6  32  1   
 15   7  11  1   
 16   7  33  1   
 17   7  34  1   
 18   8  12  1   
 19   8  13  1   
 20   8  35  1   
 21   9  14  1   
 22   9  36  1   
 23   9  37  1   
 24  10  15  1   
 25  10  38  1   
 26  10  39  1   
 27  11  15  1   
 28  11  40  1   
 29  11  41  1   
 30  12  14  1   
 31  12  42  1   
 32  12  43  1   
 33  13  16  1   
 34  13  44  1   
 35  13  45  1   
 36  15  17  am  
 37  16  18  ar  
 38  16  19  ar  
 39  17  20  2   
 40  17  21  1   
 41  18  22  ar  
 42  18  46  1   
 43  19  23  ar  
 44  19  47  1   
 45  21  24  1   
 46  21  48  1   
 47  21  49  1   
 48  22  25  ar  
 49  22  50  1   
 50  23  25  ar  
 51  23  51  1   
 52  24  26  1   
 53  26  27  1   
 54  26  52  1   
 55  26  53  1   
 56  27  54  1   
 57  27  55  1   
 58  27  56  1   
@<TRIPOS>SUBSTRUCTURE
  1 ****   6 GROUP 4 **** **** 0

# MOE 2024.06 (io_trps.svl 2023.06)
