@<TRIPOS>MOLECULE
NONAME
53 55 1 0 0 
SMALL
USER_CHARGES


@<TRIPOS>ATOM
  1 O        3.2750     2.2900     1.7170 O.co2 1 <1>  -0.9000 
  2 C        2.5760     1.2930     1.4660 C.2   1 <1>   0.9060 
  3 O        2.2320     0.5240     2.3600 O.co2 1 <1>  -0.9000 
  4 C        2.4080     0.8270     0.0100 C.3   1 <1>  -0.1060 
  5 C        3.2630    -0.4630    -0.0630 C.3   1 <1>   0.2000 
  6 C        2.9880     1.8560    -1.0210 C.3   1 <1>  -0.1600 
  7 C        0.9090     0.5480    -0.2700 C.3   1 <1>  -0.0160 
  8 O        3.2510    -0.9690    -1.3650 O.3   1 <1>  -0.6800 
  9 C        4.7360    -0.1650     0.3330 C.3   1 <1>   0.3430 
 10 C        4.5180     1.7980    -1.1890 C.3   1 <1>   0.3430 
 11 C        0.0690     1.8180    -0.3360 C.ar  1 <1>  -0.1440 
 12 N        5.1090     1.2650     0.0590 N.4   1 <1>  -0.9590 
 13 C       -0.3170     2.4610     0.8310 C.ar  1 <1>  -0.1500 
 14 C       -0.3200     2.3460    -1.5580 C.ar  1 <1>  -0.1500 
 15 C        6.4890     1.6740     0.3720 C.3   1 <1>   0.4810 
 16 C       -1.0720     3.6190     0.7770 C.ar  1 <1>  -0.1500 
 17 C       -1.0760     3.5040    -1.6140 C.ar  1 <1>  -0.1500 
 18 C        6.5580     3.2040     0.4740 C.2   1 <1>  -0.0380 
 19 C       -1.4520     4.1430    -0.4460 C.ar  1 <1>  -0.1500 
 20 N        5.5380     3.8410     1.1680 N.pl3 1 <1>  -0.6000 
 21 C        7.5580     3.9540    -0.0820 C.2   1 <1>  -0.1240 
 22 C        5.5020     5.2040     1.3090 C.2   1 <1>  -0.0500 
 23 C        7.5390     5.3820     0.0410 C.2   1 <1>   0.5410 
 24 C        8.7410     3.3610    -0.8550 C.3   1 <1>  -0.1020 
 25 C        6.4700     5.9840     0.7670 C.2   1 <1>  -0.1240 
 26 O        8.4210     6.0730    -0.4710 O.2   1 <1>  -0.5700 
 27 C        6.4350     7.5000     0.9190 C.3   1 <1>  -0.1020 
 28 H        2.8670    -1.2270     0.5860 H     1 <1>   0.0800 
 29 H        2.7040     2.8530    -0.7280 H     1 <1>   0.0800 
 30 H        2.5550     1.6880    -1.9900 H     1 <1>   0.0800 
 31 H        0.7990     0.0210    -1.2000 H     1 <1>   0.0800 
 32 H        0.5100    -0.0910     0.5000 H     1 <1>   0.0800 
 33 H        2.3530    -1.2840    -1.5910 H     1 <1>   0.4000 
 34 H        5.3860    -0.8400    -0.1960 H     1 <1>   0.0800 
 35 H        4.8370    -0.3450     1.3910 H     1 <1>   0.0800 
 36 H        4.8920     2.7880    -1.3980 H     1 <1>   0.0800 
 37 H        4.7690     1.1460    -2.0100 H     1 <1>   0.0800 
 38 H        4.5600     1.7910     0.7770 H     1 <1>   0.4500 
 39 H       -0.0280     2.0630     1.7910 H     1 <1>   0.1500 
 40 H       -0.0360     1.8590    -2.4740 H     1 <1>   0.1500 
 41 H        6.7780     1.2560     1.3220 H     1 <1>   0.0800 
 42 H        7.1550     1.3050    -0.3860 H     1 <1>   0.0800 
 43 H       -1.3600     4.1100     1.6900 H     1 <1>   0.1500 
 44 H       -1.3730     3.9080    -2.5660 H     1 <1>   0.1500 
 45 H       -2.0370     5.0440    -0.4870 H     1 <1>   0.1500 
 46 H        4.7240     3.3170     1.5850 H     1 <1>   0.4000 
 47 H        4.6700     5.6130     1.8620 H     1 <1>   0.1500 
 48 H        9.6620     3.7360    -0.4420 H     1 <1>   0.0800 
 49 H        8.6900     3.6730    -1.8840 H     1 <1>   0.0800 
 50 H        8.7850     2.2910    -0.8240 H     1 <1>   0.0800 
 51 H        7.3250     7.8380     1.4190 H     1 <1>   0.0800 
 52 H        5.5780     7.8120     1.4890 H     1 <1>   0.0800 
 53 H        6.3910     7.9630    -0.0510 H     1 <1>   0.0800 
@<TRIPOS>BOND
  1   1   2  ar  
  2   2   3  ar  
  3   2   4  1   
  4   4   5  1   
  5   4   6  1   
  6   4   7  1   
  7   5   8  1   
  8   5   9  1   
  9   5  28  1   
 10   6  10  1   
 11   6  29  1   
 12   6  30  1   
 13   7  11  1   
 14   7  31  1   
 15   7  32  1   
 16   8  33  1   
 17   9  12  1   
 18   9  34  1   
 19   9  35  1   
 20  10  12  1   
 21  10  36  1   
 22  10  37  1   
 23  11  13  ar  
 24  11  14  ar  
 25  12  15  1   
 26  12  38  1   
 27  13  16  ar  
 28  13  39  1   
 29  14  17  ar  
 30  14  40  1   
 31  15  18  1   
 32  15  41  1   
 33  15  42  1   
 34  16  19  ar  
 35  16  43  1   
 36  17  19  ar  
 37  17  44  1   
 38  18  20  1   
 39  18  21  2   
 40  19  45  1   
 41  20  22  1   
 42  20  46  1   
 43  21  23  1   
 44  21  24  1   
 45  22  25  2   
 46  22  47  1   
 47  23  25  1   
 48  23  26  2   
 49  24  48  1   
 50  24  49  1   
 51  24  50  1   
 52  25  27  1   
 53  27  51  1   
 54  27  52  1   
 55  27  53  1   
@<TRIPOS>SUBSTRUCTURE
  1 ****   6 GROUP 4 **** **** 0

# MOE 2024.06 (io_trps.svl 2023.06)
