@<TRIPOS>MOLECULE
NONAME
47 50 1 0 0 
SMALL
USER_CHARGES


@<TRIPOS>ATOM
  1 O       -0.2300     0.2760     0.4800 O.2   1 <1>  -0.5700 
  2 C       -1.2710     0.9040     0.5420 C.2   1 <1>   0.5440 
  3 N       -2.4580     0.2130     0.4440 N.am  1 <1>  -0.6600 
  4 C       -1.2390     2.3460     0.6890 C.ar  1 <1>   0.0860 
  5 C       -3.7400     0.8120    -0.0060 C.3   1 <1>   0.1400 
  6 C       -2.4970    -1.2640     0.3120 C.3   1 <1>   0.1400 
  7 C       -0.3870     3.1240    -0.0960 C.ar  1 <1>  -0.1500 
  8 C       -2.0470     3.0090     1.6150 C.ar  1 <1>  -0.1500 
  9 C       -4.4860    -0.3360    -0.6850 C.3   1 <1>   0.2000 
 10 C       -3.9490    -1.6060    -0.0300 C.3   1 <1>  -0.0800 
 11 C       -0.3520     4.5030     0.0100 C.ar  1 <1>  -0.1440 
 12 C       -2.0250     4.3860     1.7310 C.ar  1 <1>  -0.1500 
 13 O       -5.8550    -0.2410    -0.4980 O.3   1 <1>  -0.6800 
 14 C       -4.0930    -2.8490    -0.9210 C.3   1 <1>   0.0200 
 15 C       -1.1860     5.1380     0.9270 C.ar  1 <1>   0.0830 
 16 C        0.5930     5.3130    -0.8610 C.3   1 <1>  -0.0170 
 17 C       -3.4830    -4.0660    -0.2550 C.2   1 <1>  -0.0400 
 18 O       -1.1990     6.4810     1.0750 O.3   1 <1>  -0.3630 
 19 C        0.7990     6.7080    -0.2650 C.3   1 <1>  -0.1600 
 20 O       -3.9780    -4.5140     0.8680 O.3   1 <1>  -0.0190 
 21 C       -2.4480    -4.8500    -0.5920 C.2   1 <1>  -0.1500 
 22 C       -0.5520     7.3090     0.1290 C.3   1 <1>   0.1200 
 23 N       -3.3270    -5.5540     1.3030 N.2   1 <1>  -0.4100 
 24 C       -2.4000    -5.7800     0.4430 C.2   1 <1>   0.1080 
 25 C       -1.3960    -6.9060     0.5510 C.3   1 <1>  -0.0590 
 26 H       -4.2850     1.1650     0.8510 H     1 <1>   0.0800 
 27 H       -3.5660     1.6180    -0.6980 H     1 <1>   0.0800 
 28 H       -1.8320    -1.5620    -0.4820 H     1 <1>   0.0800 
 29 H       -2.1860    -1.7360     1.2290 H     1 <1>   0.0800 
 30 H        0.2560     2.6220    -0.7980 H     1 <1>   0.1500 
 31 H       -2.6940     2.4330     2.2520 H     1 <1>   0.1500 
 32 H       -4.2850    -0.3220    -1.7430 H     1 <1>   0.0800 
 33 H       -4.4620    -1.7730     0.9010 H     1 <1>   0.0800 
 34 H       -2.6520     4.8890     2.4450 H     1 <1>   0.1500 
 35 H       -6.0780    -0.3250     0.4490 H     1 <1>   0.4000 
 36 H       -3.6080    -2.6820    -1.8660 H     1 <1>   0.0800 
 37 H       -5.1360    -3.0380    -1.1100 H     1 <1>   0.0800 
 38 H        1.5410     4.8120    -0.9480 H     1 <1>   0.0800 
 39 H        0.1640     5.4010    -1.8440 H     1 <1>   0.0800 
 40 H        1.2900     7.3430    -0.9800 H     1 <1>   0.0800 
 41 H        1.4210     6.6440     0.6110 H     1 <1>   0.0800 
 42 H       -1.7910    -4.8030    -1.4400 H     1 <1>   0.1500 
 43 H       -1.1980     7.3940    -0.7270 H     1 <1>   0.0800 
 44 H       -0.4260     8.2790     0.5760 H     1 <1>   0.0800 
 45 H       -1.4740    -7.5480    -0.3060 H     1 <1>   0.0800 
 46 H       -1.5860    -7.4830     1.4380 H     1 <1>   0.0800 
 47 H       -0.4020    -6.5030     0.6050 H     1 <1>   0.0800 
@<TRIPOS>BOND
  1   1   2  2   
  2   2   3  am  
  3   2   4  1   
  4   3   5  1   
  5   3   6  1   
  6   4   7  ar  
  7   4   8  ar  
  8   5   9  1   
  9   5  26  1   
 10   5  27  1   
 11   6  10  1   
 12   6  28  1   
 13   6  29  1   
 14   7  11  ar  
 15   7  30  1   
 16   8  12  ar  
 17   8  31  1   
 18   9  10  1   
 19   9  13  1   
 20   9  32  1   
 21  10  14  1   
 22  10  33  1   
 23  11  15  ar  
 24  11  16  1   
 25  12  15  ar  
 26  12  34  1   
 27  13  35  1   
 28  14  17  1   
 29  14  36  1   
 30  14  37  1   
 31  15  18  1   
 32  16  19  1   
 33  16  38  1   
 34  16  39  1   
 35  17  20  1   
 36  17  21  2   
 37  18  22  1   
 38  19  22  1   
 39  19  40  1   
 40  19  41  1   
 41  20  23  1   
 42  21  24  1   
 43  21  42  1   
 44  22  43  1   
 45  22  44  1   
 46  23  24  2   
 47  24  25  1   
 48  25  45  1   
 49  25  46  1   
 50  25  47  1   
@<TRIPOS>SUBSTRUCTURE
  1 ****   3 GROUP 4 **** **** 0

# MOE 2024.06 (io_trps.svl 2023.06)
