@<TRIPOS>MOLECULE
NONAME
50 52 1 0 0 
SMALL
USER_CHARGES


@<TRIPOS>ATOM
  1 CL       1.7230    -0.2610    -0.7000 Cl    1 <1>  -0.1770 
  2 C        0.5150     0.9110    -0.2330 C.ar  1 <1>   0.1770 
  3 C        0.8360     2.0790     0.4560 C.ar  1 <1>  -0.1440 
  4 C       -0.7900     0.6170    -0.5860 C.ar  1 <1>  -0.1500 
  5 C       -0.2030     2.9460     0.7790 C.ar  1 <1>  -0.1500 
  6 C        2.2530     2.4790     0.8750 C.3   1 <1>   0.3640 
  7 C       -1.8080     1.4920    -0.2570 C.ar  1 <1>  -0.1500 
  8 C       -1.5110     2.6560     0.4270 C.ar  1 <1>  -0.1500 
  9 N        2.8440     1.4320     1.7410 N.am  1 <1>  -0.7300 
 10 C        3.1530     2.8700    -0.3380 C.3   1 <1>   0.2610 
 11 C        4.0240     0.8290     1.4740 C.2   1 <1>   0.5690 
 12 O        3.9730     1.7970    -0.7790 O.3   1 <1>  -0.5600 
 13 C        3.9930     4.1360    -0.0770 C.2   1 <1>   0.5690 
 14 O        4.4630    -0.0160     2.2130 O.2   1 <1>  -0.5700 
 15 C        4.8030     1.2410     0.2220 C.3   1 <1>   0.1810 
 16 O        4.2080     4.4380     1.0760 O.2   1 <1>  -0.5700 
 17 N        4.4710     4.8980    -1.1280 N.am  1 <1>  -0.6600 
 18 C        5.1940     6.1940    -0.9380 C.3   1 <1>   0.2200 
 19 C        4.3950     4.4730    -2.5590 C.3   1 <1>   0.0600 
 20 C        6.5200     5.9680    -0.1910 C.3   1 <1>  -0.1600 
 21 C        4.2550     7.2420    -0.3220 C.3   1 <1>  -0.1600 
 22 C        7.5100     7.1270    -0.3890 C.3   1 <1>  -0.1600 
 23 C        4.8830     8.6350    -0.1410 C.3   1 <1>  -0.1600 
 24 C        7.3450     8.2960     0.5950 C.3   1 <1>  -0.1600 
 25 C        5.9090     8.6670     1.0000 C.3   1 <1>  -0.1600 
 26 H       -1.0020    -0.2940    -1.1170 H     1 <1>   0.1500 
 27 H       -0.0080     3.8610     1.3130 H     1 <1>   0.1500 
 28 H        2.1430     3.3550     1.4900 H     1 <1>   0.0800 
 29 H       -2.8250     1.2670    -0.5300 H     1 <1>   0.1500 
 30 H       -2.3020     3.3400     0.6880 H     1 <1>   0.1500 
 31 H        2.3070     1.1140     2.5470 H     1 <1>   0.3700 
 32 H        2.4950     3.1030    -1.1530 H     1 <1>   0.0800 
 33 H        5.2810     0.3740    -0.1970 H     1 <1>   0.0800 
 34 H        5.5560     1.9600     0.4870 H     1 <1>   0.0800 
 35 H        5.4520     6.5640    -1.9160 H     1 <1>   0.0800 
 36 H        5.3650     4.5660    -3.0150 H     1 <1>   0.0800 
 37 H        3.6990     5.1020    -3.0860 H     1 <1>   0.0800 
 38 H        4.0850     3.4490    -2.6610 H     1 <1>   0.0800 
 39 H        6.3480     5.8040     0.8580 H     1 <1>   0.0800 
 40 H        6.9740     5.0790    -0.5910 H     1 <1>   0.0800 
 41 H        3.4030     7.3420    -0.9700 H     1 <1>   0.0800 
 42 H        3.8980     6.9010     0.6330 H     1 <1>   0.0800 
 43 H        8.5110     6.7450    -0.2760 H     1 <1>   0.0800 
 44 H        7.4350     7.4960    -1.3970 H     1 <1>   0.0800 
 45 H        5.3220     8.9830    -1.0600 H     1 <1>   0.0800 
 46 H        4.0890     9.3170     0.1110 H     1 <1>   0.0800 
 47 H        7.8860     8.0630     1.4960 H     1 <1>   0.0800 
 48 H        7.8180     9.1610     0.1640 H     1 <1>   0.0800 
 49 H        5.9340     9.6610     1.4120 H     1 <1>   0.0800 
 50 H        5.5830     8.0150     1.7930 H     1 <1>   0.0800 
@<TRIPOS>BOND
  1   1   2  1   
  2   2   3  ar  
  3   2   4  ar  
  4   3   5  ar  
  5   3   6  1   
  6   4   7  ar  
  7   4  26  1   
  8   5   8  ar  
  9   5  27  1   
 10   6   9  1   
 11   6  10  1   
 12   6  28  1   
 13   7   8  ar  
 14   7  29  1   
 15   8  30  1   
 16   9  11  am  
 17   9  31  1   
 18  10  12  1   
 19  10  13  1   
 20  10  32  1   
 21  11  14  2   
 22  11  15  1   
 23  12  15  1   
 24  13  16  2   
 25  13  17  am  
 26  15  33  1   
 27  15  34  1   
 28  17  18  1   
 29  17  19  1   
 30  18  20  1   
 31  18  21  1   
 32  18  35  1   
 33  19  36  1   
 34  19  37  1   
 35  19  38  1   
 36  20  22  1   
 37  20  39  1   
 38  20  40  1   
 39  21  23  1   
 40  21  41  1   
 41  21  42  1   
 42  22  24  1   
 43  22  43  1   
 44  22  44  1   
 45  23  25  1   
 46  23  45  1   
 47  23  46  1   
 48  24  25  1   
 49  24  47  1   
 50  24  48  1   
 51  25  49  1   
 52  25  50  1   
@<TRIPOS>SUBSTRUCTURE
  1 ****  13 GROUP 4 **** **** 0

# MOE 2024.06 (io_trps.svl 2023.06)
