@<TRIPOS>MOLECULE
NONAME
47 50 1 0 0 
SMALL
USER_CHARGES


@<TRIPOS>ATOM
  1 S       -2.6450    -1.8850    -1.8410 S.3   1 <1>  -0.0800 
  2 C       -2.6850    -3.6400    -1.9350 C.2   1 <1>  -0.1400 
  3 C       -4.3280    -1.7760    -2.3220 C.2   1 <1>  -0.1100 
  4 C       -3.9060    -4.0630    -2.3160 C.2   1 <1>  -0.1500 
  5 C       -1.4030    -4.3780    -1.6050 C.3   1 <1>   0.5230 
  6 C       -4.8410    -3.0020    -2.5320 C.2   1 <1>  -0.1500 
  7 N       -1.4690    -4.9350    -0.2280 N.4   1 <1>  -0.9590 
  8 C       -1.7940    -3.9270     0.8280 C.3   1 <1>   0.3430 
  9 C       -0.2680    -5.7330     0.1210 C.3   1 <1>   0.3430 
 10 C       -2.8470    -4.4850     1.8040 C.3   1 <1>   0.1100 
 11 C       -0.6020    -6.8540     1.1100 C.3   1 <1>  -0.1600 
 12 N       -2.6270    -5.9010     2.1620 N.3   1 <1>  -0.8100 
 13 C       -1.2760    -6.4090     2.4130 C.3   1 <1>   0.1100 
 14 C       -3.7750    -6.8480     2.1220 C.3   1 <1>   0.2900 
 15 C       -4.1570    -7.3220     0.7170 C.2   1 <1>   0.2980 
 16 O       -5.0800    -8.2320     0.6020 O.3   1 <1>  -0.2800 
 17 N       -3.6640    -6.9210    -0.3920 N.2   1 <1>  -0.3380 
 18 C       -5.1190    -8.3720    -0.7040 C.2   1 <1>   0.4250 
 19 N       -4.2850    -7.6040    -1.3210 N.2   1 <1>  -0.3380 
 20 C       -6.0360    -9.3140    -1.3050 C.ar  1 <1>   0.0530 
 21 C       -6.9210   -10.0710    -0.5330 C.ar  1 <1>   0.1600 
 22 C       -6.0820    -9.5150    -2.6810 C.ar  1 <1>  -0.1500 
 23 N       -7.7940   -10.9550    -0.9890 N.ar  1 <1>  -0.6200 
 24 C       -6.9830   -10.4310    -3.1780 C.ar  1 <1>  -0.1500 
 25 C       -7.8060   -11.1170    -2.3020 C.ar  1 <1>   0.1600 
 26 H       -4.7620    -0.7940    -2.4000 H     1 <1>   0.1500 
 27 H       -4.2070    -5.0870    -2.4630 H     1 <1>   0.1500 
 28 H       -0.5660    -3.7060    -1.7010 H     1 <1>   0.0800 
 29 H       -1.2770    -5.1830    -2.3100 H     1 <1>   0.0800 
 30 H       -5.8530    -3.2110    -2.8380 H     1 <1>   0.1500 
 31 H       -2.2680    -5.5960    -0.2160 H     1 <1>   0.4500 
 32 H       -2.1850    -3.0240     0.3940 H     1 <1>   0.0800 
 33 H       -0.9040    -3.6670     1.3750 H     1 <1>   0.0800 
 34 H        0.4870    -5.0890     0.5400 H     1 <1>   0.0800 
 35 H        0.1370    -6.1840    -0.7710 H     1 <1>   0.0800 
 36 H       -3.8180    -4.3770     1.3510 H     1 <1>   0.0800 
 37 H       -2.8450    -3.8890     2.7010 H     1 <1>   0.0800 
 38 H        0.3240    -7.3340     1.3710 H     1 <1>   0.0800 
 39 H       -1.2020    -7.6030     0.6260 H     1 <1>   0.0800 
 40 H       -0.6860    -5.6490     2.8980 H     1 <1>   0.0800 
 41 H       -1.3340    -7.2480     3.0880 H     1 <1>   0.0800 
 42 H       -4.6330    -6.3750     2.5660 H     1 <1>   0.0800 
 43 H       -3.5420    -7.7120     2.7190 H     1 <1>   0.0800 
 44 H       -6.9080    -9.9360     0.5350 H     1 <1>   0.1500 
 45 H       -5.4320    -8.9700    -3.3430 H     1 <1>   0.1500 
 46 H       -7.0500   -10.6160    -4.2350 H     1 <1>   0.1500 
 47 H       -8.5080   -11.8320    -2.6990 H     1 <1>   0.1500 
@<TRIPOS>BOND
  1   1   2  1   
  2   1   3  1   
  3   2   4  2   
  4   2   5  1   
  5   3   6  2   
  6   3  26  1   
  7   4   6  1   
  8   4  27  1   
  9   5   7  1   
 10   5  28  1   
 11   5  29  1   
 12   6  30  1   
 13   7   8  1   
 14   7   9  1   
 15   7  31  1   
 16   8  10  1   
 17   8  32  1   
 18   8  33  1   
 19   9  11  1   
 20   9  34  1   
 21   9  35  1   
 22  10  12  1   
 23  10  36  1   
 24  10  37  1   
 25  11  13  1   
 26  11  38  1   
 27  11  39  1   
 28  12  13  1   
 29  12  14  1   
 30  13  40  1   
 31  13  41  1   
 32  14  15  1   
 33  14  42  1   
 34  14  43  1   
 35  15  16  1   
 36  15  17  2   
 37  16  18  1   
 38  17  19  1   
 39  18  19  2   
 40  18  20  1   
 41  20  21  ar  
 42  20  22  ar  
 43  21  23  ar  
 44  21  44  1   
 45  22  24  ar  
 46  22  45  1   
 47  23  25  ar  
 48  24  25  ar  
 49  24  46  1   
 50  25  47  1   
@<TRIPOS>SUBSTRUCTURE
  1 ****  17 GROUP 4 **** **** 0

# MOE 2024.06 (io_trps.svl 2023.06)
