@<TRIPOS>MOLECULE
NONAME
38 40 1 0 0 
SMALL
USER_CHARGES


@<TRIPOS>ATOM
  1 O       -2.4620     0.4340    -1.9560 O.2   1 <1>  -0.5700 
  2 C       -2.1760     0.4430    -0.7750 C.2   1 <1>   0.5440 
  3 N       -2.0460    -0.7550    -0.1370 N.am  1 <1>  -0.7300 
  4 C       -2.0050     1.6960    -0.0610 C.ar  1 <1>   0.0860 
  5 C       -2.1510    -2.0870    -0.7790 C.3   1 <1>   0.2200 
  6 C       -2.4960     2.8960    -0.5570 C.ar  1 <1>  -0.1500 
  7 C       -1.3460     1.8020     1.1580 C.ar  1 <1>  -0.1500 
  8 C       -3.4940    -2.7420    -0.4790 C.3   1 <1>  -0.0800 
  9 C       -1.2120    -3.0450    -0.0600 C.3   1 <1>   0.1200 
 10 C       -2.3280     4.0710     0.1490 C.ar  1 <1>   0.1600 
 11 C       -1.2290     3.0270     1.7870 C.ar  1 <1>   0.1600 
 12 C       -3.2640    -3.3930     0.8900 C.3   1 <1>   0.1200 
 13 C       -4.7250    -1.8190    -0.5460 C.3   1 <1>  -0.0170 
 14 O       -1.8830    -3.3850     1.1150 O.3   1 <1>  -0.5600 
 15 N       -1.7080     4.1640     1.3130 N.ar  1 <1>  -0.6200 
 16 C       -6.0060    -2.6060    -0.3210 C.ar  1 <1>  -0.1440 
 17 C       -6.6430    -2.6390     0.9030 C.ar  1 <1>  -0.1500 
 18 C       -6.5970    -3.3330    -1.3350 C.ar  1 <1>  -0.1500 
 19 C       -7.8040    -3.3800     1.0510 C.ar  1 <1>   0.1600 
 20 C       -7.7600    -4.0410    -1.0820 C.ar  1 <1>   0.1600 
 21 N       -8.3770    -4.0840     0.0880 N.ar  1 <1>  -0.6200 
 22 H       -1.9220    -0.8040     0.8760 H     1 <1>   0.3700 
 23 H       -1.9430    -2.0220    -1.8340 H     1 <1>   0.0800 
 24 H       -3.0130     2.9080    -1.5010 H     1 <1>   0.1500 
 25 H       -0.9140     0.9350     1.6210 H     1 <1>   0.1500 
 26 H       -3.6350    -3.5360    -1.1910 H     1 <1>   0.0800 
 27 H       -0.2610    -2.6010     0.1770 H     1 <1>   0.0800 
 28 H       -1.0670    -3.9440    -0.6330 H     1 <1>   0.0800 
 29 H       -2.7230     4.9840    -0.2640 H     1 <1>   0.1500 
 30 H       -0.7130     3.0780     2.7320 H     1 <1>   0.1500 
 31 H       -3.6170    -4.4110     0.9100 H     1 <1>   0.0800 
 32 H       -3.7270    -2.8330     1.6830 H     1 <1>   0.0800 
 33 H       -4.7620    -1.3450    -1.5120 H     1 <1>   0.0800 
 34 H       -4.6520    -1.0390     0.1910 H     1 <1>   0.0800 
 35 H       -6.2510    -2.0950     1.7430 H     1 <1>   0.1500 
 36 H       -6.1650    -3.3540    -2.3190 H     1 <1>   0.1500 
 37 H       -8.2880    -3.3940     2.0130 H     1 <1>   0.1500 
 38 H       -8.2070    -4.6010    -1.8850 H     1 <1>   0.1500 
@<TRIPOS>BOND
  1   1   2  2   
  2   2   3  am  
  3   2   4  1   
  4   3   5  1   
  5   3  22  1   
  6   4   6  ar  
  7   4   7  ar  
  8   5   8  1   
  9   5   9  1   
 10   5  23  1   
 11   6  10  ar  
 12   6  24  1   
 13   7  11  ar  
 14   7  25  1   
 15   8  12  1   
 16   8  13  1   
 17   8  26  1   
 18   9  14  1   
 19   9  27  1   
 20   9  28  1   
 21  10  15  ar  
 22  10  29  1   
 23  11  15  ar  
 24  11  30  1   
 25  12  14  1   
 26  12  31  1   
 27  12  32  1   
 28  13  16  1   
 29  13  33  1   
 30  13  34  1   
 31  16  17  ar  
 32  16  18  ar  
 33  17  19  ar  
 34  17  35  1   
 35  18  20  ar  
 36  18  36  1   
 37  19  21  ar  
 38  19  37  1   
 39  20  21  ar  
 40  20  38  1   
@<TRIPOS>SUBSTRUCTURE
  1 ****  13 GROUP 4 **** **** 0

# MOE 2024.06 (io_trps.svl 2023.06)
