@<TRIPOS>MOLECULE
NONAME
45 48 1 0 0 
SMALL
USER_CHARGES


@<TRIPOS>ATOM
  1 S        0.6340    -0.2160    -0.5000 S.3   1 <1>  -0.0800 
  2 C       -0.7290     0.9260    -0.5700 C.2   1 <1>  -0.0450 
  3 C       -0.3320    -1.4430     0.3110 C.2   1 <1>  -0.1100 
  4 C       -1.8060     0.3430     0.0130 C.2   1 <1>   0.0620 
  5 C       -0.5380     2.2000    -1.1920 C.2   1 <1>   0.7150 
  6 C       -1.5830    -0.9880     0.4960 C.2   1 <1>   0.0620 
  7 O       -3.0090     0.9370     0.1600 O.3   1 <1>  -0.3420 
  8 O       -1.2060     2.5120    -2.1610 O.2   1 <1>  -0.5700 
  9 N        0.4240     3.0940    -0.7560 N.am  1 <1>  -0.6600 
 10 O       -2.5850    -1.6940     1.0810 O.3   1 <1>  -0.3420 
 11 C       -3.9750     0.2900     0.9710 C.3   1 <1>   0.1200 
 12 C        1.0740     2.9670     0.6050 C.3   1 <1>   0.2200 
 13 C        0.7620     4.2710    -1.6200 C.3   1 <1>   0.1400 
 14 C       -3.8960    -1.2360     0.8030 C.3   1 <1>   0.1200 
 15 C        0.9280     4.2510     1.4380 C.3   1 <1>   0.1200 
 16 C        2.5560     2.5340     0.4890 C.3   1 <1>   0.3430 
 17 C        2.0490     5.0290    -1.2410 C.3   1 <1>  -0.0800 
 18 O        1.9620     5.1500     1.1760 O.3   1 <1>  -0.5600 
 19 N        3.0970     2.7300    -0.8990 N.4   1 <1>  -0.9590 
 20 C        1.8580     5.8970     0.0120 C.3   1 <1>   0.1200 
 21 C        3.3370     4.1800    -1.1760 C.3   1 <1>   0.3430 
 22 C        4.4150     1.9770    -1.0160 C.3   1 <1>   0.2370 
 23 C        5.4920     2.4370    -0.0300 C.2   1 <1>   0.9060 
 24 O        6.1940     3.3980    -0.3540 O.co2 1 <1>  -0.9000 
 25 O        5.5090     1.9130     1.0870 O.co2 1 <1>  -0.9000 
 26 H        0.1320    -2.3800     0.5600 H     1 <1>   0.1500 
 27 H       -3.7890     0.5620     1.9940 H     1 <1>   0.0800 
 28 H       -4.9440     0.6550     0.6810 H     1 <1>   0.0800 
 29 H        0.5620     2.2080     1.1670 H     1 <1>   0.0800 
 30 H        0.8570     3.9270    -2.6370 H     1 <1>   0.0800 
 31 H       -0.0710     4.9540    -1.6010 H     1 <1>   0.0800 
 32 H       -4.1420    -1.5150    -0.2070 H     1 <1>   0.0800 
 33 H       -4.5700    -1.7300     1.4790 H     1 <1>   0.0800 
 34 H        1.0090     4.0000     2.4810 H     1 <1>   0.0800 
 35 H       -0.0240     4.7260     1.2770 H     1 <1>   0.0800 
 36 H        2.6290     1.4930     0.7520 H     1 <1>   0.0800 
 37 H        3.1590     3.0770     1.2020 H     1 <1>   0.0800 
 38 H        2.2100     5.7370    -2.0330 H     1 <1>   0.0800 
 39 H        2.3950     2.3690    -1.5550 H     1 <1>   0.4500 
 40 H        0.9080     6.4060     0.0050 H     1 <1>   0.0800 
 41 H        2.6350     6.6410     0.0560 H     1 <1>   0.0800 
 42 H        3.9980     4.5860    -0.4240 H     1 <1>   0.0800 
 43 H        3.8490     4.2640    -2.1210 H     1 <1>   0.0800 
 44 H        4.2540     0.9300    -0.8410 H     1 <1>   0.0800 
 45 H        4.8190     2.0990    -2.0040 H     1 <1>   0.0800 
@<TRIPOS>BOND
  1   1   2  1   
  2   1   3  1   
  3   2   4  2   
  4   2   5  1   
  5   3   6  2   
  6   3  26  1   
  7   4   6  1   
  8   4   7  1   
  9   5   8  2   
 10   5   9  am  
 11   6  10  1   
 12   7  11  1   
 13   9  12  1   
 14   9  13  1   
 15  10  14  1   
 16  11  14  1   
 17  11  27  1   
 18  11  28  1   
 19  12  15  1   
 20  12  16  1   
 21  12  29  1   
 22  13  17  1   
 23  13  30  1   
 24  13  31  1   
 25  14  32  1   
 26  14  33  1   
 27  15  18  1   
 28  15  34  1   
 29  15  35  1   
 30  16  19  1   
 31  16  36  1   
 32  16  37  1   
 33  17  20  1   
 34  17  21  1   
 35  17  38  1   
 36  18  20  1   
 37  19  21  1   
 38  19  22  1   
 39  19  39  1   
 40  20  40  1   
 41  20  41  1   
 42  21  42  1   
 43  21  43  1   
 44  22  23  1   
 45  22  44  1   
 46  22  45  1   
 47  23  24  ar  
 48  23  25  ar  
@<TRIPOS>SUBSTRUCTURE
  1 ****  12 GROUP 4 **** **** 0

# MOE 2024.06 (io_trps.svl 2023.06)
