@<TRIPOS>MOLECULE
NONAME
38 39 1 0 0 
SMALL
USER_CHARGES


@<TRIPOS>ATOM
  1 F       -1.6180    -0.5000    -2.2730 F     1 <1>  -0.1900 
  2 C       -2.4610     0.2450    -1.6090 C.ar  1 <1>   0.1900 
  3 C       -3.0360    -0.2570    -0.4590 C.ar  1 <1>  -0.1500 
  4 C       -2.7450     1.5080    -2.0820 C.ar  1 <1>  -0.1500 
  5 C       -3.9360     0.5270     0.2530 C.ar  1 <1>  -0.1440 
  6 C       -3.6350     2.2910    -1.3700 C.ar  1 <1>  -0.1500 
  7 C       -4.2290     1.8140    -0.2060 C.ar  1 <1>  -0.1440 
  8 C       -4.5680    -0.0570     1.5240 C.3   1 <1>   0.0440 
  9 C       -5.1870     2.7370     0.5360 C.3   1 <1>  -0.0960 
 10 C       -4.9250    -1.5360     1.4310 C.2   1 <1>   0.5690 
 11 O       -4.3240    -2.2840     2.1690 O.2   1 <1>  -0.5700 
 12 N       -5.8860    -1.9940     0.5620 N.am  1 <1>  -0.6600 
 13 C       -6.2370    -3.4550     0.5620 C.3   1 <1>   0.1400 
 14 C       -6.5950    -1.1390    -0.4400 C.3   1 <1>   0.1400 
 15 C       -7.1680    -3.8200    -0.5950 C.3   1 <1>  -0.1860 
 16 C       -8.0980    -1.4400    -0.4560 C.3   1 <1>  -0.1600 
 17 C       -7.5070    -5.2910    -0.5590 C.2   1 <1>   0.9060 
 18 C       -8.4220    -2.9370    -0.5930 C.3   1 <1>   0.2000 
 19 O       -7.0270    -6.0280    -1.4210 O.co2 1 <1>  -0.9000 
 20 O       -8.2730    -5.7070     0.3210 O.co2 1 <1>  -0.9000 
 21 O       -9.2220    -3.2890     0.4760 O.3   1 <1>  -0.6800 
 22 H       -2.7760    -1.2500    -0.1360 H     1 <1>   0.1500 
 23 H       -2.2790     1.8670    -2.9820 H     1 <1>   0.1500 
 24 H       -3.8600     3.2800    -1.7290 H     1 <1>   0.1500 
 25 H       -5.4660     0.4620     1.7950 H     1 <1>   0.0800 
 26 H       -3.8730     0.0730     2.3330 H     1 <1>   0.0800 
 27 H       -5.1950     3.7190     0.0990 H     1 <1>   0.0800 
 28 H       -4.8860     2.8350     1.5640 H     1 <1>   0.0800 
 29 H       -6.1860     2.3440     0.4950 H     1 <1>   0.0800 
 30 H       -5.3360    -4.0420     0.4950 H     1 <1>   0.0800 
 31 H       -6.7190    -3.6960     1.4960 H     1 <1>   0.0800 
 32 H       -6.4580    -0.0960    -0.2290 H     1 <1>   0.0800 
 33 H       -6.1760    -1.3350    -1.4120 H     1 <1>   0.0800 
 34 H       -6.6350    -3.6620    -1.5120 H     1 <1>   0.0800 
 35 H       -8.5400    -0.9170    -1.2830 H     1 <1>   0.0800 
 36 H       -8.5330    -1.0450     0.4460 H     1 <1>   0.0800 
 37 H       -8.9900    -3.1250    -1.4890 H     1 <1>   0.0800 
 38 H       -9.0900    -4.2770     0.6100 H     1 <1>   0.4000 
@<TRIPOS>BOND
  1   1   2  1   
  2   2   3  ar  
  3   2   4  ar  
  4   3   5  ar  
  5   3  22  1   
  6   4   6  ar  
  7   4  23  1   
  8   5   7  ar  
  9   5   8  1   
 10   6   7  ar  
 11   6  24  1   
 12   7   9  1   
 13   8  10  1   
 14   8  25  1   
 15   8  26  1   
 16   9  27  1   
 17   9  28  1   
 18   9  29  1   
 19  10  11  2   
 20  10  12  am  
 21  12  13  1   
 22  12  14  1   
 23  13  15  1   
 24  13  30  1   
 25  13  31  1   
 26  14  16  1   
 27  14  32  1   
 28  14  33  1   
 29  15  17  1   
 30  15  18  1   
 31  15  34  1   
 32  16  18  1   
 33  16  35  1   
 34  16  36  1   
 35  17  19  ar  
 36  17  20  ar  
 37  18  21  1   
 38  18  37  1   
 39  21  38  1   
@<TRIPOS>SUBSTRUCTURE
  1 ****  12 GROUP 4 **** **** 0

# MOE 2024.06 (io_trps.svl 2023.06)
