@<TRIPOS>MOLECULE
NONAME
35 36 1 0 0 
SMALL
USER_CHARGES


@<TRIPOS>ATOM
  1 S       -0.3210     0.2090    -0.6270 S.3   1 <1>  -0.0800 
  2 C       -1.1130    -0.8400     0.5000 C.2   1 <1>   0.4420 
  3 C       -0.3660     1.4380     0.5950 C.2   1 <1>   0.1980 
  4 N       -1.3370    -0.2660     1.6250 N.2   1 <1>  -0.3380 
  5 N       -1.4010    -2.1110     0.0500 N.am  1 <1>  -0.4940 
  6 N       -0.9090     1.0330     1.6720 N.2   1 <1>  -0.3380 
  7 C        0.2200     2.8100     0.2840 C.3   1 <1>   0.3800 
  8 C       -1.9700    -3.1700     0.7110 C.2   1 <1>   0.5440 
  9 O       -0.2290     3.2320    -0.9730 O.3   1 <1>  -0.5600 
 10 C        1.7510     2.7790     0.2650 C.3   1 <1>  -0.2400 
 11 O       -2.1990    -3.1170     1.8980 O.2   1 <1>  -0.5700 
 12 C       -2.2850    -4.3570    -0.0380 C.ar  1 <1>   0.0860 
 13 C       -0.3500     4.6120    -1.1350 C.3   1 <1>   0.0400 
 14 C       -3.4620    -4.4740    -0.7650 C.ar  1 <1>   0.1670 
 15 C       -1.4180    -5.4390    -0.1040 C.ar  1 <1>   0.1670 
 16 N       -3.7250    -5.5210    -1.5140 N.ar  1 <1>  -0.6200 
 17 C       -4.5290    -3.3900    -0.7530 C.3   1 <1>  -0.0970 
 18 N       -1.6660    -6.4940    -0.8470 N.ar  1 <1>  -0.6200 
 19 C       -0.1100    -5.4710     0.6710 C.3   1 <1>  -0.0970 
 20 C       -2.8090    -6.4750    -1.5100 C.ar  1 <1>   0.4700 
 21 H       -1.1700    -2.2720    -0.9270 H     1 <1>   0.3700 
 22 H       -0.1300     3.5010     1.0330 H     1 <1>   0.0800 
 23 H        2.0990     2.1380    -0.5250 H     1 <1>   0.0800 
 24 H        2.1130     2.3970     1.2020 H     1 <1>   0.0800 
 25 H        2.1490     3.7660     0.1270 H     1 <1>   0.0800 
 26 H       -0.7000     4.7990    -2.1360 H     1 <1>   0.0800 
 27 H        0.6090     5.0790    -0.9970 H     1 <1>   0.0800 
 28 H       -1.0660     4.9930    -0.4270 H     1 <1>   0.0800 
 29 H       -4.5480    -2.8650     0.1850 H     1 <1>   0.0800 
 30 H       -5.4990    -3.8310    -0.9010 H     1 <1>   0.0800 
 31 H       -4.3490    -2.6900    -1.5470 H     1 <1>   0.0800 
 32 H       -0.2050    -4.9720     1.6190 H     1 <1>   0.0800 
 33 H        0.6670    -4.9980     0.0990 H     1 <1>   0.0800 
 34 H        0.1780    -6.4890     0.8630 H     1 <1>   0.0800 
 35 H       -3.0200    -7.3390    -2.1190 H     1 <1>   0.1500 
@<TRIPOS>BOND
  1   1   2  1   
  2   1   3  1   
  3   2   4  2   
  4   2   5  1   
  5   3   6  2   
  6   3   7  1   
  7   4   6  1   
  8   5   8  am  
  9   5  21  1   
 10   7   9  1   
 11   7  10  1   
 12   7  22  1   
 13   8  11  2   
 14   8  12  1   
 15   9  13  1   
 16  10  23  1   
 17  10  24  1   
 18  10  25  1   
 19  12  14  ar  
 20  12  15  ar  
 21  13  26  1   
 22  13  27  1   
 23  13  28  1   
 24  14  16  ar  
 25  14  17  1   
 26  15  18  ar  
 27  15  19  1   
 28  16  20  ar  
 29  17  29  1   
 30  17  30  1   
 31  17  31  1   
 32  18  20  ar  
 33  19  32  1   
 34  19  33  1   
 35  19  34  1   
 36  20  35  1   
@<TRIPOS>SUBSTRUCTURE
  1 ****   5 GROUP 4 **** **** 0

# MOE 2024.06 (io_trps.svl 2023.06)
