@<TRIPOS>MOLECULE
NONAME
45 48 1 0 0 
SMALL
USER_CHARGES


@<TRIPOS>ATOM
  1 O        0.4110     0.5820     0.8750 O.3   1 <1>  -0.0190 
  2 N        1.4260    -0.2200     1.0200 N.2   1 <1>  -0.4100 
  3 C        0.7410     1.6790     0.2480 C.2   1 <1>  -0.0400 
  4 C        2.4280     0.3700     0.4750 C.2   1 <1>   0.1080 
  5 C        2.0500     1.6040    -0.0460 C.2   1 <1>  -0.1500 
  6 C       -0.3280     2.7290    -0.0070 C.3   1 <1>   0.0200 
  7 C        3.8250    -0.2040     0.4110 C.3   1 <1>  -0.0590 
  8 C        0.2520     4.0340    -0.5790 C.3   1 <1>  -0.0800 
  9 C       -0.7820     5.0760    -1.0050 C.3   1 <1>   0.2000 
 10 C        1.1230     4.7990     0.4130 C.3   1 <1>   0.2090 
 11 O       -1.7980     5.1190    -0.0410 O.3   1 <1>  -0.5600 
 12 C        0.0120     6.3940    -1.0030 C.3   1 <1>   0.2090 
 13 N        1.2170     6.1740    -0.1450 N.pl3 1 <1>  -0.8220 
 14 C       -2.9910     5.7040    -0.4610 C.3   1 <1>   0.0400 
 15 C        2.4520     6.6120    -0.6610 C.2   1 <1>   0.2700 
 16 N        3.4110     5.8250    -1.0050 N.2   1 <1>  -0.3380 
 17 N        2.8140     7.8890    -0.9040 N.pl3 1 <1>   0.5930 
 18 N        4.3770     6.6070    -1.4770 N.2   1 <1>   0.0000 
 19 N        4.0380     7.8390    -1.4320 N.2   1 <1>  -0.4180 
 20 C        2.0730     9.0950    -0.7270 C.ar  1 <1>  -0.0230 
 21 C        2.1230    10.1040    -1.6860 C.ar  1 <1>  -0.1500 
 22 C        1.2830     9.2950     0.4040 C.ar  1 <1>  -0.1500 
 23 C        1.3970    11.2710    -1.5260 C.ar  1 <1>  -0.1500 
 24 C        0.5570    10.4610     0.5650 C.ar  1 <1>  -0.1500 
 25 C        0.6120    11.4500    -0.4000 C.ar  1 <1>  -0.1500 
 26 H        2.6930     2.2970    -0.5570 H     1 <1>   0.1500 
 27 H       -1.0470     2.3230    -0.6960 H     1 <1>   0.0800 
 28 H       -0.8390     2.9320     0.9180 H     1 <1>   0.0800 
 29 H        4.5240     0.4870     0.8450 H     1 <1>   0.0800 
 30 H        4.0960    -0.3900    -0.6110 H     1 <1>   0.0800 
 31 H        3.8660    -1.1300     0.9570 H     1 <1>   0.0800 
 32 H        0.8570     3.8010    -1.4380 H     1 <1>   0.0800 
 33 H       -1.2100     4.8490    -1.9660 H     1 <1>   0.0800 
 34 H        2.0890     4.3420     0.5400 H     1 <1>   0.0800 
 35 H        0.6360     4.8490     1.3730 H     1 <1>   0.0800 
 36 H       -0.5790     7.2070    -0.6200 H     1 <1>   0.0800 
 37 H        0.3240     6.6230    -2.0070 H     1 <1>   0.0800 
 38 H       -3.6800     5.6830     0.3650 H     1 <1>   0.0800 
 39 H       -3.3960     5.1370    -1.2810 H     1 <1>   0.0800 
 40 H       -2.8120     6.7240    -0.7540 H     1 <1>   0.0800 
 41 H        2.7340     9.9790    -2.5650 H     1 <1>   0.1500 
 42 H        1.2320     8.5330     1.1650 H     1 <1>   0.1500 
 43 H        1.4450    12.0430    -2.2750 H     1 <1>   0.1500 
 44 H       -0.0500    10.6000     1.4430 H     1 <1>   0.1500 
 45 H        0.0480    12.3580    -0.2750 H     1 <1>   0.1500 
@<TRIPOS>BOND
  1   1   2  1   
  2   1   3  1   
  3   2   4  2   
  4   3   5  2   
  5   3   6  1   
  6   4   5  1   
  7   4   7  1   
  8   5  26  1   
  9   6   8  1   
 10   6  27  1   
 11   6  28  1   
 12   7  29  1   
 13   7  30  1   
 14   7  31  1   
 15   8   9  1   
 16   8  10  1   
 17   8  32  1   
 18   9  11  1   
 19   9  12  1   
 20   9  33  1   
 21  10  13  1   
 22  10  34  1   
 23  10  35  1   
 24  11  14  1   
 25  12  13  1   
 26  12  36  1   
 27  12  37  1   
 28  13  15  1   
 29  14  38  1   
 30  14  39  1   
 31  14  40  1   
 32  15  16  2   
 33  15  17  1   
 34  16  18  1   
 35  17  19  1   
 36  17  20  1   
 37  18  19  2   
 38  20  21  ar  
 39  20  22  ar  
 40  21  23  ar  
 41  21  41  1   
 42  22  24  ar  
 43  22  42  1   
 44  23  25  ar  
 45  23  43  1   
 46  24  25  ar  
 47  24  44  1   
 48  25  45  1   
@<TRIPOS>SUBSTRUCTURE
  1 ****  13 GROUP 4 **** **** 0

# MOE 2024.06 (io_trps.svl 2023.06)
