@<TRIPOS>MOLECULE
NONAME
45 47 1 0 0 
SMALL
USER_CHARGES


@<TRIPOS>ATOM
  1 S        0.2700    -2.6890     2.2350 S.3   1 <1>  -0.0800 
  2 C       -0.9740    -1.6630     1.5600 C.2   1 <1>   0.1980 
  3 C        0.1610    -3.7050     0.8290 C.2   1 <1>  -0.1100 
  4 N       -1.4160    -2.0490     0.4300 N.2   1 <1>  -0.5650 
  5 C       -1.3840    -0.4530     2.3690 C.3   1 <1>  -0.0600 
  6 C       -0.7710    -3.2060     0.0010 C.2   1 <1>   0.0460 
  7 C       -1.1690    -3.8040    -1.3440 C.3   1 <1>   0.5240 
  8 N       -2.6250    -4.1340    -1.3360 N.4   1 <1>  -0.9590 
  9 C       -2.9630    -5.3360    -2.1540 C.3   1 <1>   0.3430 
 10 C       -3.4740    -2.9410    -1.6140 C.3   1 <1>   0.3430 
 11 C       -4.4090    -5.8340    -1.9200 C.3   1 <1>   0.1400 
 12 C       -4.6390    -2.8780    -0.6200 C.3   1 <1>  -0.1600 
 13 N       -5.0410    -5.3390    -0.6450 N.am  1 <1>  -0.6600 
 14 C       -5.6800    -3.9990    -0.7460 C.3   1 <1>   0.1400 
 15 C       -4.6340    -5.8240     0.5810 C.2   1 <1>   0.7030 
 16 O       -3.4360    -5.9760     0.7330 O.2   1 <1>  -0.5700 
 17 C       -5.5440    -6.0890     1.6900 C.2   1 <1>   0.2770 
 18 N       -6.9110    -6.3990     1.6730 N.pl3 1 <1>  -0.7640 
 19 C       -5.1850    -6.0980     3.0000 C.2   1 <1>   0.2000 
 20 C       -7.3070    -6.5680     2.9300 C.cat 1 <1>   0.6500 
 21 C       -7.7600    -6.5980     0.4620 C.3   1 <1>   0.2740 
 22 N       -6.2880    -6.3850     3.7540 N.pl3 1 <1>  -0.7000 
 23 H        0.8140    -4.5600     0.7860 H     1 <1>   0.1500 
 24 H       -0.5340     0.1850     2.5230 H     1 <1>   0.0800 
 25 H       -1.7690    -0.7630     3.3230 H     1 <1>   0.0800 
 26 H       -2.1430     0.0990     1.8460 H     1 <1>   0.0800 
 27 H       -0.5890    -4.6970    -1.5050 H     1 <1>   0.0800 
 28 H       -0.9480    -3.1030    -2.1320 H     1 <1>   0.0800 
 29 H       -2.8150    -4.4090    -0.3550 H     1 <1>   0.4500 
 30 H       -2.2940    -6.1370    -1.8850 H     1 <1>   0.0800 
 31 H       -2.8170    -5.1320    -3.2030 H     1 <1>   0.0800 
 32 H       -3.8410    -2.9670    -2.6270 H     1 <1>   0.0800 
 33 H       -2.8850    -2.0440    -1.4970 H     1 <1>   0.0800 
 34 H       -4.3990    -6.9110    -1.9150 H     1 <1>   0.0800 
 35 H       -5.0180    -5.5370    -2.7570 H     1 <1>   0.0800 
 36 H       -5.1470    -1.9430    -0.7780 H     1 <1>   0.0800 
 37 H       -4.2500    -2.8440     0.3820 H     1 <1>   0.0800 
 38 H       -6.1990    -3.9150    -1.6870 H     1 <1>   0.0800 
 39 H       -6.4110    -3.8850     0.0380 H     1 <1>   0.0800 
 40 H       -4.2060    -5.9180     3.4200 H     1 <1>   0.1500 
 41 H       -8.3120    -6.8270     3.2410 H     1 <1>   0.1500 
 42 H       -7.2520    -7.2340    -0.2440 H     1 <1>   0.0800 
 43 H       -7.9700    -5.6520    -0.0040 H     1 <1>   0.0800 
 44 H       -8.6940    -7.0640     0.7300 H     1 <1>   0.0800 
 45 H       -6.3150    -6.4630     4.7780 H     1 <1>   0.4500 
@<TRIPOS>BOND
  1   1   2  1   
  2   1   3  1   
  3   2   4  2   
  4   2   5  1   
  5   3   6  2   
  6   3  23  1   
  7   4   6  1   
  8   5  24  1   
  9   5  25  1   
 10   5  26  1   
 11   6   7  1   
 12   7   8  1   
 13   7  27  1   
 14   7  28  1   
 15   8   9  1   
 16   8  10  1   
 17   8  29  1   
 18   9  11  1   
 19   9  30  1   
 20   9  31  1   
 21  10  12  1   
 22  10  32  1   
 23  10  33  1   
 24  11  13  1   
 25  11  34  1   
 26  11  35  1   
 27  12  14  1   
 28  12  36  1   
 29  12  37  1   
 30  13  14  1   
 31  13  15  am  
 32  14  38  1   
 33  14  39  1   
 34  15  16  2   
 35  15  17  1   
 36  17  18  1   
 37  17  19  2   
 38  18  20  ar  
 39  18  21  1   
 40  19  22  1   
 41  19  40  1   
 42  20  22  ar  
 43  20  41  1   
 44  21  42  1   
 45  21  43  1   
 46  21  44  1   
 47  22  45  1   
@<TRIPOS>SUBSTRUCTURE
  1 ****  16 GROUP 4 **** **** 0

# MOE 2024.06 (io_trps.svl 2023.06)
