@<TRIPOS>MOLECULE
NONAME
43 46 1 0 0 
SMALL
USER_CHARGES


@<TRIPOS>ATOM
  1 S        0.1490     0.3550    -1.8810 S.3   1 <1>  -0.0800 
  2 C       -1.0490     1.0790    -0.8190 C.2   1 <1>  -0.1400 
  3 C       -0.9850    -0.9050    -2.3510 C.2   1 <1>  -0.1100 
  4 C       -2.1980     0.3940    -0.8630 C.2   1 <1>  -0.1810 
  5 C       -0.7660     2.3220     0.0170 C.3   1 <1>   0.4600 
  6 C       -2.1690    -0.7440    -1.7290 C.2   1 <1>  -0.1500 
  7 C       -3.3740     0.8570    -0.0330 C.3   1 <1>   0.0210 
  8 O       -1.8730     2.5590     0.8670 O.3   1 <1>  -0.5600 
  9 C       -0.5450     3.5570    -0.8660 C.3   1 <1>  -0.1600 
 10 C        0.4400     2.0990     0.9360 C.3   1 <1>  -0.1600 
 11 C       -3.1660     2.3350     0.3520 C.3   1 <1>   0.1200 
 12 C       -0.2160     4.7960    -0.0310 C.3   1 <1>   0.1400 
 13 C        0.7640     3.3500     1.7540 C.3   1 <1>   0.1400 
 14 N        0.9630     4.5030     0.8310 N.am  1 <1>  -0.6600 
 15 C        2.1910     5.1130     0.6800 C.2   1 <1>   0.7160 
 16 O        3.1760     4.6030     1.1800 O.2   1 <1>  -0.5700 
 17 C        2.3360     6.3300    -0.0770 C.2   1 <1>  -0.0860 
 18 C        1.7420     7.5370     0.0320 C.2   1 <1>  -0.0400 
 19 C        3.1730     6.5400    -1.1590 C.2   1 <1>   0.1080 
 20 O        2.1490     8.3760    -0.8890 O.3   1 <1>  -0.0190 
 21 C        0.7230     8.0240     1.0440 C.3   1 <1>  -0.0600 
 22 N        3.0350     7.7290    -1.6120 N.2   1 <1>  -0.4100 
 23 C        4.1240     5.5160    -1.7430 C.3   1 <1>  -0.0590 
 24 H       -0.6390    -1.6440    -3.0520 H     1 <1>   0.1500 
 25 H       -3.0290    -1.3810    -1.8440 H     1 <1>   0.1500 
 26 H       -3.4540     0.2550     0.8540 H     1 <1>   0.0800 
 27 H       -4.2850     0.7600    -0.5950 H     1 <1>   0.0800 
 28 H       -1.4120     3.7380    -1.4720 H     1 <1>   0.0800 
 29 H        0.2750     3.3690    -1.5350 H     1 <1>   0.0800 
 30 H        1.3040     1.8440     0.3500 H     1 <1>   0.0800 
 31 H        0.2380     1.2730     1.5920 H     1 <1>   0.0800 
 32 H       -3.8740     2.6230     1.1090 H     1 <1>   0.0800 
 33 H       -3.3050     2.9670    -0.5070 H     1 <1>   0.0800 
 34 H       -1.0550     5.0510     0.5950 H     1 <1>   0.0800 
 35 H       -0.0230     5.6240    -0.6900 H     1 <1>   0.0800 
 36 H        1.6440     3.1770     2.3500 H     1 <1>   0.0800 
 37 H       -0.0500     3.5710     2.4240 H     1 <1>   0.0800 
 38 H        0.5020     7.2550     1.7610 H     1 <1>   0.0800 
 39 H       -0.1840     8.3070     0.5410 H     1 <1>   0.0800 
 40 H        1.1130     8.8800     1.5650 H     1 <1>   0.0800 
 41 H        3.5820     4.6370    -2.0380 H     1 <1>   0.0800 
 42 H        4.8600     5.2450    -1.0070 H     1 <1>   0.0800 
 43 H        4.6250     5.9240    -2.6020 H     1 <1>   0.0800 
@<TRIPOS>BOND
  1   1   2  1   
  2   1   3  1   
  3   2   4  2   
  4   2   5  1   
  5   3   6  2   
  6   3  24  1   
  7   4   6  1   
  8   4   7  1   
  9   5   8  1   
 10   5   9  1   
 11   5  10  1   
 12   6  25  1   
 13   7  11  1   
 14   7  26  1   
 15   7  27  1   
 16   8  11  1   
 17   9  12  1   
 18   9  28  1   
 19   9  29  1   
 20  10  13  1   
 21  10  30  1   
 22  10  31  1   
 23  11  32  1   
 24  11  33  1   
 25  12  14  1   
 26  12  34  1   
 27  12  35  1   
 28  13  14  1   
 29  13  36  1   
 30  13  37  1   
 31  14  15  am  
 32  15  16  2   
 33  15  17  1   
 34  17  18  2   
 35  17  19  1   
 36  18  20  1   
 37  18  21  1   
 38  19  22  2   
 39  19  23  1   
 40  20  22  1   
 41  21  38  1   
 42  21  39  1   
 43  21  40  1   
 44  23  41  1   
 45  23  42  1   
 46  23  43  1   
@<TRIPOS>SUBSTRUCTURE
  1 ****   9 GROUP 4 **** **** 0

# MOE 2024.06 (io_trps.svl 2023.06)
