@<TRIPOS>MOLECULE
NONAME
49 50 1 0 0 
SMALL
USER_CHARGES


@<TRIPOS>ATOM
  1 S        1.2050     1.1530    -2.0850 S.3   1 <1>  -0.4600 
  2 C        1.5790     1.4810    -0.3450 C.3   1 <1>   0.0700 
  3 C        0.4970    -0.5140    -2.0450 C.3   1 <1>  -0.0100 
  4 C        2.2310     2.8640    -0.2760 C.3   1 <1>  -0.1600 
  5 C        2.5630     3.3090     1.1580 C.3   1 <1>   0.2890 
  6 N        3.0220     4.7230     1.1400 N.pl3 1 <1>  -0.8690 
  7 C        3.5770     2.4170     1.9070 C.3   1 <1>   0.1200 
  8 C        4.0700     5.3430     0.5730 C.ar  1 <1>   0.4100 
  9 O        2.9720     1.2570     2.3800 O.3   1 <1>  -0.6800 
 10 N        4.0580     6.6480     0.7140 N.ar  1 <1>  -0.6200 
 11 C        5.1010     4.6800    -0.1180 C.ar  1 <1>  -0.1500 
 12 C        5.0380     7.3530     0.1650 C.ar  1 <1>   0.7710 
 13 C        6.0980     5.4120    -0.6700 C.ar  1 <1>   0.2180 
 14 N        6.0360     6.7550    -0.5110 N.ar  1 <1>  -0.1790 
 15 N        5.0420     8.7080     0.2950 N.pl3 1 <1>  -0.8380 
 16 C        7.2630     4.8060    -1.4420 C.3   1 <1>  -0.0170 
 17 C        4.0290     9.4280     1.1580 C.3   1 <1>   0.2090 
 18 C        5.9790     9.6940    -0.3540 C.3   1 <1>   0.2090 
 19 C        8.6090     5.0570    -0.7490 C.3   1 <1>  -0.2400 
 20 C        3.3650    10.5870     0.3950 C.3   1 <1>   0.1200 
 21 C        5.2020    10.8330    -1.0410 C.3   1 <1>   0.1200 
 22 O        4.3340    11.4450    -0.1360 O.3   1 <1>  -0.5600 
 23 H        0.6530     1.4440     0.2000 H     1 <1>   0.0800 
 24 H        2.2430     0.7020    -0.0120 H     1 <1>   0.0800 
 25 H        0.2490    -0.7890    -3.0550 H     1 <1>   0.0800 
 26 H       -0.3840    -0.4870    -1.4280 H     1 <1>   0.0800 
 27 H        1.2360    -1.1800    -1.6370 H     1 <1>   0.0800 
 28 H        3.1170     2.8420    -0.8790 H     1 <1>   0.0800 
 29 H        1.5480     3.5770    -0.7050 H     1 <1>   0.0800 
 30 H        1.6480     3.2940     1.7260 H     1 <1>   0.0800 
 31 H        2.3510     5.3590     1.5840 H     1 <1>   0.4000 
 32 H        3.9840     2.9400     2.7550 H     1 <1>   0.0800 
 33 H        4.3760     2.1170     1.2550 H     1 <1>   0.0800 
 34 H        2.4690     1.4310     3.2020 H     1 <1>   0.4000 
 35 H        5.0830     3.6130    -0.1970 H     1 <1>   0.1500 
 36 H        6.7570     7.3640    -0.8710 H     1 <1>   0.4570 
 37 H        7.1160     3.7430    -1.5340 H     1 <1>   0.0800 
 38 H        7.2870     5.2100    -2.4400 H     1 <1>   0.0800 
 39 H        3.2550     8.7690     1.5080 H     1 <1>   0.0800 
 40 H        4.5250     9.8280     2.0260 H     1 <1>   0.0800 
 41 H        6.6180    10.1260     0.4000 H     1 <1>   0.0800 
 42 H        6.6040     9.2240    -1.0890 H     1 <1>   0.0800 
 43 H        8.6000     4.6540     0.2500 H     1 <1>   0.0800 
 44 H        8.8420     6.1050    -0.7000 H     1 <1>   0.0800 
 45 H        9.3960     4.5660    -1.2970 H     1 <1>   0.0800 
 46 H        2.7470    11.1630     1.0610 H     1 <1>   0.0800 
 47 H        2.7520    10.2150    -0.4080 H     1 <1>   0.0800 
 48 H        4.6280    10.4640    -1.8730 H     1 <1>   0.0800 
 49 H        5.8820    11.5870    -1.3980 H     1 <1>   0.0800 
@<TRIPOS>BOND
  1   1   2  1   
  2   1   3  1   
  3   2   4  1   
  4   2  23  1   
  5   2  24  1   
  6   3  25  1   
  7   3  26  1   
  8   3  27  1   
  9   4   5  1   
 10   4  28  1   
 11   4  29  1   
 12   5   6  1   
 13   5   7  1   
 14   5  30  1   
 15   6   8  1   
 16   6  31  1   
 17   7   9  1   
 18   7  32  1   
 19   7  33  1   
 20   8  10  ar  
 21   8  11  ar  
 22   9  34  1   
 23  10  12  ar  
 24  11  13  ar  
 25  11  35  1   
 26  12  14  ar  
 27  12  15  1   
 28  13  14  ar  
 29  13  16  1   
 30  14  36  1   
 31  15  17  1   
 32  15  18  1   
 33  16  19  1   
 34  16  37  1   
 35  16  38  1   
 36  17  20  1   
 37  17  39  1   
 38  17  40  1   
 39  18  21  1   
 40  18  41  1   
 41  18  42  1   
 42  19  43  1   
 43  19  44  1   
 44  19  45  1   
 45  20  22  1   
 46  20  46  1   
 47  20  47  1   
 48  21  22  1   
 49  21  48  1   
 50  21  49  1   
@<TRIPOS>SUBSTRUCTURE
  1 ****   8 GROUP 4 **** **** 0

# MOE 2024.06 (io_trps.svl 2023.06)
