@<TRIPOS>MOLECULE
NONAME
43 45 1 0 0 
SMALL
USER_CHARGES


@<TRIPOS>ATOM
  1 O       -0.3800     0.2900    -0.6140 O.2   1 <1>  -0.5700 
  2 C       -1.4370     0.8660    -0.4460 C.2   1 <1>   0.5440 
  3 N       -2.5900     0.1260    -0.3340 N.am  1 <1>  -0.6600 
  4 C       -1.4680     2.3010    -0.3650 C.ar  1 <1>   0.0860 
  5 C       -3.9110     0.6580     0.0950 C.3   1 <1>   0.1400 
  6 C       -2.5960    -1.3590    -0.3200 C.3   1 <1>   0.1400 
  7 C       -0.8860     3.0300     0.6630 C.ar  1 <1>   0.1660 
  8 C       -2.1060     3.0490    -1.3380 C.ar  1 <1>   0.1600 
  9 C       -4.8060    -0.5730     0.2370 C.3   1 <1>   0.2000 
 10 C       -3.8540    -1.7440     0.4600 C.3   1 <1>  -0.0800 
 11 N       -0.9590     4.3390     0.7230 N.ar  1 <1>  -0.6200 
 12 C       -0.1300     2.3410     1.7860 C.3   1 <1>  -0.0960 
 13 N       -2.1980     4.3560    -1.3010 N.ar  1 <1>  -0.6200 
 14 O       -5.6760    -0.4490     1.3070 O.3   1 <1>  -0.6800 
 15 C       -4.4470    -3.0980     0.0430 C.3   1 <1>   0.0210 
 16 C       -1.6190     4.9280    -0.2600 C.ar  1 <1>   0.7200 
 17 C       -3.4180    -4.2040     0.1720 C.2   1 <1>   0.1080 
 18 N       -1.6980     6.2530    -0.2010 N.pl3 1 <1>  -0.9000 
 19 N       -2.8310    -4.4920     1.2920 N.2   1 <1>  -0.7070 
 20 C       -2.9820    -5.0120    -0.8730 C.2   1 <1>  -0.1500 
 21 N       -1.9960    -5.5040     0.9890 N.pl3 1 <1>   0.3000 
 22 C       -2.0680    -5.8350    -0.3180 C.2   1 <1>  -0.3320 
 23 C       -1.2460    -6.9340    -0.9640 C.3   1 <1>  -0.0600 
 24 H       -3.8030     1.1650     1.0380 H     1 <1>   0.0800 
 25 H       -4.3090     1.3290    -0.6460 H     1 <1>   0.0800 
 26 H       -2.6440    -1.7180    -1.3340 H     1 <1>   0.0800 
 27 H       -1.7110    -1.7520     0.1530 H     1 <1>   0.0800 
 28 H       -2.5560     2.5360    -2.1710 H     1 <1>   0.1500 
 29 H       -5.3880    -0.7020    -0.6600 H     1 <1>   0.0800 
 30 H       -3.5740    -1.7900     1.4980 H     1 <1>   0.0800 
 31 H       -0.6820     1.4950     2.1510 H     1 <1>   0.0800 
 32 H        0.0340     3.0210     2.6030 H     1 <1>   0.0800 
 33 H        0.8240     2.0040     1.4220 H     1 <1>   0.0800 
 34 H       -5.1900    -0.5300     2.1510 H     1 <1>   0.4000 
 35 H       -4.7960    -3.0540    -0.9720 H     1 <1>   0.0800 
 36 H       -5.2840    -3.3330     0.6760 H     1 <1>   0.0800 
 37 H       -1.0980     6.7390     0.4600 H     1 <1>   0.4000 
 38 H       -2.0070     6.7530    -1.0290 H     1 <1>   0.4000 
 39 H       -3.3160    -4.9690    -1.8940 H     1 <1>   0.1500 
 40 H       -1.3920    -5.9430     1.6930 H     1 <1>   0.2700 
 41 H       -1.4820    -7.0050    -2.0110 H     1 <1>   0.0800 
 42 H       -1.4590    -7.8810    -0.5000 H     1 <1>   0.0800 
 43 H       -0.1960    -6.7220    -0.8640 H     1 <1>   0.0800 
@<TRIPOS>BOND
  1   1   2  2   
  2   2   3  am  
  3   2   4  1   
  4   3   5  1   
  5   3   6  1   
  6   4   7  ar  
  7   4   8  ar  
  8   5   9  1   
  9   5  24  1   
 10   5  25  1   
 11   6  10  1   
 12   6  26  1   
 13   6  27  1   
 14   7  11  ar  
 15   7  12  1   
 16   8  13  ar  
 17   8  28  1   
 18   9  10  1   
 19   9  14  1   
 20   9  29  1   
 21  10  15  1   
 22  10  30  1   
 23  11  16  ar  
 24  12  31  1   
 25  12  32  1   
 26  12  33  1   
 27  13  16  ar  
 28  14  34  1   
 29  15  17  1   
 30  15  35  1   
 31  15  36  1   
 32  16  18  1   
 33  17  19  2   
 34  17  20  1   
 35  18  37  1   
 36  18  38  1   
 37  19  21  1   
 38  20  22  2   
 39  20  39  1   
 40  21  22  1   
 41  21  40  1   
 42  22  23  1   
 43  23  41  1   
 44  23  42  1   
 45  23  43  1   
@<TRIPOS>SUBSTRUCTURE
  1 ****   3 GROUP 4 **** **** 0

# MOE 2024.06 (io_trps.svl 2023.06)
