@<TRIPOS>MOLECULE
NONAME
42 44 1 0 0 
SMALL
USER_CHARGES


@<TRIPOS>ATOM
  1 S       -0.4790    -0.3860    -1.1760 S.3   1 <1>  -0.3320 
  2 C       -0.3340    -2.0620    -0.5320 C.ar  1 <1>   0.1020 
  3 C        1.2130     0.3550    -1.1520 C.3   1 <1>  -0.0100 
  4 C       -1.4710    -2.8150    -0.4510 C.ar  1 <1>  -0.1500 
  5 C        0.8980    -2.5860    -0.1260 C.ar  1 <1>  -0.1500 
  6 C       -1.4420    -4.1290     0.0380 C.ar  1 <1>   0.3100 
  7 C        0.9550    -3.8660     0.3580 C.ar  1 <1>  -0.1500 
  8 N       -2.6110    -4.8120     0.0830 N.ar  1 <1>  -0.6200 
  9 C       -0.2010    -4.6710     0.4560 C.ar  1 <1>   0.0000 
 10 C       -2.5690    -6.0280     0.5270 C.ar  1 <1>   0.4100 
 11 C       -0.2010    -5.9950     0.9510 C.ar  1 <1>  -0.1430 
 12 N       -3.7800    -6.6570     0.5320 N.pl3 1 <1>  -0.8690 
 13 C       -1.3920    -6.6510     0.9820 C.ar  1 <1>  -0.1500 
 14 C        1.0740    -6.6700     1.4380 C.3   1 <1>  -0.0970 
 15 C       -4.0700    -7.9750    -0.0850 C.3   1 <1>   0.2890 
 16 C       -3.9350    -9.0840     0.9640 C.3   1 <1>   0.0960 
 17 C       -3.2060    -8.1940    -1.3310 C.3   1 <1>  -0.2400 
 18 N       -4.5340   -10.3340     0.4730 N.pl3 1 <1>   0.3140 
 19 N       -3.7910   -11.3200    -0.0620 N.2   1 <1>  -0.7070 
 20 C       -5.8420   -10.6620     0.4850 C.2   1 <1>  -0.3020 
 21 C       -4.6430   -12.2480    -0.3770 C.2   1 <1>   0.1390 
 22 C       -5.9470   -11.8920    -0.0590 C.2   1 <1>  -0.1500 
 23 H        1.1330     1.3570    -1.5340 H     1 <1>   0.0800 
 24 H        1.8470    -0.2430    -1.7810 H     1 <1>   0.0800 
 25 H        1.5580     0.3620    -0.1340 H     1 <1>   0.0800 
 26 H       -2.4160    -2.4110    -0.7630 H     1 <1>   0.1500 
 27 H        1.7900    -1.9950    -0.1900 H     1 <1>   0.1500 
 28 H        1.9020    -4.2660     0.6700 H     1 <1>   0.1500 
 29 H       -4.4860    -5.9640     0.2690 H     1 <1>   0.4000 
 30 H       -1.4640    -7.6510     1.3560 H     1 <1>   0.1500 
 31 H        1.4960    -6.1140     2.2550 H     1 <1>   0.0800 
 32 H        1.7910    -6.7230     0.6380 H     1 <1>   0.0800 
 33 H        0.8720    -7.6700     1.7770 H     1 <1>   0.0800 
 34 H       -5.1000    -7.9470    -0.4000 H     1 <1>   0.0800 
 35 H       -4.4440    -8.7970     1.8640 H     1 <1>   0.0800 
 36 H       -2.9040    -9.2730     1.1840 H     1 <1>   0.0800 
 37 H       -2.1740    -8.3350    -1.0690 H     1 <1>   0.0800 
 38 H       -3.2940    -7.3540    -1.9960 H     1 <1>   0.0800 
 39 H       -3.5360    -9.0730    -1.8560 H     1 <1>   0.0800 
 40 H       -6.6090   -10.0170     0.8730 H     1 <1>   0.1500 
 41 H       -4.3590   -13.1820    -0.8330 H     1 <1>   0.1500 
 42 H       -6.8260   -12.4900    -0.2210 H     1 <1>   0.1500 
@<TRIPOS>BOND
  1   1   2  1   
  2   1   3  1   
  3   2   4  ar  
  4   2   5  ar  
  5   3  23  1   
  6   3  24  1   
  7   3  25  1   
  8   4   6  ar  
  9   4  26  1   
 10   5   7  ar  
 11   5  27  1   
 12   6   8  ar  
 13   6   9  ar  
 14   7   9  ar  
 15   7  28  1   
 16   8  10  ar  
 17   9  11  ar  
 18  10  12  1   
 19  10  13  ar  
 20  11  13  ar  
 21  11  14  1   
 22  12  15  1   
 23  12  29  1   
 24  13  30  1   
 25  14  31  1   
 26  14  32  1   
 27  14  33  1   
 28  15  16  1   
 29  15  17  1   
 30  15  34  1   
 31  16  18  1   
 32  16  35  1   
 33  16  36  1   
 34  17  37  1   
 35  17  38  1   
 36  17  39  1   
 37  18  19  1   
 38  18  20  1   
 39  19  21  2   
 40  20  22  2   
 41  20  40  1   
 42  21  22  1   
 43  21  41  1   
 44  22  42  1   
@<TRIPOS>SUBSTRUCTURE
  1 ****  10 GROUP 4 **** **** 0

# MOE 2024.06 (io_trps.svl 2023.06)
