@<TRIPOS>MOLECULE
NONAME
42 43 1 0 0 
SMALL
USER_CHARGES


@<TRIPOS>ATOM
  1 O        0.9340     0.0680     1.9680 O.co2 1 <1>  -0.9000 
  2 C        1.5090    -0.0650     0.8860 C.2   1 <1>   0.9060 
  3 O        1.0190    -0.7000    -0.0590 O.co2 1 <1>  -0.9000 
  4 C        2.8770     0.5610     0.7030 C.3   1 <1>  -0.1860 
  5 C        3.8840    -0.4830     0.2040 C.3   1 <1>   0.2000 
  6 C        2.8410     1.8260    -0.1960 C.3   1 <1>  -0.1600 
  7 O        3.4560    -0.9470    -1.0310 O.3   1 <1>  -0.6800 
  8 C        5.3010     0.1200     0.0810 C.3   1 <1>   0.1400 
  9 C        4.1000     2.0140    -1.0560 C.3   1 <1>   0.1400 
 10 N        5.3140     1.5740    -0.3100 N.am  1 <1>  -0.6600 
 11 C        6.3670     2.3730     0.0480 C.2   1 <1>   0.5690 
 12 O        7.3360     1.9220     0.6170 O.2   1 <1>  -0.5700 
 13 C        6.3370     3.8650    -0.2710 C.3   1 <1>  -0.0990 
 14 C        7.5310     4.6650     0.2840 C.3   1 <1>  -0.1600 
 15 C        7.4250     6.1480    -0.0740 C.3   1 <1>   0.1200 
 16 O        8.5370     6.8150     0.4750 O.3   1 <1>  -0.3630 
 17 C        8.7080     8.1520     0.3170 C.ar  1 <1>   0.0820 
 18 C        7.8280     8.9700    -0.3870 C.ar  1 <1>  -0.1500 
 19 C        9.8340     8.7080     0.9020 C.ar  1 <1>  -0.1500 
 20 C        8.0820    10.3270    -0.4970 C.ar  1 <1>  -0.1500 
 21 C       10.0870    10.0630     0.7910 C.ar  1 <1>  -0.1500 
 22 C        9.2100    10.8740     0.0910 C.ar  1 <1>  -0.1500 
 23 H        3.2060     0.8660     1.6790 H     1 <1>   0.0800 
 24 H        3.9000    -1.3300     0.8670 H     1 <1>   0.0800 
 25 H        2.6900     2.6900     0.4250 H     1 <1>   0.0800 
 26 H        1.9960     1.7630    -0.8610 H     1 <1>   0.0800 
 27 H        2.4580    -1.0290    -0.9490 H     1 <1>   0.4000 
 28 H        5.8750    -0.4510    -0.6270 H     1 <1>   0.0800 
 29 H        5.7780     0.0270     1.0410 H     1 <1>   0.0800 
 30 H        4.1710     3.0360    -1.3770 H     1 <1>   0.0800 
 31 H        4.0140     1.4050    -1.9400 H     1 <1>   0.0800 
 32 H        6.3130     3.9710    -1.3400 H     1 <1>   0.0800 
 33 H        5.4300     4.2710     0.1360 H     1 <1>   0.0800 
 34 H        8.4460     4.2680    -0.1210 H     1 <1>   0.0800 
 35 H        7.5590     4.5600     1.3550 H     1 <1>   0.0800 
 36 H        6.5330     6.5790     0.3450 H     1 <1>   0.0800 
 37 H        7.4440     6.2840    -1.1420 H     1 <1>   0.0800 
 38 H        6.9470     8.5740    -0.8520 H     1 <1>   0.1500 
 39 H       10.5090     8.0700     1.4440 H     1 <1>   0.1500 
 40 H        7.4030    10.9600    -1.0410 H     1 <1>   0.1500 
 41 H       10.9650    10.4860     1.2490 H     1 <1>   0.1500 
 42 H        9.4060    11.9290     0.0040 H     1 <1>   0.1500 
@<TRIPOS>BOND
  1   1   2  ar  
  2   2   3  ar  
  3   2   4  1   
  4   4   5  1   
  5   4   6  1   
  6   4  23  1   
  7   5   7  1   
  8   5   8  1   
  9   5  24  1   
 10   6   9  1   
 11   6  25  1   
 12   6  26  1   
 13   7  27  1   
 14   8  10  1   
 15   8  28  1   
 16   8  29  1   
 17   9  10  1   
 18   9  30  1   
 19   9  31  1   
 20  10  11  am  
 21  11  12  2   
 22  11  13  1   
 23  13  14  1   
 24  13  32  1   
 25  13  33  1   
 26  14  15  1   
 27  14  34  1   
 28  14  35  1   
 29  15  16  1   
 30  15  36  1   
 31  15  37  1   
 32  16  17  1   
 33  17  18  ar  
 34  17  19  ar  
 35  18  20  ar  
 36  18  38  1   
 37  19  21  ar  
 38  19  39  1   
 39  20  22  ar  
 40  20  40  1   
 41  21  22  ar  
 42  21  41  1   
 43  22  42  1   
@<TRIPOS>SUBSTRUCTURE
  1 ****  13 GROUP 4 **** **** 0

# MOE 2024.06 (io_trps.svl 2023.06)
