@<TRIPOS>MOLECULE
NONAME
46 47 1 0 0 
SMALL
USER_CHARGES


@<TRIPOS>ATOM
  1 O       -0.8380     0.2060     0.7380 O.2   1 <1>  -0.5700 
  2 C       -1.6150     0.8770     0.0860 C.2   1 <1>   0.7150 
  3 N       -2.6890     0.2620    -0.5160 N.am  1 <1>  -0.6600 
  4 C       -1.4140     2.2940    -0.0440 C.2   1 <1>  -0.2370 
  5 C       -4.0580     0.8540    -0.4450 C.3   1 <1>   0.1400 
  6 C       -2.7130    -1.2180    -0.7160 C.3   1 <1>   0.1400 
  7 N       -1.7660     2.9990    -1.1630 N.pl3 1 <1>   0.0330 
  8 C       -0.8530     3.1810     0.8380 C.2   1 <1>  -0.1500 
  9 C       -4.9400     0.0700     0.5530 C.3   1 <1>   0.2000 
 10 C       -3.6650    -1.8940     0.2930 C.3   1 <1>   0.2000 
 11 C       -1.4460     4.3020    -0.9730 C.2   1 <1>  -0.3020 
 12 C       -0.8800     4.4460     0.2550 C.2   1 <1>  -0.1500 
 13 O       -4.9270    -1.2930     0.2260 O.3   1 <1>  -0.5600 
 14 C       -6.4130     0.5380     0.6070 C.3   1 <1>  -0.0800 
 15 C       -3.8730    -3.3890     0.0200 C.3   1 <1>  -0.1600 
 16 C       -7.1610     0.3850    -0.7290 C.3   1 <1>  -0.2400 
 17 C       -6.5370     1.9860     1.1050 C.3   1 <1>  -0.2400 
 18 C       -2.5900    -4.2180     0.1990 C.3   1 <1>  -0.1600 
 19 C       -2.8720    -5.7130     0.0150 C.3   1 <1>  -0.1600 
 20 C       -1.5950    -6.5400     0.1900 C.3   1 <1>  -0.2400 
 21 H       -4.0050     1.8800    -0.1290 H     1 <1>   0.0800 
 22 H       -4.5020     0.8250    -1.4230 H     1 <1>   0.0800 
 23 H       -3.0440    -1.4350    -1.7160 H     1 <1>   0.0800 
 24 H       -1.7210    -1.6210    -0.6050 H     1 <1>   0.0800 
 25 H       -2.1850     2.5850    -2.0030 H     1 <1>   0.2700 
 26 H       -0.4560     2.9490     1.8120 H     1 <1>   0.1500 
 27 H       -4.5190     0.1700     1.5390 H     1 <1>   0.0800 
 28 H       -3.2830    -1.7640     1.2920 H     1 <1>   0.0800 
 29 H       -1.6290     5.0600    -1.7140 H     1 <1>   0.1500 
 30 H       -0.5110     5.3500     0.7090 H     1 <1>   0.1500 
 31 H       -6.9050    -0.0900     1.3310 H     1 <1>   0.0800 
 32 H       -4.6170    -3.7520     0.7080 H     1 <1>   0.0800 
 33 H       -4.2490    -3.5180    -0.9800 H     1 <1>   0.0800 
 34 H       -6.7640     1.0450    -1.4790 H     1 <1>   0.0800 
 35 H       -8.2030     0.6130    -0.5960 H     1 <1>   0.0800 
 36 H       -7.0840    -0.6270    -1.0850 H     1 <1>   0.0800 
 37 H       -6.1270     2.6810     0.3940 H     1 <1>   0.0800 
 38 H       -6.0220     2.1060     2.0430 H     1 <1>   0.0800 
 39 H       -7.5720     2.2350     1.2580 H     1 <1>   0.0800 
 40 H       -1.8490    -3.9110    -0.5180 H     1 <1>   0.0800 
 41 H       -2.1910    -4.0500     1.1860 H     1 <1>   0.0800 
 42 H       -3.6040    -6.0360     0.7360 H     1 <1>   0.0800 
 43 H       -3.2740    -5.8870    -0.9690 H     1 <1>   0.0800 
 44 H       -1.1870    -6.3970     1.1750 H     1 <1>   0.0800 
 45 H       -0.8560    -6.2510    -0.5370 H     1 <1>   0.0800 
 46 H       -1.8130    -7.5850     0.0590 H     1 <1>   0.0800 
@<TRIPOS>BOND
  1   1   2  2   
  2   2   3  am  
  3   2   4  1   
  4   3   5  1   
  5   3   6  1   
  6   4   7  1   
  7   4   8  2   
  8   5   9  1   
  9   5  21  1   
 10   5  22  1   
 11   6  10  1   
 12   6  23  1   
 13   6  24  1   
 14   7  11  1   
 15   7  25  1   
 16   8  12  1   
 17   8  26  1   
 18   9  13  1   
 19   9  14  1   
 20   9  27  1   
 21  10  13  1   
 22  10  15  1   
 23  10  28  1   
 24  11  12  2   
 25  11  29  1   
 26  12  30  1   
 27  14  16  1   
 28  14  17  1   
 29  14  31  1   
 30  15  18  1   
 31  15  32  1   
 32  15  33  1   
 33  16  34  1   
 34  16  35  1   
 35  16  36  1   
 36  17  37  1   
 37  17  38  1   
 38  17  39  1   
 39  18  19  1   
 40  18  40  1   
 41  18  41  1   
 42  19  20  1   
 43  19  42  1   
 44  19  43  1   
 45  20  44  1   
 46  20  45  1   
 47  20  46  1   
@<TRIPOS>SUBSTRUCTURE
  1 ****   3 GROUP 4 **** **** 0

# MOE 2024.06 (io_trps.svl 2023.06)
