@<TRIPOS>MOLECULE
NONAME
49 52 1 0 0 
SMALL
USER_CHARGES


@<TRIPOS>ATOM
  1 F       -0.8660    -0.7620    -0.2780 F     1 <1>  -0.3400 
  2 C       -2.0530    -0.5620    -0.8320 C.3   1 <1>   1.2400 
  3 F       -1.8560    -0.1960    -2.0910 F     1 <1>  -0.3400 
  4 O       -2.8190    -1.7580    -0.7890 O.3   1 <1>  -0.3630 
  5 O       -2.7520     0.4560    -0.1330 O.3   1 <1>  -0.3630 
  6 C       -3.9130    -1.4420    -0.0860 C.ar  1 <1>   0.0830 
  7 C       -3.8740    -0.1310     0.3020 C.ar  1 <1>   0.0830 
  8 C       -4.9730    -2.2620     0.2430 C.ar  1 <1>  -0.1500 
  9 C       -4.8960     0.4280     1.0410 C.ar  1 <1>  -0.1500 
 10 C       -6.0180    -1.7200     0.9870 C.ar  1 <1>  -0.1440 
 11 C       -5.9710    -0.3810     1.3830 C.ar  1 <1>  -0.1500 
 12 C       -7.2070    -2.5880     1.3620 C.3   1 <1>   0.4870 
 13 N       -8.4110    -2.1000     0.6450 N.4   1 <1>  -0.9590 
 14 C       -9.6820    -2.7180     1.1140 C.3   1 <1>   0.3430 
 15 C       -8.2950    -2.1150    -0.8350 C.3   1 <1>   0.3430 
 16 C      -10.8790    -2.1710     0.3250 C.3   1 <1>  -0.1600 
 17 C       -9.4000    -1.2430    -1.4440 C.3   1 <1>  -0.1600 
 18 C      -10.5470    -0.8930    -0.4750 C.3   1 <1>   0.2800 
 19 O      -10.0240     0.0820     0.3960 O.3   1 <1>  -0.5600 
 20 C      -11.7300    -0.3080    -1.2780 C.3   1 <1>  -0.1600 
 21 C      -10.9120     0.7210     1.2730 C.3   1 <1>   0.1200 
 22 C      -12.7380     0.4880    -0.4450 C.3   1 <1>   0.2800 
 23 C      -11.9970     1.4510     0.4810 C.3   1 <1>  -0.1600 
 24 O      -13.4540    -0.3920     0.3300 O.3   1 <1>  -0.6800 
 25 C      -13.7540     1.2120    -1.3250 C.3   1 <1>  -0.2400 
 26 H       -4.9630    -3.2900    -0.0780 H     1 <1>   0.1500 
 27 H       -4.8470     1.4620     1.3400 H     1 <1>   0.1500 
 28 H       -6.7710     0.0490     1.9640 H     1 <1>   0.1500 
 29 H       -7.3640    -2.5310     2.4270 H     1 <1>   0.0800 
 30 H       -7.0110    -3.6150     1.1000 H     1 <1>   0.0800 
 31 H       -8.5250    -1.0900     0.8580 H     1 <1>   0.4500 
 32 H       -9.8220    -2.4880     2.1580 H     1 <1>   0.0800 
 33 H       -9.6410    -3.7900     1.0070 H     1 <1>   0.0800 
 34 H       -8.3870    -3.1270    -1.1950 H     1 <1>   0.0800 
 35 H       -7.3350    -1.7310    -1.1420 H     1 <1>   0.0800 
 36 H      -11.6950    -2.0160     1.0030 H     1 <1>   0.0800 
 37 H      -11.2090    -2.9290    -0.3620 H     1 <1>   0.0800 
 38 H       -9.7960    -1.7720    -2.2930 H     1 <1>   0.0800 
 39 H       -8.9670    -0.3340    -1.8230 H     1 <1>   0.0800 
 40 H      -12.2410    -1.0890    -1.8130 H     1 <1>   0.0800 
 41 H      -11.3260     0.3590    -2.0180 H     1 <1>   0.0800 
 42 H      -10.3470     1.4270     1.8570 H     1 <1>   0.0800 
 43 H      -11.3430    -0.0070     1.9380 H     1 <1>   0.0800 
 44 H      -11.5290     2.2240    -0.1010 H     1 <1>   0.0800 
 45 H      -12.6880     1.9260     1.1540 H     1 <1>   0.0800 
 46 H      -14.2350     0.0650     0.6970 H     1 <1>   0.4000 
 47 H      -13.2510     1.9110    -1.9700 H     1 <1>   0.0800 
 48 H      -14.4580     1.7610    -0.7270 H     1 <1>   0.0800 
 49 H      -14.2840     0.5090    -1.9430 H     1 <1>   0.0800 
@<TRIPOS>BOND
  1   1   2  1   
  2   2   3  1   
  3   2   4  1   
  4   2   5  1   
  5   4   6  1   
  6   5   7  1   
  7   6   7  ar  
  8   6   8  ar  
  9   7   9  ar  
 10   8  10  ar  
 11   8  26  1   
 12   9  11  ar  
 13   9  27  1   
 14  10  11  ar  
 15  10  12  1   
 16  11  28  1   
 17  12  13  1   
 18  12  29  1   
 19  12  30  1   
 20  13  14  1   
 21  13  15  1   
 22  13  31  1   
 23  14  16  1   
 24  14  32  1   
 25  14  33  1   
 26  15  17  1   
 27  15  34  1   
 28  15  35  1   
 29  16  18  1   
 30  16  36  1   
 31  16  37  1   
 32  17  18  1   
 33  17  38  1   
 34  17  39  1   
 35  18  19  1   
 36  18  20  1   
 37  19  21  1   
 38  20  22  1   
 39  20  40  1   
 40  20  41  1   
 41  21  23  1   
 42  21  42  1   
 43  21  43  1   
 44  22  23  1   
 45  22  24  1   
 46  22  25  1   
 47  23  44  1   
 48  23  45  1   
 49  24  46  1   
 50  25  47  1   
 51  25  48  1   
 52  25  49  1   
@<TRIPOS>SUBSTRUCTURE
  1 ****  13 GROUP 4 **** **** 0

# MOE 2024.06 (io_trps.svl 2023.06)
