@<TRIPOS>MOLECULE
NONAME
45 47 1 0 0 
SMALL
USER_CHARGES


@<TRIPOS>ATOM
  1 S       -0.2050    -0.0810     0.7960 S.3   1 <1>  -0.0800 
  2 C        0.9150    -1.2650     0.1360 C.2   1 <1>  -0.1400 
  3 C        0.1550     1.0470    -0.4980 C.2   1 <1>  -0.1100 
  4 C        1.4940    -0.7900    -0.9840 C.2   1 <1>  -0.1500 
  5 C        1.0620    -2.5790     0.8760 C.3   1 <1>   0.3200 
  6 C        1.0610     0.5260    -1.3450 C.2   1 <1>  -0.1500 
  7 N       -0.2070    -3.3090     0.7770 N.am  1 <1>  -0.7300 
  8 C       -0.3100    -4.6540     0.7830 C.2   1 <1>   0.6900 
  9 O        0.6690    -5.3390     1.0130 O.2   1 <1>  -0.5700 
 10 N       -1.5190    -5.2260     0.5200 N.am  1 <1>  -0.6600 
 11 C       -2.8110    -4.5160     0.4110 C.3   1 <1>   0.1400 
 12 C       -1.7060    -6.6880     0.4510 C.3   1 <1>   0.1400 
 13 C       -3.8800    -5.5970     0.6300 C.3   1 <1>  -0.0800 
 14 C       -3.1980    -6.9060     0.1840 C.3   1 <1>  -0.0800 
 15 C       -5.2760    -5.3270    -0.0130 C.3   1 <1>   0.2800 
 16 C       -3.4940    -7.2010    -1.2940 C.3   1 <1>  -0.1600 
 17 O       -5.1460    -4.5040    -1.1160 O.3   1 <1>  -0.6800 
 18 C       -5.8900    -6.6450    -0.5220 C.3   1 <1>  -0.1600 
 19 C       -6.2560    -4.6290     0.9560 C.3   1 <1>  -0.1600 
 20 C       -5.0020    -7.3860    -1.5450 C.3   1 <1>  -0.1600 
 21 C       -5.8080    -3.2520     1.4780 C.3   1 <1>  -0.2400 
 22 H       -0.3570     1.9930    -0.4870 H     1 <1>   0.1500 
 23 H        2.2160    -1.3150    -1.5850 H     1 <1>   0.1500 
 24 H        1.2940    -2.4000     1.9110 H     1 <1>   0.0800 
 25 H        1.8530    -3.1630     0.4380 H     1 <1>   0.0800 
 26 H        1.4510     1.0130    -2.2210 H     1 <1>   0.1500 
 27 H       -0.9830    -2.7710     0.4010 H     1 <1>   0.3700 
 28 H       -2.8860    -3.7360     1.1460 H     1 <1>   0.0800 
 29 H       -2.8690    -4.0900    -0.5750 H     1 <1>   0.0800 
 30 H       -1.0890    -7.1080    -0.3240 H     1 <1>   0.0800 
 31 H       -1.4250    -7.1170     1.3980 H     1 <1>   0.0800 
 32 H       -4.0180    -5.6860     1.6930 H     1 <1>   0.0800 
 33 H       -3.5450    -7.7360     0.7750 H     1 <1>   0.0800 
 34 H       -3.1410    -6.3740    -1.8880 H     1 <1>   0.0800 
 35 H       -2.9640    -8.0810    -1.6150 H     1 <1>   0.0800 
 36 H       -6.0110    -4.4160    -1.5550 H     1 <1>   0.4000 
 37 H       -6.0340    -7.2900     0.3270 H     1 <1>   0.0800 
 38 H       -6.8630    -6.4700    -0.9470 H     1 <1>   0.0800 
 39 H       -7.2070    -4.5160     0.4670 H     1 <1>   0.0800 
 40 H       -6.4190    -5.2730     1.8030 H     1 <1>   0.0800 
 41 H       -5.2460    -8.4340    -1.5160 H     1 <1>   0.0800 
 42 H       -5.2260    -7.0320    -2.5370 H     1 <1>   0.0800 
 43 H       -5.5850    -2.5880     0.6620 H     1 <1>   0.0800 
 44 H       -4.9380    -3.3430     2.1020 H     1 <1>   0.0800 
 45 H       -6.5940    -2.8130     2.0670 H     1 <1>   0.0800 
@<TRIPOS>BOND
  1   1   2  1   
  2   1   3  1   
  3   2   4  2   
  4   2   5  1   
  5   3   6  2   
  6   3  22  1   
  7   4   6  1   
  8   4  23  1   
  9   5   7  1   
 10   5  24  1   
 11   5  25  1   
 12   6  26  1   
 13   7   8  am  
 14   7  27  1   
 15   8   9  2   
 16   8  10  am  
 17  10  11  1   
 18  10  12  1   
 19  11  13  1   
 20  11  28  1   
 21  11  29  1   
 22  12  14  1   
 23  12  30  1   
 24  12  31  1   
 25  13  14  1   
 26  13  15  1   
 27  13  32  1   
 28  14  16  1   
 29  14  33  1   
 30  15  17  1   
 31  15  18  1   
 32  15  19  1   
 33  16  20  1   
 34  16  34  1   
 35  16  35  1   
 36  17  36  1   
 37  18  20  1   
 38  18  37  1   
 39  18  38  1   
 40  19  21  1   
 41  19  39  1   
 42  19  40  1   
 43  20  41  1   
 44  20  42  1   
 45  21  43  1   
 46  21  44  1   
 47  21  45  1   
@<TRIPOS>SUBSTRUCTURE
  1 ****  11 GROUP 4 **** **** 0

# MOE 2024.06 (io_trps.svl 2023.06)
