@<TRIPOS>MOLECULE
NONAME
41 42 1 0 0 
SMALL
USER_CHARGES


@<TRIPOS>ATOM
  1 CL       1.5570    -0.0430     1.3440 Cl    1 <1>  -0.1770 
  2 C        1.9230    -1.4920     0.4230 C.ar  1 <1>   0.1770 
  3 C        1.1540    -2.6410     0.5580 C.ar  1 <1>   0.4100 
  4 C        2.9770    -1.5140    -0.4480 C.ar  1 <1>   0.1600 
  5 N        1.4420    -3.7240    -0.1460 N.ar  1 <1>  -0.6200 
  6 N        0.0710    -2.6990     1.4100 N.pl3 1 <1>  -0.8690 
  7 N        3.2740    -2.5930    -1.1530 N.ar  1 <1>  -0.6200 
  8 C        2.4840    -3.6350    -0.9540 C.ar  1 <1>   0.4770 
  9 C       -0.6690    -3.9370     1.7450 C.3   1 <1>   0.2090 
 10 C        2.8060    -4.8760    -1.7510 C.3   1 <1>  -0.0970 
 11 C       -1.7930    -4.1380     0.7360 C.3   1 <1>  -0.0990 
 12 C       -2.2780    -5.5610     0.8200 C.2   1 <1>   0.5690 
 13 O       -3.2160    -5.8220     1.5310 O.2   1 <1>  -0.5700 
 14 N       -1.6130    -6.4970     0.1010 N.am  1 <1>  -0.7300 
 15 C       -1.9240    -7.9330     0.0770 C.3   1 <1>   0.2200 
 16 C       -0.7390    -8.7040     0.6680 C.3   1 <1>  -0.1600 
 17 C       -2.1980    -8.3550    -1.3710 C.3   1 <1>  -0.1600 
 18 C       -0.9570   -10.2210     0.5660 C.3   1 <1>  -0.1600 
 19 C       -2.4180    -9.8710    -1.4750 C.3   1 <1>  -0.1600 
 20 C       -1.2320   -10.6460    -0.8830 C.3   1 <1>  -0.1600 
 21 H        3.5890    -0.6390    -0.5720 H     1 <1>   0.1500 
 22 H       -0.1430    -1.8710     1.9760 H     1 <1>   0.4000 
 23 H       -1.0720    -3.8700     2.7420 H     1 <1>   0.0800 
 24 H        0.0080    -4.7750     1.7160 H     1 <1>   0.0800 
 25 H        2.6910    -5.7470    -1.1330 H     1 <1>   0.0800 
 26 H        3.8180    -4.8380    -2.1110 H     1 <1>   0.0800 
 27 H        2.1380    -4.9440    -2.5880 H     1 <1>   0.0800 
 28 H       -1.4360    -3.9510    -0.2590 H     1 <1>   0.0800 
 29 H       -2.6040    -3.4680     0.9490 H     1 <1>   0.0800 
 30 H       -0.8060    -6.2160    -0.4560 H     1 <1>   0.3700 
 31 H       -2.8020    -8.1250     0.6720 H     1 <1>   0.0800 
 32 H       -0.6200    -8.4310     1.7010 H     1 <1>   0.0800 
 33 H        0.1610    -8.4440     0.1390 H     1 <1>   0.0800 
 34 H       -1.3630    -8.0800    -1.9910 H     1 <1>   0.0800 
 35 H       -3.0740    -7.8430    -1.7280 H     1 <1>   0.0800 
 36 H       -1.7920   -10.5030     1.1840 H     1 <1>   0.0800 
 37 H       -0.0860   -10.7370     0.9340 H     1 <1>   0.0800 
 38 H       -2.5520   -10.1470    -2.5070 H     1 <1>   0.0800 
 39 H       -3.3170   -10.1370    -0.9440 H     1 <1>   0.0800 
 40 H       -1.4400   -11.7020    -0.9160 H     1 <1>   0.0800 
 41 H       -0.3550   -10.4650    -1.4810 H     1 <1>   0.0800 
@<TRIPOS>BOND
  1   1   2  1   
  2   2   3  ar  
  3   2   4  ar  
  4   3   5  ar  
  5   3   6  1   
  6   4   7  ar  
  7   4  21  1   
  8   5   8  ar  
  9   6   9  1   
 10   6  22  1   
 11   7   8  ar  
 12   8  10  1   
 13   9  11  1   
 14   9  23  1   
 15   9  24  1   
 16  10  25  1   
 17  10  26  1   
 18  10  27  1   
 19  11  12  1   
 20  11  28  1   
 21  11  29  1   
 22  12  13  2   
 23  12  14  am  
 24  14  15  1   
 25  14  30  1   
 26  15  16  1   
 27  15  17  1   
 28  15  31  1   
 29  16  18  1   
 30  16  32  1   
 31  16  33  1   
 32  17  19  1   
 33  17  34  1   
 34  17  35  1   
 35  18  20  1   
 36  18  36  1   
 37  18  37  1   
 38  19  20  1   
 39  19  38  1   
 40  19  39  1   
 41  20  40  1   
 42  20  41  1   
@<TRIPOS>SUBSTRUCTURE
  1 ****  14 GROUP 4 **** **** 0

# MOE 2024.06 (io_trps.svl 2023.06)
