@<TRIPOS>MOLECULE
NONAME
49 52 1 0 0 
SMALL
USER_CHARGES


@<TRIPOS>ATOM
  1 O        0.6610    -0.3650     1.2100 O.2   1 <1>  -0.5700 
  2 C        1.4230    -0.7010     0.3310 C.2   1 <1>   0.5690 
  3 N        2.1850     0.2440    -0.3290 N.am  1 <1>  -0.6600 
  4 C        1.5170    -2.1990    -0.0160 C.3   1 <1>   0.1250 
  5 C        3.2160    -0.0590    -1.3720 C.3   1 <1>   0.1400 
  6 C        1.9560     1.6960    -0.0460 C.3   1 <1>   0.1400 
  7 C        0.3640    -3.0780     0.4380 C.ar  1 <1>  -0.1440 
  8 C        2.7400    -2.8930     0.6250 C.3   1 <1>  -0.1600 
  9 C        4.6300    -0.1230    -0.7700 C.3   1 <1>   0.1100 
 10 C        3.2050     2.5780    -0.1570 C.3   1 <1>  -0.1600 
 11 C        0.8170    -4.2700     0.9490 C.ar  1 <1>  -0.1440 
 12 C       -0.9940    -2.8180     0.3710 C.ar  1 <1>  -0.1500 
 13 C        2.3220    -4.3410     0.9310 C.3   1 <1>  -0.0170 
 14 N        5.2160     1.2030    -0.5020 N.3   1 <1>  -0.8100 
 15 C        4.4540     1.9800     0.4920 C.3   1 <1>   0.1100 
 16 C       -0.0660    -5.2320     1.4030 C.ar  1 <1>  -0.1500 
 17 C       -1.8890    -3.7750     0.8230 C.ar  1 <1>  -0.1500 
 18 C        6.6470     1.0840    -0.1170 C.3   1 <1>   0.2900 
 19 C       -1.4270    -4.9780     1.3370 C.ar  1 <1>  -0.1500 
 20 C        7.4540     2.3860    -0.1530 C.2   1 <1>   0.2980 
 21 O        8.6490     2.3850     0.3480 O.3   1 <1>  -0.2800 
 22 N        7.1350     3.5370    -0.6210 N.2   1 <1>  -0.3380 
 23 C        9.0600     3.5970     0.1700 C.2   1 <1>   0.2980 
 24 N        8.1870     4.3280    -0.4070 N.2   1 <1>  -0.3380 
 25 C       10.4400     4.0030     0.6300 C.3   1 <1>  -0.0600 
 26 H        1.5560    -2.3110    -1.0820 H     1 <1>   0.0800 
 27 H        3.1890     0.6860    -2.1480 H     1 <1>   0.0800 
 28 H        3.0050    -0.9990    -1.8420 H     1 <1>   0.0800 
 29 H        1.5710     1.8030     0.9540 H     1 <1>   0.0800 
 30 H        1.2010     2.0640    -0.7190 H     1 <1>   0.0800 
 31 H        2.9660    -2.4000     1.5550 H     1 <1>   0.0800 
 32 H        3.6040    -2.8600    -0.0130 H     1 <1>   0.0800 
 33 H        5.2570    -0.6290    -1.4830 H     1 <1>   0.0800 
 34 H        4.6140    -0.7070     0.1340 H     1 <1>   0.0800 
 35 H        2.9820     3.5040     0.3410 H     1 <1>   0.0800 
 36 H        3.4080     2.8260    -1.1840 H     1 <1>   0.0800 
 37 H       -1.3500    -1.8810    -0.0210 H     1 <1>   0.1500 
 38 H        2.7110    -4.6740     1.8780 H     1 <1>   0.0800 
 39 H        2.6390    -5.0070     0.1480 H     1 <1>   0.0800 
 40 H        4.1940     1.3710     1.3420 H     1 <1>   0.0800 
 41 H        5.0550     2.8010     0.8450 H     1 <1>   0.0800 
 42 H        0.2960    -6.1620     1.8030 H     1 <1>   0.1500 
 43 H       -2.9460    -3.5810     0.7790 H     1 <1>   0.1500 
 44 H        7.1340     0.4020    -0.7890 H     1 <1>   0.0800 
 45 H        6.7120     0.6710     0.8740 H     1 <1>   0.0800 
 46 H       -2.1280    -5.7150     1.6870 H     1 <1>   0.1500 
 47 H       11.1790     3.4060     0.1280 H     1 <1>   0.0800 
 48 H       10.5250     3.8570     1.6910 H     1 <1>   0.0800 
 49 H       10.6100     5.0390     0.4030 H     1 <1>   0.0800 
@<TRIPOS>BOND
  1   1   2  2   
  2   2   3  am  
  3   2   4  1   
  4   3   5  1   
  5   3   6  1   
  6   4   7  1   
  7   4   8  1   
  8   4  26  1   
  9   5   9  1   
 10   5  27  1   
 11   5  28  1   
 12   6  10  1   
 13   6  29  1   
 14   6  30  1   
 15   7  11  ar  
 16   7  12  ar  
 17   8  13  1   
 18   8  31  1   
 19   8  32  1   
 20   9  14  1   
 21   9  33  1   
 22   9  34  1   
 23  10  15  1   
 24  10  35  1   
 25  10  36  1   
 26  11  13  1   
 27  11  16  ar  
 28  12  17  ar  
 29  12  37  1   
 30  13  38  1   
 31  13  39  1   
 32  14  15  1   
 33  14  18  1   
 34  15  40  1   
 35  15  41  1   
 36  16  19  ar  
 37  16  42  1   
 38  17  19  ar  
 39  17  43  1   
 40  18  20  1   
 41  18  44  1   
 42  18  45  1   
 43  19  46  1   
 44  20  21  1   
 45  20  22  2   
 46  21  23  1   
 47  22  24  1   
 48  23  24  2   
 49  23  25  1   
 50  25  47  1   
 51  25  48  1   
 52  25  49  1   
@<TRIPOS>SUBSTRUCTURE
  1 ****   9 GROUP 4 **** **** 0

# MOE 2024.06 (io_trps.svl 2023.06)
