@<TRIPOS>MOLECULE
NONAME
56 59 1 0 0 
SMALL
USER_CHARGES


@<TRIPOS>ATOM
  1 O       -0.2570    -1.3670    -1.9600 O.3   1 <1>  -0.6800 
  2 C        0.8450    -2.1460    -1.6460 C.3   1 <1>   0.1200 
  3 C        1.2000    -1.9820    -0.1390 C.3   1 <1>   0.0000 
  4 C        2.4690    -2.7850     0.2540 C.3   1 <1>   0.4230 
  5 C        1.4320    -0.4620     0.1290 C.3   1 <1>  -0.1600 
  6 C        0.0490    -2.5130     0.7650 C.3   1 <1>  -0.1600 
  7 N        2.3740    -4.2750    -0.0450 N.4   1 <1>  -0.9590 
  8 C        3.7690    -2.0730    -0.1970 C.3   1 <1>   0.2090 
  9 C        2.6400    -0.1490     1.0150 C.3   1 <1>   0.2090 
 10 C        0.1830    -4.0060     1.1460 C.3   1 <1>  -0.1600 
 11 C        0.9810    -4.8230     0.1270 C.3   1 <1>   0.3430 
 12 C        2.9380    -4.7180    -1.3630 C.3   1 <1>   0.2630 
 13 N        3.8970    -0.6670     0.3570 N.pl3 1 <1>  -0.8380 
 14 C        5.0460     0.0480     0.2160 C.ar  1 <1>   0.4610 
 15 N        5.1660     1.2640     0.7610 N.ar  1 <1>  -0.1790 
 16 C        6.1800    -0.4280    -0.4980 C.ar  1 <1>  -0.1500 
 17 C        6.2920     2.0640     0.6800 C.ar  1 <1>   0.3610 
 18 C        7.3260     0.2980    -0.6220 C.ar  1 <1>  -0.1440 
 19 C        7.4140     1.5910    -0.0220 C.ar  1 <1>   0.0000 
 20 C        6.3200     3.3240     1.2850 C.ar  1 <1>  -0.1500 
 21 C        8.5120    -0.2620    -1.4000 C.3   1 <1>  -0.0970 
 22 C        8.5440     2.4230    -0.0860 C.ar  1 <1>  -0.1500 
 23 C        7.4410     4.1130     1.2030 C.ar  1 <1>  -0.1500 
 24 C        8.5630     3.6600     0.5130 C.ar  1 <1>  -0.1440 
 25 C        9.7900     4.5520     0.4380 C.3   1 <1>  -0.0970 
 26 H       -0.5020    -1.4330    -2.9070 H     1 <1>   0.4000 
 27 H        0.5940    -3.1590    -1.8990 H     1 <1>   0.0800 
 28 H        1.6580    -1.8190    -2.2710 H     1 <1>   0.0800 
 29 H        2.5020    -2.7210     1.3290 H     1 <1>   0.0800 
 30 H        0.5480    -0.0230     0.5600 H     1 <1>   0.0800 
 31 H        1.5900     0.0630    -0.7990 H     1 <1>   0.0800 
 32 H        0.0090    -1.9530     1.6850 H     1 <1>   0.0800 
 33 H       -0.9010    -2.3550     0.2810 H     1 <1>   0.0800 
 34 H        2.9340    -4.7390     0.6870 H     1 <1>   0.4500 
 35 H        3.7920    -2.0190    -1.2720 H     1 <1>   0.0800 
 36 H        4.6080    -2.6550     0.1430 H     1 <1>   0.0800 
 37 H        2.5170    -0.6060     1.9840 H     1 <1>   0.0800 
 38 H        2.6780     0.9170     1.1570 H     1 <1>   0.0800 
 39 H       -0.8020    -4.4300     1.2430 H     1 <1>   0.0800 
 40 H        0.6540    -4.0980     2.1100 H     1 <1>   0.0800 
 41 H        0.4560    -4.7970    -0.8140 H     1 <1>   0.0800 
 42 H        1.0280    -5.8530     0.4450 H     1 <1>   0.0800 
 43 H        2.4010    -4.2640    -2.1790 H     1 <1>   0.0800 
 44 H        2.8590    -5.7900    -1.4600 H     1 <1>   0.0800 
 45 H        3.9790    -4.4500    -1.4410 H     1 <1>   0.0800 
 46 H        4.3800     1.6310     1.2820 H     1 <1>   0.4570 
 47 H        6.1270    -1.3940    -0.9590 H     1 <1>   0.1500 
 48 H        5.4640     3.6900     1.8210 H     1 <1>   0.1500 
 49 H        8.2980    -1.2400    -1.7940 H     1 <1>   0.0800 
 50 H        9.3730    -0.3430    -0.7590 H     1 <1>   0.0800 
 51 H        8.7540     0.3840    -2.2260 H     1 <1>   0.0800 
 52 H        9.4190     2.0880    -0.6150 H     1 <1>   0.1500 
 53 H        7.4650     5.0850     1.6700 H     1 <1>   0.1500 
 54 H        9.5410     5.4820    -0.0420 H     1 <1>   0.0800 
 55 H       10.5790     4.0810    -0.1220 H     1 <1>   0.0800 
 56 H       10.1550     4.7610     1.4280 H     1 <1>   0.0800 
@<TRIPOS>BOND
  1   1   2  1   
  2   1  26  1   
  3   2   3  1   
  4   2  27  1   
  5   2  28  1   
  6   3   4  1   
  7   3   5  1   
  8   3   6  1   
  9   4   7  1   
 10   4   8  1   
 11   4  29  1   
 12   5   9  1   
 13   5  30  1   
 14   5  31  1   
 15   6  10  1   
 16   6  32  1   
 17   6  33  1   
 18   7  11  1   
 19   7  12  1   
 20   7  34  1   
 21   8  13  1   
 22   8  35  1   
 23   8  36  1   
 24   9  13  1   
 25   9  37  1   
 26   9  38  1   
 27  10  11  1   
 28  10  39  1   
 29  10  40  1   
 30  11  41  1   
 31  11  42  1   
 32  12  43  1   
 33  12  44  1   
 34  12  45  1   
 35  13  14  1   
 36  14  15  ar  
 37  14  16  ar  
 38  15  17  ar  
 39  15  46  1   
 40  16  18  ar  
 41  16  47  1   
 42  17  19  ar  
 43  17  20  ar  
 44  18  19  ar  
 45  18  21  1   
 46  19  22  ar  
 47  20  23  ar  
 48  20  48  1   
 49  21  49  1   
 50  21  50  1   
 51  21  51  1   
 52  22  24  ar  
 53  22  52  1   
 54  23  24  ar  
 55  23  53  1   
 56  24  25  1   
 57  25  54  1   
 58  25  55  1   
 59  25  56  1   
@<TRIPOS>SUBSTRUCTURE
  1 ****  13 GROUP 4 **** **** 0

# MOE 2024.06 (io_trps.svl 2023.06)
