@<TRIPOS>MOLECULE
NONAME
47 49 1 0 0 
SMALL
USER_CHARGES


@<TRIPOS>ATOM
  1 F        1.2590    -0.2620     2.7410 F     1 <1>  -0.1900 
  2 C        2.1390     0.6410     2.3590 C.ar  1 <1>   0.1900 
  3 C        2.8080     0.5440     1.1410 C.ar  1 <1>   0.4100 
  4 C        2.4070     1.6950     3.1850 C.ar  1 <1>   0.1600 
  5 N        3.6990     1.4610     0.8190 N.ar  1 <1>  -0.6200 
  6 N        2.6010    -0.4740     0.2160 N.pl3 1 <1>  -0.8380 
  7 N        3.2870     2.6200     2.8590 N.ar  1 <1>  -0.6200 
  8 C        3.8950     2.4490     1.6860 C.ar  1 <1>   0.7200 
  9 C        1.2300    -0.7440    -0.3110 C.3   1 <1>   0.2090 
 10 C        3.6620    -0.7970    -0.7880 C.3   1 <1>   0.2090 
 11 N        4.8230     3.4040     1.3500 N.pl3 1 <1>  -0.8380 
 12 C        1.1490    -2.1570    -0.9160 C.3   1 <1>   0.1200 
 13 C        3.4470    -2.2010    -1.3830 C.3   1 <1>   0.1200 
 14 C        5.1210     3.6920    -0.1070 C.3   1 <1>   0.4330 
 15 C        5.9530     3.6190     2.3030 C.3   1 <1>   0.1290 
 16 O        2.1450    -2.3470    -1.8830 O.3   1 <1>  -0.5600 
 17 C        6.2290     4.7540    -0.2710 C.ar  1 <1>   0.1660 
 18 C        3.8200     4.0980    -0.8390 C.3   1 <1>   0.1200 
 19 N        7.4390     4.3170    -0.6190 N.ar  1 <1>  -0.6200 
 20 C        5.9480     6.0950    -0.0320 C.ar  1 <1>  -0.1500 
 21 O        4.0740     4.5360    -2.1450 O.3   1 <1>  -0.5600 
 22 C        8.3760     5.2410    -0.7500 C.ar  1 <1>   0.1600 
 23 C        6.9370     7.0460    -0.1670 C.ar  1 <1>  -0.1500 
 24 C        2.9320     4.8940    -2.8520 C.3   1 <1>   0.0400 
 25 C        8.1830     6.5950    -0.5400 C.ar  1 <1>  -0.1500 
 26 H        1.8970     1.7840     4.1270 H     1 <1>   0.1500 
 27 H        0.9960    -0.0220    -1.0740 H     1 <1>   0.0800 
 28 H        0.4980    -0.6510     0.4690 H     1 <1>   0.0800 
 29 H        4.6300    -0.7530    -0.3190 H     1 <1>   0.0800 
 30 H        3.6420    -0.0670    -1.5780 H     1 <1>   0.0800 
 31 H        0.1970    -2.3030    -1.3930 H     1 <1>   0.0800 
 32 H        1.2690    -2.9000    -0.1470 H     1 <1>   0.0800 
 33 H        3.6120    -2.9520    -0.6310 H     1 <1>   0.0800 
 34 H        4.1320    -2.3670    -2.1940 H     1 <1>   0.0800 
 35 H        5.4760     2.7830    -0.5620 H     1 <1>   0.0800 
 36 H        5.7570     3.1440     3.2490 H     1 <1>   0.0800 
 37 H        6.0910     4.6720     2.4750 H     1 <1>   0.0800 
 38 H        6.8610     3.2050     1.8990 H     1 <1>   0.0800 
 39 H        3.3380     4.8950    -0.3030 H     1 <1>   0.0800 
 40 H        3.1560     3.2550    -0.8990 H     1 <1>   0.0800 
 41 H        4.9600     6.3950     0.2630 H     1 <1>   0.1500 
 42 H        9.3540     4.8990    -1.0410 H     1 <1>   0.1500 
 43 H        6.7430     8.0900     0.0080 H     1 <1>   0.1500 
 44 H        3.2350     5.2150    -3.8330 H     1 <1>   0.0800 
 45 H        2.4370     5.7020    -2.3420 H     1 <1>   0.0800 
 46 H        2.2830     4.0390    -2.9340 H     1 <1>   0.0800 
 47 H        8.9990     7.2830    -0.6670 H     1 <1>   0.1500 
@<TRIPOS>BOND
  1   1   2  1   
  2   2   3  ar  
  3   2   4  ar  
  4   3   5  ar  
  5   3   6  1   
  6   4   7  ar  
  7   4  26  1   
  8   5   8  ar  
  9   6   9  1   
 10   6  10  1   
 11   7   8  ar  
 12   8  11  1   
 13   9  12  1   
 14   9  27  1   
 15   9  28  1   
 16  10  13  1   
 17  10  29  1   
 18  10  30  1   
 19  11  14  1   
 20  11  15  1   
 21  12  16  1   
 22  12  31  1   
 23  12  32  1   
 24  13  16  1   
 25  13  33  1   
 26  13  34  1   
 27  14  17  1   
 28  14  18  1   
 29  14  35  1   
 30  15  36  1   
 31  15  37  1   
 32  15  38  1   
 33  17  19  ar  
 34  17  20  ar  
 35  18  21  1   
 36  18  39  1   
 37  18  40  1   
 38  19  22  ar  
 39  20  23  ar  
 40  20  41  1   
 41  21  24  1   
 42  22  25  ar  
 43  22  42  1   
 44  23  25  ar  
 45  23  43  1   
 46  24  44  1   
 47  24  45  1   
 48  24  46  1   
 49  25  47  1   
@<TRIPOS>SUBSTRUCTURE
  1 ****   5 GROUP 4 **** **** 0

# MOE 2024.06 (io_trps.svl 2023.06)
