@<TRIPOS>MOLECULE
NONAME
48 50 1 0 0 
SMALL
USER_CHARGES


@<TRIPOS>ATOM
  1 O        0.0330     1.0670     1.4360 O.2   1 <1>  -0.5700 
  2 C        0.0920     2.1840     0.9750 C.2   1 <1>   0.5690 
  3 N       -0.9940     3.0200     0.9750 N.am  1 <1>  -0.6600 
  4 C        1.4120     2.6500     0.3780 C.3   1 <1>  -0.0990 
  5 C       -2.3260     2.5600     1.4710 C.3   1 <1>   0.1400 
  6 C       -1.0400     4.3920     0.3980 C.3   1 <1>   0.1400 
  7 C        2.5200     1.5870     0.4050 C.3   1 <1>  -0.0160 
  8 C       -3.3330     2.4900     0.3080 C.3   1 <1>   0.0000 
  9 C       -2.0100     4.4130    -0.7880 C.3   1 <1>  -0.1600 
 10 C        3.7900     2.1340    -0.2260 C.ar  1 <1>  -0.1440 
 11 C       -4.7040     2.0110     0.8180 C.3   1 <1>   0.2000 
 12 C       -3.4000     3.8740    -0.4000 C.3   1 <1>  -0.1600 
 13 C       -2.9820     1.3780    -0.6970 C.3   1 <1>  -0.1600 
 14 C        4.0500     2.0000    -1.5740 C.ar  1 <1>  -0.1500 
 15 C        4.7460     2.7960     0.5170 C.ar  1 <1>  -0.1500 
 16 O       -5.4340     3.0480     1.4020 O.3   1 <1>  -0.5600 
 17 C       -5.4180     1.4370    -0.4080 C.3   1 <1>  -0.1600 
 18 C       -4.3050     0.9840    -1.3640 C.3   1 <1>  -0.1600 
 19 C        5.2190     2.5230    -2.1010 C.ar  1 <1>   0.1600 
 20 C        5.8820     3.2820    -0.1080 C.ar  1 <1>   0.1600 
 21 C       -6.5430     2.6440     2.1410 C.3   1 <1>   0.0400 
 22 N        6.1410     3.1640    -1.4000 N.ar  1 <1>  -0.6200 
 23 H        1.2390     2.9380    -0.6420 H     1 <1>   0.0800 
 24 H        1.7460     3.5120     0.9250 H     1 <1>   0.0800 
 25 H       -2.2420     1.5970     1.9430 H     1 <1>   0.0800 
 26 H       -2.6830     3.2550     2.2110 H     1 <1>   0.0800 
 27 H       -1.3850     5.0740     1.1570 H     1 <1>   0.0800 
 28 H       -0.0680     4.7210     0.0780 H     1 <1>   0.0800 
 29 H        2.1960     0.7110    -0.1310 H     1 <1>   0.0800 
 30 H        2.7150     1.2920     1.4210 H     1 <1>   0.0800 
 31 H       -2.1100     5.4240    -1.1430 H     1 <1>   0.0800 
 32 H       -1.5950     3.8320    -1.5910 H     1 <1>   0.0800 
 33 H       -4.5550     1.2320     1.5480 H     1 <1>   0.0800 
 34 H       -4.0250     3.8220    -1.2740 H     1 <1>   0.0800 
 35 H       -3.8500     4.5870     0.2690 H     1 <1>   0.0800 
 36 H       -2.2410     1.6730    -1.4170 H     1 <1>   0.0800 
 37 H       -2.5980     0.5250    -0.1610 H     1 <1>   0.0800 
 38 H        3.3550     1.4940    -2.2190 H     1 <1>   0.1500 
 39 H        4.6170     2.9390     1.5750 H     1 <1>   0.1500 
 40 H       -6.0480     0.6110    -0.1320 H     1 <1>   0.0800 
 41 H       -6.0080     2.2030    -0.8810 H     1 <1>   0.0800 
 42 H       -4.3420    -0.0780    -1.5380 H     1 <1>   0.0800 
 43 H       -4.4080     1.4940    -2.3070 H     1 <1>   0.0800 
 44 H        5.4060     2.4090    -3.1550 H     1 <1>   0.1500 
 45 H        6.6170     3.7960     0.4880 H     1 <1>   0.1500 
 46 H       -7.0020     3.5220     2.5590 H     1 <1>   0.0800 
 47 H       -6.2230     1.9900     2.9340 H     1 <1>   0.0800 
 48 H       -7.2420     2.1440     1.4940 H     1 <1>   0.0800 
@<TRIPOS>BOND
  1   1   2  2   
  2   2   3  am  
  3   2   4  1   
  4   3   5  1   
  5   3   6  1   
  6   4   7  1   
  7   4  23  1   
  8   4  24  1   
  9   5   8  1   
 10   5  25  1   
 11   5  26  1   
 12   6   9  1   
 13   6  27  1   
 14   6  28  1   
 15   7  10  1   
 16   7  29  1   
 17   7  30  1   
 18   8  11  1   
 19   8  12  1   
 20   8  13  1   
 21   9  12  1   
 22   9  31  1   
 23   9  32  1   
 24  10  14  ar  
 25  10  15  ar  
 26  11  16  1   
 27  11  17  1   
 28  11  33  1   
 29  12  34  1   
 30  12  35  1   
 31  13  18  1   
 32  13  36  1   
 33  13  37  1   
 34  14  19  ar  
 35  14  38  1   
 36  15  20  ar  
 37  15  39  1   
 38  16  21  1   
 39  17  18  1   
 40  17  40  1   
 41  17  41  1   
 42  18  42  1   
 43  18  43  1   
 44  19  22  ar  
 45  19  44  1   
 46  20  22  ar  
 47  20  45  1   
 48  21  46  1   
 49  21  47  1   
 50  21  48  1   
@<TRIPOS>SUBSTRUCTURE
  1 ****   2 GROUP 4 **** **** 0

# MOE 2024.06 (io_trps.svl 2023.06)
