@<TRIPOS>MOLECULE
NONAME
52 54 1 0 0 
SMALL
USER_CHARGES


@<TRIPOS>ATOM
  1 O        1.3370     0.5840     0.0830 O.2   1 <1>  -0.5700 
  2 C        2.1180    -0.3310     0.1910 C.2   1 <1>   0.5690 
  3 N        3.3540    -0.1180     0.7570 N.am  1 <1>  -0.6600 
  4 C        1.7170    -1.7050    -0.3450 C.3   1 <1>  -0.0190 
  5 C        4.5250    -1.0420     0.6680 C.3   1 <1>   0.1400 
  6 C        3.6200     1.1500     1.4920 C.3   1 <1>   0.1400 
  7 C        0.4240    -1.7140    -1.1480 C.3   1 <1>   0.1200 
  8 C        1.4120    -2.7370     0.7380 C.3   1 <1>  -0.1600 
  9 C        5.5280    -0.6100    -0.4270 C.3   1 <1>   0.3430 
 10 C        4.0790     2.2470     0.5260 C.3   1 <1>  -0.1600 
 11 O        0.0190    -3.0400    -1.1110 O.3   1 <1>  -0.5600 
 12 C        0.2810    -3.5780     0.1450 C.3   1 <1>   0.1200 
 13 N        5.9320     0.8410    -0.3640 N.4   1 <1>  -0.9590 
 14 C        4.7960     1.7460    -0.7270 C.3   1 <1>   0.3430 
 15 C        7.1270     1.1050    -1.2180 C.3   1 <1>   0.4860 
 16 C        7.6660     2.4860    -0.9050 C.ar  1 <1>  -0.1440 
 17 C        8.3980     2.7020     0.2540 C.ar  1 <1>   0.1600 
 18 C        7.4420     3.5510    -1.7590 C.ar  1 <1>  -0.1500 
 19 N        8.8850     3.8660     0.6350 N.ar  1 <1>  -0.6200 
 20 C        7.9530     4.7710    -1.3780 C.ar  1 <1>  -0.1500 
 21 C        8.6560     4.8840    -0.1890 C.ar  1 <1>   0.3930 
 22 O        9.1250     6.1070     0.1290 O.3   1 <1>  -0.3630 
 23 C        9.8840     6.3140     1.3010 C.3   1 <1>   0.1200 
 24 C       10.2640     7.7900     1.3680 C.3   1 <1>  -0.2400 
 25 H        2.4850    -2.0740    -0.9980 H     1 <1>   0.0800 
 26 H        4.1980    -2.0450     0.4610 H     1 <1>   0.0800 
 27 H        5.0250    -1.0740     1.6200 H     1 <1>   0.0800 
 28 H        4.3690     0.9810     2.2470 H     1 <1>   0.0800 
 29 H        2.7240     1.4710     2.0010 H     1 <1>   0.0800 
 30 H        0.5610    -1.4090    -2.1700 H     1 <1>   0.0800 
 31 H       -0.3450    -1.1190    -0.6820 H     1 <1>   0.0800 
 32 H        1.0590    -2.2620     1.6370 H     1 <1>   0.0800 
 33 H        2.2640    -3.3470     0.9760 H     1 <1>   0.0800 
 34 H        5.0890    -0.8150    -1.3900 H     1 <1>   0.0800 
 35 H        6.4040    -1.2310    -0.3360 H     1 <1>   0.0800 
 36 H        4.6950     2.9570     1.0490 H     1 <1>   0.0800 
 37 H        3.2040     2.7840     0.2040 H     1 <1>   0.0800 
 38 H       -0.6160    -3.5060     0.7370 H     1 <1>   0.0800 
 39 H        0.5590    -4.6100     0.0200 H     1 <1>   0.0800 
 40 H        6.1890     1.0780     0.6010 H     1 <1>   0.4500 
 41 H        5.1510     2.6010    -1.2780 H     1 <1>   0.0800 
 42 H        4.0910     1.2200    -1.3520 H     1 <1>   0.0800 
 43 H        6.8620     1.0420    -2.2610 H     1 <1>   0.0800 
 44 H        7.8950     0.3750    -1.0180 H     1 <1>   0.0800 
 45 H        8.6000     1.8760     0.9160 H     1 <1>   0.1500 
 46 H        6.8980     3.4540    -2.6840 H     1 <1>   0.1500 
 47 H        7.8220     5.6470    -1.9880 H     1 <1>   0.1500 
 48 H       10.7620     5.6920     1.2520 H     1 <1>   0.0800 
 49 H        9.2840     6.0320     2.1500 H     1 <1>   0.0800 
 50 H       10.8530     8.0590     0.5090 H     1 <1>   0.0800 
 51 H       10.8450     7.9760     2.2530 H     1 <1>   0.0800 
 52 H        9.3790     8.3990     1.4040 H     1 <1>   0.0800 
@<TRIPOS>BOND
  1   1   2  2   
  2   2   3  am  
  3   2   4  1   
  4   3   5  1   
  5   3   6  1   
  6   4   7  1   
  7   4   8  1   
  8   4  25  1   
  9   5   9  1   
 10   5  26  1   
 11   5  27  1   
 12   6  10  1   
 13   6  28  1   
 14   6  29  1   
 15   7  11  1   
 16   7  30  1   
 17   7  31  1   
 18   8  12  1   
 19   8  32  1   
 20   8  33  1   
 21   9  13  1   
 22   9  34  1   
 23   9  35  1   
 24  10  14  1   
 25  10  36  1   
 26  10  37  1   
 27  11  12  1   
 28  12  38  1   
 29  12  39  1   
 30  13  14  1   
 31  13  15  1   
 32  13  40  1   
 33  14  41  1   
 34  14  42  1   
 35  15  16  1   
 36  15  43  1   
 37  15  44  1   
 38  16  17  ar  
 39  16  18  ar  
 40  17  19  ar  
 41  17  45  1   
 42  18  20  ar  
 43  18  46  1   
 44  19  21  ar  
 45  20  21  ar  
 46  20  47  1   
 47  21  22  1   
 48  22  23  1   
 49  23  24  1   
 50  23  48  1   
 51  23  49  1   
 52  24  50  1   
 53  24  51  1   
 54  24  52  1   
@<TRIPOS>SUBSTRUCTURE
  1 ****  14 GROUP 4 **** **** 0

# MOE 2024.06 (io_trps.svl 2023.06)
