@<TRIPOS>MOLECULE
NONAME
48 49 1 0 0 
SMALL
USER_CHARGES


@<TRIPOS>ATOM
  1 O       -3.4060     2.5570     1.2260 O.2   1 <1>  -0.5700 
  2 C       -2.3440     2.3760     0.6520 C.2   1 <1>   0.5440 
  3 N       -1.7720     1.1120     0.7380 N.am  1 <1>  -0.6600 
  4 C       -1.7540     3.4840    -0.1080 C.ar  1 <1>   0.3960 
  5 C       -2.2840     0.0780     1.6810 C.3   1 <1>   0.0600 
  6 C       -0.6540     0.6550    -0.1300 C.3   1 <1>   0.0600 
  7 N       -0.4270     3.7040    -0.0720 N.ar  1 <1>  -0.6200 
  8 C       -2.6050     4.3020    -0.8500 C.ar  1 <1>  -0.1500 
  9 C        0.0410     4.7270    -0.7640 C.ar  1 <1>   0.4100 
 10 C       -2.1160     5.3640    -1.5800 C.ar  1 <1>  -0.1500 
 11 N        1.4090     4.9440    -0.7130 N.pl3 1 <1>  -0.8380 
 12 C       -0.7600     5.5700    -1.5270 C.ar  1 <1>  -0.1500 
 13 C        2.1540     4.5580     0.5450 C.3   1 <1>   0.2090 
 14 C        2.1670     4.6710    -1.9650 C.3   1 <1>   0.2090 
 15 C        3.0800     5.6930     1.0280 C.3   1 <1>   0.3430 
 16 C        3.0680     5.8620    -2.3100 C.3   1 <1>  -0.1600 
 17 N        3.2270     6.7530    -0.0240 N.4   1 <1>  -0.9590 
 18 C        4.0210     6.2820    -1.1880 C.3   1 <1>   0.3430 
 19 C        3.6170     8.1010     0.4460 C.3   1 <1>   0.4230 
 20 C        4.9240     8.0500     1.2360 C.3   1 <1>  -0.2400 
 21 C        2.4850     8.6900     1.2820 C.3   1 <1>  -0.2400 
 22 H       -2.9340     0.5200     2.4170 H     1 <1>   0.0800 
 23 H       -1.4610    -0.3890     2.1930 H     1 <1>   0.0800 
 24 H       -2.8350    -0.6680     1.1370 H     1 <1>   0.0800 
 25 H       -0.6230     1.2260    -1.0410 H     1 <1>   0.0800 
 26 H       -0.7850    -0.3820    -0.3850 H     1 <1>   0.0800 
 27 H        0.2790     0.7760     0.3930 H     1 <1>   0.0800 
 28 H       -3.6610     4.0960    -0.8460 H     1 <1>   0.1500 
 29 H       -2.7680     5.9980    -2.1570 H     1 <1>   0.1500 
 30 H       -0.3120     6.3800    -2.0680 H     1 <1>   0.1500 
 31 H        2.7300     3.6660     0.3710 H     1 <1>   0.0800 
 32 H        1.4680     4.3330     1.3450 H     1 <1>   0.0800 
 33 H        1.4820     4.4930    -2.7790 H     1 <1>   0.0800 
 34 H        2.7580     3.7780    -1.8470 H     1 <1>   0.0800 
 35 H        4.0410     5.2950     1.3070 H     1 <1>   0.0800 
 36 H        2.6360     6.1210     1.9110 H     1 <1>   0.0800 
 37 H        2.4590     6.6980    -2.6030 H     1 <1>   0.0800 
 38 H        3.6570     5.5920    -3.1680 H     1 <1>   0.0800 
 39 H        2.2590     6.8000    -0.3920 H     1 <1>   0.4500 
 40 H        4.6540     7.0780    -1.5450 H     1 <1>   0.0800 
 41 H        4.6500     5.4540    -0.9020 H     1 <1>   0.0800 
 42 H        3.7600     8.7380    -0.4130 H     1 <1>   0.0800 
 43 H        4.8160     7.4930     2.1490 H     1 <1>   0.0800 
 44 H        5.2170     9.0510     1.4990 H     1 <1>   0.0800 
 45 H        5.7150     7.6250     0.6460 H     1 <1>   0.0800 
 46 H        2.3470     8.1560     2.2040 H     1 <1>   0.0800 
 47 H        1.5650     8.6900     0.7260 H     1 <1>   0.0800 
 48 H        2.7190     9.7110     1.5290 H     1 <1>   0.0800 
@<TRIPOS>BOND
  1   1   2  2   
  2   2   3  am  
  3   2   4  1   
  4   3   5  1   
  5   3   6  1   
  6   4   7  ar  
  7   4   8  ar  
  8   5  22  1   
  9   5  23  1   
 10   5  24  1   
 11   6  25  1   
 12   6  26  1   
 13   6  27  1   
 14   7   9  ar  
 15   8  10  ar  
 16   8  28  1   
 17   9  11  1   
 18   9  12  ar  
 19  10  12  ar  
 20  10  29  1   
 21  11  13  1   
 22  11  14  1   
 23  12  30  1   
 24  13  15  1   
 25  13  31  1   
 26  13  32  1   
 27  14  16  1   
 28  14  33  1   
 29  14  34  1   
 30  15  17  1   
 31  15  35  1   
 32  15  36  1   
 33  16  18  1   
 34  16  37  1   
 35  16  38  1   
 36  17  18  1   
 37  17  19  1   
 38  17  39  1   
 39  18  40  1   
 40  18  41  1   
 41  19  20  1   
 42  19  21  1   
 43  19  42  1   
 44  20  43  1   
 45  20  44  1   
 46  20  45  1   
 47  21  46  1   
 48  21  47  1   
 49  21  48  1   
@<TRIPOS>SUBSTRUCTURE
  1 ****   9 GROUP 4 **** **** 0

# MOE 2024.06 (io_trps.svl 2023.06)
