@<TRIPOS>MOLECULE
NONAME
44 46 1 0 0 
SMALL
USER_CHARGES


@<TRIPOS>ATOM
  1 S       -0.4780    -0.6020     0.8600 S.3   1 <1>  -0.0800 
  2 C       -0.9320    -2.2400     0.4160 C.2   1 <1>  -0.1400 
  3 C        0.7450    -1.1920     1.9720 C.2   1 <1>  -0.1100 
  4 C       -0.1760    -3.1330     1.0870 C.2   1 <1>  -0.1500 
  5 C       -2.0460    -2.3760    -0.6050 C.3   1 <1>   0.3200 
  6 C        0.7760    -2.5370     1.9730 C.2   1 <1>  -0.1500 
  7 N       -2.4690    -3.7830    -0.6930 N.am  1 <1>  -0.7300 
  8 C       -2.8700    -4.4210    -1.8170 C.2   1 <1>   0.5690 
  9 O       -2.9420    -3.8570    -2.8820 O.2   1 <1>  -0.5700 
 10 C       -3.2430    -5.9040    -1.7220 C.3   1 <1>   0.1710 
 11 N       -3.7100    -6.3450    -0.3730 N.3   1 <1>  -0.8100 
 12 C       -5.0120    -5.7570    -0.0080 C.3   1 <1>   0.1100 
 13 C       -3.8810    -7.8080    -0.2930 C.3   1 <1>   0.1100 
 14 C       -5.5660    -6.7020     1.0500 C.3   1 <1>   0.2000 
 15 C       -5.1870    -8.0660     0.4750 C.3   1 <1>  -0.0800 
 16 O       -4.8550    -6.4770     2.2150 O.3   1 <1>  -0.6800 
 17 C       -5.0980    -9.2200     1.4920 C.3   1 <1>  -0.0170 
 18 C       -4.7450   -10.5250     0.7950 C.ar  1 <1>  -0.1430 
 19 C       -3.4770   -11.0680     0.8580 C.ar  1 <1>  -0.1500 
 20 C       -5.6730   -11.2300     0.0560 C.ar  1 <1>  -0.1500 
 21 C       -3.2050   -12.2510     0.1900 C.ar  1 <1>   0.1600 
 22 C       -5.2980   -12.4040    -0.5740 C.ar  1 <1>   0.1600 
 23 N       -4.0840   -12.9280    -0.5290 N.ar  1 <1>  -0.6200 
 24 H        1.3180    -0.4590     2.5120 H     1 <1>   0.1500 
 25 H       -0.2420    -4.2030     0.9970 H     1 <1>   0.1500 
 26 H       -1.7070    -2.0300    -1.5670 H     1 <1>   0.0800 
 27 H       -2.8870    -1.7770    -0.3020 H     1 <1>   0.0800 
 28 H        1.4370    -3.1460     2.5650 H     1 <1>   0.1500 
 29 H       -2.4990    -4.3080     0.1830 H     1 <1>   0.3700 
 30 H       -2.3670    -6.4680    -1.9880 H     1 <1>   0.0800 
 31 H       -4.0010    -6.1120    -2.4570 H     1 <1>   0.0800 
 32 H       -4.9110    -4.7520     0.3680 H     1 <1>   0.0800 
 33 H       -5.6710    -5.7530    -0.8600 H     1 <1>   0.0800 
 34 H       -3.9390    -8.2560    -1.2720 H     1 <1>   0.0800 
 35 H       -3.0360    -8.2260     0.2280 H     1 <1>   0.0800 
 36 H       -6.6170    -6.5800     1.2450 H     1 <1>   0.0800 
 37 H       -5.9350    -8.3240    -0.2530 H     1 <1>   0.0800 
 38 H       -3.9130    -6.4060     1.9540 H     1 <1>   0.4000 
 39 H       -6.0430    -9.3270     1.9960 H     1 <1>   0.0800 
 40 H       -4.3570    -9.0020     2.2410 H     1 <1>   0.0800 
 41 H       -2.6990   -10.5860     1.4200 H     1 <1>   0.1500 
 42 H       -6.6840   -10.8770    -0.0350 H     1 <1>   0.1500 
 43 H       -2.2110   -12.6610     0.2510 H     1 <1>   0.1500 
 44 H       -6.0360   -12.9410    -1.1470 H     1 <1>   0.1500 
@<TRIPOS>BOND
  1   1   2  1   
  2   1   3  1   
  3   2   4  2   
  4   2   5  1   
  5   3   6  2   
  6   3  24  1   
  7   4   6  1   
  8   4  25  1   
  9   5   7  1   
 10   5  26  1   
 11   5  27  1   
 12   6  28  1   
 13   7   8  am  
 14   7  29  1   
 15   8   9  2   
 16   8  10  1   
 17  10  11  1   
 18  10  30  1   
 19  10  31  1   
 20  11  12  1   
 21  11  13  1   
 22  12  14  1   
 23  12  32  1   
 24  12  33  1   
 25  13  15  1   
 26  13  34  1   
 27  13  35  1   
 28  14  15  1   
 29  14  16  1   
 30  14  36  1   
 31  15  17  1   
 32  15  37  1   
 33  16  38  1   
 34  17  18  1   
 35  17  39  1   
 36  17  40  1   
 37  18  19  ar  
 38  18  20  ar  
 39  19  21  ar  
 40  19  41  1   
 41  20  22  ar  
 42  20  42  1   
 43  21  23  ar  
 44  21  43  1   
 45  22  23  ar  
 46  22  44  1   
@<TRIPOS>SUBSTRUCTURE
  1 ****  11 GROUP 4 **** **** 0

# MOE 2024.06 (io_trps.svl 2023.06)
