@<TRIPOS>MOLECULE
NONAME
64 67 1 0 0 
SMALL
USER_CHARGES


@<TRIPOS>ATOM
  1 O        1.0610    -0.2300     4.1880 O.2   1 <1>  -0.5700 
  2 C        1.1600    -1.0410     3.3010 C.2   1 <1>   0.5690 
  3 N        1.2710    -0.6500     1.9890 N.am  1 <1>  -0.6600 
  4 C        1.1610    -2.4950     3.7390 C.3   1 <1>  -0.0990 
  5 C        1.1300    -1.5590     0.8140 C.3   1 <1>   0.1400 
  6 C        1.3780     0.8130     1.6480 C.3   1 <1>   0.2840 
  7 C        0.5970    -3.5040     2.7400 C.3   1 <1>   0.1200 
  8 C        2.0070    -2.8440     0.8560 C.3   1 <1>   0.2800 
  9 C        2.7300     1.1780     1.0200 C.ar  1 <1>   0.1660 
 10 O        1.5200    -3.8160     1.7340 O.3   1 <1>  -0.5600 
 11 C        2.0020    -3.5230    -0.5190 C.3   1 <1>  -0.1600 
 12 C        3.4700    -2.5910     1.2500 C.3   1 <1>  -0.1600 
 13 N        3.7460     1.3180     1.8650 N.ar  1 <1>  -0.6200 
 14 C        2.8540     1.3480    -0.3590 C.ar  1 <1>   0.0830 
 15 C        2.7300    -2.6880    -1.5720 C.3   1 <1>   0.3430 
 16 C        4.1910    -1.7460     0.2110 C.3   1 <1>   0.3430 
 17 C        4.9050     1.6900     1.3500 C.ar  1 <1>   0.1600 
 18 O        1.7860     1.1250    -1.1700 O.3   1 <1>  -0.3620 
 19 C        4.0950     1.6960    -0.8900 C.ar  1 <1>   0.0830 
 20 N        4.1240    -2.3860    -1.1380 N.4   1 <1>  -0.9590 
 21 C        5.1320     1.8890     0.0030 C.ar  1 <1>  -0.1500 
 22 C        1.2500     2.2490    -1.8410 C.3   1 <1>   0.0400 
 23 O        4.2710     1.7990    -2.2300 O.3   1 <1>  -0.3630 
 24 C        4.7720    -1.5350    -2.1830 C.3   1 <1>   0.3430 
 25 C        5.1410     2.7850    -2.7510 C.3   1 <1>   0.0400 
 26 C        6.2710    -1.3080    -1.9310 C.3   1 <1>  -0.0800 
 27 C        6.8330    -0.5940    -3.1480 C.3   1 <1>   0.1200 
 28 C        7.0890    -2.5990    -1.9550 C.3   1 <1>  -0.1600 
 29 O        7.0000    -1.6170    -4.0640 O.3   1 <1>  -0.5600 
 30 C        7.5020    -2.7450    -3.4210 C.3   1 <1>   0.1200 
 31 H        0.5530    -2.5510     4.6240 H     1 <1>   0.0800 
 32 H        2.1540    -2.7820     4.0290 H     1 <1>   0.0800 
 33 H        1.3940    -1.0030    -0.0610 H     1 <1>   0.0800 
 34 H        0.0950    -1.8230     0.6900 H     1 <1>   0.0800 
 35 H        1.2560     1.4160     2.5310 H     1 <1>   0.0800 
 36 H        0.5750     1.0760     0.9850 H     1 <1>   0.0800 
 37 H       -0.3260    -3.1640     2.3030 H     1 <1>   0.0800 
 38 H        0.3910    -4.4250     3.2570 H     1 <1>   0.0800 
 39 H        0.9870    -3.6780    -0.8380 H     1 <1>   0.0800 
 40 H        2.4740    -4.4870    -0.4520 H     1 <1>   0.0800 
 41 H        3.9870    -3.5270     1.3650 H     1 <1>   0.0800 
 42 H        3.5250    -2.0740     2.1900 H     1 <1>   0.0800 
 43 H        2.1980    -1.7640    -1.7360 H     1 <1>   0.0800 
 44 H        2.7480    -3.2290    -2.5050 H     1 <1>   0.0800 
 45 H        5.2170    -1.6170     0.5130 H     1 <1>   0.0800 
 46 H        3.7350    -0.7770     0.1710 H     1 <1>   0.0800 
 47 H        5.7160     1.8410     2.0450 H     1 <1>   0.1500 
 48 H        4.6370    -3.2760    -1.0880 H     1 <1>   0.4500 
 49 H        6.1110     2.1820    -0.3240 H     1 <1>   0.1500 
 50 H        0.3190     1.9590    -2.2960 H     1 <1>   0.0800 
 51 H        1.9370     2.5740    -2.6010 H     1 <1>   0.0800 
 52 H        1.0800     3.0370    -1.1280 H     1 <1>   0.0800 
 53 H        4.2720    -0.5810    -2.2340 H     1 <1>   0.0800 
 54 H        4.6650    -2.0080    -3.1460 H     1 <1>   0.0800 
 55 H        4.9770     2.8510    -3.8120 H     1 <1>   0.0800 
 56 H        6.1600     2.5000    -2.5600 H     1 <1>   0.0800 
 57 H        4.9170     3.7310    -2.2890 H     1 <1>   0.0800 
 58 H        6.4350    -0.7200    -1.0460 H     1 <1>   0.0800 
 59 H        7.8000    -0.1620    -2.9470 H     1 <1>   0.0800 
 60 H        6.1730     0.1490    -3.5620 H     1 <1>   0.0800 
 61 H        6.5590    -3.4680    -1.6110 H     1 <1>   0.0800 
 62 H        7.9790    -2.4890    -1.3580 H     1 <1>   0.0800 
 63 H        7.0770    -3.6180    -3.8850 H     1 <1>   0.0800 
 64 H        8.5740    -2.7530    -3.5340 H     1 <1>   0.0800 
@<TRIPOS>BOND
  1   1   2  2   
  2   2   3  am  
  3   2   4  1   
  4   3   5  1   
  5   3   6  1   
  6   4   7  1   
  7   4  31  1   
  8   4  32  1   
  9   5   8  1   
 10   5  33  1   
 11   5  34  1   
 12   6   9  1   
 13   6  35  1   
 14   6  36  1   
 15   7  10  1   
 16   7  37  1   
 17   7  38  1   
 18   8  10  1   
 19   8  11  1   
 20   8  12  1   
 21   9  13  ar  
 22   9  14  ar  
 23  11  15  1   
 24  11  39  1   
 25  11  40  1   
 26  12  16  1   
 27  12  41  1   
 28  12  42  1   
 29  13  17  ar  
 30  14  18  1   
 31  14  19  ar  
 32  15  20  1   
 33  15  43  1   
 34  15  44  1   
 35  16  20  1   
 36  16  45  1   
 37  16  46  1   
 38  17  21  ar  
 39  17  47  1   
 40  18  22  1   
 41  19  21  ar  
 42  19  23  1   
 43  20  24  1   
 44  20  48  1   
 45  21  49  1   
 46  22  50  1   
 47  22  51  1   
 48  22  52  1   
 49  23  25  1   
 50  24  26  1   
 51  24  53  1   
 52  24  54  1   
 53  25  55  1   
 54  25  56  1   
 55  25  57  1   
 56  26  27  1   
 57  26  28  1   
 58  26  58  1   
 59  27  29  1   
 60  27  59  1   
 61  27  60  1   
 62  28  30  1   
 63  28  61  1   
 64  28  62  1   
 65  29  30  1   
 66  30  63  1   
 67  30  64  1   
@<TRIPOS>SUBSTRUCTURE
  1 ****  16 GROUP 4 **** **** 0

# MOE 2024.06 (io_trps.svl 2023.06)
