@<TRIPOS>MOLECULE
NONAME
41 42 1 0 0 
SMALL
USER_CHARGES


@<TRIPOS>ATOM
  1 S        0.0060     0.1360    -0.9110 S.3   1 <1>  -0.0800 
  2 C       -1.0010     1.1370     0.1120 C.2   1 <1>   0.4340 
  3 C       -0.9460    -1.2350    -0.4100 C.2   1 <1>  -0.1100 
  4 S       -0.6520     2.8890     0.1810 S.3   1 <1>  -0.2860 
  5 N       -1.9230     0.5330     0.7430 N.2   1 <1>  -0.5650 
  6 C       -1.8950    -0.8200     0.4480 C.2   1 <1>   0.0460 
  7 C        0.8100     3.1560    -0.9380 C.3   1 <1>   0.1310 
  8 C       -2.9360    -1.6860     1.1220 C.3   1 <1>  -0.0590 
  9 C        1.2270     4.6190    -0.9730 C.2   1 <1>   0.5690 
 10 O        2.0230     4.9530    -1.8160 O.2   1 <1>  -0.5700 
 11 N        0.6910     5.4870    -0.0590 N.am  1 <1>  -0.4940 
 12 C        0.8130     6.8900     0.0770 C.2   1 <1>  -0.0880 
 13 N        1.9290     7.6590    -0.1010 N.pl3 1 <1>   0.3140 
 14 C       -0.1830     7.7370     0.4330 C.2   1 <1>  -0.1810 
 15 N        1.6530     8.9700     0.1200 N.2   1 <1>  -0.7070 
 16 C        3.3020     7.1970    -0.4300 C.3   1 <1>   0.0960 
 17 C        0.3980     8.9990     0.4370 C.2   1 <1>   0.1390 
 18 C       -1.6350     7.4370     0.7570 C.3   1 <1>  -0.0590 
 19 C        4.4000     8.0420     0.2380 C.3   1 <1>  -0.1600 
 20 C        5.7940     7.4740    -0.0590 C.3   1 <1>  -0.1600 
 21 C        6.8840     8.3200     0.6040 C.3   1 <1>  -0.2400 
 22 H       -0.6940    -2.2000    -0.8100 H     1 <1>   0.1500 
 23 H        0.5260     2.8340    -1.9230 H     1 <1>   0.0800 
 24 H        1.6180     2.5530    -0.5680 H     1 <1>   0.0800 
 25 H       -2.8250    -2.7130     0.8240 H     1 <1>   0.0800 
 26 H       -3.9190    -1.3470     0.8510 H     1 <1>   0.0800 
 27 H       -2.8270    -1.6170     2.1890 H     1 <1>   0.0800 
 28 H       -0.0350     5.0710     0.5310 H     1 <1>   0.3700 
 29 H        3.4120     7.2240    -1.4980 H     1 <1>   0.0800 
 30 H        3.4000     6.1800    -0.1020 H     1 <1>   0.0800 
 31 H       -0.1260     9.9100     0.6740 H     1 <1>   0.1500 
 32 H       -1.8650     6.4060     0.5630 H     1 <1>   0.0800 
 33 H       -2.2770     8.0500     0.1500 H     1 <1>   0.0800 
 34 H       -1.8290     7.6480     1.7930 H     1 <1>   0.0800 
 35 H        4.2360     8.0580     1.3010 H     1 <1>   0.0800 
 36 H        4.3420     9.0520    -0.1310 H     1 <1>   0.0800 
 37 H        5.9590     7.4570    -1.1230 H     1 <1>   0.0800 
 38 H        5.8600     6.4630     0.3060 H     1 <1>   0.0800 
 39 H        6.8490     9.3310     0.2380 H     1 <1>   0.0800 
 40 H        7.8540     7.9100     0.3850 H     1 <1>   0.0800 
 41 H        6.7520     8.3350     1.6720 H     1 <1>   0.0800 
@<TRIPOS>BOND
  1   1   2  1   
  2   1   3  1   
  3   2   4  1   
  4   2   5  2   
  5   3   6  2   
  6   3  22  1   
  7   4   7  1   
  8   5   6  1   
  9   6   8  1   
 10   7   9  1   
 11   7  23  1   
 12   7  24  1   
 13   8  25  1   
 14   8  26  1   
 15   8  27  1   
 16   9  10  2   
 17   9  11  am  
 18  11  12  1   
 19  11  28  1   
 20  12  13  1   
 21  12  14  2   
 22  13  15  1   
 23  13  16  1   
 24  14  17  1   
 25  14  18  1   
 26  15  17  2   
 27  16  19  1   
 28  16  29  1   
 29  16  30  1   
 30  17  31  1   
 31  18  32  1   
 32  18  33  1   
 33  18  34  1   
 34  19  20  1   
 35  19  35  1   
 36  19  36  1   
 37  20  21  1   
 38  20  37  1   
 39  20  38  1   
 40  21  39  1   
 41  21  40  1   
 42  21  41  1   
@<TRIPOS>SUBSTRUCTURE
  1 ****  11 GROUP 4 **** **** 0

# MOE 2024.06 (io_trps.svl 2023.06)
