@<TRIPOS>MOLECULE
NONAME
55 59 1 0 0 
SMALL
USER_CHARGES


@<TRIPOS>ATOM
  1 O       -1.3830    -0.9690     1.4780 O.2   1 <1>  -0.5700 
  2 C       -1.4770     0.2260     1.2820 C.2   1 <1>   0.5440 
  3 N       -0.5250     1.1330     1.6460 N.am  1 <1>  -0.6600 
  4 C       -2.5690     0.9080     0.6500 C.ar  1 <1>   0.0860 
  5 C       -0.9400     2.5110     1.2800 C.3   1 <1>   0.2840 
  6 C        0.7500     0.8360     2.3430 C.3   1 <1>   0.1400 
  7 C       -2.2920     2.2630     0.6290 C.ar  1 <1>  -0.1440 
  8 C       -3.7580     0.4400     0.1050 C.ar  1 <1>  -0.1500 
  9 C        1.9670     1.0990     1.4380 C.3   1 <1>  -0.0800 
 10 C       -3.1770     3.1690     0.0740 C.ar  1 <1>  -0.1500 
 11 C       -4.6520     1.3390    -0.4530 C.ar  1 <1>  -0.1500 
 12 C        1.9340     0.2290     0.1660 C.3   1 <1>  -0.1600 
 13 C        3.2660     0.8480     2.2250 C.3   1 <1>  -0.1600 
 14 C       -4.3630     2.6980    -0.4690 C.ar  1 <1>  -0.1500 
 15 C        3.1750     0.4560    -0.7090 C.3   1 <1>  -0.1600 
 16 C        4.5060     1.0900     1.3520 C.3   1 <1>  -0.1600 
 17 C        4.4730     0.2150     0.0840 C.3   1 <1>  -0.0190 
 18 C        5.7390     0.3200    -0.7780 C.2   1 <1>   0.5690 
 19 O        6.3980    -0.6750    -0.9400 O.2   1 <1>  -0.5700 
 20 N        6.1670     1.4700    -1.3730 N.am  1 <1>  -0.5470 
 21 C        5.7010     2.7840    -1.3170 C.ar  1 <1>   0.1170 
 22 C        6.1970     3.6840    -0.3370 C.ar  1 <1>   0.0000 
 23 C        4.7760     3.2130    -2.2400 C.ar  1 <1>  -0.1500 
 24 C        5.6980     5.0070    -0.3100 C.ar  1 <1>   0.3100 
 25 C        7.1670     3.3400     0.6240 C.ar  1 <1>  -0.1500 
 26 C        4.2910     4.5190    -2.2170 C.ar  1 <1>  -0.1500 
 27 N        6.0990     5.9290     0.6020 N.ar  1 <1>  -0.6200 
 28 C        4.7460     5.3920    -1.2650 C.ar  1 <1>  -0.1500 
 29 C        7.5590     4.2850     1.5230 C.ar  1 <1>  -0.1500 
 30 C        6.9930     5.5650     1.4700 C.ar  1 <1>   0.1600 
 31 H       -0.2460     2.9450     0.5820 H     1 <1>   0.0800 
 32 H       -1.0340     3.1230     2.1600 H     1 <1>   0.0800 
 33 H        0.7490    -0.1970     2.6500 H     1 <1>   0.0800 
 34 H        0.8100     1.4430     3.2290 H     1 <1>   0.0800 
 35 H       -3.9660    -0.6150     0.1250 H     1 <1>   0.1500 
 36 H        1.9560     2.1360     1.1490 H     1 <1>   0.0800 
 37 H       -2.9550     4.2220     0.0620 H     1 <1>   0.1500 
 38 H       -5.5750     0.9830    -0.8770 H     1 <1>   0.1500 
 39 H        1.0550     0.4550    -0.4130 H     1 <1>   0.0800 
 40 H        1.8760    -0.8100     0.4440 H     1 <1>   0.0800 
 41 H        3.2790    -0.1680     2.5840 H     1 <1>   0.0800 
 42 H        3.3050     1.5000     3.0800 H     1 <1>   0.0800 
 43 H       -5.0650     3.3880    -0.9050 H     1 <1>   0.1500 
 44 H        3.1510     1.4640    -1.0770 H     1 <1>   0.0800 
 45 H        3.1420    -0.2100    -1.5550 H     1 <1>   0.0800 
 46 H        5.3940     0.8700     1.9190 H     1 <1>   0.0800 
 47 H        4.5310     2.1290     1.0830 H     1 <1>   0.0800 
 48 H        4.4380    -0.8070     0.4200 H     1 <1>   0.0800 
 49 H        7.0250     1.3220    -1.9060 H     1 <1>   0.3700 
 50 H        4.4160     2.5360    -2.9950 H     1 <1>   0.1500 
 51 H        7.5840     2.3490     0.6430 H     1 <1>   0.1500 
 52 H        3.5630     4.8300    -2.9480 H     1 <1>   0.1500 
 53 H        4.3860     6.4040    -1.2260 H     1 <1>   0.1500 
 54 H        8.2960     4.0730     2.2770 H     1 <1>   0.1500 
 55 H        7.3200     6.2910     2.1940 H     1 <1>   0.1500 
@<TRIPOS>BOND
  1   1   2  2   
  2   2   3  am  
  3   2   4  1   
  4   3   5  1   
  5   3   6  1   
  6   4   7  ar  
  7   4   8  ar  
  8   5   7  1   
  9   5  31  1   
 10   5  32  1   
 11   6   9  1   
 12   6  33  1   
 13   6  34  1   
 14   7  10  ar  
 15   8  11  ar  
 16   8  35  1   
 17   9  12  1   
 18   9  13  1   
 19   9  36  1   
 20  10  14  ar  
 21  10  37  1   
 22  11  14  ar  
 23  11  38  1   
 24  12  15  1   
 25  12  39  1   
 26  12  40  1   
 27  13  16  1   
 28  13  41  1   
 29  13  42  1   
 30  14  43  1   
 31  15  17  1   
 32  15  44  1   
 33  15  45  1   
 34  16  17  1   
 35  16  46  1   
 36  16  47  1   
 37  17  18  1   
 38  17  48  1   
 39  18  19  2   
 40  18  20  am  
 41  20  21  1   
 42  20  49  1   
 43  21  22  ar  
 44  21  23  ar  
 45  22  24  ar  
 46  22  25  ar  
 47  23  26  ar  
 48  23  50  1   
 49  24  27  ar  
 50  24  28  ar  
 51  25  29  ar  
 52  25  51  1   
 53  26  28  ar  
 54  26  52  1   
 55  27  30  ar  
 56  28  53  1   
 57  29  30  ar  
 58  29  54  1   
 59  30  55  1   
@<TRIPOS>SUBSTRUCTURE
  1 ****   9 GROUP 4 **** **** 0

# MOE 2024.06 (io_trps.svl 2023.06)
