@<TRIPOS>MOLECULE
NONAME
51 53 1 0 0 
SMALL
USER_CHARGES


@<TRIPOS>ATOM
  1 S       -2.2910    -0.0920    -1.5380 S.3   1 <1>  -0.0800 
  2 C       -1.6300    -1.1940    -0.3340 C.2   1 <1>  -0.1400 
  3 C       -1.8210     1.3040    -0.5860 C.2   1 <1>  -0.1100 
  4 C       -1.1020    -0.5000     0.6930 C.2   1 <1>  -0.1500 
  5 C       -1.7330    -2.6890    -0.5850 C.3   1 <1>   0.3800 
  6 C       -1.2110     0.9200     0.5500 C.2   1 <1>  -0.1500 
  7 O       -1.0220    -2.9660    -1.7320 O.3   1 <1>  -0.6800 
  8 C       -3.1840    -3.1880    -0.7710 C.3   1 <1>  -0.0800 
  9 C       -4.0730    -2.8380     0.4390 C.3   1 <1>  -0.1600 
 10 C       -3.2480    -4.7070    -1.0290 C.3   1 <1>  -0.1600 
 11 C       -5.5040    -3.3420     0.2520 C.3   1 <1>   0.3430 
 12 C       -4.6850    -5.1930    -1.2000 C.3   1 <1>   0.3430 
 13 N       -5.4890    -4.8040    -0.0090 N.4   1 <1>  -0.9590 
 14 C       -6.8540    -5.4080    -0.0430 C.3   1 <1>   0.4860 
 15 C       -6.7440    -6.9030     0.2610 C.ar  1 <1>   0.1670 
 16 N       -5.8890    -7.2020     1.2360 N.ar  1 <1>  -0.6200 
 17 C       -7.4830    -7.8380    -0.4570 C.ar  1 <1>  -0.1430 
 18 C       -5.7560    -8.4900     1.5120 C.ar  1 <1>   0.1600 
 19 C       -7.3260    -9.1780    -0.1290 C.ar  1 <1>   0.0830 
 20 C       -8.4360    -7.4130    -1.5770 C.3   1 <1>  -0.0970 
 21 C       -6.4280    -9.5120     0.8700 C.ar  1 <1>  -0.1430 
 22 O       -8.0120   -10.1370    -0.7790 O.3   1 <1>  -0.3630 
 23 C       -6.1670   -10.9620     1.2630 C.3   1 <1>  -0.0970 
 24 C       -9.2260   -10.5620    -0.2000 C.3   1 <1>   0.0400 
 25 H       -2.0520     2.2770    -0.9840 H     1 <1>   0.1500 
 26 H       -0.6290    -0.9230     1.5630 H     1 <1>   0.1500 
 27 H       -1.2580    -3.2190     0.2230 H     1 <1>   0.0800 
 28 H       -0.8260     1.5830     1.3050 H     1 <1>   0.1500 
 29 H       -0.3240    -2.2880    -1.8310 H     1 <1>   0.4000 
 30 H       -3.5880    -2.6840    -1.6330 H     1 <1>   0.0800 
 31 H       -4.1090    -1.7700     0.5700 H     1 <1>   0.0800 
 32 H       -3.6620    -3.2600     1.3390 H     1 <1>   0.0800 
 33 H       -2.7830    -5.2450    -0.2210 H     1 <1>   0.0800 
 34 H       -2.7030    -4.9460    -1.9260 H     1 <1>   0.0800 
 35 H       -5.9590    -2.8270    -0.5790 H     1 <1>   0.0800 
 36 H       -6.0780    -3.1290     1.1410 H     1 <1>   0.0800 
 37 H       -4.6880    -6.2670    -1.3130 H     1 <1>   0.0800 
 38 H       -5.1090    -4.7540    -2.0890 H     1 <1>   0.0800 
 39 H       -5.0580    -5.2940     0.7970 H     1 <1>   0.4500 
 40 H       -7.3150    -5.2390    -1.0000 H     1 <1>   0.0800 
 41 H       -7.4670    -4.9600     0.7200 H     1 <1>   0.0800 
 42 H       -5.0640    -8.7460     2.2980 H     1 <1>   0.1500 
 43 H       -7.9140    -6.8390    -2.3210 H     1 <1>   0.0800 
 44 H       -9.2450    -6.8280    -1.1760 H     1 <1>   0.0800 
 45 H       -8.8660    -8.2600    -2.0810 H     1 <1>   0.0800 
 46 H       -5.2200   -11.0610     1.7610 H     1 <1>   0.0800 
 47 H       -6.1510   -11.5880     0.3880 H     1 <1>   0.0800 
 48 H       -6.9410   -11.3100     1.9230 H     1 <1>   0.0800 
 49 H       -9.6550   -11.3170    -0.8340 H     1 <1>   0.0800 
 50 H       -9.8910    -9.7200    -0.1260 H     1 <1>   0.0800 
 51 H       -9.0290   -10.9690     0.7750 H     1 <1>   0.0800 
@<TRIPOS>BOND
  1   1   2  1   
  2   1   3  1   
  3   2   4  2   
  4   2   5  1   
  5   3   6  2   
  6   3  25  1   
  7   4   6  1   
  8   4  26  1   
  9   5   7  1   
 10   5   8  1   
 11   5  27  1   
 12   6  28  1   
 13   7  29  1   
 14   8   9  1   
 15   8  10  1   
 16   8  30  1   
 17   9  11  1   
 18   9  31  1   
 19   9  32  1   
 20  10  12  1   
 21  10  33  1   
 22  10  34  1   
 23  11  13  1   
 24  11  35  1   
 25  11  36  1   
 26  12  13  1   
 27  12  37  1   
 28  12  38  1   
 29  13  14  1   
 30  13  39  1   
 31  14  15  1   
 32  14  40  1   
 33  14  41  1   
 34  15  16  ar  
 35  15  17  ar  
 36  16  18  ar  
 37  17  19  ar  
 38  17  20  1   
 39  18  21  ar  
 40  18  42  1   
 41  19  21  ar  
 42  19  22  1   
 43  20  43  1   
 44  20  44  1   
 45  20  45  1   
 46  21  23  1   
 47  22  24  1   
 48  23  46  1   
 49  23  47  1   
 50  23  48  1   
 51  24  49  1   
 52  24  50  1   
 53  24  51  1   
@<TRIPOS>SUBSTRUCTURE
  1 ****  13 GROUP 4 **** **** 0

# MOE 2024.06 (io_trps.svl 2023.06)
