@<TRIPOS>MOLECULE
NONAME
43 46 1 0 0 
SMALL
USER_CHARGES


@<TRIPOS>ATOM
  1 O        1.9170    -0.1660     2.1620 O.2   1 <1>  -0.5700 
  2 C        1.4840    -0.7480     1.1960 C.2   1 <1>   0.5690 
  3 N        1.5860    -0.2750    -0.0750 N.am  1 <1>  -0.4930 
  4 C        0.7600    -2.0830     1.3820 C.3   1 <1>   0.2700 
  5 C        2.1480     0.8960    -0.5740 C.2   1 <1>   0.3520 
  6 N       -0.0440    -2.4960     0.1580 N.pl3 1 <1>  -0.8380 
  7 N        2.0660     1.2100    -1.8190 N.2   1 <1>  -0.4100 
  8 C        2.8490     1.8730     0.1360 C.2   1 <1>  -0.1500 
  9 C        0.0110    -3.9280    -0.0620 C.2   1 <1>   0.1460 
 10 C       -1.4060    -1.8250     0.1780 C.3   1 <1>   0.2090 
 11 O        2.6890     2.3550    -1.9450 O.3   1 <1>  -0.0190 
 12 C        3.1650     2.7750    -0.8020 C.2   1 <1>  -0.0400 
 13 C        1.1980    -4.5620    -0.3580 C.2   1 <1>   0.1000 
 14 C       -1.2590    -4.6330     0.0090 C.2   1 <1>   0.1810 
 15 C       -2.5000    -2.5590    -0.6170 C.3   1 <1>   0.0200 
 16 C        3.9210     4.0850    -0.7330 C.3   1 <1>  -0.0600 
 17 N        1.2680    -5.9790    -0.3920 N.pl3 1 <1>  -0.6000 
 18 C        2.4490    -3.9190    -0.6660 C.2   1 <1>  -0.1500 
 19 N       -1.4990    -5.9430     0.3070 N.2   1 <1>  -0.5650 
 20 C       -2.4360    -4.0230    -0.2590 C.2   1 <1>  -0.3320 
 21 C        2.4380    -6.6860    -0.6250 C.2   1 <1>  -0.0500 
 22 C        3.5950    -4.6020    -0.9090 C.2   1 <1>  -0.1500 
 23 C       -2.7810    -6.0730     0.1970 C.2   1 <1>   0.0360 
 24 N       -3.4160    -4.9340    -0.1520 N.pl3 1 <1>   0.0330 
 25 C        3.5910    -6.0280    -0.8770 C.2   1 <1>  -0.1500 
 26 H        1.1350    -0.8710    -0.7760 H     1 <1>   0.3700 
 27 H        0.1170    -2.0070     2.2400 H     1 <1>   0.0800 
 28 H        1.5000    -2.8280     1.6140 H     1 <1>   0.0800 
 29 H        3.0620     1.8610     1.1880 H     1 <1>   0.1500 
 30 H       -1.3100    -0.8240    -0.2070 H     1 <1>   0.0800 
 31 H       -1.7470    -1.7520     1.1970 H     1 <1>   0.0800 
 32 H       -2.3260    -2.4340    -1.6720 H     1 <1>   0.0800 
 33 H       -3.4610    -2.1450    -0.3730 H     1 <1>   0.0800 
 34 H        4.2400     4.2770     0.2760 H     1 <1>   0.0800 
 35 H        3.2870     4.8890    -1.0590 H     1 <1>   0.0800 
 36 H        4.7860     4.0400    -1.3700 H     1 <1>   0.0800 
 37 H        0.3720    -6.4510    -0.1780 H     1 <1>   0.4000 
 38 H        2.4460    -2.8490    -0.7140 H     1 <1>   0.1500 
 39 H        2.3760    -7.7610    -0.5930 H     1 <1>   0.1500 
 40 H        4.5210    -4.1040    -1.1360 H     1 <1>   0.1500 
 41 H       -3.3130    -6.9940     0.3620 H     1 <1>   0.1500 
 42 H       -4.4210    -4.8070    -0.2990 H     1 <1>   0.2700 
 43 H        4.5160    -6.5440    -1.0620 H     1 <1>   0.1500 
@<TRIPOS>BOND
  1   1   2  2   
  2   2   3  am  
  3   2   4  1   
  4   3   5  1   
  5   3  26  1   
  6   4   6  1   
  7   4  27  1   
  8   4  28  1   
  9   5   7  2   
 10   5   8  1   
 11   6   9  1   
 12   6  10  1   
 13   7  11  1   
 14   8  12  2   
 15   8  29  1   
 16   9  13  2   
 17   9  14  1   
 18  10  15  1   
 19  10  30  1   
 20  10  31  1   
 21  11  12  1   
 22  12  16  1   
 23  13  17  1   
 24  13  18  1   
 25  14  19  1   
 26  14  20  2   
 27  15  20  1   
 28  15  32  1   
 29  15  33  1   
 30  16  34  1   
 31  16  35  1   
 32  16  36  1   
 33  17  21  1   
 34  17  37  1   
 35  18  22  2   
 36  18  38  1   
 37  19  23  2   
 38  20  24  1   
 39  21  25  2   
 40  21  39  1   
 41  22  25  1   
 42  22  40  1   
 43  23  24  1   
 44  23  41  1   
 45  24  42  1   
 46  25  43  1   
@<TRIPOS>SUBSTRUCTURE
  1 ****   6 GROUP 4 **** **** 0

# MOE 2024.06 (io_trps.svl 2023.06)
