@<TRIPOS>MOLECULE
NONAME
51 54 1 0 0 
SMALL
USER_CHARGES


@<TRIPOS>ATOM
  1 O        0.8440    -0.9080    -2.0500 O.2   1 <1>  -0.5700 
  2 C        1.5090    -1.2680    -1.0980 C.2   1 <1>   0.5440 
  3 N        2.2990    -0.3420    -0.4540 N.am  1 <1>  -0.6600 
  4 C        1.4390    -2.6490    -0.6600 C.ar  1 <1>   0.0860 
  5 C        2.3900     1.0630    -0.9140 C.3   1 <1>   0.1400 
  6 C        2.8060    -0.4750     0.9300 C.3   1 <1>   0.1400 
  7 C        0.2370    -3.3190    -0.5370 C.ar  1 <1>  -0.1500 
  8 C        2.5630    -3.4020    -0.3460 C.ar  1 <1>  -0.1500 
  9 C        3.1680     1.7870     0.1790 C.3   1 <1>  -0.1600 
 10 C        2.9290     0.9570     1.4360 C.3   1 <1>  -0.1600 
 11 C        0.1850    -4.6350    -0.0940 C.ar  1 <1>   0.4100 
 12 C        2.4240    -4.7080     0.0760 C.ar  1 <1>   0.1600 
 13 N        1.2700    -5.3350     0.2160 N.ar  1 <1>  -0.6200 
 14 N       -1.0330    -5.2730     0.0410 N.pl3 1 <1>  -0.8380 
 15 C       -1.0690    -6.7690    -0.0240 C.3   1 <1>   0.3900 
 16 C       -2.1040    -4.6610     0.8880 C.3   1 <1>   0.2090 
 17 C       -2.5090    -7.2500    -0.1380 C.2   1 <1>  -0.1810 
 18 C       -3.5060    -4.9870     0.3390 C.3   1 <1>   0.0200 
 19 C       -3.5940    -6.4700     0.0220 C.2   1 <1>  -0.3320 
 20 C       -3.0170    -8.5140    -0.4160 C.2   1 <1>   0.1080 
 21 N       -4.6810    -7.2460    -0.1640 N.pl3 1 <1>   0.3140 
 22 N       -4.3220    -8.5180    -0.4310 N.2   1 <1>  -0.7070 
 23 C       -2.1770    -9.7600    -0.6770 C.3   1 <1>   0.3010 
 24 C       -6.0990    -6.8370    -0.1110 C.3   1 <1>   0.0960 
 25 O       -2.9790   -10.8560    -0.4340 O.3   1 <1>  -0.6800 
 26 C       -6.6500    -6.9310     1.3180 C.3   1 <1>  -0.2400 
 27 H        1.3960     1.4690    -1.0050 H     1 <1>   0.0800 
 28 H        2.8880     1.1190    -1.8670 H     1 <1>   0.0800 
 29 H        3.7750    -0.9420     0.9080 H     1 <1>   0.0800 
 30 H        2.1330    -1.0520     1.5420 H     1 <1>   0.0800 
 31 H       -0.6740    -2.8180    -0.8000 H     1 <1>   0.1500 
 32 H        3.5400    -2.9660    -0.4420 H     1 <1>   0.1500 
 33 H        2.8430     2.8070     0.2900 H     1 <1>   0.0800 
 34 H        4.2140     1.7790    -0.0740 H     1 <1>   0.0800 
 35 H        3.7220     1.0620     2.1560 H     1 <1>   0.0800 
 36 H        1.9990     1.2480     1.8940 H     1 <1>   0.0800 
 37 H        3.3100    -5.2720     0.3130 H     1 <1>   0.1500 
 38 H       -0.6190    -7.1770     0.8640 H     1 <1>   0.0800 
 39 H       -0.5060    -7.0990    -0.8800 H     1 <1>   0.0800 
 40 H       -1.9780    -3.5940     0.9490 H     1 <1>   0.0800 
 41 H       -2.0180    -5.0620     1.8840 H     1 <1>   0.0800 
 42 H       -3.6790    -4.4170    -0.5560 H     1 <1>   0.0800 
 43 H       -4.2430    -4.7130     1.0700 H     1 <1>   0.0800 
 44 H       -1.3260    -9.8090    -0.0230 H     1 <1>   0.0800 
 45 H       -1.8630    -9.7920    -1.7050 H     1 <1>   0.0800 
 46 H       -6.6570    -7.4850    -0.7620 H     1 <1>   0.0800 
 47 H       -6.1800    -5.8310    -0.4800 H     1 <1>   0.0800 
 48 H       -3.8900   -10.4770    -0.3790 H     1 <1>   0.4000 
 49 H       -6.5720    -7.9440     1.6730 H     1 <1>   0.0800 
 50 H       -7.6860    -6.6440     1.3300 H     1 <1>   0.0800 
 51 H       -6.1030    -6.2820     1.9770 H     1 <1>   0.0800 
@<TRIPOS>BOND
  1   1   2  2   
  2   2   3  am  
  3   2   4  1   
  4   3   5  1   
  5   3   6  1   
  6   4   7  ar  
  7   4   8  ar  
  8   5   9  1   
  9   5  27  1   
 10   5  28  1   
 11   6  10  1   
 12   6  29  1   
 13   6  30  1   
 14   7  11  ar  
 15   7  31  1   
 16   8  12  ar  
 17   8  32  1   
 18   9  10  1   
 19   9  33  1   
 20   9  34  1   
 21  10  35  1   
 22  10  36  1   
 23  11  13  ar  
 24  11  14  1   
 25  12  13  ar  
 26  12  37  1   
 27  14  15  1   
 28  14  16  1   
 29  15  17  1   
 30  15  38  1   
 31  15  39  1   
 32  16  18  1   
 33  16  40  1   
 34  16  41  1   
 35  17  19  2   
 36  17  20  1   
 37  18  19  1   
 38  18  42  1   
 39  18  43  1   
 40  19  21  1   
 41  20  22  2   
 42  20  23  1   
 43  21  22  1   
 44  21  24  1   
 45  23  25  1   
 46  23  44  1   
 47  23  45  1   
 48  24  26  1   
 49  24  46  1   
 50  24  47  1   
 51  25  48  1   
 52  26  49  1   
 53  26  50  1   
 54  26  51  1   
@<TRIPOS>SUBSTRUCTURE
  1 ****  14 GROUP 4 **** **** 0

# MOE 2024.06 (io_trps.svl 2023.06)
