@<TRIPOS>MOLECULE
NONAME
51 53 1 0 0 
SMALL
USER_CHARGES


@<TRIPOS>ATOM
  1 O        0.6180    -1.4350     1.3600 O.2   1 <1>  -0.5700 
  2 C        1.4140    -1.5480     0.4490 C.2   1 <1>   0.5440 
  3 N        2.2440    -0.4970     0.2050 N.am  1 <1>  -0.7300 
  4 C        1.4700    -2.7580    -0.3570 C.ar  1 <1>   0.0860 
  5 C        2.2450     0.7620     0.9890 C.3   1 <1>   0.3200 
  6 C        0.3590    -3.5910    -0.4710 C.ar  1 <1>  -0.1500 
  7 C        2.6260    -3.1390    -1.0420 C.ar  1 <1>  -0.1500 
  8 C        3.3270     1.7190     0.5040 C.2   1 <1>   0.2980 
  9 C        0.3840    -4.7460    -1.2320 C.ar  1 <1>   0.0830 
 10 C        2.6640    -4.2890    -1.8110 C.ar  1 <1>  -0.1500 
 11 O        3.4900     2.8620     1.0880 O.3   1 <1>  -0.2800 
 12 N        4.1510     1.5480    -0.4620 N.2   1 <1>  -0.3380 
 13 O       -0.7560    -5.4780    -1.2640 O.3   1 <1>  -0.3630 
 14 C        1.5460    -5.0960    -1.9110 C.ar  1 <1>  -0.1500 
 15 C        4.4670     3.4050     0.4370 C.2   1 <1>   0.2980 
 16 N        4.8970     2.6520    -0.5050 N.2   1 <1>  -0.3380 
 17 C       -0.7900    -6.7640    -1.8670 C.3   1 <1>   0.1810 
 18 C        4.9540     4.7870     0.8460 C.3   1 <1>   0.0200 
 19 C       -2.1480    -7.4380    -1.6850 C.2   1 <1>   0.5690 
 20 C        6.1180     5.3060    -0.0120 C.3   1 <1>  -0.2400 
 21 O       -2.7590    -7.7060    -2.6950 O.2   1 <1>  -0.5700 
 22 N       -2.6390    -7.7600    -0.4380 N.am  1 <1>  -0.6600 
 23 C       -3.9670    -8.4160    -0.2770 C.3   1 <1>   0.1400 
 24 C       -1.9640    -7.4380     0.8520 C.3   1 <1>   0.1400 
 25 C       -3.8150    -9.7030     0.5410 C.3   1 <1>  -0.1600 
 26 C       -1.7940    -8.7160     1.6810 C.3   1 <1>  -0.1600 
 27 C       -3.1320    -9.4380     1.8900 C.3   1 <1>  -0.1600 
 28 H        2.8830    -0.4910    -0.5950 H     1 <1>   0.3700 
 29 H        2.4130     0.5320     2.0260 H     1 <1>   0.0800 
 30 H        1.2840     1.2360     0.8970 H     1 <1>   0.0800 
 31 H       -0.5480    -3.3310     0.0480 H     1 <1>   0.1500 
 32 H        3.5130    -2.5340    -0.9720 H     1 <1>   0.1500 
 33 H        3.5680    -4.5570    -2.3320 H     1 <1>   0.1500 
 34 H        1.6000    -5.9800    -2.5180 H     1 <1>   0.1500 
 35 H       -0.0270    -7.3730    -1.4210 H     1 <1>   0.0800 
 36 H       -0.5940    -6.6450    -2.9170 H     1 <1>   0.0800 
 37 H        5.2640     4.7460     1.8750 H     1 <1>   0.0800 
 38 H        4.1290     5.4720     0.7750 H     1 <1>   0.0800 
 39 H        6.9590     4.6390     0.0610 H     1 <1>   0.0800 
 40 H        6.4200     6.2820     0.3220 H     1 <1>   0.0800 
 41 H        5.8190     5.3690    -1.0440 H     1 <1>   0.0800 
 42 H       -4.3970    -8.6500    -1.2360 H     1 <1>   0.0800 
 43 H       -4.6320    -7.7370     0.2270 H     1 <1>   0.0800 
 44 H       -2.5700    -6.7310     1.3930 H     1 <1>   0.0800 
 45 H       -1.0000    -6.9910     0.6930 H     1 <1>   0.0800 
 46 H       -3.2350   -10.4070    -0.0300 H     1 <1>   0.0800 
 47 H       -4.7860   -10.1350     0.7050 H     1 <1>   0.0800 
 48 H       -1.3670    -8.4650     2.6360 H     1 <1>   0.0800 
 49 H       -1.1050    -9.3700     1.1750 H     1 <1>   0.0800 
 50 H       -2.9680   -10.3700     2.4040 H     1 <1>   0.0800 
 51 H       -3.7750    -8.8280     2.5010 H     1 <1>   0.0800 
@<TRIPOS>BOND
  1   1   2  2   
  2   2   3  am  
  3   2   4  1   
  4   3   5  1   
  5   3  28  1   
  6   4   6  ar  
  7   4   7  ar  
  8   5   8  1   
  9   5  29  1   
 10   5  30  1   
 11   6   9  ar  
 12   6  31  1   
 13   7  10  ar  
 14   7  32  1   
 15   8  11  1   
 16   8  12  2   
 17   9  13  1   
 18   9  14  ar  
 19  10  14  ar  
 20  10  33  1   
 21  11  15  1   
 22  12  16  1   
 23  13  17  1   
 24  14  34  1   
 25  15  16  2   
 26  15  18  1   
 27  17  19  1   
 28  17  35  1   
 29  17  36  1   
 30  18  20  1   
 31  18  37  1   
 32  18  38  1   
 33  19  21  2   
 34  19  22  am  
 35  20  39  1   
 36  20  40  1   
 37  20  41  1   
 38  22  23  1   
 39  22  24  1   
 40  23  25  1   
 41  23  42  1   
 42  23  43  1   
 43  24  26  1   
 44  24  44  1   
 45  24  45  1   
 46  25  27  1   
 47  25  46  1   
 48  25  47  1   
 49  26  27  1   
 50  26  48  1   
 51  26  49  1   
 52  27  50  1   
 53  27  51  1   
@<TRIPOS>SUBSTRUCTURE
  1 ****   4 GROUP 4 **** **** 0

# MOE 2024.06 (io_trps.svl 2023.06)
