@<TRIPOS>MOLECULE
NONAME
44 46 1 0 0 
SMALL
USER_CHARGES


@<TRIPOS>ATOM
  1 O       -0.8580     0.1740     0.7400 O.2   1 <1>  -0.5700 
  2 C       -1.6370     0.8580     0.1040 C.2   1 <1>   0.7150 
  3 N       -2.7220     0.2560    -0.4890 N.am  1 <1>  -0.6600 
  4 C       -1.4320     2.2750    -0.0120 C.2   1 <1>  -0.2370 
  5 C       -4.0920     0.8440    -0.3690 C.3   1 <1>   0.1400 
  6 C       -2.7500    -1.2210    -0.7190 C.3   1 <1>   0.1400 
  7 N       -1.8090     2.9980    -1.1110 N.pl3 1 <1>   0.0330 
  8 C       -0.8450     3.1470     0.8680 C.2   1 <1>  -0.1500 
  9 C       -4.9560     0.0350     0.6240 C.3   1 <1>   0.2950 
 10 C       -3.6820    -1.9180     0.2950 C.3   1 <1>   0.2000 
 11 C       -1.4770     4.2960    -0.9110 C.2   1 <1>  -0.3020 
 12 C       -0.8800     4.4200     0.3030 C.2   1 <1>  -0.1500 
 13 O       -4.9460    -1.3170     0.2650 O.3   1 <1>  -0.5600 
 14 C       -6.4310     0.4670     0.6970 C.3   1 <1>  -0.1950 
 15 C       -3.8940    -3.4070    -0.0040 C.3   1 <1>  -0.1600 
 16 C       -7.2630     0.8080    -0.5010 C.3   1 <1>  -0.2000 
 17 C       -6.8940     1.8780     0.4890 C.3   1 <1>  -0.2000 
 18 C       -2.6070    -4.2370     0.1330 C.3   1 <1>  -0.1600 
 19 C       -2.8910    -5.7290    -0.0770 C.3   1 <1>  -0.1600 
 20 C       -1.6110    -6.5580     0.0570 C.3   1 <1>  -0.2400 
 21 H       -4.0330     1.8600    -0.0230 H     1 <1>   0.0800 
 22 H       -4.5580     0.8430    -1.3370 H     1 <1>   0.0800 
 23 H       -3.1000    -1.4170    -1.7160 H     1 <1>   0.0800 
 24 H       -1.7560    -1.6250    -0.6350 H     1 <1>   0.0800 
 25 H       -2.2510     2.5990    -1.9470 H     1 <1>   0.2700 
 26 H       -0.4240     2.9000     1.8280 H     1 <1>   0.1500 
 27 H       -4.5280     0.1220     1.6080 H     1 <1>   0.0800 
 28 H       -3.2800    -1.8090     1.2890 H     1 <1>   0.0800 
 29 H       -1.6740     5.0650    -1.6370 H     1 <1>   0.1500 
 30 H       -0.4940     5.3160     0.7610 H     1 <1>   0.1500 
 31 H       -6.9320    -0.0780     1.4780 H     1 <1>   0.1000 
 32 H       -4.6240    -3.7850     0.6900 H     1 <1>   0.0800 
 33 H       -4.2890    -3.5160    -0.9990 H     1 <1>   0.0800 
 34 H       -6.8120     0.8160    -1.4770 H     1 <1>   0.1000 
 35 H       -8.2780     0.4500    -0.5290 H     1 <1>   0.1000 
 36 H       -7.6630     2.2650     1.1360 H     1 <1>   0.1000 
 37 H       -6.2110     2.6460     0.1710 H     1 <1>   0.1000 
 38 H       -1.8800    -3.9150    -0.5920 H     1 <1>   0.0800 
 39 H       -2.1890    -4.0900     1.1150 H     1 <1>   0.0800 
 40 H       -3.6090    -6.0670     0.6510 H     1 <1>   0.0800 
 41 H       -3.3120    -5.8830    -1.0560 H     1 <1>   0.0800 
 42 H       -1.1840    -6.4350     1.0370 H     1 <1>   0.0800 
 43 H       -0.8860    -6.2530    -0.6780 H     1 <1>   0.0800 
 44 H       -1.8310    -7.6010    -0.0920 H     1 <1>   0.0800 
@<TRIPOS>BOND
  1   1   2  2   
  2   2   3  am  
  3   2   4  1   
  4   3   5  1   
  5   3   6  1   
  6   4   7  1   
  7   4   8  2   
  8   5   9  1   
  9   5  21  1   
 10   5  22  1   
 11   6  10  1   
 12   6  23  1   
 13   6  24  1   
 14   7  11  1   
 15   7  25  1   
 16   8  12  1   
 17   8  26  1   
 18   9  13  1   
 19   9  14  1   
 20   9  27  1   
 21  10  13  1   
 22  10  15  1   
 23  10  28  1   
 24  11  12  2   
 25  11  29  1   
 26  12  30  1   
 27  14  16  1   
 28  14  17  1   
 29  14  31  1   
 30  15  18  1   
 31  15  32  1   
 32  15  33  1   
 33  16  17  1   
 34  16  34  1   
 35  16  35  1   
 36  17  36  1   
 37  17  37  1   
 38  18  19  1   
 39  18  38  1   
 40  18  39  1   
 41  19  20  1   
 42  19  40  1   
 43  19  41  1   
 44  20  42  1   
 45  20  43  1   
 46  20  44  1   
@<TRIPOS>SUBSTRUCTURE
  1 ****   3 GROUP 4 **** **** 0

# MOE 2024.06 (io_trps.svl 2023.06)
