@<TRIPOS>MOLECULE
NONAME
54 55 1 0 0 
SMALL
USER_CHARGES


@<TRIPOS>ATOM
  1 O       -1.4670     0.0360     3.5060 O.2   1 <1>  -0.5700 
  2 C       -1.5590     0.6760     2.4860 C.2   1 <1>   0.5690 
  3 N       -2.3100     0.2120     1.4310 N.am  1 <1>  -0.6600 
  4 C       -0.8130     2.0110     2.4220 C.3   1 <1>   0.1810 
  5 C       -3.1600    -1.0150     1.6370 C.3   1 <1>   0.3210 
  6 C       -2.4890     0.9590     0.1530 C.3   1 <1>   0.1400 
  7 O       -1.7240     3.0900     2.2140 O.3   1 <1>  -0.3630 
  8 C       -3.6570    -1.6820     0.3460 C.2   1 <1>   0.0460 
  9 C       -3.8210     1.7270     0.1820 C.3   1 <1>   0.3430 
 10 C       -1.6340     4.0280     1.2350 C.ar  1 <1>   0.0820 
 11 N       -4.6560    -1.1480    -0.4030 N.2   1 <1>  -0.5650 
 12 C       -3.2240    -2.8440    -0.1990 C.2   1 <1>  -0.3320 
 13 N       -4.2970     2.0790    -1.1900 N.4   1 <1>  -0.9590 
 14 C       -0.6320     4.0870     0.2700 C.ar  1 <1>  -0.1500 
 15 C       -2.6500     4.9660     1.2060 C.ar  1 <1>  -0.1500 
 16 C       -4.8160    -2.0050    -1.3590 C.2   1 <1>   0.0360 
 17 N       -3.9740    -3.0560    -1.2950 N.pl3 1 <1>   0.0330 
 18 C       -2.1380    -3.8150     0.2390 C.3   1 <1>  -0.0600 
 19 C       -3.4070     3.0850    -1.8500 C.3   1 <1>   0.2630 
 20 C       -5.7050     2.5640    -1.1220 C.3   1 <1>   0.2630 
 21 C       -0.6670     5.0490    -0.7280 C.ar  1 <1>  -0.1430 
 22 C       -2.6860     5.9330     0.2200 C.ar  1 <1>  -0.1500 
 23 C       -1.7030     5.9780    -0.7570 C.ar  1 <1>  -0.1430 
 24 C        0.4490     5.0830    -1.7640 C.3   1 <1>  -0.0970 
 25 C       -1.7710     7.0650    -1.8220 C.3   1 <1>  -0.0970 
 26 H       -0.0760     1.9620     1.6510 H     1 <1>   0.0800 
 27 H       -0.3180     2.1870     3.3600 H     1 <1>   0.0800 
 28 H       -4.0150    -0.7480     2.2320 H     1 <1>   0.0800 
 29 H       -2.5980    -1.7370     2.2020 H     1 <1>   0.0800 
 30 H       -2.4730     0.2650    -0.6680 H     1 <1>   0.0800 
 31 H       -1.6760     1.6390    -0.0030 H     1 <1>   0.0800 
 32 H       -3.7150     2.6140     0.7820 H     1 <1>   0.0800 
 33 H       -4.5570     1.0920     0.6480 H     1 <1>   0.0800 
 34 H       -4.2980     1.1890    -1.7180 H     1 <1>   0.4500 
 35 H        0.1920     3.4020     0.2790 H     1 <1>   0.1500 
 36 H       -3.4100     4.9420     1.9680 H     1 <1>   0.1500 
 37 H       -5.5490    -1.9170    -2.1440 H     1 <1>   0.1500 
 38 H       -3.9290    -3.8550    -1.9360 H     1 <1>   0.2700 
 39 H       -1.6160    -3.4460     1.1040 H     1 <1>   0.0800 
 40 H       -1.4210    -3.9520    -0.5510 H     1 <1>   0.0800 
 41 H       -2.5700    -4.7680     0.4850 H     1 <1>   0.0800 
 42 H       -3.3920     4.0000    -1.2800 H     1 <1>   0.0800 
 43 H       -3.7610     3.3040    -2.8440 H     1 <1>   0.0800 
 44 H       -2.3990     2.7120    -1.9190 H     1 <1>   0.0800 
 45 H       -5.7630     3.4660    -0.5350 H     1 <1>   0.0800 
 46 H       -6.3330     1.8140    -0.6680 H     1 <1>   0.0800 
 47 H       -6.0780     2.7700    -2.1130 H     1 <1>   0.0800 
 48 H       -3.4810     6.6600     0.2250 H     1 <1>   0.1500 
 49 H        1.1570     4.2890    -1.6040 H     1 <1>   0.0800 
 50 H        0.9790     6.0170    -1.6990 H     1 <1>   0.0800 
 51 H        0.0460     4.9800    -2.7550 H     1 <1>   0.0800 
 52 H       -1.8110     6.6280    -2.8030 H     1 <1>   0.0800 
 53 H       -0.9030     7.6960    -1.7560 H     1 <1>   0.0800 
 54 H       -2.6410     7.6830    -1.6920 H     1 <1>   0.0800 
@<TRIPOS>BOND
  1   1   2  2   
  2   2   3  am  
  3   2   4  1   
  4   3   5  1   
  5   3   6  1   
  6   4   7  1   
  7   4  26  1   
  8   4  27  1   
  9   5   8  1   
 10   5  28  1   
 11   5  29  1   
 12   6   9  1   
 13   6  30  1   
 14   6  31  1   
 15   7  10  1   
 16   8  11  1   
 17   8  12  2   
 18   9  13  1   
 19   9  32  1   
 20   9  33  1   
 21  10  14  ar  
 22  10  15  ar  
 23  11  16  2   
 24  12  17  1   
 25  12  18  1   
 26  13  19  1   
 27  13  20  1   
 28  13  34  1   
 29  14  21  ar  
 30  14  35  1   
 31  15  22  ar  
 32  15  36  1   
 33  16  17  1   
 34  16  37  1   
 35  17  38  1   
 36  18  39  1   
 37  18  40  1   
 38  18  41  1   
 39  19  42  1   
 40  19  43  1   
 41  19  44  1   
 42  20  45  1   
 43  20  46  1   
 44  20  47  1   
 45  21  23  ar  
 46  21  24  1   
 47  22  23  ar  
 48  22  48  1   
 49  23  25  1   
 50  24  49  1   
 51  24  50  1   
 52  24  51  1   
 53  25  52  1   
 54  25  53  1   
 55  25  54  1   
@<TRIPOS>SUBSTRUCTURE
  1 ****   6 GROUP 4 **** **** 0

# MOE 2024.06 (io_trps.svl 2023.06)
