@<TRIPOS>MOLECULE
NONAME
47 50 1 0 0 
SMALL
USER_CHARGES


@<TRIPOS>ATOM
  1 O       -1.8010     0.5270     2.2430 O.2   1 <1>  -0.5700 
  2 C       -2.0910     0.9820     1.1600 C.2   1 <1>   0.6300 
  3 N       -2.9310     0.3090     0.3140 N.am  1 <1>  -0.6600 
  4 C       -1.5010     2.3370     0.7450 C.3   1 <1>   0.0320 
  5 C       -3.2360     0.6840    -1.0890 C.3   1 <1>   0.1400 
  6 C       -3.4990    -1.0240     0.6320 C.3   1 <1>   0.1400 
  7 C       -0.3680     2.1980    -0.2670 C.ar  1 <1>  -0.0320 
  8 C       -2.3850     3.5570     0.7480 C.3   1 <1>  -0.2000 
  9 C       -1.3270     3.4050     1.7910 C.3   1 <1>  -0.2000 
 10 C       -4.2850    -0.3320    -1.5420 C.3   1 <1>   0.2000 
 11 C       -3.9890    -1.5830    -0.7110 C.3   1 <1>  -0.0800 
 12 C       -0.4780     2.6970    -1.5570 C.ar  1 <1>  -0.1500 
 13 C        0.7970     1.5480     0.1080 C.ar  1 <1>  -0.1500 
 14 O       -5.5350     0.1450    -1.1810 O.3   1 <1>  -0.6800 
 15 C       -2.9090    -2.4500    -1.3860 C.3   1 <1>   0.0210 
 16 C        0.5640     2.5510    -2.4580 C.ar  1 <1>  -0.1500 
 17 C        1.8400     1.3990    -0.7900 C.ar  1 <1>  -0.1500 
 18 C       -2.6280    -3.7060    -0.5850 C.2   1 <1>   0.1080 
 19 C        1.7230     1.9000    -2.0740 C.ar  1 <1>  -0.1500 
 20 N       -3.4740    -4.6840    -0.4940 N.2   1 <1>  -0.7070 
 21 C       -1.4620    -3.9500     0.1330 C.2   1 <1>  -0.1500 
 22 N       -2.8620    -5.5900     0.2930 N.pl3 1 <1>   0.3000 
 23 C       -1.6420    -5.1670     0.6870 C.2   1 <1>  -0.3320 
 24 C       -0.7110    -5.9620     1.5830 C.3   1 <1>  -0.0600 
 25 H       -3.6000     1.6940    -1.1650 H     1 <1>   0.0800 
 26 H       -2.3440     0.5740    -1.6810 H     1 <1>   0.0800 
 27 H       -2.7630    -1.6550     1.1020 H     1 <1>   0.0800 
 28 H       -4.3280    -0.8990     1.3080 H     1 <1>   0.0800 
 29 H       -2.2490     4.3300     0.0120 H     1 <1>   0.1000 
 30 H       -3.4130     3.4460     1.0440 H     1 <1>   0.1000 
 31 H       -1.6150     3.1770     2.8030 H     1 <1>   0.1000 
 32 H       -0.4520     4.0290     1.7420 H     1 <1>   0.1000 
 33 H       -4.2830    -0.5010    -2.6050 H     1 <1>   0.0800 
 34 H       -4.8720    -2.1850    -0.5820 H     1 <1>   0.0800 
 35 H       -1.3730     3.2040    -1.8690 H     1 <1>   0.1500 
 36 H        0.8900     1.1570     1.1070 H     1 <1>   0.1500 
 37 H       -5.5320     0.3510    -0.2250 H     1 <1>   0.4000 
 38 H       -1.9960    -1.8950    -1.5020 H     1 <1>   0.0800 
 39 H       -3.2460    -2.7480    -2.3620 H     1 <1>   0.0800 
 40 H        0.4740     2.9430    -3.4560 H     1 <1>   0.1500 
 41 H        2.7400     0.8920    -0.4870 H     1 <1>   0.1500 
 42 H        2.5350     1.7860    -2.7720 H     1 <1>   0.1500 
 43 H       -0.6170    -3.2890     0.2140 H     1 <1>   0.1500 
 44 H       -3.3030    -6.4830     0.5420 H     1 <1>   0.2700 
 45 H        0.1970    -5.4100     1.7530 H     1 <1>   0.0800 
 46 H       -0.4590    -6.9000     1.1210 H     1 <1>   0.0800 
 47 H       -1.1790    -6.1510     2.5320 H     1 <1>   0.0800 
@<TRIPOS>BOND
  1   1   2  2   
  2   2   3  am  
  3   2   4  1   
  4   3   5  1   
  5   3   6  1   
  6   4   7  1   
  7   4   8  1   
  8   4   9  1   
  9   5  10  1   
 10   5  25  1   
 11   5  26  1   
 12   6  11  1   
 13   6  27  1   
 14   6  28  1   
 15   7  12  ar  
 16   7  13  ar  
 17   8   9  1   
 18   8  29  1   
 19   8  30  1   
 20   9  31  1   
 21   9  32  1   
 22  10  11  1   
 23  10  14  1   
 24  10  33  1   
 25  11  15  1   
 26  11  34  1   
 27  12  16  ar  
 28  12  35  1   
 29  13  17  ar  
 30  13  36  1   
 31  14  37  1   
 32  15  18  1   
 33  15  38  1   
 34  15  39  1   
 35  16  19  ar  
 36  16  40  1   
 37  17  19  ar  
 38  17  41  1   
 39  18  20  2   
 40  18  21  1   
 41  19  42  1   
 42  20  22  1   
 43  21  23  2   
 44  21  43  1   
 45  22  23  1   
 46  22  44  1   
 47  23  24  1   
 48  24  45  1   
 49  24  46  1   
 50  24  47  1   
@<TRIPOS>SUBSTRUCTURE
  1 ****   3 GROUP 4 **** **** 0

# MOE 2024.06 (io_trps.svl 2023.06)
