@<TRIPOS>MOLECULE
NONAME
52 54 1 0 0 
SMALL
USER_CHARGES


@<TRIPOS>ATOM
  1 O       -3.4250    -3.0850     1.8780 O.2   1 <1>  -0.5700 
  2 C       -2.8990    -4.1620     1.7080 C.2   1 <1>   0.6900 
  3 N       -3.5320    -5.2950     1.2880 N.am  1 <1>  -0.4200 
  4 N       -1.5980    -4.3970     1.9680 N.am  1 <1>  -0.7300 
  5 C       -2.6700    -6.3520     1.3510 C.2   1 <1>   0.5690 
  6 C       -4.9670    -5.3800     0.9010 C.3   1 <1>   0.2010 
  7 C       -1.3110    -5.8440     1.8100 C.3   1 <1>   0.2010 
  8 O       -2.9090    -7.5100     1.1220 O.2   1 <1>  -0.5700 
  9 C       -5.1670    -5.5620    -0.6050 C.2   1 <1>   0.5690 
 10 O       -5.2420    -6.6930    -1.0350 O.2   1 <1>  -0.5700 
 11 N       -5.2780    -4.4870    -1.4590 N.am  1 <1>  -0.6600 
 12 C       -5.7200    -4.7190    -2.8590 C.3   1 <1>   0.1400 
 13 C       -5.2060    -3.0500    -1.0760 C.3   1 <1>   0.1400 
 14 C       -7.2350    -4.9740    -2.9100 C.3   1 <1>   0.1400 
 15 C       -6.5950    -2.4320    -0.8640 C.3   1 <1>  -0.1600 
 16 N       -8.0490    -4.0230    -2.0770 N.am  1 <1>  -0.6600 
 17 C       -7.5810    -2.6100    -2.0300 C.3   1 <1>   0.1400 
 18 C       -9.0680    -4.4130    -1.2350 C.2   1 <1>   0.5690 
 19 O       -9.8420    -3.6050    -0.7680 O.2   1 <1>  -0.5700 
 20 C       -9.2760    -5.8780    -0.8430 C.3   1 <1>   0.1810 
 21 O       -8.3080    -6.2930     0.0860 O.3   1 <1>  -0.5600 
 22 C       -8.2310    -7.6710     0.2690 C.3   1 <1>   0.2630 
 23 C       -7.4320    -7.9480     1.5310 C.ar  1 <1>  -0.1430 
 24 C       -6.2330    -8.6420     1.4670 C.ar  1 <1>  -0.1500 
 25 C       -7.8920    -7.5020     2.7610 C.ar  1 <1>  -0.1500 
 26 C       -5.5030    -8.8850     2.6170 C.ar  1 <1>  -0.1500 
 27 C       -7.1650    -7.7480     3.9130 C.ar  1 <1>  -0.1500 
 28 C       -5.9690    -8.4410     3.8410 C.ar  1 <1>  -0.1500 
 29 H       -1.0270    -3.7470     2.5100 H     1 <1>   0.3700 
 30 H       -5.4890    -4.5010     1.2300 H     1 <1>   0.0800 
 31 H       -5.4060    -6.2140     1.4080 H     1 <1>   0.0800 
 32 H       -1.0330    -6.2930     2.7460 H     1 <1>   0.0800 
 33 H       -0.5640    -6.0130     1.0550 H     1 <1>   0.0800 
 34 H       -5.2040    -5.5730    -3.2640 H     1 <1>   0.0800 
 35 H       -5.4680    -3.8740    -3.4740 H     1 <1>   0.0800 
 36 H       -4.6900    -2.5110    -1.8520 H     1 <1>   0.0800 
 37 H       -4.6280    -2.9320    -0.1820 H     1 <1>   0.0800 
 38 H       -7.3920    -5.9850    -2.5860 H     1 <1>   0.0800 
 39 H       -7.5640    -4.9090    -3.9320 H     1 <1>   0.0800 
 40 H       -6.4600    -1.3790    -0.7010 H     1 <1>   0.0800 
 41 H       -7.0330    -2.8290     0.0360 H     1 <1>   0.0800 
 42 H       -7.1270    -2.3320    -2.9650 H     1 <1>   0.0800 
 43 H       -8.4270    -1.9620    -1.8760 H     1 <1>   0.0800 
 44 H       -9.2320    -6.5040    -1.7140 H     1 <1>   0.0800 
 45 H      -10.2420    -5.9850    -0.3830 H     1 <1>   0.0800 
 46 H       -7.7500    -8.0990    -0.5930 H     1 <1>   0.0800 
 47 H       -9.2240    -8.0710     0.3730 H     1 <1>   0.0800 
 48 H       -5.8480    -8.9790     0.5190 H     1 <1>   0.1500 
 49 H       -8.8160    -6.9540     2.8180 H     1 <1>   0.1500 
 50 H       -4.5670    -9.4110     2.5490 H     1 <1>   0.1500 
 51 H       -7.5290    -7.3980     4.8630 H     1 <1>   0.1500 
 52 H       -5.4010    -8.6310     4.7340 H     1 <1>   0.1500 
@<TRIPOS>BOND
  1   1   2  2   
  2   2   3  am  
  3   2   4  am  
  4   3   5  am  
  5   3   6  1   
  6   4   7  1   
  7   4  29  1   
  8   5   7  1   
  9   5   8  2   
 10   6   9  1   
 11   6  30  1   
 12   6  31  1   
 13   7  32  1   
 14   7  33  1   
 15   9  10  2   
 16   9  11  am  
 17  11  12  1   
 18  11  13  1   
 19  12  14  1   
 20  12  34  1   
 21  12  35  1   
 22  13  15  1   
 23  13  36  1   
 24  13  37  1   
 25  14  16  1   
 26  14  38  1   
 27  14  39  1   
 28  15  17  1   
 29  15  40  1   
 30  15  41  1   
 31  16  17  1   
 32  16  18  am  
 33  17  42  1   
 34  17  43  1   
 35  18  19  2   
 36  18  20  1   
 37  20  21  1   
 38  20  44  1   
 39  20  45  1   
 40  21  22  1   
 41  22  23  1   
 42  22  46  1   
 43  22  47  1   
 44  23  24  ar  
 45  23  25  ar  
 46  24  26  ar  
 47  24  48  1   
 48  25  27  ar  
 49  25  49  1   
 50  26  28  ar  
 51  26  50  1   
 52  27  28  ar  
 53  27  51  1   
 54  28  52  1   
@<TRIPOS>SUBSTRUCTURE
  1 ****   6 GROUP 4 **** **** 0

# MOE 2024.06 (io_trps.svl 2023.06)
