@<TRIPOS>MOLECULE
NONAME
39 41 1 0 0 
SMALL
USER_CHARGES


@<TRIPOS>ATOM
  1 O        0.3740     0.0600     1.4190 O.2   1 <1>  -0.5700 
  2 C        1.2520    -0.4270     0.7510 C.2   1 <1>   0.5690 
  3 N        2.2860     0.2890     0.2170 N.am  1 <1>  -0.4940 
  4 C        1.2110    -1.9290     0.4860 C.3   1 <1>  -0.0190 
  5 C        2.5640     1.6580     0.2990 C.2   1 <1>   0.2040 
  6 C        2.4350    -2.6560     1.0750 C.3   1 <1>  -0.1600 
  7 C        1.0730    -2.2500    -1.0150 C.3   1 <1>  -0.1600 
  8 O        1.7880     2.4950     0.9430 O.3   1 <1>  -0.0190 
  9 C        3.5910     2.3650    -0.2070 C.2   1 <1>  -0.1810 
 10 C        2.4290    -4.1360     0.6820 C.3   1 <1>   0.1200 
 11 C        1.1640    -3.7590    -1.2590 C.3   1 <1>   0.1200 
 12 N        2.2410     3.7190     0.8960 N.2   1 <1>  -0.4100 
 13 C        3.3320     3.6820     0.1980 C.2   1 <1>   0.2350 
 14 C        4.7880     1.8870    -1.0130 C.3   1 <1>  -0.0590 
 15 O        2.3530    -4.2330    -0.7070 O.3   1 <1>  -0.5600 
 16 C        4.1550     4.8370    -0.0900 C.ar  1 <1>   0.0540 
 17 C        4.6290     5.6440     0.9410 C.ar  1 <1>  -0.1500 
 18 C        4.5000     5.1820    -1.3950 C.ar  1 <1>  -0.1500 
 19 C        5.4310     6.7410     0.6840 C.ar  1 <1>  -0.1500 
 20 C        5.3030     6.2770    -1.6600 C.ar  1 <1>  -0.1500 
 21 C        5.7720     7.0570    -0.6180 C.ar  1 <1>  -0.1500 
 22 H        2.9520    -0.2560    -0.3210 H     1 <1>   0.3700 
 23 H        0.3360    -2.3160     0.9810 H     1 <1>   0.0800 
 24 H        2.4260    -2.5710     2.1470 H     1 <1>   0.0800 
 25 H        3.3490    -2.2180     0.7180 H     1 <1>   0.0800 
 26 H        1.8500    -1.7710    -1.5820 H     1 <1>   0.0800 
 27 H        0.1280    -1.8860    -1.3780 H     1 <1>   0.0800 
 28 H        1.5920    -4.6580     1.1130 H     1 <1>   0.0800 
 29 H        3.3400    -4.6160     0.9960 H     1 <1>   0.0800 
 30 H        1.1830    -3.9730    -2.3140 H     1 <1>   0.0800 
 31 H        0.3380    -4.2850    -0.8090 H     1 <1>   0.0800 
 32 H        4.8490     0.8140    -1.0060 H     1 <1>   0.0800 
 33 H        5.6950     2.2830    -0.5910 H     1 <1>   0.0800 
 34 H        4.7060     2.2200    -2.0320 H     1 <1>   0.0800 
 35 H        4.3590     5.4030     1.9550 H     1 <1>   0.1500 
 36 H        4.1280     4.5890    -2.2110 H     1 <1>   0.1500 
 37 H        5.7880     7.3500     1.4970 H     1 <1>   0.1500 
 38 H        5.5610     6.5260    -2.6750 H     1 <1>   0.1500 
 39 H        6.3970     7.9110    -0.8210 H     1 <1>   0.1500 
@<TRIPOS>BOND
  1   1   2  2   
  2   2   3  am  
  3   2   4  1   
  4   3   5  1   
  5   3  22  1   
  6   4   6  1   
  7   4   7  1   
  8   4  23  1   
  9   5   8  1   
 10   5   9  2   
 11   6  10  1   
 12   6  24  1   
 13   6  25  1   
 14   7  11  1   
 15   7  26  1   
 16   7  27  1   
 17   8  12  1   
 18   9  13  1   
 19   9  14  1   
 20  10  15  1   
 21  10  28  1   
 22  10  29  1   
 23  11  15  1   
 24  11  30  1   
 25  11  31  1   
 26  12  13  2   
 27  13  16  1   
 28  14  32  1   
 29  14  33  1   
 30  14  34  1   
 31  16  17  ar  
 32  16  18  ar  
 33  17  19  ar  
 34  17  35  1   
 35  18  20  ar  
 36  18  36  1   
 37  19  21  ar  
 38  19  37  1   
 39  20  21  ar  
 40  20  38  1   
 41  21  39  1   
@<TRIPOS>SUBSTRUCTURE
  1 ****   5 GROUP 4 **** **** 0

# MOE 2024.06 (io_trps.svl 2023.06)
