@<TRIPOS>MOLECULE
NONAME
57 60 1 0 0 
SMALL
USER_CHARGES


@<TRIPOS>ATOM
  1 O        0.8500    -0.5140    -1.6970 O.2   1 <1>  -0.5700 
  2 C        1.4330     0.2230    -0.9180 C.2   1 <1>   0.5440 
  3 N        0.8320     1.4140    -0.5730 N.am  1 <1>  -0.6600 
  4 C        2.7150    -0.1640    -0.3740 C.ar  1 <1>   0.0860 
  5 C        1.1380     2.1850     0.6540 C.3   1 <1>   0.1400 
  6 C       -0.4640     1.8380    -1.1500 C.3   1 <1>   0.1400 
  7 C        2.9100    -1.4480     0.1700 C.ar  1 <1>   0.4100 
  8 C        3.7950     0.7080    -0.3730 C.ar  1 <1>  -0.1500 
  9 C       -0.1630     2.8980     0.9980 C.3   1 <1>  -0.1600 
 10 C       -0.8740     3.0640    -0.3420 C.3   1 <1>  -0.1600 
 11 N        4.0590    -1.8650     0.7010 N.ar  1 <1>  -0.6200 
 12 N        1.8820    -2.3630     0.1650 N.pl3 1 <1>  -0.8690 
 13 C        4.9810     0.2770     0.1750 C.ar  1 <1>  -0.1500 
 14 C        5.0560    -1.0020     0.6950 C.ar  1 <1>   0.1600 
 15 C        2.0490    -3.8000     0.3860 C.3   1 <1>   0.2890 
 16 C        2.4990    -4.4500    -0.9180 C.3   1 <1>  -0.1600 
 17 C        0.7180    -4.3790     0.8480 C.3   1 <1>  -0.1600 
 18 C        2.5980    -5.9590    -0.7480 C.3   1 <1>   0.3430 
 19 C        0.8270    -5.8910     1.0060 C.3   1 <1>   0.3430 
 20 N        1.2940    -6.5000    -0.2720 N.4   1 <1>  -0.9590 
 21 C        1.2740    -7.9980    -0.2510 C.3   1 <1>   0.3430 
 22 C       -0.1370    -8.5280    -0.5920 C.3   1 <1>   0.2000 
 23 O       -0.7910    -7.5910    -1.4010 O.3   1 <1>  -0.5600 
 24 C       -1.0650    -8.7450     0.6080 C.3   1 <1>  -0.1600 
 25 C       -2.1660    -7.7360    -1.2640 C.3   1 <1>   0.1200 
 26 C       -2.3680    -8.0660     0.2070 C.3   1 <1>  -0.1600 
 27 H        1.9080     2.9040     0.4360 H     1 <1>   0.0800 
 28 H        1.4560     1.5390     1.4560 H     1 <1>   0.0800 
 29 H       -1.1820     1.0450    -1.0250 H     1 <1>   0.0800 
 30 H       -0.3580     2.0650    -2.1970 H     1 <1>   0.0800 
 31 H        3.7010     1.6940    -0.7960 H     1 <1>   0.1500 
 32 H        0.0120     3.8380     1.4900 H     1 <1>   0.0800 
 33 H       -0.7470     2.2670     1.6450 H     1 <1>   0.0800 
 34 H       -1.9420     3.1320    -0.2350 H     1 <1>   0.0800 
 35 H       -0.5150     3.9470    -0.8410 H     1 <1>   0.0800 
 36 H        1.1160    -2.1050    -0.4780 H     1 <1>   0.4000 
 37 H        5.8430     0.9210     0.2000 H     1 <1>   0.1500 
 38 H        5.9880    -1.3290     1.1250 H     1 <1>   0.1500 
 39 H        2.7900    -3.9650     1.1520 H     1 <1>   0.0800 
 40 H        3.4660    -4.0640    -1.1880 H     1 <1>   0.0800 
 41 H        1.8110    -4.2170    -1.7120 H     1 <1>   0.0800 
 42 H       -0.0590    -4.1470     0.1410 H     1 <1>   0.0800 
 43 H        0.4540    -3.9430     1.7950 H     1 <1>   0.0800 
 44 H        3.3720    -6.1890    -0.0340 H     1 <1>   0.0800 
 45 H        2.8610    -6.4080    -1.6930 H     1 <1>   0.0800 
 46 H       -0.1390    -6.2860     1.2710 H     1 <1>   0.0800 
 47 H        1.5230    -6.1210     1.7970 H     1 <1>   0.0800 
 48 H        0.5670    -6.2820    -0.9840 H     1 <1>   0.4500 
 49 H        1.6030    -8.3800     0.7010 H     1 <1>   0.0800 
 50 H        1.9480    -8.3710    -1.0040 H     1 <1>   0.0800 
 51 H       -0.0600    -9.4460    -1.1520 H     1 <1>   0.0800 
 52 H       -0.6720    -8.3290     1.5180 H     1 <1>   0.0800 
 53 H       -1.2160    -9.8010     0.7590 H     1 <1>   0.0800 
 54 H       -2.4840    -8.5490    -1.8950 H     1 <1>   0.0800 
 55 H       -2.6570    -6.8240    -1.5590 H     1 <1>   0.0800 
 56 H       -2.5100    -7.1550     0.7620 H     1 <1>   0.0800 
 57 H       -3.2260    -8.7000     0.3510 H     1 <1>   0.0800 
@<TRIPOS>BOND
  1   1   2  2   
  2   2   3  am  
  3   2   4  1   
  4   3   5  1   
  5   3   6  1   
  6   4   7  ar  
  7   4   8  ar  
  8   5   9  1   
  9   5  27  1   
 10   5  28  1   
 11   6  10  1   
 12   6  29  1   
 13   6  30  1   
 14   7  11  ar  
 15   7  12  1   
 16   8  13  ar  
 17   8  31  1   
 18   9  10  1   
 19   9  32  1   
 20   9  33  1   
 21  10  34  1   
 22  10  35  1   
 23  11  14  ar  
 24  12  15  1   
 25  12  36  1   
 26  13  14  ar  
 27  13  37  1   
 28  14  38  1   
 29  15  16  1   
 30  15  17  1   
 31  15  39  1   
 32  16  18  1   
 33  16  40  1   
 34  16  41  1   
 35  17  19  1   
 36  17  42  1   
 37  17  43  1   
 38  18  20  1   
 39  18  44  1   
 40  18  45  1   
 41  19  20  1   
 42  19  46  1   
 43  19  47  1   
 44  20  21  1   
 45  20  48  1   
 46  21  22  1   
 47  21  49  1   
 48  21  50  1   
 49  22  23  1   
 50  22  24  1   
 51  22  51  1   
 52  23  25  1   
 53  24  26  1   
 54  24  52  1   
 55  24  53  1   
 56  25  26  1   
 57  25  54  1   
 58  25  55  1   
 59  26  56  1   
 60  26  57  1   
@<TRIPOS>SUBSTRUCTURE
  1 ****  12 GROUP 4 **** **** 0

# MOE 2024.06 (io_trps.svl 2023.06)
