@<TRIPOS>MOLECULE
NONAME
49 50 1 0 0 
SMALL
USER_CHARGES


@<TRIPOS>ATOM
  1 N       -1.6190    -0.1370     0.6350 N.ar  1 <1>  -0.6200 
  2 C       -2.1630     0.8920     0.0100 C.ar  1 <1>   0.4100 
  3 C       -0.3430    -0.0100     0.9410 C.ar  1 <1>   0.4760 
  4 N       -3.4980     0.7750    -0.3060 N.pl3 1 <1>  -0.8380 
  5 C       -1.4230     2.0250    -0.3030 C.ar  1 <1>  -0.1440 
  6 N        0.4590     1.0030     0.6830 N.ar  1 <1>  -0.6200 
  7 C        0.2870    -1.1700     1.6730 C.3   1 <1>  -0.0970 
  8 C       -3.9160     0.2280    -1.6110 C.3   1 <1>   0.2090 
  9 C       -4.5140     0.9980     0.7470 C.3   1 <1>   0.2090 
 10 C       -0.1020     2.0190     0.0600 C.ar  1 <1>   0.1600 
 11 C       -2.0170     3.2440    -1.0010 C.3   1 <1>  -0.0160 
 12 C       -3.7040    -1.2850    -1.6170 C.3   1 <1>  -0.1600 
 13 C       -5.4790    -0.1890     0.8630 C.3   1 <1>  -0.1600 
 14 C       -2.5370     4.2560     0.0280 C.3   1 <1>  -0.1600 
 15 C       -4.5920    -2.0870    -0.6500 C.3   1 <1>   0.4230 
 16 C       -4.7750    -1.5560     0.7930 C.3   1 <1>  -0.1600 
 17 C       -3.1420     5.4880    -0.6510 C.3   1 <1>  -0.2400 
 18 N       -4.0780    -3.4950    -0.6390 N.4   1 <1>  -0.9590 
 19 C       -5.1190    -4.4790    -0.2100 C.3   1 <1>   0.2630 
 20 C       -2.8260    -3.6540     0.1780 C.3   1 <1>   0.2630 
 21 H       -0.4530    -1.6960     2.2450 H     1 <1>   0.0800 
 22 H        1.0480    -0.8100     2.3410 H     1 <1>   0.0800 
 23 H        0.7350    -1.8370     0.9620 H     1 <1>   0.0800 
 24 H       -3.3080     0.6730    -2.3820 H     1 <1>   0.0800 
 25 H       -4.9430     0.4810    -1.8130 H     1 <1>   0.0800 
 26 H       -5.0620     1.9000     0.5320 H     1 <1>   0.0800 
 27 H       -4.0090     1.1360     1.6890 H     1 <1>   0.0800 
 28 H        0.5220     2.8690    -0.1560 H     1 <1>   0.1500 
 29 H       -2.8190     2.9470    -1.6520 H     1 <1>   0.0800 
 30 H       -1.2640     3.7100    -1.6120 H     1 <1>   0.0800 
 31 H       -2.6630    -1.4610    -1.4230 H     1 <1>   0.0800 
 32 H       -3.9040    -1.6280    -2.6150 H     1 <1>   0.0800 
 33 H       -6.2430    -0.1140     0.1100 H     1 <1>   0.0800 
 34 H       -5.9740    -0.0990     1.8140 H     1 <1>   0.0800 
 35 H       -1.7290     4.5620     0.6690 H     1 <1>   0.0800 
 36 H       -3.2850     3.7850     0.6420 H     1 <1>   0.0800 
 37 H       -5.5770    -2.0980    -1.0900 H     1 <1>   0.0800 
 38 H       -5.3860    -2.2480     1.3410 H     1 <1>   0.0800 
 39 H       -3.8310    -1.4780     1.3010 H     1 <1>   0.0800 
 40 H       -2.4050     5.9880    -1.2540 H     1 <1>   0.0800 
 41 H       -3.4990     6.1790     0.0930 H     1 <1>   0.0800 
 42 H       -3.9700     5.2050    -1.2780 H     1 <1>   0.0800 
 43 H       -3.8290    -3.7090    -1.6150 H     1 <1>   0.4500 
 44 H       -5.3870    -4.3170     0.8210 H     1 <1>   0.0800 
 45 H       -4.7460    -5.4850    -0.3130 H     1 <1>   0.0800 
 46 H       -6.0040    -4.3770    -0.8170 H     1 <1>   0.0800 
 47 H       -3.0430    -3.5180     1.2250 H     1 <1>   0.0800 
 48 H       -2.0890    -2.9210    -0.1100 H     1 <1>   0.0800 
 49 H       -2.4080    -4.6370     0.0390 H     1 <1>   0.0800 
@<TRIPOS>BOND
  1   1   2  ar  
  2   1   3  ar  
  3   2   4  1   
  4   2   5  ar  
  5   3   6  ar  
  6   3   7  1   
  7   4   8  1   
  8   4   9  1   
  9   5  10  ar  
 10   5  11  1   
 11   6  10  ar  
 12   7  21  1   
 13   7  22  1   
 14   7  23  1   
 15   8  12  1   
 16   8  24  1   
 17   8  25  1   
 18   9  13  1   
 19   9  26  1   
 20   9  27  1   
 21  10  28  1   
 22  11  14  1   
 23  11  29  1   
 24  11  30  1   
 25  12  15  1   
 26  12  31  1   
 27  12  32  1   
 28  13  16  1   
 29  13  33  1   
 30  13  34  1   
 31  14  17  1   
 32  14  35  1   
 33  14  36  1   
 34  15  16  1   
 35  15  18  1   
 36  15  37  1   
 37  16  38  1   
 38  16  39  1   
 39  17  40  1   
 40  17  41  1   
 41  17  42  1   
 42  18  19  1   
 43  18  20  1   
 44  18  43  1   
 45  19  44  1   
 46  19  45  1   
 47  19  46  1   
 48  20  47  1   
 49  20  48  1   
 50  20  49  1   
@<TRIPOS>SUBSTRUCTURE
  1 ****   2 GROUP 4 **** **** 0

# MOE 2024.06 (io_trps.svl 2023.06)
