@<TRIPOS>MOLECULE
NONAME
50 53 1 0 0 
SMALL
USER_CHARGES


@<TRIPOS>ATOM
  1 O       -2.7430     0.8890     1.0810 O.3   1 <1>  -0.3630 
  2 C       -2.0580     2.0540     1.1630 C.ar  1 <1>   0.0830 
  3 C       -2.2490    -0.3010     1.6560 C.3   1 <1>   0.0400 
  4 C       -2.5620     3.1240     0.4750 C.ar  1 <1>  -0.1500 
  5 C       -0.8780     2.2040     1.9090 C.ar  1 <1>  -0.1500 
  6 C       -1.9460     4.3970     0.4940 C.ar  1 <1>   0.0000 
  7 C       -0.2480     3.4170     1.9340 C.ar  1 <1>  -0.1500 
  8 C       -0.7470     4.5300     1.2390 C.ar  1 <1>   0.3100 
  9 C       -2.4350     5.5490    -0.1740 C.ar  1 <1>  -0.1440 
 10 N       -0.0520     5.6880     1.3160 N.ar  1 <1>  -0.6200 
 11 C       -1.6970     6.6950    -0.0750 C.ar  1 <1>  -0.1500 
 12 C       -3.7330     5.5630    -0.9690 C.3   1 <1>   0.3330 
 13 C       -0.5160     6.7120     0.6760 C.ar  1 <1>   0.1600 
 14 N       -3.6090     4.6470    -2.1080 N.3   1 <1>  -0.9900 
 15 C       -4.9620     5.2310    -0.0700 C.3   1 <1>   0.4230 
 16 N       -6.1490     4.5240    -0.9260 N.4   1 <1>  -0.9590 
 17 C       -5.4400     6.4940     0.8450 C.3   1 <1>  -0.1600 
 18 C       -7.3770     4.0180     0.0060 C.3   1 <1>   0.3430 
 19 C       -6.7570     5.6630    -1.7060 C.3   1 <1>   0.3430 
 20 C       -6.8390     5.9910     0.7090 C.3   1 <1>  -0.0800 
 21 C       -8.0700     5.1610     0.9410 C.3   1 <1>   0.0580 
 22 C       -7.1790     6.7250    -0.6540 C.3   1 <1>  -0.1600 
 23 C       -9.4820     5.5050     0.4610 C.2   1 <1>  -0.2880 
 24 C      -10.4750     5.8850     1.2690 C.2   1 <1>  -0.3000 
 25 H       -2.9330    -1.0970     1.4230 H     1 <1>   0.0800 
 26 H       -2.1860    -0.1760     2.7230 H     1 <1>   0.0800 
 27 H       -1.2820    -0.5180     1.2370 H     1 <1>   0.0800 
 28 H       -3.4540     2.9530    -0.0920 H     1 <1>   0.1500 
 29 H       -0.4620     1.3800     2.4590 H     1 <1>   0.1500 
 30 H        0.6600     3.5550     2.4950 H     1 <1>   0.1500 
 31 H       -1.9890     7.6100    -0.5590 H     1 <1>   0.1500 
 32 H       -3.8880     6.5510    -1.3670 H     1 <1>   0.0800 
 33 H        0.0390     7.6350     0.7290 H     1 <1>   0.1500 
 34 H       -3.0500     3.8400    -1.7960 H     1 <1>   0.3600 
 35 H       -3.0040     5.0990    -2.8080 H     1 <1>   0.3600 
 36 H       -4.6230     4.4890     0.6310 H     1 <1>   0.0800 
 37 H       -5.7330     3.8240    -1.5620 H     1 <1>   0.4500 
 38 H       -4.9650     6.4580     1.8200 H     1 <1>   0.0800 
 39 H       -5.1600     7.4420     0.4220 H     1 <1>   0.0800 
 40 H       -8.1380     3.5760    -0.6150 H     1 <1>   0.0800 
 41 H       -7.0080     3.2390     0.6530 H     1 <1>   0.0800 
 42 H       -6.0370     6.0740    -2.3950 H     1 <1>   0.0800 
 43 H       -7.6150     5.3200    -2.2610 H     1 <1>   0.0800 
 44 H       -6.5190     5.4670     1.6030 H     1 <1>   0.0800 
 45 H       -8.1950     4.7740     1.9470 H     1 <1>   0.0800 
 46 H       -6.6560     7.6390    -0.8690 H     1 <1>   0.0800 
 47 H       -8.1960     7.0270    -0.8040 H     1 <1>   0.0800 
 48 H       -9.6360     5.4060    -0.6010 H     1 <1>   0.1500 
 49 H      -11.4700     6.1200     0.9290 H     1 <1>   0.1500 
 50 H      -10.3880     5.9980     2.3370 H     1 <1>   0.1500 
@<TRIPOS>BOND
  1   1   2  1   
  2   1   3  1   
  3   2   4  ar  
  4   2   5  ar  
  5   3  25  1   
  6   3  26  1   
  7   3  27  1   
  8   4   6  ar  
  9   4  28  1   
 10   5   7  ar  
 11   5  29  1   
 12   6   8  ar  
 13   6   9  ar  
 14   7   8  ar  
 15   7  30  1   
 16   8  10  ar  
 17   9  11  ar  
 18   9  12  1   
 19  10  13  ar  
 20  11  13  ar  
 21  11  31  1   
 22  12  14  1   
 23  12  15  1   
 24  12  32  1   
 25  13  33  1   
 26  14  34  1   
 27  14  35  1   
 28  15  16  1   
 29  15  17  1   
 30  15  36  1   
 31  16  18  1   
 32  16  19  1   
 33  16  37  1   
 34  17  20  1   
 35  17  38  1   
 36  17  39  1   
 37  18  21  1   
 38  18  40  1   
 39  18  41  1   
 40  19  22  1   
 41  19  42  1   
 42  19  43  1   
 43  20  21  1   
 44  20  22  1   
 45  20  44  1   
 46  21  23  1   
 47  21  45  1   
 48  22  46  1   
 49  22  47  1   
 50  23  24  2   
 51  23  48  1   
 52  24  49  1   
 53  24  50  1   
@<TRIPOS>SUBSTRUCTURE
  1 ****  15 GROUP 4 **** **** 0

# MOE 2024.06 (io_trps.svl 2023.06)
