@<TRIPOS>MOLECULE
NONAME
54 57 1 0 0 
SMALL
USER_CHARGES


@<TRIPOS>ATOM
  1 O       -0.5010     0.3080    -0.5930 O.2   1 <1>  -0.5700 
  2 C       -1.5810     0.8610    -0.4880 C.2   1 <1>   0.7160 
  3 N       -2.7000     0.0810    -0.3010 N.am  1 <1>  -0.6600 
  4 C       -1.6760     2.3020    -0.5700 C.2   1 <1>  -0.0860 
  5 C       -4.0920     0.5340    -0.5390 C.3   1 <1>   0.1400 
  6 C       -2.6330    -1.4010    -0.2540 C.3   1 <1>   0.1400 
  7 C       -0.9200     3.1460    -1.3940 C.2   1 <1>   0.1080 
  8 C       -2.4790     3.1780     0.1010 C.2   1 <1>  -0.3020 
  9 C       -4.8880    -0.7460    -0.7900 C.3   1 <1>   0.2000 
 10 C       -4.0870    -1.8630    -0.1250 C.3   1 <1>  -0.0800 
 11 N       -1.2300     4.3950    -1.2590 N.2   1 <1>  -0.7070 
 12 C        0.1540     2.6940    -2.3610 C.3   1 <1>  -0.0590 
 13 N       -2.1930     4.4150    -0.3270 N.pl3 1 <1>   0.3140 
 14 O       -6.1560    -0.6750    -0.2330 O.3   1 <1>  -0.6800 
 15 C       -4.3590    -3.2430    -0.7480 C.3   1 <1>  -0.0170 
 16 C       -2.8060     5.6770     0.1290 C.3   1 <1>   0.0960 
 17 C       -3.5540    -4.3290    -0.0560 C.ar  1 <1>   0.1670 
 18 C       -2.1750     6.1480     1.4470 C.3   1 <1>  -0.1600 
 19 N       -2.3510    -4.5490    -0.4900 N.ar  1 <1>  -0.6200 
 20 C       -4.1350    -5.0280     1.0140 C.ar  1 <1>  -0.1500 
 21 C       -2.8110     7.4540     1.9360 C.3   1 <1>  -0.2400 
 22 C       -1.6190    -5.5080     0.1330 C.ar  1 <1>   0.3100 
 23 C       -3.4240    -5.9970     1.6560 C.ar  1 <1>  -0.1500 
 24 C       -2.1160    -6.2620     1.2180 C.ar  1 <1>   0.0000 
 25 C       -0.3120    -5.7600    -0.3120 C.ar  1 <1>  -0.1500 
 26 C       -1.2890    -7.2370     1.8110 C.ar  1 <1>  -0.1500 
 27 C        0.4770    -6.7120     0.2780 C.ar  1 <1>  -0.1500 
 28 C       -0.0190    -7.4590     1.3520 C.ar  1 <1>  -0.1500 
 29 H       -4.4520     1.0400     0.3390 H     1 <1>   0.0800 
 30 H       -4.1380     1.1870    -1.3930 H     1 <1>   0.0800 
 31 H       -2.1930    -1.7640    -1.1680 H     1 <1>   0.0800 
 32 H       -2.0360    -1.7330     0.5790 H     1 <1>   0.0800 
 33 H       -3.2150     2.9760     0.8540 H     1 <1>   0.1500 
 34 H       -4.9890    -0.9110    -1.8490 H     1 <1>   0.0800 
 35 H       -4.3160    -1.8950     0.9260 H     1 <1>   0.0800 
 36 H       -0.2160     1.8950    -2.9760 H     1 <1>   0.0800 
 37 H        1.0100     2.3480    -1.8110 H     1 <1>   0.0800 
 38 H        0.4510     3.5130    -2.9900 H     1 <1>   0.0800 
 39 H       -6.0970    -0.5650     0.7350 H     1 <1>   0.4000 
 40 H       -4.1030    -3.2300    -1.7930 H     1 <1>   0.0800 
 41 H       -5.4070    -3.4690    -0.6750 H     1 <1>   0.0800 
 42 H       -2.6580     6.4170    -0.6360 H     1 <1>   0.0800 
 43 H       -3.8610     5.5180     0.2540 H     1 <1>   0.0800 
 44 H       -2.3020     5.3890     2.2000 H     1 <1>   0.0800 
 45 H       -1.1200     6.3040     1.2950 H     1 <1>   0.0800 
 46 H       -5.1380    -4.7900     1.3160 H     1 <1>   0.1500 
 47 H       -3.8640     7.3200     2.1120 H     1 <1>   0.0800 
 48 H       -2.6760     8.2340     1.2070 H     1 <1>   0.0800 
 49 H       -2.3480     7.7650     2.8560 H     1 <1>   0.0800 
 50 H       -3.8350    -6.5540     2.4780 H     1 <1>   0.1500 
 51 H        0.0510    -5.1750    -1.1380 H     1 <1>   0.1500 
 52 H       -1.6760    -7.8070     2.6370 H     1 <1>   0.1500 
 53 H        1.4780    -6.8950    -0.0740 H     1 <1>   0.1500 
 54 H        0.6110    -8.2030     1.8060 H     1 <1>   0.1500 
@<TRIPOS>BOND
  1   1   2  2   
  2   2   3  am  
  3   2   4  1   
  4   3   5  1   
  5   3   6  1   
  6   4   7  1   
  7   4   8  2   
  8   5   9  1   
  9   5  29  1   
 10   5  30  1   
 11   6  10  1   
 12   6  31  1   
 13   6  32  1   
 14   7  11  2   
 15   7  12  1   
 16   8  13  1   
 17   8  33  1   
 18   9  10  1   
 19   9  14  1   
 20   9  34  1   
 21  10  15  1   
 22  10  35  1   
 23  11  13  1   
 24  12  36  1   
 25  12  37  1   
 26  12  38  1   
 27  13  16  1   
 28  14  39  1   
 29  15  17  1   
 30  15  40  1   
 31  15  41  1   
 32  16  18  1   
 33  16  42  1   
 34  16  43  1   
 35  17  19  ar  
 36  17  20  ar  
 37  18  21  1   
 38  18  44  1   
 39  18  45  1   
 40  19  22  ar  
 41  20  23  ar  
 42  20  46  1   
 43  21  47  1   
 44  21  48  1   
 45  21  49  1   
 46  22  24  ar  
 47  22  25  ar  
 48  23  24  ar  
 49  23  50  1   
 50  24  26  ar  
 51  25  27  ar  
 52  25  51  1   
 53  26  28  ar  
 54  26  52  1   
 55  27  28  ar  
 56  27  53  1   
 57  28  54  1   
@<TRIPOS>SUBSTRUCTURE
  1 ****   6 GROUP 4 **** **** 0

# MOE 2024.06 (io_trps.svl 2023.06)
