@<TRIPOS>MOLECULE
NONAME
39 41 1 0 0 
SMALL
USER_CHARGES


@<TRIPOS>ATOM
  1 O       -0.4620    -0.1980    -0.1470 O.3   1 <1>  -0.3630 
  2 C       -1.6550    -0.8500    -0.0090 C.ar  1 <1>   0.0820 
  3 C       -0.3900     1.2010     0.0230 C.3   1 <1>   0.0400 
  4 C       -2.8650    -0.2450     0.2790 C.ar  1 <1>   0.1600 
  5 C       -1.6820    -2.2180    -0.1630 C.ar  1 <1>   0.1600 
  6 N       -3.9820    -0.9240     0.4010 N.ar  1 <1>  -0.6200 
  7 N       -2.7820    -2.9260    -0.0460 N.ar  1 <1>  -0.6200 
  8 C       -3.8900    -2.2430     0.2340 C.ar  1 <1>   0.7200 
  9 N       -5.0520    -2.9670     0.3720 N.pl3 1 <1>  -0.8380 
 10 C       -6.3930    -2.3320     0.3480 C.3   1 <1>   0.2090 
 11 C       -5.1480    -4.4000    -0.0020 C.3   1 <1>   0.2090 
 12 C       -7.3650    -3.4530    -0.0300 C.3   1 <1>   0.2000 
 13 C       -6.6160    -4.7610     0.2240 C.3   1 <1>  -0.0800 
 14 O       -8.5200    -3.4190     0.7410 O.3   1 <1>  -0.6800 
 15 C       -7.1270    -5.9130    -0.6570 C.3   1 <1>  -0.0170 
 16 C       -6.4080    -7.2170    -0.3560 C.ar  1 <1>   0.1670 
 17 N       -5.2540    -7.4100    -0.9740 N.ar  1 <1>  -0.6200 
 18 C       -6.9750    -8.1240     0.5290 C.ar  1 <1>  -0.1500 
 19 C       -4.6390    -8.5500    -0.7010 C.ar  1 <1>   0.1600 
 20 C       -6.3240    -9.3080     0.8040 C.ar  1 <1>  -0.1500 
 21 C       -5.1210    -9.5160     0.1650 C.ar  1 <1>  -0.1500 
 22 H        0.6320     1.5020    -0.1230 H     1 <1>   0.0800 
 23 H       -0.7030     1.4510     1.0220 H     1 <1>   0.0800 
 24 H       -1.0170     1.6770    -0.7100 H     1 <1>   0.0800 
 25 H       -2.9250     0.8190     0.4130 H     1 <1>   0.1500 
 26 H       -0.7660    -2.7360    -0.3880 H     1 <1>   0.1500 
 27 H       -6.6100    -1.9340     1.3240 H     1 <1>   0.0800 
 28 H       -6.4230    -1.5440    -0.3850 H     1 <1>   0.0800 
 29 H       -4.8760    -4.5170    -1.0380 H     1 <1>   0.0800 
 30 H       -4.4950    -5.0030     0.6060 H     1 <1>   0.0800 
 31 H       -7.6430    -3.3550    -1.0650 H     1 <1>   0.0800 
 32 H       -6.7130    -5.0340     1.2600 H     1 <1>   0.0800 
 33 H       -8.2860    -3.4720     1.6880 H     1 <1>   0.4000 
 34 H       -6.9910    -5.6700    -1.6960 H     1 <1>   0.0800 
 35 H       -8.1820    -6.0420    -0.4920 H     1 <1>   0.0800 
 36 H       -7.9160    -7.9070     1.0000 H     1 <1>   0.1500 
 37 H       -3.6980    -8.7220    -1.1950 H     1 <1>   0.1500 
 38 H       -6.7350   -10.0330     1.4840 H     1 <1>   0.1500 
 39 H       -4.5610   -10.4180     0.3330 H     1 <1>   0.1500 
@<TRIPOS>BOND
  1   1   2  1   
  2   1   3  1   
  3   2   4  ar  
  4   2   5  ar  
  5   3  22  1   
  6   3  23  1   
  7   3  24  1   
  8   4   6  ar  
  9   4  25  1   
 10   5   7  ar  
 11   5  26  1   
 12   6   8  ar  
 13   7   8  ar  
 14   8   9  1   
 15   9  10  1   
 16   9  11  1   
 17  10  12  1   
 18  10  27  1   
 19  10  28  1   
 20  11  13  1   
 21  11  29  1   
 22  11  30  1   
 23  12  13  1   
 24  12  14  1   
 25  12  31  1   
 26  13  15  1   
 27  13  32  1   
 28  14  33  1   
 29  15  16  1   
 30  15  34  1   
 31  15  35  1   
 32  16  17  ar  
 33  16  18  ar  
 34  17  19  ar  
 35  18  20  ar  
 36  18  36  1   
 37  19  21  ar  
 38  19  37  1   
 39  20  21  ar  
 40  20  38  1   
 41  21  39  1   
@<TRIPOS>SUBSTRUCTURE
  1 ****  11 GROUP 4 **** **** 0

# MOE 2024.06 (io_trps.svl 2023.06)
