@<TRIPOS>MOLECULE
NONAME
52 55 1 0 0 
SMALL
USER_CHARGES


@<TRIPOS>ATOM
  1 O       -0.5050     0.7840    -0.1700 O.2   1 <1>  -0.5700 
  2 C       -1.6030     1.2330     0.0610 C.2   1 <1>   0.5690 
  3 N       -2.7060     0.4270     0.0840 N.am  1 <1>  -0.6600 
  4 C       -1.7600     2.7280     0.3210 C.3   1 <1>  -0.0990 
  5 C       -4.1160     0.8520     0.2640 C.3   1 <1>   0.1400 
  6 C       -2.6210    -1.0310    -0.1610 C.3   1 <1>   0.1400 
  7 C       -0.4240     3.4850     0.4590 C.3   1 <1>  -0.1600 
  8 C       -4.9430    -0.3960    -0.0450 C.3   1 <1>   0.2000 
  9 C       -4.0060    -1.5810     0.1850 C.3   1 <1>  -0.0800 
 10 C       -0.6350     4.9830     0.7250 C.3   1 <1>   0.0200 
 11 O       -6.0480    -0.4920     0.7860 O.3   1 <1>  -0.6800 
 12 C       -4.4000    -2.8210    -0.6310 C.3   1 <1>  -0.0170 
 13 C        0.6870     5.7200     0.8360 C.2   1 <1>   0.2980 
 14 C       -3.4490    -3.9780    -0.3660 C.ar  1 <1>  -0.1440 
 15 O        1.4530     5.4910     1.8700 O.3   1 <1>  -0.0190 
 16 N        1.1340     6.5650     0.0020 N.2   1 <1>  -0.5650 
 17 C       -3.6100    -4.8110     0.7220 C.ar  1 <1>  -0.1500 
 18 C       -2.3780    -4.2550    -1.1920 C.ar  1 <1>  -0.1500 
 19 N        2.4800     6.2560     1.6760 N.2   1 <1>  -0.4100 
 20 C        2.2980     6.8890     0.5720 C.2   1 <1>   0.4620 
 21 C       -2.7170    -5.8500     0.9270 C.ar  1 <1>   0.1600 
 22 C       -1.5420    -5.3190    -0.8960 C.ar  1 <1>   0.1600 
 23 C        3.2170     7.8450    -0.0140 C.ar  1 <1>   0.0540 
 24 N       -1.6860    -6.1240     0.1450 N.ar  1 <1>  -0.6200 
 25 C        2.9420     8.4670    -1.2330 C.ar  1 <1>   0.1600 
 26 C        4.4140     8.1880     0.6060 C.ar  1 <1>  -0.1500 
 27 N        3.7140     9.3510    -1.8490 N.ar  1 <1>  -0.6200 
 28 C        5.2320     9.1040    -0.0170 C.ar  1 <1>  -0.1500 
 29 C        4.8420     9.6500    -1.2270 C.ar  1 <1>   0.1600 
 30 H       -2.3210     3.1470    -0.4930 H     1 <1>   0.0800 
 31 H       -2.3260     2.8530     1.2250 H     1 <1>   0.0800 
 32 H       -4.2630     1.1670     1.2830 H     1 <1>   0.0800 
 33 H       -4.3630     1.6480    -0.4160 H     1 <1>   0.0800 
 34 H       -2.3860    -1.1930    -1.1990 H     1 <1>   0.0800 
 35 H       -1.8530    -1.4790     0.4490 H     1 <1>   0.0800 
 36 H        0.1470     3.0520     1.2640 H     1 <1>   0.0800 
 37 H        0.1480     3.3650    -0.4460 H     1 <1>   0.0800 
 38 H       -5.2880    -0.3600    -1.0650 H     1 <1>   0.0800 
 39 H       -3.9940    -1.8310     1.2310 H     1 <1>   0.0800 
 40 H       -1.1850     5.1230     1.6380 H     1 <1>   0.0800 
 41 H       -1.2020     5.4150    -0.0800 H     1 <1>   0.0800 
 42 H       -5.7700    -0.6080     1.7150 H     1 <1>   0.4000 
 43 H       -4.4010    -2.5870    -1.6820 H     1 <1>   0.0800 
 44 H       -5.4000    -3.1180    -0.3660 H     1 <1>   0.0800 
 45 H       -4.4210    -4.6640     1.4120 H     1 <1>   0.1500 
 46 H       -2.1820    -3.6550    -2.0620 H     1 <1>   0.1500 
 47 H       -2.8590    -6.4910     1.7810 H     1 <1>   0.1500 
 48 H       -0.7110    -5.5180    -1.5500 H     1 <1>   0.1500 
 49 H        2.0210     8.2170    -1.7310 H     1 <1>   0.1500 
 50 H        4.6920     7.7470     1.5480 H     1 <1>   0.1500 
 51 H        6.1660     9.3960     0.4290 H     1 <1>   0.1500 
 52 H        5.4880    10.3660    -1.7060 H     1 <1>   0.1500 
@<TRIPOS>BOND
  1   1   2  2   
  2   2   3  am  
  3   2   4  1   
  4   3   5  1   
  5   3   6  1   
  6   4   7  1   
  7   4  30  1   
  8   4  31  1   
  9   5   8  1   
 10   5  32  1   
 11   5  33  1   
 12   6   9  1   
 13   6  34  1   
 14   6  35  1   
 15   7  10  1   
 16   7  36  1   
 17   7  37  1   
 18   8   9  1   
 19   8  11  1   
 20   8  38  1   
 21   9  12  1   
 22   9  39  1   
 23  10  13  1   
 24  10  40  1   
 25  10  41  1   
 26  11  42  1   
 27  12  14  1   
 28  12  43  1   
 29  12  44  1   
 30  13  15  1   
 31  13  16  2   
 32  14  17  ar  
 33  14  18  ar  
 34  15  19  1   
 35  16  20  1   
 36  17  21  ar  
 37  17  45  1   
 38  18  22  ar  
 39  18  46  1   
 40  19  20  2   
 41  20  23  1   
 42  21  24  ar  
 43  21  47  1   
 44  22  24  ar  
 45  22  48  1   
 46  23  25  ar  
 47  23  26  ar  
 48  25  27  ar  
 49  25  49  1   
 50  26  28  ar  
 51  26  50  1   
 52  27  29  ar  
 53  28  29  ar  
 54  28  51  1   
 55  29  52  1   
@<TRIPOS>SUBSTRUCTURE
  1 ****   4 GROUP 4 **** **** 0

# MOE 2024.06 (io_trps.svl 2023.06)
