@<TRIPOS>MOLECULE
NONAME
47 48 1 0 0 
SMALL
USER_CHARGES


@<TRIPOS>ATOM
  1 O        0.1510     3.9560     2.5960 O.co2 1 <1>  -0.9000 
  2 C       -0.0620     4.9740     1.9240 C.2   1 <1>   0.9790 
  3 O        0.5340     6.0300     2.2270 O.co2 1 <1>  -0.9000 
  4 C       -0.9880     5.0170     0.8280 C.ar  1 <1>  -0.1790 
  5 C       -0.6490     4.5220    -0.4400 C.ar  1 <1>   0.4100 
  6 C       -2.2170     5.6390     0.9830 C.ar  1 <1>  -0.1500 
  7 N       -1.3920     4.7280    -1.5220 N.ar  1 <1>  -0.6200 
  8 N        0.4810     3.7630    -0.6720 N.pl3 1 <1>  -0.8380 
  9 C       -3.0120     5.7870    -0.1300 C.ar  1 <1>  -0.1500 
 10 C       -2.5520     5.3270    -1.3510 C.ar  1 <1>   0.1670 
 11 C        1.8540     4.3270    -0.7770 C.3   1 <1>   0.2090 
 12 C        0.4530     2.4000    -0.0720 C.3   1 <1>   0.1290 
 13 C       -3.3960     5.4910    -2.5960 C.3   1 <1>  -0.0970 
 14 C        1.9900     5.3110    -1.9560 C.3   1 <1>  -0.1600 
 15 C        2.0950     6.7840    -1.5200 C.3   1 <1>  -0.1600 
 16 C        0.8790     7.1670    -0.6820 C.3   1 <1>   0.3430 
 17 N        1.0610     8.4100     0.1040 N.4   1 <1>  -0.9590 
 18 C        2.1460     8.2360     1.1430 C.3   1 <1>   0.3430 
 19 C       -0.2310     8.6860     0.8120 C.3   1 <1>   0.3430 
 20 C        1.9620     9.1450     2.3760 C.3   1 <1>   0.1200 
 21 C       -0.1390     9.9360     1.7180 C.3   1 <1>   0.1200 
 22 O        1.1870    10.2640     2.0410 O.3   1 <1>  -0.5600 
 23 H       -2.5260     5.9940     1.9520 H     1 <1>   0.1500 
 24 H       -3.9760     6.2540    -0.0470 H     1 <1>   0.1500 
 25 H        2.5380     3.5120    -0.9430 H     1 <1>   0.0800 
 26 H        2.1280     4.7860     0.1580 H     1 <1>   0.0800 
 27 H       -0.5550     2.1360     0.2010 H     1 <1>   0.0800 
 28 H        1.0620     2.3720     0.8160 H     1 <1>   0.0800 
 29 H        0.8190     1.6820    -0.7830 H     1 <1>   0.0800 
 30 H       -2.8520     6.0570    -3.3290 H     1 <1>   0.0800 
 31 H       -4.3200     5.9920    -2.3790 H     1 <1>   0.0800 
 32 H       -3.6150     4.5210    -3.0050 H     1 <1>   0.0800 
 33 H        1.1650     5.1740    -2.6350 H     1 <1>   0.0800 
 34 H        2.8860     5.0600    -2.4960 H     1 <1>   0.0800 
 35 H        2.1480     7.4130    -2.3900 H     1 <1>   0.0800 
 36 H        3.0030     6.8950    -0.9560 H     1 <1>   0.0800 
 37 H        0.7110     6.3760     0.0190 H     1 <1>   0.0800 
 38 H        0.0080     7.2340    -1.3140 H     1 <1>   0.0800 
 39 H        1.2910     9.2170    -0.4820 H     1 <1>   0.4500 
 40 H        3.1020     8.4480     0.6970 H     1 <1>   0.0800 
 41 H        2.1780     7.2140     1.4820 H     1 <1>   0.0800 
 42 H       -0.4810     7.8400     1.4310 H     1 <1>   0.0800 
 43 H       -1.0330     8.8100     0.1030 H     1 <1>   0.0800 
 44 H        2.9150     9.4840     2.7410 H     1 <1>   0.0800 
 45 H        1.4680     8.6010     3.1650 H     1 <1>   0.0800 
 46 H       -0.6800     9.7660     2.6330 H     1 <1>   0.0800 
 47 H       -0.5700    10.7880     1.2220 H     1 <1>   0.0800 
@<TRIPOS>BOND
  1   1   2  ar  
  2   2   3  ar  
  3   2   4  1   
  4   4   5  ar  
  5   4   6  ar  
  6   5   7  ar  
  7   5   8  1   
  8   6   9  ar  
  9   6  23  1   
 10   7  10  ar  
 11   8  11  1   
 12   8  12  1   
 13   9  10  ar  
 14   9  24  1   
 15  10  13  1   
 16  11  14  1   
 17  11  25  1   
 18  11  26  1   
 19  12  27  1   
 20  12  28  1   
 21  12  29  1   
 22  13  30  1   
 23  13  31  1   
 24  13  32  1   
 25  14  15  1   
 26  14  33  1   
 27  14  34  1   
 28  15  16  1   
 29  15  35  1   
 30  15  36  1   
 31  16  17  1   
 32  16  37  1   
 33  16  38  1   
 34  17  18  1   
 35  17  19  1   
 36  17  39  1   
 37  18  20  1   
 38  18  40  1   
 39  18  41  1   
 40  19  21  1   
 41  19  42  1   
 42  19  43  1   
 43  20  22  1   
 44  20  44  1   
 45  20  45  1   
 46  21  22  1   
 47  21  46  1   
 48  21  47  1   
@<TRIPOS>SUBSTRUCTURE
  1 ****  16 GROUP 4 **** **** 0

# MOE 2024.06 (io_trps.svl 2023.06)
