@<TRIPOS>MOLECULE
NONAME
47 48 1 0 0 
SMALL
USER_CHARGES


@<TRIPOS>ATOM
  1 S        1.0150    -0.1460    -0.7350 S.3   1 <1>  -0.4600 
  2 C        0.1700    -1.6240    -1.3700 C.3   1 <1>   0.2140 
  3 C       -0.3490     1.0620    -0.5080 C.3   1 <1>   0.1310 
  4 C       -1.0600    -1.8870    -0.5180 C.ar  1 <1>  -0.1440 
  5 C        0.1700     2.4320    -0.0890 C.2   1 <1>   0.5690 
  6 C       -2.3290    -1.7570    -1.0600 C.ar  1 <1>  -0.1500 
  7 C       -0.9210    -2.2480     0.8130 C.ar  1 <1>  -0.1500 
  8 O       -0.5210     3.4040    -0.2860 O.2   1 <1>  -0.5700 
  9 N        1.3940     2.5350     0.4900 N.am  1 <1>  -0.7300 
 10 C       -3.4520    -1.9800    -0.2810 C.ar  1 <1>  -0.1430 
 11 C       -2.0370    -2.4750     1.6010 C.ar  1 <1>  -0.1430 
 12 C        2.0080     3.7980     0.9610 C.3   1 <1>   0.1400 
 13 C       -3.2990    -2.3370     1.0480 C.ar  1 <1>  -0.1500 
 14 C       -4.8410    -1.8300    -0.8760 C.3   1 <1>  -0.0970 
 15 C       -1.8800    -2.8650     3.0590 C.3   1 <1>  -0.0970 
 16 C        2.6670     4.5330    -0.2080 C.3   1 <1>   0.1400 
 17 N        3.1440     5.8740     0.2290 N.am  1 <1>  -0.6600 
 18 C        4.3500     6.0150     0.8700 C.2   1 <1>   0.7800 
 19 C        2.2250     7.0080    -0.0220 C.3   1 <1>   0.1400 
 20 O        5.0840     5.0740     1.0880 O.2   1 <1>  -0.5700 
 21 O        4.7350     7.2190     1.3000 O.3   1 <1>  -0.4300 
 22 C        2.9790     8.3290     0.1050 C.3   1 <1>  -0.1600 
 23 C        3.8510     8.3140     1.3590 C.3   1 <1>   0.1200 
 24 H        0.8680    -2.4400    -1.3150 H     1 <1>   0.0800 
 25 H       -0.0860    -1.4290    -2.3960 H     1 <1>   0.0800 
 26 H       -1.0050     0.6760     0.2500 H     1 <1>   0.0800 
 27 H       -0.8730     1.1350    -1.4420 H     1 <1>   0.0800 
 28 H       -2.4480    -1.4770    -2.0920 H     1 <1>   0.1500 
 29 H        0.0630    -2.3460     1.2370 H     1 <1>   0.1500 
 30 H        1.9710     1.6880     0.5400 H     1 <1>   0.3700 
 31 H        2.7420     3.5800     1.7180 H     1 <1>   0.0800 
 32 H        1.2400     4.4200     1.3880 H     1 <1>   0.0800 
 33 H       -4.1680    -2.5070     1.6580 H     1 <1>   0.1500 
 34 H       -4.8260    -2.0490    -1.9280 H     1 <1>   0.0800 
 35 H       -5.1900    -0.8230    -0.7340 H     1 <1>   0.0800 
 36 H       -5.5270    -2.5070    -0.3990 H     1 <1>   0.0800 
 37 H       -0.9380    -3.3570     3.2190 H     1 <1>   0.0800 
 38 H       -2.6670    -3.5360     3.3530 H     1 <1>   0.0800 
 39 H       -1.9230    -1.9860     3.6760 H     1 <1>   0.0800 
 40 H        1.9580     4.6460    -1.0090 H     1 <1>   0.0800 
 41 H        3.5020     3.9560    -0.5680 H     1 <1>   0.0800 
 42 H        1.4240     6.9690     0.6970 H     1 <1>   0.0800 
 43 H        1.8020     6.9270    -1.0100 H     1 <1>   0.0800 
 44 H        2.2780     9.1420     0.1550 H     1 <1>   0.0800 
 45 H        3.5990     8.4810    -0.7610 H     1 <1>   0.0800 
 46 H        4.4400     9.2110     1.4340 H     1 <1>   0.0800 
 47 H        3.2500     8.2060     2.2460 H     1 <1>   0.0800 
@<TRIPOS>BOND
  1   1   2  1   
  2   1   3  1   
  3   2   4  1   
  4   2  24  1   
  5   2  25  1   
  6   3   5  1   
  7   3  26  1   
  8   3  27  1   
  9   4   6  ar  
 10   4   7  ar  
 11   5   8  2   
 12   5   9  am  
 13   6  10  ar  
 14   6  28  1   
 15   7  11  ar  
 16   7  29  1   
 17   9  12  1   
 18   9  30  1   
 19  10  13  ar  
 20  10  14  1   
 21  11  13  ar  
 22  11  15  1   
 23  12  16  1   
 24  12  31  1   
 25  12  32  1   
 26  13  33  1   
 27  14  34  1   
 28  14  35  1   
 29  14  36  1   
 30  15  37  1   
 31  15  38  1   
 32  15  39  1   
 33  16  17  1   
 34  16  40  1   
 35  16  41  1   
 36  17  18  am  
 37  17  19  1   
 38  18  20  2   
 39  18  21  1   
 40  19  22  1   
 41  19  42  1   
 42  19  43  1   
 43  21  23  1   
 44  22  23  1   
 45  22  44  1   
 46  22  45  1   
 47  23  46  1   
 48  23  47  1   
@<TRIPOS>SUBSTRUCTURE
  1 ****   5 GROUP 4 **** **** 0

# MOE 2024.06 (io_trps.svl 2023.06)
