@<TRIPOS>MOLECULE
NONAME
46 48 1 0 0 
SMALL
USER_CHARGES


@<TRIPOS>ATOM
  1 O       -0.7130     0.8770     1.6230 O.2   1 <1>  -0.5700 
  2 C       -1.7320     1.4020     1.2400 C.2   1 <1>   0.5690 
  3 N       -2.6690     0.6860     0.5270 N.am  1 <1>  -0.6600 
  4 C       -1.9040     2.8680     1.5700 C.3   1 <1>   0.1570 
  5 C       -2.4260    -0.7430     0.1660 C.3   1 <1>   0.1400 
  6 C       -3.9400     1.2390    -0.0300 C.3   1 <1>   0.1400 
  7 N       -1.4790     3.6390     0.4050 N.pl3 1 <1>   0.3140 
  8 C       -3.6030    -1.6290     0.6370 C.3   1 <1>   0.4230 
  9 C       -5.1100     0.3810     0.4710 C.3   1 <1>  -0.1600 
 10 N       -2.3090     4.2780    -0.4000 N.2   1 <1>  -0.4180 
 11 C       -0.2470     3.7790    -0.0760 C.2   1 <1>   0.2700 
 12 N       -3.3710    -3.1220     0.4330 N.4   1 <1>  -0.9590 
 13 C       -4.9770    -1.1260     0.1040 C.3   1 <1>   0.0000 
 14 N       -1.5780     4.7890    -1.3220 N.2   1 <1>   0.0000 
 15 N       -0.2900     4.4910    -1.1390 N.2   1 <1>  -0.3380 
 16 N        0.9150     3.2390     0.4530 N.pl3 1 <1>  -0.8840 
 17 C       -4.6200    -3.9510     0.4950 C.3   1 <1>   0.3430 
 18 C       -2.5770    -3.4950    -0.7850 C.3   1 <1>   0.2630 
 19 C       -6.1180    -1.9140     0.8140 C.3   1 <1>  -0.1600 
 20 C       -5.0610    -1.3160    -1.4380 C.3   1 <1>   0.1200 
 21 C       -5.6780    -3.2820     1.3710 C.3   1 <1>  -0.1600 
 22 O       -6.1830    -0.7020    -1.9690 O.3   1 <1>  -0.6800 
 23 H       -1.2750     3.1290     2.4000 H     1 <1>   0.0800 
 24 H       -2.9200     3.1030     1.8160 H     1 <1>   0.0800 
 25 H       -2.3010    -0.8010    -0.9000 H     1 <1>   0.0800 
 26 H       -1.5210    -1.0950     0.6290 H     1 <1>   0.0800 
 27 H       -4.0960     2.2590     0.2700 H     1 <1>   0.0800 
 28 H       -3.8980     1.2280    -1.1070 H     1 <1>   0.0800 
 29 H       -3.6480    -1.4790     1.7030 H     1 <1>   0.0800 
 30 H       -5.1620     0.4980     1.5390 H     1 <1>   0.0800 
 31 H       -6.0250     0.7860     0.0740 H     1 <1>   0.0800 
 32 H       -2.8070    -3.4100     1.2470 H     1 <1>   0.4500 
 33 H        0.8500     2.2950     0.8590 H     1 <1>   0.4000 
 34 H        1.7280     3.3340    -0.1630 H     1 <1>   0.4000 
 35 H       -5.0270    -4.0740    -0.4960 H     1 <1>   0.0800 
 36 H       -4.3920    -4.9310     0.8830 H     1 <1>   0.0800 
 37 H       -3.0910    -3.1890    -1.6820 H     1 <1>   0.0800 
 38 H       -2.4310    -4.5630    -0.8230 H     1 <1>   0.0800 
 39 H       -1.6070    -3.0250    -0.7650 H     1 <1>   0.0800 
 40 H       -6.5150    -1.3460     1.6390 H     1 <1>   0.0800 
 41 H       -6.9410    -2.0620     0.1360 H     1 <1>   0.0800 
 42 H       -5.1080    -2.3550    -1.7090 H     1 <1>   0.0800 
 43 H       -4.2140    -0.8760    -1.9330 H     1 <1>   0.0800 
 44 H       -6.5390    -3.9260     1.4410 H     1 <1>   0.0800 
 45 H       -5.2900    -3.1700     2.3690 H     1 <1>   0.0800 
 46 H       -7.0160    -1.1150    -1.6650 H     1 <1>   0.4000 
@<TRIPOS>BOND
  1   1   2  2   
  2   2   3  am  
  3   2   4  1   
  4   3   5  1   
  5   3   6  1   
  6   4   7  1   
  7   4  23  1   
  8   4  24  1   
  9   5   8  1   
 10   5  25  1   
 11   5  26  1   
 12   6   9  1   
 13   6  27  1   
 14   6  28  1   
 15   7  10  1   
 16   7  11  1   
 17   8  12  1   
 18   8  13  1   
 19   8  29  1   
 20   9  13  1   
 21   9  30  1   
 22   9  31  1   
 23  10  14  2   
 24  11  15  2   
 25  11  16  1   
 26  12  17  1   
 27  12  18  1   
 28  12  32  1   
 29  13  19  1   
 30  13  20  1   
 31  14  15  1   
 32  16  33  1   
 33  16  34  1   
 34  17  21  1   
 35  17  35  1   
 36  17  36  1   
 37  18  37  1   
 38  18  38  1   
 39  18  39  1   
 40  19  21  1   
 41  19  40  1   
 42  19  41  1   
 43  20  22  1   
 44  20  42  1   
 45  20  43  1   
 46  21  44  1   
 47  21  45  1   
 48  22  46  1   
@<TRIPOS>SUBSTRUCTURE
  1 ****   3 GROUP 4 **** **** 0

# MOE 2024.06 (io_trps.svl 2023.06)
