@<TRIPOS>MOLECULE
NONAME
54 56 1 0 0 
SMALL
USER_CHARGES


@<TRIPOS>ATOM
  1 O        0.1290     1.1330     0.8960 O.2   1 <1>  -0.5700 
  2 C        0.1120     2.2550     0.4450 C.2   1 <1>   0.5690 
  3 N       -1.0420     3.0040     0.4460 N.am  1 <1>  -0.6600 
  4 C        1.3930     2.8330    -0.1560 C.3   1 <1>   0.0440 
  5 C       -2.3170     2.4590     1.0100 C.3   1 <1>   0.1400 
  6 C       -1.2120     4.3520    -0.1630 C.3   1 <1>   0.1400 
  7 C        2.6390     1.9510    -0.0750 C.ar  1 <1>  -0.1440 
  8 C       -3.3930     2.3250    -0.0970 C.3   1 <1>   0.0000 
  9 C       -2.2470     4.2730    -1.2920 C.3   1 <1>  -0.1600 
 10 C        3.7490     2.3630     0.6440 C.ar  1 <1>  -0.1500 
 11 C        2.6830     0.7340    -0.7340 C.ar  1 <1>  -0.1500 
 12 C       -4.7190     1.7950     0.4750 C.3   1 <1>   0.2000 
 13 C       -3.5820     3.6870    -0.7990 C.3   1 <1>  -0.1600 
 14 C       -3.0130     1.2040    -1.0810 C.3   1 <1>  -0.1600 
 15 C        4.8960     1.5890     0.7120 C.ar  1 <1>   0.0830 
 16 C        3.8130    -0.0600    -0.6690 C.ar  1 <1>  -0.1500 
 17 O       -5.0110     2.3760     1.7120 O.3   1 <1>  -0.5600 
 18 C       -4.5440     0.2780     0.5950 C.3   1 <1>  -0.1600 
 19 C       -3.4360    -0.1000    -0.3990 C.3   1 <1>  -0.1600 
 20 O        5.9100     2.1400     1.4410 O.3   1 <1>  -0.3620 
 21 C        4.9290     0.3450     0.0590 C.ar  1 <1>   0.0830 
 22 C       -6.3170     2.1850     2.1570 C.3   1 <1>   0.0400 
 23 C        7.2610     1.8410     1.1700 C.3   1 <1>   0.0400 
 24 O        6.0300    -0.4580     0.1530 O.3   1 <1>  -0.3630 
 25 C        5.9420    -1.8480    -0.0690 C.3   1 <1>   0.0400 
 26 H        1.2060     3.0440    -1.1920 H     1 <1>   0.0800 
 27 H        1.5950     3.7640     0.3380 H     1 <1>   0.0800 
 28 H       -2.1490     1.5080     1.4830 H     1 <1>   0.0800 
 29 H       -2.6640     3.1340     1.7730 H     1 <1>   0.0800 
 30 H       -1.5580     5.0330     0.5970 H     1 <1>   0.0800 
 31 H       -0.2860     4.7330    -0.5510 H     1 <1>   0.0800 
 32 H       -2.4150     5.2590    -1.6870 H     1 <1>   0.0800 
 33 H       -1.8520     3.6660    -2.0870 H     1 <1>   0.0800 
 34 H        3.7420     3.3020     1.1660 H     1 <1>   0.1500 
 35 H        1.8260     0.3960    -1.2920 H     1 <1>   0.1500 
 36 H       -5.5150     2.0190    -0.2150 H     1 <1>   0.0800 
 37 H       -4.2620     3.5890    -1.6280 H     1 <1>   0.0800 
 38 H       -4.0240     4.3750    -0.0970 H     1 <1>   0.0800 
 39 H       -3.5740     1.3160    -1.9920 H     1 <1>   0.0800 
 40 H       -1.9650     1.1980    -1.3250 H     1 <1>   0.0800 
 41 H        3.7990    -0.9950    -1.1940 H     1 <1>   0.1500 
 42 H       -4.2340     0.0150     1.5920 H     1 <1>   0.0800 
 43 H       -5.4610    -0.2280     0.3550 H     1 <1>   0.0800 
 44 H       -2.5970    -0.5140     0.1370 H     1 <1>   0.0800 
 45 H       -3.7760    -0.8220    -1.1210 H     1 <1>   0.0800 
 46 H       -6.4250     2.6930     3.1000 H     1 <1>   0.0800 
 47 H       -6.5010     1.1340     2.2920 H     1 <1>   0.0800 
 48 H       -7.0020     2.6030     1.4410 H     1 <1>   0.0800 
 49 H        7.8690     2.6060     1.6170 H     1 <1>   0.0800 
 50 H        7.4100     1.8250     0.1040 H     1 <1>   0.0800 
 51 H        7.4990     0.8870     1.6040 H     1 <1>   0.0800 
 52 H        6.8670    -2.2950     0.2460 H     1 <1>   0.0800 
 53 H        5.7900    -2.0260    -1.1180 H     1 <1>   0.0800 
 54 H        5.1270    -2.2430     0.5130 H     1 <1>   0.0800 
@<TRIPOS>BOND
  1   1   2  2   
  2   2   3  am  
  3   2   4  1   
  4   3   5  1   
  5   3   6  1   
  6   4   7  1   
  7   4  26  1   
  8   4  27  1   
  9   5   8  1   
 10   5  28  1   
 11   5  29  1   
 12   6   9  1   
 13   6  30  1   
 14   6  31  1   
 15   7  10  ar  
 16   7  11  ar  
 17   8  12  1   
 18   8  13  1   
 19   8  14  1   
 20   9  13  1   
 21   9  32  1   
 22   9  33  1   
 23  10  15  ar  
 24  10  34  1   
 25  11  16  ar  
 26  11  35  1   
 27  12  17  1   
 28  12  18  1   
 29  12  36  1   
 30  13  37  1   
 31  13  38  1   
 32  14  19  1   
 33  14  39  1   
 34  14  40  1   
 35  15  20  1   
 36  15  21  ar  
 37  16  21  ar  
 38  16  41  1   
 39  17  22  1   
 40  18  19  1   
 41  18  42  1   
 42  18  43  1   
 43  19  44  1   
 44  19  45  1   
 45  20  23  1   
 46  21  24  1   
 47  22  46  1   
 48  22  47  1   
 49  22  48  1   
 50  23  49  1   
 51  23  50  1   
 52  23  51  1   
 53  24  25  1   
 54  25  52  1   
 55  25  53  1   
 56  25  54  1   
@<TRIPOS>SUBSTRUCTURE
  1 ****   2 GROUP 4 **** **** 0

# MOE 2024.06 (io_trps.svl 2023.06)
