@<TRIPOS>MOLECULE
NONAME
51 55 1 0 0 
SMALL
USER_CHARGES


@<TRIPOS>ATOM
  1 O       -0.2900     1.6210    -2.8220 O.2   1 <1>  -0.5700 
  2 C       -0.4320     2.1550    -1.7360 C.2   1 <1>   0.7150 
  3 N       -1.5780     1.8960    -1.0180 N.am  1 <1>  -0.6600 
  4 C        0.5990     3.0520    -1.2740 C.2   1 <1>  -0.2370 
  5 C       -2.1140     2.8400     0.0190 C.3   1 <1>   0.1400 
  6 C       -2.4550     0.7520    -1.4080 C.3   1 <1>   0.1400 
  7 N        1.5030     3.5720    -2.1690 N.pl3 1 <1>   0.0330 
  8 C        0.9310     3.5350    -0.0380 C.2   1 <1>  -0.1500 
  9 C       -3.6520     2.9160     0.0030 C.3   1 <1>   0.1440 
 10 C       -3.3810     0.3520    -0.2550 C.3   1 <1>  -0.1600 
 11 C        2.3790     4.3930    -1.5110 C.ar  1 <1>  -0.1520 
 12 C        2.0390     4.3900    -0.1650 C.ar  1 <1>   0.0000 
 13 C       -4.0840     3.9350     1.0470 C.ar  1 <1>   0.1670 
 14 C       -4.2610     1.5110     0.2570 C.3   1 <1>  -0.1600 
 15 C       -4.1670     3.5580    -1.3190 C.3   1 <1>  -0.1600 
 16 C        3.4560     5.1490    -1.9790 C.ar  1 <1>  -0.1500 
 17 C        2.7790     5.1580     0.7430 C.ar  1 <1>  -0.1500 
 18 N       -4.0340     3.7630     2.3470 N.ar  1 <1>  -0.6200 
 19 C       -4.5190     5.0940     0.4720 C.ar  1 <1>  -0.1440 
 20 C       -4.4430     5.0440    -1.0310 C.3   1 <1>  -0.0170 
 21 C        4.1760     5.9000    -1.0790 C.ar  1 <1>  -0.1500 
 22 C        3.8430     5.9110     0.2830 C.ar  1 <1>   0.0820 
 23 C       -4.4500     4.8060     3.0490 C.ar  1 <1>   0.7200 
 24 C       -4.9350     6.1060     1.3030 C.ar  1 <1>   0.1600 
 25 O        4.6230     6.6930     1.0790 O.3   1 <1>  -0.3630 
 26 N       -4.9100     5.9690     2.6100 N.ar  1 <1>  -0.6200 
 27 N       -4.4250     4.6590     4.3740 N.pl3 1 <1>  -0.9000 
 28 C        4.3660     6.7860     2.4620 C.3   1 <1>   0.0400 
 29 H       -1.7170     3.8270    -0.1430 H     1 <1>   0.0800 
 30 H       -1.7930     2.5040     0.9910 H     1 <1>   0.0800 
 31 H       -1.8410    -0.0890    -1.6850 H     1 <1>   0.0800 
 32 H       -3.0380     1.0330    -2.2690 H     1 <1>   0.0800 
 33 H        1.5250     3.3300    -3.1670 H     1 <1>   0.2700 
 34 H        0.4610     3.3190     0.9050 H     1 <1>   0.1500 
 35 H       -2.7640    -0.0070     0.5510 H     1 <1>   0.0800 
 36 H       -4.0070    -0.4670    -0.5640 H     1 <1>   0.0800 
 37 H       -5.2410     1.4470    -0.1820 H     1 <1>   0.0800 
 38 H       -4.3950     1.3650     1.3150 H     1 <1>   0.0800 
 39 H       -5.0950     3.1030    -1.6150 H     1 <1>   0.0800 
 40 H       -3.4710     3.4480    -2.1320 H     1 <1>   0.0800 
 41 H        3.7100     5.1390    -3.0240 H     1 <1>   0.1500 
 42 H        2.4880     5.1330     1.7740 H     1 <1>   0.1500 
 43 H       -5.3600     5.3720    -1.4880 H     1 <1>   0.0800 
 44 H       -3.6250     5.6550    -1.3730 H     1 <1>   0.0800 
 45 H        5.0100     6.4950    -1.4030 H     1 <1>   0.1500 
 46 H       -5.2890     7.0360     0.8930 H     1 <1>   0.1500 
 47 H       -5.0170     5.3050     4.8880 H     1 <1>   0.4000 
 48 H       -4.4030     3.6980     4.7000 H     1 <1>   0.4000 
 49 H        5.0920     7.4530     2.8920 H     1 <1>   0.0800 
 50 H        4.4620     5.8090     2.9020 H     1 <1>   0.0800 
 51 H        3.3760     7.1800     2.6070 H     1 <1>   0.0800 
@<TRIPOS>BOND
  1   1   2  2   
  2   2   3  am  
  3   2   4  1   
  4   3   5  1   
  5   3   6  1   
  6   4   7  1   
  7   4   8  2   
  8   5   9  1   
  9   5  29  1   
 10   5  30  1   
 11   6  10  1   
 12   6  31  1   
 13   6  32  1   
 14   7  11  1   
 15   7  33  1   
 16   8  12  1   
 17   8  34  1   
 18   9  13  1   
 19   9  14  1   
 20   9  15  1   
 21  10  14  1   
 22  10  35  1   
 23  10  36  1   
 24  11  12  ar  
 25  11  16  ar  
 26  12  17  ar  
 27  13  18  ar  
 28  13  19  ar  
 29  14  37  1   
 30  14  38  1   
 31  15  20  1   
 32  15  39  1   
 33  15  40  1   
 34  16  21  ar  
 35  16  41  1   
 36  17  22  ar  
 37  17  42  1   
 38  18  23  ar  
 39  19  20  1   
 40  19  24  ar  
 41  20  43  1   
 42  20  44  1   
 43  21  22  ar  
 44  21  45  1   
 45  22  25  1   
 46  23  26  ar  
 47  23  27  1   
 48  24  26  ar  
 49  24  46  1   
 50  25  28  1   
 51  27  47  1   
 52  27  48  1   
 53  28  49  1   
 54  28  50  1   
 55  28  51  1   
@<TRIPOS>SUBSTRUCTURE
  1 ****   5 GROUP 4 **** **** 0

# MOE 2024.06 (io_trps.svl 2023.06)
