@<TRIPOS>MOLECULE
NONAME
43 46 1 0 0 
SMALL
USER_CHARGES


@<TRIPOS>ATOM
  1 S        0.9870     1.1260    -1.3720 S.3   1 <1>  -0.0800 
  2 C       -0.5050     1.6210    -0.5870 C.2   1 <1>  -0.1400 
  3 C        0.1530    -0.1780    -2.2070 C.2   1 <1>  -0.1100 
  4 C       -1.5230     0.8390    -0.9700 C.2   1 <1>  -0.1810 
  5 C       -0.5770     2.7910     0.3890 C.3   1 <1>   0.4600 
  6 C       -1.1560    -0.1940    -1.8890 C.2   1 <1>  -0.1500 
  7 C       -2.9090     1.1000    -0.4260 C.3   1 <1>   0.0210 
  8 O       -1.8740     2.8200     0.9580 O.3   1 <1>  -0.5600 
  9 C        0.3970     2.5940     1.5560 C.3   1 <1>  -0.1600 
 10 C       -0.3110     4.1300    -0.3170 C.3   1 <1>  -0.1600 
 11 C       -2.9720     2.5400     0.1220 C.3   1 <1>   0.1200 
 12 C        0.3820     3.7850     2.5180 C.3   1 <1>   0.1400 
 13 C       -0.3360     5.2920     0.6760 C.3   1 <1>   0.1400 
 14 N        0.6610     5.0270     1.7470 N.am  1 <1>  -0.6600 
 15 C        1.7890     5.8030     1.9790 C.2   1 <1>   0.5440 
 16 O        2.3610     5.6600     3.0480 O.2   1 <1>  -0.5700 
 17 C        2.3090     6.7920     1.0260 C.ar  1 <1>   0.3960 
 18 N        2.3270     6.5280    -0.2940 N.ar  1 <1>  -0.6200 
 19 C        2.7960     8.0020     1.5220 C.ar  1 <1>  -0.1500 
 20 C        2.8150     7.4530    -1.0970 C.ar  1 <1>   0.1670 
 21 C        3.3010     8.9670     0.6790 C.ar  1 <1>  -0.1500 
 22 C        3.3060     8.6740    -0.6660 C.ar  1 <1>  -0.1500 
 23 C        2.8170     7.1100    -2.5710 C.3   1 <1>  -0.0970 
 24 H        0.7400    -0.8030    -2.8560 H     1 <1>   0.1500 
 25 H       -1.8840    -0.8920    -2.2640 H     1 <1>   0.1500 
 26 H       -3.1300     0.4000     0.3590 H     1 <1>   0.0800 
 27 H       -3.6410     0.9840    -1.2050 H     1 <1>   0.0800 
 28 H        1.3960     2.4810     1.1780 H     1 <1>   0.0800 
 29 H        0.1440     1.6930     2.0820 H     1 <1>   0.0800 
 30 H       -1.0290     4.2910    -1.0970 H     1 <1>   0.0800 
 31 H        0.6590     4.1000    -0.7790 H     1 <1>   0.0800 
 32 H       -3.8680     2.6770     0.7020 H     1 <1>   0.0800 
 33 H       -2.9750     3.2480    -0.6870 H     1 <1>   0.0800 
 34 H        1.1200     3.6360     3.2870 H     1 <1>   0.0800 
 35 H       -0.5820     3.8700     2.9910 H     1 <1>   0.0800 
 36 H       -1.3130     5.3700     1.1220 H     1 <1>   0.0800 
 37 H       -0.1320     6.2190     0.1720 H     1 <1>   0.0800 
 38 H        2.7740     8.1740     2.5830 H     1 <1>   0.1500 
 39 H        3.6780     9.9030     1.0540 H     1 <1>   0.1500 
 40 H        3.6910     9.3880    -1.3700 H     1 <1>   0.1500 
 41 H        3.4000     6.2210    -2.7310 H     1 <1>   0.0800 
 42 H        3.2330     7.9080    -3.1570 H     1 <1>   0.0800 
 43 H        1.8100     6.9250    -2.8990 H     1 <1>   0.0800 
@<TRIPOS>BOND
  1   1   2  1   
  2   1   3  1   
  3   2   4  2   
  4   2   5  1   
  5   3   6  2   
  6   3  24  1   
  7   4   6  1   
  8   4   7  1   
  9   5   8  1   
 10   5   9  1   
 11   5  10  1   
 12   6  25  1   
 13   7  11  1   
 14   7  26  1   
 15   7  27  1   
 16   8  11  1   
 17   9  12  1   
 18   9  28  1   
 19   9  29  1   
 20  10  13  1   
 21  10  30  1   
 22  10  31  1   
 23  11  32  1   
 24  11  33  1   
 25  12  14  1   
 26  12  34  1   
 27  12  35  1   
 28  13  14  1   
 29  13  36  1   
 30  13  37  1   
 31  14  15  am  
 32  15  16  2   
 33  15  17  1   
 34  17  18  ar  
 35  17  19  ar  
 36  18  20  ar  
 37  19  21  ar  
 38  19  38  1   
 39  20  22  ar  
 40  20  23  1   
 41  21  22  ar  
 42  21  39  1   
 43  22  40  1   
 44  23  41  1   
 45  23  42  1   
 46  23  43  1   
@<TRIPOS>SUBSTRUCTURE
  1 ****  10 GROUP 4 **** **** 0

# MOE 2024.06 (io_trps.svl 2023.06)
