@<TRIPOS>MOLECULE
NONAME
35 37 1 0 0 
SMALL
USER_CHARGES


@<TRIPOS>ATOM
  1 F       -0.3420    -0.8850    -0.4390 F     1 <1>  -0.1900 
  2 C       -1.5570    -1.3520    -0.3320 C.ar  1 <1>   0.1900 
  3 C       -1.7500    -2.7180    -0.3500 C.ar  1 <1>  -0.1500 
  4 C       -2.6030    -0.4570    -0.2060 C.ar  1 <1>  -0.1500 
  5 C       -3.0390    -3.2130    -0.2360 C.ar  1 <1>   0.0830 
  6 C       -3.8910    -0.9550    -0.0920 C.ar  1 <1>  -0.1500 
  7 O       -3.1750    -4.5610    -0.2590 O.3   1 <1>  -0.3630 
  8 C       -4.1100    -2.3250    -0.1070 C.ar  1 <1>  -0.1500 
  9 C       -4.4570    -5.1740    -0.2120 C.3   1 <1>   0.1810 
 10 C       -4.3930    -6.7030    -0.2620 C.2   1 <1>   0.5690 
 11 O       -3.4660    -7.2450    -0.8240 O.2   1 <1>  -0.5700 
 12 N       -5.4050    -7.4220     0.3070 N.am  1 <1>  -0.6600 
 13 C       -6.6700    -6.8690     0.8700 C.3   1 <1>   0.2350 
 14 C       -5.4890    -8.9090     0.2650 C.3   1 <1>   0.2350 
 15 C       -7.7100    -7.9500     0.6670 C.3   1 <1>  -0.2420 
 16 C       -6.9770    -9.2230     0.3180 C.3   1 <1>  -0.2420 
 17 C       -8.9480    -7.6420     1.5140 C.2   1 <1>   0.9470 
 18 C       -7.9130    -8.5960    -0.6820 C.3   1 <1>  -0.2000 
 19 C       -7.2160   -10.6630     0.7780 C.2   1 <1>   0.9470 
 20 O      -10.0530    -7.5350     0.9660 O.co2 1 <1>  -0.9000 
 21 O       -8.7890    -7.3090     2.6970 O.co2 1 <1>  -0.9000 
 22 O       -7.8080   -11.4520     0.0290 O.co2 1 <1>  -0.9000 
 23 O       -6.6790   -11.0520     1.8240 O.co2 1 <1>  -0.9000 
 24 H       -0.9180    -3.3900    -0.4500 H     1 <1>   0.1500 
 25 H       -2.4090     0.6000    -0.1970 H     1 <1>   0.1500 
 26 H       -4.7210    -0.2770     0.0080 H     1 <1>   0.1500 
 27 H       -5.1190    -2.6790    -0.0160 H     1 <1>   0.1500 
 28 H       -4.9250    -4.8680     0.7040 H     1 <1>   0.0800 
 29 H       -5.0250    -4.8260    -1.0530 H     1 <1>   0.0800 
 30 H       -6.5360    -6.6800     1.9230 H     1 <1>   0.0800 
 31 H       -6.9780    -5.9690     0.3710 H     1 <1>   0.0800 
 32 H       -5.0440    -9.3040    -0.6310 H     1 <1>   0.0800 
 33 H       -4.9900    -9.3180     1.1280 H     1 <1>   0.0800 
 34 H       -7.5150    -8.1300    -1.5620 H     1 <1>   0.1000 
 35 H       -8.8500    -9.0960    -0.8670 H     1 <1>   0.1000 
@<TRIPOS>BOND
  1   1   2  1   
  2   2   3  ar  
  3   2   4  ar  
  4   3   5  ar  
  5   3  24  1   
  6   4   6  ar  
  7   4  25  1   
  8   5   7  1   
  9   5   8  ar  
 10   6   8  ar  
 11   6  26  1   
 12   7   9  1   
 13   8  27  1   
 14   9  10  1   
 15   9  28  1   
 16   9  29  1   
 17  10  11  2   
 18  10  12  am  
 19  12  13  1   
 20  12  14  1   
 21  13  15  1   
 22  13  30  1   
 23  13  31  1   
 24  14  16  1   
 25  14  32  1   
 26  14  33  1   
 27  15  16  1   
 28  15  17  1   
 29  15  18  1   
 30  16  18  1   
 31  16  19  1   
 32  17  20  ar  
 33  17  21  ar  
 34  18  34  1   
 35  18  35  1   
 36  19  22  ar  
 37  19  23  ar  
@<TRIPOS>SUBSTRUCTURE
  1 ****  10 GROUP 4 **** **** 0

# MOE 2024.06 (io_trps.svl 2023.06)
