@<TRIPOS>MOLECULE
NONAME
60 64 1 0 0 
SMALL
USER_CHARGES


@<TRIPOS>ATOM
  1 O       -0.3300     0.2810    -0.3900 O.2   1 <1>  -0.5700 
  2 C       -1.3740     0.8790    -0.2040 C.2   1 <1>   0.5440 
  3 N       -2.5390     0.1490    -0.1030 N.am  1 <1>  -0.6600 
  4 C       -1.3730     2.3240    -0.1130 C.ar  1 <1>   0.0860 
  5 C       -3.8970     0.6990    -0.3390 C.3   1 <1>   0.1400 
  6 C       -2.5520    -1.3320    -0.2070 C.3   1 <1>   0.1400 
  7 C       -0.7000     3.1000    -1.0580 C.ar  1 <1>  -0.1500 
  8 C       -2.0330     3.0020     0.9120 C.ar  1 <1>  -0.1500 
  9 C       -4.7490    -0.5060    -0.7370 C.3   1 <1>   0.2000 
 10 C       -4.0300    -1.7230    -0.1610 C.3   1 <1>  -0.0800 
 11 C       -0.7080     4.4790    -0.9950 C.ar  1 <1>  -0.1500 
 12 C       -2.0410     4.3820     0.9770 C.ar  1 <1>  -0.1500 
 13 O       -6.0310    -0.4210    -0.2150 O.3   1 <1>  -0.6800 
 14 C       -4.3560    -3.0210    -0.9180 C.3   1 <1>  -0.0170 
 15 C       -1.3820     5.1500     0.0210 C.ar  1 <1>   0.1000 
 16 C       -3.6460    -4.2140    -0.3010 C.ar  1 <1>   0.1670 
 17 N       -1.3900     6.5380     0.0790 N.pl3 1 <1>  -0.8380 
 18 N       -2.4460    -4.4760    -0.7180 N.ar  1 <1>  -0.6200 
 19 C       -4.3070    -4.9630     0.6850 C.ar  1 <1>  -0.1500 
 20 C       -0.1470     7.3160    -0.1960 C.3   1 <1>   0.2090 
 21 C       -2.6070     7.2860     0.5060 C.3   1 <1>   0.2090 
 22 C       -1.7980    -5.5310    -0.1610 C.ar  1 <1>   0.3100 
 23 C       -3.6830    -6.0290     1.2580 C.ar  1 <1>  -0.1500 
 24 C       -0.1380     8.6070     0.6290 C.3   1 <1>  -0.1600 
 25 C       -2.5950     8.6950    -0.0940 C.3   1 <1>  -0.1600 
 26 C       -2.3800    -6.3430     0.8360 C.ar  1 <1>   0.0000 
 27 C       -0.4940    -5.8290    -0.5880 C.ar  1 <1>  -0.1500 
 28 C       -1.3550     9.5030     0.3320 C.3   1 <1>  -0.1600 
 29 C       -1.6390    -7.4200     1.3620 C.ar  1 <1>  -0.1500 
 30 C        0.2110    -6.8800    -0.0640 C.ar  1 <1>  -0.1500 
 31 C       -0.3700    -7.6840     0.9220 C.ar  1 <1>  -0.1500 
 32 H       -4.2630     1.1410     0.5710 H     1 <1>   0.0800 
 33 H       -3.8780     1.4310    -1.1280 H     1 <1>   0.0800 
 34 H       -2.1040    -1.6240    -1.1420 H     1 <1>   0.0800 
 35 H       -1.9960    -1.7780     0.6010 H     1 <1>   0.0800 
 36 H       -0.1680     2.6010    -1.8490 H     1 <1>   0.1500 
 37 H       -2.5370     2.4320     1.6720 H     1 <1>   0.1500 
 38 H       -4.8200    -0.5640    -1.8100 H     1 <1>   0.0800 
 39 H       -4.2940    -1.8390     0.8760 H     1 <1>   0.0800 
 40 H       -0.1930     5.0500    -1.7440 H     1 <1>   0.1500 
 41 H       -2.5500     4.8760     1.7820 H     1 <1>   0.1500 
 42 H       -5.9980    -0.3860     0.7600 H     1 <1>   0.4000 
 43 H       -4.0570    -2.9300    -1.9470 H     1 <1>   0.0800 
 44 H       -5.4180    -3.1890    -0.9030 H     1 <1>   0.0800 
 45 H       -5.3030    -4.6850     0.9780 H     1 <1>   0.1500 
 46 H        0.7130     6.7180     0.0530 H     1 <1>   0.0800 
 47 H       -0.1070     7.5550    -1.2450 H     1 <1>   0.0800 
 48 H       -3.4850     6.7560     0.1770 H     1 <1>   0.0800 
 49 H       -2.6240     7.3480     1.5800 H     1 <1>   0.0800 
 50 H       -4.1570    -6.6280     2.0150 H     1 <1>   0.1500 
 51 H       -0.1370     8.3320     1.6690 H     1 <1>   0.0800 
 52 H        0.7690     9.1520     0.4380 H     1 <1>   0.0800 
 53 H       -2.6110     8.5960    -1.1650 H     1 <1>   0.0800 
 54 H       -3.4870     9.2200     0.1960 H     1 <1>   0.0800 
 55 H       -0.0660    -5.1980    -1.3460 H     1 <1>   0.1500 
 56 H       -1.1110    10.1970    -0.4540 H     1 <1>   0.0800 
 57 H       -1.5810    10.0770     1.2140 H     1 <1>   0.0800 
 58 H       -2.0900    -8.0330     2.1210 H     1 <1>   0.1500 
 59 H        1.2100    -7.0970    -0.4010 H     1 <1>   0.1500 
 60 H        0.1950    -8.5070     1.3260 H     1 <1>   0.1500 
@<TRIPOS>BOND
  1   1   2  2   
  2   2   3  am  
  3   2   4  1   
  4   3   5  1   
  5   3   6  1   
  6   4   7  ar  
  7   4   8  ar  
  8   5   9  1   
  9   5  32  1   
 10   5  33  1   
 11   6  10  1   
 12   6  34  1   
 13   6  35  1   
 14   7  11  ar  
 15   7  36  1   
 16   8  12  ar  
 17   8  37  1   
 18   9  10  1   
 19   9  13  1   
 20   9  38  1   
 21  10  14  1   
 22  10  39  1   
 23  11  15  ar  
 24  11  40  1   
 25  12  15  ar  
 26  12  41  1   
 27  13  42  1   
 28  14  16  1   
 29  14  43  1   
 30  14  44  1   
 31  15  17  1   
 32  16  18  ar  
 33  16  19  ar  
 34  17  20  1   
 35  17  21  1   
 36  18  22  ar  
 37  19  23  ar  
 38  19  45  1   
 39  20  24  1   
 40  20  46  1   
 41  20  47  1   
 42  21  25  1   
 43  21  48  1   
 44  21  49  1   
 45  22  26  ar  
 46  22  27  ar  
 47  23  26  ar  
 48  23  50  1   
 49  24  28  1   
 50  24  51  1   
 51  24  52  1   
 52  25  28  1   
 53  25  53  1   
 54  25  54  1   
 55  26  29  ar  
 56  27  30  ar  
 57  27  55  1   
 58  28  56  1   
 59  28  57  1   
 60  29  31  ar  
 61  29  58  1   
 62  30  31  ar  
 63  30  59  1   
 64  31  60  1   
@<TRIPOS>SUBSTRUCTURE
  1 ****   3 GROUP 4 **** **** 0

# MOE 2024.06 (io_trps.svl 2023.06)
