@<TRIPOS>MOLECULE
NONAME
49 52 1 0 0 
SMALL
USER_CHARGES


@<TRIPOS>ATOM
  1 S        0.2290     0.2180     1.6450 S.o2  1 <1>   1.4470 
  2 O       -0.2920     1.3960     2.3010 O.2   1 <1>  -0.6500 
  3 O        0.8700    -0.8220     2.4180 O.2   1 <1>  -0.6500 
  4 N        1.4310     0.8040     0.5960 N.am  1 <1>  -0.8490 
  5 C       -1.0350    -0.4750     0.5430 C.ar  1 <1>  -0.0090 
  6 C        2.4580     1.5260     1.3890 C.3   1 <1>   0.1960 
  7 C        2.0510    -0.2680    -0.1990 C.3   1 <1>   0.1960 
  8 C       -1.1680    -1.8500     0.3750 C.ar  1 <1>  -0.1500 
  9 C       -1.8880     0.3530    -0.1800 C.ar  1 <1>  -0.1500 
 10 C        3.4930     2.3600     0.5790 C.3   1 <1>   0.4230 
 11 C        2.9100     0.2860    -1.3570 C.3   1 <1>  -0.0800 
 12 C       -2.1140    -2.3870    -0.4820 C.ar  1 <1>  -0.1440 
 13 C       -2.8390    -0.1700    -1.0370 C.ar  1 <1>  -0.1500 
 14 N        3.0230     2.8120    -0.7920 N.4   1 <1>  -0.9590 
 15 C        4.8740     1.6700     0.5170 C.3   1 <1>   0.1200 
 16 C        4.4170     0.0610    -1.1680 C.3   1 <1>   0.1200 
 17 C        2.5460     1.7320    -1.7290 C.3   1 <1>   0.3430 
 18 C       -2.9630    -1.5430    -1.1920 C.ar  1 <1>   0.1170 
 19 C       -2.2260    -3.8980    -0.6710 C.3   1 <1>  -0.0170 
 20 C        1.9270     3.8200    -0.6350 C.3   1 <1>   0.2630 
 21 O        4.7960     0.3330     0.1400 O.3   1 <1>  -0.5600 
 22 N       -3.9280    -2.0920    -2.0350 N.am  1 <1>  -0.5470 
 23 C       -3.6670    -4.3170    -1.0040 C.3   1 <1>  -0.0990 
 24 C       -4.2910    -3.3990    -2.0380 C.2   1 <1>   0.5690 
 25 O       -5.0980    -3.8230    -2.8240 O.2   1 <1>  -0.5700 
 26 H        1.9630     2.2220     2.0440 H     1 <1>   0.0800 
 27 H        2.9760     0.8300     2.0310 H     1 <1>   0.0800 
 28 H        2.6310    -0.9220     0.4350 H     1 <1>   0.0800 
 29 H        1.2730    -0.8700    -0.6380 H     1 <1>   0.0800 
 30 H       -0.5190    -2.5090     0.9280 H     1 <1>   0.1500 
 31 H       -1.8120     1.4210    -0.0600 H     1 <1>   0.1500 
 32 H        3.6660     3.2520     1.1580 H     1 <1>   0.0800 
 33 H        2.6490    -0.3010    -2.2200 H     1 <1>   0.0800 
 34 H       -3.4950     0.4870    -1.5810 H     1 <1>   0.1500 
 35 H        3.8210     3.2750    -1.2430 H     1 <1>   0.4500 
 36 H        5.3080     1.6780     1.5010 H     1 <1>   0.0800 
 37 H        5.5470     2.1860    -0.1450 H     1 <1>   0.0800 
 38 H        5.0110     0.6510    -1.8460 H     1 <1>   0.0800 
 39 H        4.6470    -0.9770    -1.3390 H     1 <1>   0.0800 
 40 H        1.4710     1.7770    -1.7920 H     1 <1>   0.0800 
 41 H        2.9280     1.9390    -2.7150 H     1 <1>   0.0800 
 42 H       -1.5820    -4.1860    -1.4830 H     1 <1>   0.0800 
 43 H       -1.8980    -4.4150     0.2150 H     1 <1>   0.0800 
 44 H        1.0720     3.3650    -0.1600 H     1 <1>   0.0800 
 45 H        1.6240     4.2000    -1.5970 H     1 <1>   0.0800 
 46 H        2.2580     4.6470    -0.0280 H     1 <1>   0.0800 
 47 H       -4.4280    -1.5020    -2.6990 H     1 <1>   0.3700 
 48 H       -4.2700    -4.2660    -0.1160 H     1 <1>   0.0800 
 49 H       -3.6840    -5.3280    -1.3660 H     1 <1>   0.0800 
@<TRIPOS>BOND
  1   1   2  2   
  2   1   3  2   
  3   1   4  am  
  4   1   5  1   
  5   4   6  1   
  6   4   7  1   
  7   5   8  ar  
  8   5   9  ar  
  9   6  10  1   
 10   6  26  1   
 11   6  27  1   
 12   7  11  1   
 13   7  28  1   
 14   7  29  1   
 15   8  12  ar  
 16   8  30  1   
 17   9  13  ar  
 18   9  31  1   
 19  10  14  1   
 20  10  15  1   
 21  10  32  1   
 22  11  16  1   
 23  11  17  1   
 24  11  33  1   
 25  12  18  ar  
 26  12  19  1   
 27  13  18  ar  
 28  13  34  1   
 29  14  17  1   
 30  14  20  1   
 31  14  35  1   
 32  15  21  1   
 33  15  36  1   
 34  15  37  1   
 35  16  21  1   
 36  16  38  1   
 37  16  39  1   
 38  17  40  1   
 39  17  41  1   
 40  18  22  1   
 41  19  23  1   
 42  19  42  1   
 43  19  43  1   
 44  20  44  1   
 45  20  45  1   
 46  20  46  1   
 47  22  24  am  
 48  22  47  1   
 49  23  24  1   
 50  23  48  1   
 51  23  49  1   
 52  24  25  2   
@<TRIPOS>SUBSTRUCTURE
  1 ****   5 GROUP 4 **** **** 0

# MOE 2024.06 (io_trps.svl 2023.06)
