@<TRIPOS>MOLECULE
NONAME
40 42 1 0 0 
SMALL
USER_CHARGES


@<TRIPOS>ATOM
  1 O       -1.4360    -0.2500     1.4070 O.2   1 <1>  -0.5700 
  2 C       -1.8590     0.5920     0.6320 C.2   1 <1>   0.7150 
  3 N       -2.8370     0.2070    -0.2690 N.am  1 <1>  -0.6600 
  4 C       -1.3160     1.9350     0.7060 C.2   1 <1>   0.0550 
  5 C       -3.0610    -1.2350    -0.6120 C.3   1 <1>   0.1400 
  6 C       -3.8160     1.1490    -0.8820 C.3   1 <1>   0.1400 
  7 O       -1.3630     2.7890    -0.3170 O.3   1 <1>  -0.2800 
  8 C       -0.6670     2.5470     1.7360 C.2   1 <1>  -0.1500 
  9 C       -4.4920    -1.6800    -0.2710 C.3   1 <1>   0.2890 
 10 C       -5.2470     0.7180    -0.5370 C.3   1 <1>  -0.1600 
 11 C       -0.7760     3.9100     0.0350 C.2   1 <1>  -0.0100 
 12 C       -0.3210     3.8270     1.3020 C.2   1 <1>  -0.1500 
 13 N       -4.7370    -3.0530    -0.7740 N.pl3 1 <1>  -0.8690 
 14 C       -5.5200    -0.7460    -0.9160 C.3   1 <1>  -0.1600 
 15 C       -5.3470    -4.0210     0.0130 C.ar  1 <1>   0.4100 
 16 N       -6.2680    -3.5920     0.8630 N.ar  1 <1>  -0.6200 
 17 C       -4.9920    -5.3940    -0.1100 C.ar  1 <1>   0.3930 
 18 C       -6.8070    -4.5790     1.5630 C.ar  1 <1>   0.1600 
 19 O       -4.0210    -5.7170    -1.0120 O.3   1 <1>  -0.3630 
 20 N       -5.5390    -6.3710     0.5990 N.ar  1 <1>  -0.6200 
 21 C       -6.4590    -5.9140     1.4380 C.ar  1 <1>   0.1600 
 22 C       -3.6250    -7.0630    -1.1940 C.3   1 <1>   0.0400 
 23 H       -2.3640    -1.8620    -0.0840 H     1 <1>   0.0800 
 24 H       -2.8940    -1.3590    -1.6670 H     1 <1>   0.0800 
 25 H       -3.6780     1.1520    -1.9500 H     1 <1>   0.0800 
 26 H       -3.6680     2.1500    -0.5190 H     1 <1>   0.0800 
 27 H       -0.4520     2.1290     2.7040 H     1 <1>   0.1500 
 28 H       -4.6050    -1.6580     0.8010 H     1 <1>   0.0800 
 29 H       -5.9430     1.3570    -1.0510 H     1 <1>   0.0800 
 30 H       -5.4040     0.8500     0.5200 H     1 <1>   0.0800 
 31 H       -0.7220     4.7190    -0.6740 H     1 <1>   0.1500 
 32 H        0.2010     4.5690     1.8800 H     1 <1>   0.1500 
 33 H       -3.9760    -3.4350    -1.3410 H     1 <1>   0.4000 
 34 H       -6.5050    -1.0270    -0.5860 H     1 <1>   0.0800 
 35 H       -5.4760    -0.8520    -1.9850 H     1 <1>   0.0800 
 36 H       -7.5670    -4.3080     2.2750 H     1 <1>   0.1500 
 37 H       -6.9580    -6.6400     2.0550 H     1 <1>   0.1500 
 38 H       -2.8590    -7.0920    -1.9470 H     1 <1>   0.0800 
 39 H       -4.4790    -7.6370    -1.5120 H     1 <1>   0.0800 
 40 H       -3.2440    -7.4430    -0.2630 H     1 <1>   0.0800 
@<TRIPOS>BOND
  1   1   2  2   
  2   2   3  am  
  3   2   4  1   
  4   3   5  1   
  5   3   6  1   
  6   4   7  1   
  7   4   8  2   
  8   5   9  1   
  9   5  23  1   
 10   5  24  1   
 11   6  10  1   
 12   6  25  1   
 13   6  26  1   
 14   7  11  1   
 15   8  12  1   
 16   8  27  1   
 17   9  13  1   
 18   9  14  1   
 19   9  28  1   
 20  10  14  1   
 21  10  29  1   
 22  10  30  1   
 23  11  12  2   
 24  11  31  1   
 25  12  32  1   
 26  13  15  1   
 27  13  33  1   
 28  14  34  1   
 29  14  35  1   
 30  15  16  ar  
 31  15  17  ar  
 32  16  18  ar  
 33  17  19  1   
 34  17  20  ar  
 35  18  21  ar  
 36  18  36  1   
 37  19  22  1   
 38  20  21  ar  
 39  21  37  1   
 40  22  38  1   
 41  22  39  1   
 42  22  40  1   
@<TRIPOS>SUBSTRUCTURE
  1 ****   9 GROUP 4 **** **** 0

# MOE 2024.06 (io_trps.svl 2023.06)
