@<TRIPOS>MOLECULE
NONAME
45 48 1 0 0 
SMALL
USER_CHARGES


@<TRIPOS>ATOM
  1 S        0.5640    -0.1380    -0.2730 S.3   1 <1>  -0.0800 
  2 C       -0.4670    -1.3820     0.3800 C.2   1 <1>   0.1240 
  3 C       -0.8160     0.9600    -0.4970 C.2   1 <1>  -0.0450 
  4 N       -0.0540    -2.6030     0.7920 N.pl3 1 <1>  -0.5340 
  5 C       -1.7650    -0.9950     0.4350 C.2   1 <1>  -0.0860 
  6 C       -1.9520     0.3350    -0.0770 C.2   1 <1>  -0.1810 
  7 C       -0.5710     2.2520    -1.0850 C.2   1 <1>   0.7150 
  8 C       -0.9870    -3.4710     1.2830 C.2   1 <1>   0.4400 
  9 C       -2.6820    -1.9620     0.9730 C.2   1 <1>   0.8670 
 10 C       -3.3430     0.9530    -0.1390 C.3   1 <1>  -0.0590 
 11 O       -1.1910     2.5790    -2.0790 O.2   1 <1>  -0.5700 
 12 N        0.3510     3.1530    -0.5760 N.am  1 <1>  -0.6600 
 13 N       -2.2360    -3.1980     1.3860 N.2   1 <1>  -0.6610 
 14 O       -3.8730    -1.7230     1.0910 O.2   1 <1>  -0.5700 
 15 C        0.9210     3.0140     0.8170 C.3   1 <1>   0.2200 
 16 C        0.5890     4.4260    -1.3360 C.3   1 <1>   0.1400 
 17 C        0.5880     4.2160     1.7170 C.3   1 <1>   0.1200 
 18 C        2.4480     2.7570     0.7760 C.3   1 <1>   0.3430 
 19 C        1.7400     5.3130    -0.8250 C.3   1 <1>  -0.0800 
 20 O        1.5430     5.2220     1.5720 O.3   1 <1>  -0.5600 
 21 N        3.0750     3.1520    -0.5350 N.4   1 <1>  -0.9590 
 22 C        1.3780     6.0500     0.4720 C.3   1 <1>   0.1200 
 23 C        3.1220     4.6350    -0.7400 C.3   1 <1>   0.3430 
 24 C        4.4270     2.5430    -0.7000 C.3   1 <1>   0.2630 
 25 H        0.9240    -2.8910     0.7180 H     1 <1>   0.4000 
 26 H       -0.6290    -4.4360     1.5980 H     1 <1>   0.0600 
 27 H       -3.9830     0.3510    -0.7590 H     1 <1>   0.0800 
 28 H       -3.3150     1.9460    -0.5520 H     1 <1>   0.0800 
 29 H       -3.7720     1.0050     0.8460 H     1 <1>   0.0800 
 30 H        0.4630     2.1720     1.3020 H     1 <1>   0.0800 
 31 H        0.7830     4.1720    -2.3660 H     1 <1>   0.0800 
 32 H       -0.3250     4.9990    -1.3300 H     1 <1>   0.0800 
 33 H        0.6300     3.9060     2.7480 H     1 <1>   0.0800 
 34 H       -0.3980     4.6030     1.5240 H     1 <1>   0.0800 
 35 H        2.6060     1.7040     0.9370 H     1 <1>   0.0800 
 36 H        2.9240     3.2810     1.5890 H     1 <1>   0.0800 
 37 H        1.8420     6.0960    -1.5550 H     1 <1>   0.0800 
 38 H        2.4310     2.7810    -1.2540 H     1 <1>   0.4500 
 39 H        0.3670     6.4240     0.4550 H     1 <1>   0.0800 
 40 H        2.0390     6.8880     0.6130 H     1 <1>   0.0800 
 41 H        3.6890     5.0930     0.0560 H     1 <1>   0.0800 
 42 H        3.6430     4.8330    -1.6630 H     1 <1>   0.0800 
 43 H        5.1000     2.9180     0.0540 H     1 <1>   0.0800 
 44 H        4.8290     2.7820    -1.6720 H     1 <1>   0.0800 
 45 H        4.3690     1.4700    -0.6100 H     1 <1>   0.0800 
@<TRIPOS>BOND
  1   1   2  1   
  2   1   3  1   
  3   2   4  1   
  4   2   5  2   
  5   3   6  2   
  6   3   7  1   
  7   4   8  1   
  8   4  25  1   
  9   5   6  1   
 10   5   9  1   
 11   6  10  1   
 12   7  11  2   
 13   7  12  am  
 14   8  13  2   
 15   8  26  1   
 16   9  13  1   
 17   9  14  2   
 18  10  27  1   
 19  10  28  1   
 20  10  29  1   
 21  12  15  1   
 22  12  16  1   
 23  15  17  1   
 24  15  18  1   
 25  15  30  1   
 26  16  19  1   
 27  16  31  1   
 28  16  32  1   
 29  17  20  1   
 30  17  33  1   
 31  17  34  1   
 32  18  21  1   
 33  18  35  1   
 34  18  36  1   
 35  19  22  1   
 36  19  23  1   
 37  19  37  1   
 38  20  22  1   
 39  21  23  1   
 40  21  24  1   
 41  21  38  1   
 42  22  39  1   
 43  22  40  1   
 44  23  41  1   
 45  23  42  1   
 46  24  43  1   
 47  24  44  1   
 48  24  45  1   
@<TRIPOS>SUBSTRUCTURE
  1 ****   3 GROUP 4 **** **** 0

# MOE 2024.06 (io_trps.svl 2023.06)
