@<TRIPOS>MOLECULE
NONAME
52 56 1 0 0 
SMALL
USER_CHARGES


@<TRIPOS>ATOM
  1 S       -1.6720     1.2530     1.2850 S.3   1 <1>  -0.0800 
  2 C       -1.0300     2.5560     0.2960 C.2   1 <1>  -0.1400 
  3 C       -3.2350     1.3740     0.4870 C.2   1 <1>  -0.1100 
  4 C       -1.9670     3.0210    -0.5400 C.2   1 <1>  -0.1810 
  5 C        0.4060     3.0570     0.4230 C.3   1 <1>   0.4600 
  6 C       -3.2260     2.3470    -0.4440 C.2   1 <1>  -0.1500 
  7 C       -1.6350     4.1660    -1.4690 C.3   1 <1>   0.0210 
  8 O        0.6450     3.9770    -0.6290 O.3   1 <1>  -0.5600 
  9 C        1.3870     1.9020     0.2000 C.3   1 <1>  -0.1600 
 10 C        0.6320     3.7780     1.7670 C.3   1 <1>  -0.1600 
 11 C       -0.3820     4.8910    -0.9410 C.3   1 <1>   0.1200 
 12 C        2.8170     2.3380     0.5030 C.3   1 <1>   0.2090 
 13 C        1.6850     3.0980     2.6470 C.3   1 <1>   0.2090 
 14 N        2.9530     2.8730     1.8910 N.pl3 1 <1>  -0.8380 
 15 C        3.9490     3.8180     2.0530 C.ar  1 <1>   0.4100 
 16 N        3.6270     5.0520     1.7200 N.ar  1 <1>  -0.6200 
 17 C        5.2290     3.4670     2.5030 C.ar  1 <1>   0.1600 
 18 C        4.6380     5.9280     1.7970 C.ar  1 <1>   0.3960 
 19 N        6.2400     4.3050     2.6250 N.ar  1 <1>  -0.6200 
 20 C        4.4400     7.3230     1.3970 C.2   1 <1>   0.5440 
 21 C        5.8990     5.5350     2.2580 C.ar  1 <1>   0.1600 
 22 O        5.1060     8.1870     1.9430 O.2   1 <1>  -0.5700 
 23 N        3.5410     7.7320     0.4200 N.am  1 <1>  -0.6600 
 24 C        3.0790     9.1520     0.3220 C.3   1 <1>   0.1400 
 25 C        2.8230     6.8020    -0.5110 C.3   1 <1>   0.1400 
 26 C        2.9200     9.5950    -1.1410 C.3   1 <1>   0.1200 
 27 C        2.6650     7.4070    -1.9150 C.3   1 <1>   0.1200 
 28 O        2.1190     8.6910    -1.8470 O.3   1 <1>  -0.5600 
 29 H       -4.0050     0.6940     0.8040 H     1 <1>   0.1500 
 30 H       -4.0550     2.6230    -1.0720 H     1 <1>   0.1500 
 31 H       -2.4560     4.8590    -1.5110 H     1 <1>   0.0800 
 32 H       -1.4530     3.7920    -2.4600 H     1 <1>   0.0800 
 33 H        1.3100     1.5640    -0.8170 H     1 <1>   0.0800 
 34 H        1.1420     1.0720     0.8340 H     1 <1>   0.0800 
 35 H       -0.2880     3.8180     2.3180 H     1 <1>   0.0800 
 36 H        0.9450     4.7900     1.5950 H     1 <1>   0.0800 
 37 H       -0.6210     5.4510    -0.0530 H     1 <1>   0.0800 
 38 H       -0.0060     5.5700    -1.6860 H     1 <1>   0.0800 
 39 H        3.1090     3.0980    -0.2040 H     1 <1>   0.0800 
 40 H        3.4810     1.4990     0.3840 H     1 <1>   0.0800 
 41 H        1.3140     2.1500     2.9970 H     1 <1>   0.0800 
 42 H        1.8820     3.7130     3.5100 H     1 <1>   0.0800 
 43 H        5.3910     2.4380     2.7630 H     1 <1>   0.1500 
 44 H        6.6670     6.2860     2.3210 H     1 <1>   0.1500 
 45 H        3.7740     9.8120     0.8120 H     1 <1>   0.0800 
 46 H        2.1310     9.2440     0.8210 H     1 <1>   0.0800 
 47 H        1.8520     6.5800    -0.1050 H     1 <1>   0.0800 
 48 H        3.3600     5.8770    -0.6110 H     1 <1>   0.0800 
 49 H        3.8800     9.6610    -1.6220 H     1 <1>   0.0800 
 50 H        2.4450    10.5590    -1.1850 H     1 <1>   0.0800 
 51 H        2.0060     6.7980    -2.5070 H     1 <1>   0.0800 
 52 H        3.6190     7.4630    -2.4100 H     1 <1>   0.0800 
@<TRIPOS>BOND
  1   1   2  1   
  2   1   3  1   
  3   2   4  2   
  4   2   5  1   
  5   3   6  2   
  6   3  29  1   
  7   4   6  1   
  8   4   7  1   
  9   5   8  1   
 10   5   9  1   
 11   5  10  1   
 12   6  30  1   
 13   7  11  1   
 14   7  31  1   
 15   7  32  1   
 16   8  11  1   
 17   9  12  1   
 18   9  33  1   
 19   9  34  1   
 20  10  13  1   
 21  10  35  1   
 22  10  36  1   
 23  11  37  1   
 24  11  38  1   
 25  12  14  1   
 26  12  39  1   
 27  12  40  1   
 28  13  14  1   
 29  13  41  1   
 30  13  42  1   
 31  14  15  1   
 32  15  16  ar  
 33  15  17  ar  
 34  16  18  ar  
 35  17  19  ar  
 36  17  43  1   
 37  18  20  1   
 38  18  21  ar  
 39  19  21  ar  
 40  20  22  2   
 41  20  23  am  
 42  21  44  1   
 43  23  24  1   
 44  23  25  1   
 45  24  26  1   
 46  24  45  1   
 47  24  46  1   
 48  25  27  1   
 49  25  47  1   
 50  25  48  1   
 51  26  28  1   
 52  26  49  1   
 53  26  50  1   
 54  27  28  1   
 55  27  51  1   
 56  27  52  1   
@<TRIPOS>SUBSTRUCTURE
  1 ****   8 GROUP 4 **** **** 0

# MOE 2024.06 (io_trps.svl 2023.06)
