@<TRIPOS>MOLECULE
NONAME
48 51 1 0 0 
SMALL
USER_CHARGES


@<TRIPOS>ATOM
  1 O       -1.2480     0.5850    -3.1630 O.2   1 <1>  -0.5700 
  2 C       -1.9980     1.0420    -2.3150 C.2   1 <1>   0.5440 
  3 N       -3.2460     0.4540    -2.1850 N.am  1 <1>  -0.6600 
  4 C       -1.5440     2.1800    -1.5050 C.ar  1 <1>   0.3960 
  5 C       -4.3670     1.0110    -1.3720 C.3   1 <1>   0.1400 
  6 C       -3.4980    -0.9610    -2.5890 C.3   1 <1>   0.1400 
  7 N       -1.8360     2.2440    -0.1910 N.ar  1 <1>  -0.6200 
  8 C       -0.7950     3.1820    -2.1220 C.ar  1 <1>  -0.1500 
  9 C       -4.5950     0.1320    -0.1310 C.3   1 <1>   0.1900 
 10 C       -3.8040    -1.8240    -1.3500 C.3   1 <1>   0.1100 
 11 C       -1.3940     3.2850     0.4840 C.ar  1 <1>   0.1670 
 12 C       -0.3380     4.2700    -1.4120 C.ar  1 <1>  -0.1500 
 13 N       -4.9140    -1.2620    -0.5410 N.3   1 <1>  -0.8100 
 14 C       -5.7200     0.7140     0.7460 C.3   1 <1>   0.1200 
 15 C       -0.6520     4.3130    -0.0730 C.ar  1 <1>  -0.1500 
 16 C       -1.7450     3.3120     1.9570 C.3   1 <1>  -0.0970 
 17 C       -5.1920    -2.0810     0.6610 C.3   1 <1>   0.3330 
 18 O       -5.9430    -0.0970     1.8650 O.3   1 <1>  -0.5600 
 19 C       -5.6440    -3.4900     0.2770 C.ar  1 <1>  -0.1430 
 20 C       -6.2810    -1.4180     1.5330 C.3   1 <1>   0.1200 
 21 C       -6.6160    -3.6860    -0.6950 C.ar  1 <1>  -0.1500 
 22 C       -5.0880    -4.5950     0.9050 C.ar  1 <1>  -0.1500 
 23 C       -7.0270    -4.9640    -1.0330 C.ar  1 <1>  -0.1500 
 24 C       -5.4970    -5.8740     0.5690 C.ar  1 <1>  -0.1500 
 25 C       -6.4670    -6.0590    -0.4000 C.ar  1 <1>  -0.1500 
 26 H       -4.1640     2.0250    -1.0800 H     1 <1>   0.0800 
 27 H       -5.2620     1.0180    -1.9690 H     1 <1>   0.0800 
 28 H       -4.3350    -0.9940    -3.2630 H     1 <1>   0.0800 
 29 H       -2.6440    -1.3680    -3.1010 H     1 <1>   0.0800 
 30 H       -0.5720     3.0920    -3.1710 H     1 <1>   0.1500 
 31 H       -3.6880     0.1410     0.4510 H     1 <1>   0.0800 
 32 H       -2.9140    -1.8970    -0.7500 H     1 <1>   0.0800 
 33 H       -4.0620    -2.8140    -1.6830 H     1 <1>   0.0800 
 34 H        0.2400     5.0470    -1.8820 H     1 <1>   0.1500 
 35 H       -6.6370     0.7880     0.1870 H     1 <1>   0.0800 
 36 H       -5.4460     1.6910     1.1010 H     1 <1>   0.0800 
 37 H       -0.3200     5.1390     0.5300 H     1 <1>   0.1500 
 38 H       -1.3530     4.1910     2.4350 H     1 <1>   0.0800 
 39 H       -1.3350     2.4430     2.4390 H     1 <1>   0.0800 
 40 H       -2.8130     3.3000     2.0740 H     1 <1>   0.0800 
 41 H       -4.2940    -2.1510     1.2520 H     1 <1>   0.0800 
 42 H       -6.4010    -1.9670     2.4490 H     1 <1>   0.0800 
 43 H       -7.2210    -1.4090     1.0110 H     1 <1>   0.0800 
 44 H       -7.0490    -2.8360    -1.1940 H     1 <1>   0.1500 
 45 H       -4.3330    -4.4670     1.6610 H     1 <1>   0.1500 
 46 H       -7.7800    -5.1040    -1.7880 H     1 <1>   0.1500 
 47 H       -5.0610    -6.7260     1.0610 H     1 <1>   0.1500 
 48 H       -6.7850    -7.0530    -0.6620 H     1 <1>   0.1500 
@<TRIPOS>BOND
  1   1   2  2   
  2   2   3  am  
  3   2   4  1   
  4   3   5  1   
  5   3   6  1   
  6   4   7  ar  
  7   4   8  ar  
  8   5   9  1   
  9   5  26  1   
 10   5  27  1   
 11   6  10  1   
 12   6  28  1   
 13   6  29  1   
 14   7  11  ar  
 15   8  12  ar  
 16   8  30  1   
 17   9  13  1   
 18   9  14  1   
 19   9  31  1   
 20  10  13  1   
 21  10  32  1   
 22  10  33  1   
 23  11  15  ar  
 24  11  16  1   
 25  12  15  ar  
 26  12  34  1   
 27  13  17  1   
 28  14  18  1   
 29  14  35  1   
 30  14  36  1   
 31  15  37  1   
 32  16  38  1   
 33  16  39  1   
 34  16  40  1   
 35  17  19  1   
 36  17  20  1   
 37  17  41  1   
 38  18  20  1   
 39  19  21  ar  
 40  19  22  ar  
 41  20  42  1   
 42  20  43  1   
 43  21  23  ar  
 44  21  44  1   
 45  22  24  ar  
 46  22  45  1   
 47  23  25  ar  
 48  23  46  1   
 49  24  25  ar  
 50  24  47  1   
 51  25  48  1   
@<TRIPOS>SUBSTRUCTURE
  1 ****   9 GROUP 4 **** **** 0

# MOE 2024.06 (io_trps.svl 2023.06)
