@<TRIPOS>MOLECULE
NONAME
49 52 1 0 0 
SMALL
USER_CHARGES


@<TRIPOS>ATOM
  1 O        4.7750    -0.8030     0.9130 O.3   1 <1>  -0.6800 
  2 C        3.6170    -0.7750     0.1600 C.3   1 <1>   0.2000 
  3 C        3.9990    -1.1610    -1.2770 C.3   1 <1>  -0.0800 
  4 C        3.0810     0.6570     0.0830 C.3   1 <1>   0.3430 
  5 C        3.5760     0.0320    -2.1350 C.3   1 <1>   0.3430 
  6 C        3.3960    -2.5070    -1.7150 C.3   1 <1>   0.0210 
  7 N        3.5790     1.2030    -1.2160 N.4   1 <1>  -0.9590 
  8 C        3.8600    -3.6580    -0.8330 C.2   1 <1>   0.1080 
  9 C        4.9480     1.7470    -1.0310 C.3   1 <1>   0.5230 
 10 N        4.8390    -3.5820     0.0210 N.2   1 <1>  -0.7070 
 11 C        3.2810    -4.9220    -0.8530 C.2   1 <1>  -0.1500 
 12 C        4.8530     3.0230    -0.2310 C.2   1 <1>  -0.3320 
 13 N        4.9130    -4.8180     0.5630 N.pl3 1 <1>   0.3000 
 14 C        3.9760    -5.6410     0.0510 C.2   1 <1>  -0.3320 
 15 N        5.9150     3.4360     0.5070 N.pl3 1 <1>   0.5930 
 16 C        3.8700     3.9410    -0.0790 C.2   1 <1>  -0.1500 
 17 C        3.8020    -7.0920     0.4620 C.3   1 <1>  -0.0600 
 18 N        5.6240     4.6050     1.1180 N.2   1 <1>  -0.7070 
 19 C        7.1670     2.7750     0.6180 C.ar  1 <1>  -0.0230 
 20 C        4.4120     4.8960     0.7700 C.2   1 <1>   0.1390 
 21 C        7.2830     1.5860     1.3320 C.ar  1 <1>  -0.1500 
 22 C        8.2940     3.2940    -0.0110 C.ar  1 <1>  -0.1500 
 23 C        8.4930     0.9190     1.3950 C.ar  1 <1>  -0.1500 
 24 C        9.5040     2.6260     0.0520 C.ar  1 <1>  -0.1500 
 25 C        9.6030     1.4370     0.7520 C.ar  1 <1>  -0.1500 
 26 H        5.1040    -1.7400     0.9050 H     1 <1>   0.4000 
 27 H        2.9020    -1.4410     0.6170 H     1 <1>   0.0800 
 28 H        5.0700    -1.2450    -1.3650 H     1 <1>   0.0800 
 29 H        3.4090     1.2410     0.9280 H     1 <1>   0.0800 
 30 H        2.0040     0.6270     0.0690 H     1 <1>   0.0800 
 31 H        2.5770    -0.1300    -2.5050 H     1 <1>   0.0800 
 32 H        4.2430     0.1750    -2.9710 H     1 <1>   0.0800 
 33 H        3.6940    -2.7250    -2.7260 H     1 <1>   0.0800 
 34 H        2.3220    -2.4630    -1.6850 H     1 <1>   0.0800 
 35 H        2.9840     1.9690    -1.5520 H     1 <1>   0.4500 
 36 H        5.5610     1.0260    -0.5120 H     1 <1>   0.0800 
 37 H        5.4050     1.9560    -1.9850 H     1 <1>   0.0800 
 38 H        2.4580    -5.2390    -1.4690 H     1 <1>   0.1500 
 39 H        5.6120    -5.0730     1.2730 H     1 <1>   0.2700 
 40 H        2.8780     3.9920    -0.4940 H     1 <1>   0.1500 
 41 H        2.9920    -7.5380    -0.0870 H     1 <1>   0.0800 
 42 H        3.5800    -7.1590     1.5120 H     1 <1>   0.0800 
 43 H        4.7000    -7.6480     0.2570 H     1 <1>   0.0800 
 44 H        3.8980     5.7840     1.1070 H     1 <1>   0.1500 
 45 H        6.4300     1.1770     1.8480 H     1 <1>   0.1500 
 46 H        8.2250     4.2250    -0.5480 H     1 <1>   0.1500 
 47 H        8.5740    -0.0010     1.9480 H     1 <1>   0.1500 
 48 H       10.3720     3.0340    -0.4380 H     1 <1>   0.1500 
 49 H       10.5460     0.9190     0.8020 H     1 <1>   0.1500 
@<TRIPOS>BOND
  1   1   2  1   
  2   1  26  1   
  3   2   3  1   
  4   2   4  1   
  5   2  27  1   
  6   3   5  1   
  7   3   6  1   
  8   3  28  1   
  9   4   7  1   
 10   4  29  1   
 11   4  30  1   
 12   5   7  1   
 13   5  31  1   
 14   5  32  1   
 15   6   8  1   
 16   6  33  1   
 17   6  34  1   
 18   7   9  1   
 19   7  35  1   
 20   8  10  2   
 21   8  11  1   
 22   9  12  1   
 23   9  36  1   
 24   9  37  1   
 25  10  13  1   
 26  11  14  2   
 27  11  38  1   
 28  12  15  1   
 29  12  16  2   
 30  13  14  1   
 31  13  39  1   
 32  14  17  1   
 33  15  18  1   
 34  15  19  1   
 35  16  20  1   
 36  16  40  1   
 37  17  41  1   
 38  17  42  1   
 39  17  43  1   
 40  18  20  2   
 41  19  21  ar  
 42  19  22  ar  
 43  20  44  1   
 44  21  23  ar  
 45  21  45  1   
 46  22  24  ar  
 47  22  46  1   
 48  23  25  ar  
 49  23  47  1   
 50  24  25  ar  
 51  24  48  1   
 52  25  49  1   
@<TRIPOS>SUBSTRUCTURE
  1 ****   1 GROUP 4 **** **** 0

# MOE 2024.06 (io_trps.svl 2023.06)
