@<TRIPOS>MOLECULE
NONAME
52 54 1 0 0 
SMALL
USER_CHARGES


@<TRIPOS>ATOM
  1 O       -1.5490     0.1420    -2.7650 O.2   1 <1>  -0.5700 
  2 C       -1.2300     0.3990    -1.6250 C.2   1 <1>   0.5690 
  3 N       -1.2640    -0.5680    -0.6680 N.am  1 <1>  -0.7300 
  4 C       -0.7870     1.8380    -1.2440 C.3   1 <1>   0.3410 
  5 C       -1.7030    -1.9680    -0.8590 C.3   1 <1>   0.2200 
  6 O       -0.7160     1.9120     0.1870 O.3   1 <1>  -0.3630 
  7 C        0.6030     2.1290    -1.8360 C.3   1 <1>  -0.2400 
  8 C       -1.8100     2.8710    -1.7500 C.3   1 <1>  -0.2400 
  9 C       -3.0690    -2.2050    -0.2300 C.3   1 <1>  -0.0800 
 10 C       -0.8360    -2.8840    -0.0060 C.3   1 <1>   0.1200 
 11 C       -0.3500     3.0430     0.8330 C.ar  1 <1>   0.0820 
 12 C       -2.7270    -2.4910     1.2360 C.3   1 <1>   0.1200 
 13 C       -4.1040    -1.0820    -0.4290 C.3   1 <1>  -0.0160 
 14 O       -1.3650    -2.8030     1.2830 O.3   1 <1>  -0.5600 
 15 C        0.9820     3.2620     1.1480 C.ar  1 <1>  -0.1500 
 16 C       -1.3130     3.9590     1.2270 C.ar  1 <1>  -0.1500 
 17 C       -5.4480    -1.4700     0.1680 C.ar  1 <1>  -0.1440 
 18 C        1.3520     4.4100     1.8260 C.ar  1 <1>  -0.1500 
 19 C       -0.9400     5.1060     1.9050 C.ar  1 <1>  -0.1500 
 20 C       -5.8460    -1.0410     1.4180 C.ar  1 <1>  -0.1500 
 21 C       -6.3380    -2.2760    -0.5120 C.ar  1 <1>  -0.1500 
 22 C        0.3940     5.3400     2.2020 C.ar  1 <1>  -0.1440 
 23 C       -7.0780    -1.4320     1.9160 C.ar  1 <1>   0.1600 
 24 C       -7.5470    -2.6080     0.0760 C.ar  1 <1>   0.1600 
 25 C        0.8030     6.5990     2.9450 C.3   1 <1>  -0.0970 
 26 N       -7.9380    -2.2070     1.2750 N.ar  1 <1>  -0.6200 
 27 H       -1.0140    -0.3160     0.2940 H     1 <1>   0.3700 
 28 H       -1.6740    -2.2350    -1.9030 H     1 <1>   0.0800 
 29 H        0.5740     1.9940    -2.9030 H     1 <1>   0.0800 
 30 H        1.3270     1.4460    -1.4310 H     1 <1>   0.0800 
 31 H        0.9050     3.1410    -1.6390 H     1 <1>   0.0800 
 32 H       -1.9220     2.7790    -2.8160 H     1 <1>   0.0800 
 33 H       -1.4860     3.8740    -1.5410 H     1 <1>   0.0800 
 34 H       -2.7680     2.6950    -1.2970 H     1 <1>   0.0800 
 35 H       -3.4700    -3.1110    -0.6490 H     1 <1>   0.0800 
 36 H        0.1980    -2.5890     0.0050 H     1 <1>   0.0800 
 37 H       -0.9240    -3.9050    -0.3340 H     1 <1>   0.0800 
 38 H       -3.2920    -3.3220     1.6230 H     1 <1>   0.0800 
 39 H       -2.8810    -1.6250     1.8550 H     1 <1>   0.0800 
 40 H       -4.2230    -0.8890    -1.4820 H     1 <1>   0.0800 
 41 H       -3.7640    -0.1690     0.0280 H     1 <1>   0.0800 
 42 H        1.7220     2.5350     0.8680 H     1 <1>   0.1500 
 43 H       -2.3480     3.7720     1.0080 H     1 <1>   0.1500 
 44 H        2.3880     4.5760     2.0620 H     1 <1>   0.1500 
 45 H       -1.6920     5.8160     2.2030 H     1 <1>   0.1500 
 46 H       -5.2120    -0.4070     2.0100 H     1 <1>   0.1500 
 47 H       -6.1040    -2.6470    -1.4920 H     1 <1>   0.1500 
 48 H       -7.3720    -1.0880     2.8930 H     1 <1>   0.1500 
 49 H       -8.2300    -3.2370    -0.4690 H     1 <1>   0.1500 
 50 H        1.7940     6.9010     2.6580 H     1 <1>   0.0800 
 51 H        0.7890     6.4160     4.0050 H     1 <1>   0.0800 
 52 H        0.1260     7.4040     2.7230 H     1 <1>   0.0800 
@<TRIPOS>BOND
  1   1   2  2   
  2   2   3  am  
  3   2   4  1   
  4   3   5  1   
  5   3  27  1   
  6   4   6  1   
  7   4   7  1   
  8   4   8  1   
  9   5   9  1   
 10   5  10  1   
 11   5  28  1   
 12   6  11  1   
 13   7  29  1   
 14   7  30  1   
 15   7  31  1   
 16   8  32  1   
 17   8  33  1   
 18   8  34  1   
 19   9  12  1   
 20   9  13  1   
 21   9  35  1   
 22  10  14  1   
 23  10  36  1   
 24  10  37  1   
 25  11  15  ar  
 26  11  16  ar  
 27  12  14  1   
 28  12  38  1   
 29  12  39  1   
 30  13  17  1   
 31  13  40  1   
 32  13  41  1   
 33  15  18  ar  
 34  15  42  1   
 35  16  19  ar  
 36  16  43  1   
 37  17  20  ar  
 38  17  21  ar  
 39  18  22  ar  
 40  18  44  1   
 41  19  22  ar  
 42  19  45  1   
 43  20  23  ar  
 44  20  46  1   
 45  21  24  ar  
 46  21  47  1   
 47  22  25  1   
 48  23  26  ar  
 49  23  48  1   
 50  24  26  ar  
 51  24  49  1   
 52  25  50  1   
 53  25  51  1   
 54  25  52  1   
@<TRIPOS>SUBSTRUCTURE
  1 ****   3 GROUP 4 **** **** 0

# MOE 2024.06 (io_trps.svl 2023.06)
