@<TRIPOS>MOLECULE
NONAME
54 56 1 0 0 
SMALL
USER_CHARGES


@<TRIPOS>ATOM
  1 F       -0.0890    -1.7510     3.0490 F     1 <1>  -0.1900 
  2 C       -0.2980    -2.7750     2.2630 C.ar  1 <1>   0.1900 
  3 C       -0.4110    -4.0330     2.8220 C.ar  1 <1>  -0.1500 
  4 C       -0.3970    -2.5630     0.9030 C.ar  1 <1>  -0.1500 
  5 C       -0.6320    -5.1240     1.9940 C.ar  1 <1>  -0.1440 
  6 C       -0.6190    -3.6540     0.0820 C.ar  1 <1>  -0.1500 
  7 C       -0.7370    -4.9410     0.6090 C.ar  1 <1>   0.1170 
  8 C       -0.7460    -6.5080     2.6220 C.3   1 <1>  -0.0960 
  9 N       -0.9740    -6.0550    -0.2130 N.am  1 <1>  -0.5470 
 10 C       -0.8170    -6.2780    -1.5520 C.2   1 <1>   0.5690 
 11 O       -0.4180    -5.4580    -2.3420 O.2   1 <1>  -0.5700 
 12 C       -1.1820    -7.6750    -2.0590 C.3   1 <1>   0.1710 
 13 N       -2.2850    -8.3420    -1.2930 N.3   1 <1>  -0.8100 
 14 C       -2.3550    -9.7580    -1.6530 C.3   1 <1>   0.1100 
 15 C       -3.5610    -7.6650    -1.5510 C.3   1 <1>   0.1100 
 16 C       -3.3810   -10.4500    -0.7580 C.3   1 <1>  -0.1600 
 17 C       -4.6360    -8.2670    -0.6490 C.3   1 <1>  -0.1600 
 18 C       -4.7630    -9.7840    -0.8620 C.3   1 <1>   0.4230 
 19 N       -5.7050   -10.3740     0.1470 N.4   1 <1>  -0.9590 
 20 C       -5.8330   -11.8730     0.0000 C.3   1 <1>   0.3430 
 21 C       -7.0630    -9.7380     0.1150 C.3   1 <1>   0.3430 
 22 C       -6.7450   -12.5040     1.0690 C.3   1 <1>   0.2000 
 23 C       -7.9460   -10.3000     1.2330 C.3   1 <1>  -0.1600 
 24 O       -6.9380   -13.8250     0.7300 O.3   1 <1>  -0.6800 
 25 C       -8.1130   -11.8230     1.1250 C.3   1 <1>  -0.1600 
 26 H       -0.3240    -4.1410     3.8870 H     1 <1>   0.1500 
 27 H       -0.3040    -1.5710     0.5010 H     1 <1>   0.1500 
 28 H       -0.7020    -3.4940    -0.9770 H     1 <1>   0.1500 
 29 H       -0.5890    -6.4620     3.6850 H     1 <1>   0.0800 
 30 H       -0.0030    -7.1640     2.2030 H     1 <1>   0.0800 
 31 H       -1.7230    -6.9170     2.4420 H     1 <1>   0.0800 
 32 H       -1.3360    -6.8800     0.2660 H     1 <1>   0.3700 
 33 H       -0.2890    -8.2710    -1.9910 H     1 <1>   0.0800 
 34 H       -1.4470    -7.6020    -3.1000 H     1 <1>   0.0800 
 35 H       -1.3910   -10.2180    -1.5030 H     1 <1>   0.0800 
 36 H       -2.6230    -9.8660    -2.6920 H     1 <1>   0.0800 
 37 H       -3.8340    -7.7700    -2.5890 H     1 <1>   0.0800 
 38 H       -3.4720    -6.6130    -1.3340 H     1 <1>   0.0800 
 39 H       -3.0220   -10.4130     0.2550 H     1 <1>   0.0800 
 40 H       -3.4280   -11.4760    -1.0720 H     1 <1>   0.0800 
 41 H       -5.5570    -7.7690    -0.8870 H     1 <1>   0.0800 
 42 H       -4.3760    -8.0510     0.3720 H     1 <1>   0.0800 
 43 H       -5.1470    -9.9550    -1.8550 H     1 <1>   0.0800 
 44 H       -5.2970   -10.1860     1.0700 H     1 <1>   0.4500 
 45 H       -4.8670   -12.3390     0.0780 H     1 <1>   0.0800 
 46 H       -6.2450   -12.1010    -0.9690 H     1 <1>   0.0800 
 47 H       -7.5300    -9.9250    -0.8390 H     1 <1>   0.0800 
 48 H       -6.9810    -8.6720     0.2480 H     1 <1>   0.0800 
 49 H       -6.2600   -12.4760     2.0310 H     1 <1>   0.0800 
 50 H       -8.9160    -9.8370     1.1740 H     1 <1>   0.0800 
 51 H       -7.5260   -10.0390     2.1890 H     1 <1>   0.0800 
 52 H       -7.5020   -14.2820     1.3880 H     1 <1>   0.4000 
 53 H       -8.6700   -12.1850     1.9730 H     1 <1>   0.0800 
 54 H       -8.6670   -12.0520     0.2290 H     1 <1>   0.0800 
@<TRIPOS>BOND
  1   1   2  1   
  2   2   3  ar  
  3   2   4  ar  
  4   3   5  ar  
  5   3  26  1   
  6   4   6  ar  
  7   4  27  1   
  8   5   7  ar  
  9   5   8  1   
 10   6   7  ar  
 11   6  28  1   
 12   7   9  1   
 13   8  29  1   
 14   8  30  1   
 15   8  31  1   
 16   9  10  am  
 17   9  32  1   
 18  10  11  2   
 19  10  12  1   
 20  12  13  1   
 21  12  33  1   
 22  12  34  1   
 23  13  14  1   
 24  13  15  1   
 25  14  16  1   
 26  14  35  1   
 27  14  36  1   
 28  15  17  1   
 29  15  37  1   
 30  15  38  1   
 31  16  18  1   
 32  16  39  1   
 33  16  40  1   
 34  17  18  1   
 35  17  41  1   
 36  17  42  1   
 37  18  19  1   
 38  18  43  1   
 39  19  20  1   
 40  19  21  1   
 41  19  44  1   
 42  20  22  1   
 43  20  45  1   
 44  20  46  1   
 45  21  23  1   
 46  21  47  1   
 47  21  48  1   
 48  22  24  1   
 49  22  25  1   
 50  22  49  1   
 51  23  25  1   
 52  23  50  1   
 53  23  51  1   
 54  24  52  1   
 55  25  53  1   
 56  25  54  1   
@<TRIPOS>SUBSTRUCTURE
  1 ****  13 GROUP 4 **** **** 0

# MOE 2024.06 (io_trps.svl 2023.06)
