@<TRIPOS>MOLECULE
NONAME
38 38 1 0 0 
SMALL
USER_CHARGES


@<TRIPOS>ATOM
  1 S        0.0420    -0.4580     1.1340 S.3   1 <1>  -0.0800 
  2 C       -0.4750    -1.7630     0.0740 C.2   1 <1>  -0.1400 
  3 C        1.3130    -1.4540     1.8170 C.2   1 <1>  -0.1100 
  4 C        0.2960    -2.8520     0.2610 C.2   1 <1>  -0.1500 
  5 C       -1.6460    -1.4830    -0.8410 C.3   1 <1>   0.5230 
  6 C        1.3110    -2.6760     1.2540 C.2   1 <1>  -0.1500 
  7 N       -2.8000    -1.0790     0.0130 N.4   1 <1>  -0.9590 
  8 C       -3.5060     0.1230    -0.5360 C.3   1 <1>   0.3430 
  9 C       -3.7730    -2.1950     0.2340 C.3   1 <1>   0.3430 
 10 C       -2.6760     1.4110    -0.4160 C.3   1 <1>   0.1200 
 11 C       -3.2020    -3.3120     1.1110 C.3   1 <1>  -0.0220 
 12 O       -3.3950     2.4270    -1.0160 O.3   1 <1>  -0.6800 
 13 C       -4.2970    -4.3250     1.3940 C.2   1 <1>  -0.2880 
 14 C       -4.4510    -5.5480     0.8750 C.2   1 <1>  -0.2760 
 15 C       -5.6110    -6.4410     1.2900 C.3   1 <1>  -0.1020 
 16 C       -3.5560    -6.2300    -0.1530 C.3   1 <1>  -0.1020 
 17 H        1.9380    -1.0170     2.5770 H     1 <1>   0.1500 
 18 H        0.2090    -3.7950    -0.2550 H     1 <1>   0.1500 
 19 H       -1.8870    -2.3590    -1.4210 H     1 <1>   0.0800 
 20 H       -1.3770    -0.6880    -1.5170 H     1 <1>   0.0800 
 21 H        1.9930    -3.4740     1.4980 H     1 <1>   0.1500 
 22 H       -2.3930    -0.8300     0.9260 H     1 <1>   0.4500 
 23 H       -3.7510    -0.0400    -1.5730 H     1 <1>   0.0800 
 24 H       -4.4260     0.2750     0.0050 H     1 <1>   0.0800 
 25 H       -4.6520    -1.8070     0.7230 H     1 <1>   0.0800 
 26 H       -4.0840    -2.6110    -0.7110 H     1 <1>   0.0800 
 27 H       -1.7330     1.3300    -0.9280 H     1 <1>   0.0800 
 28 H       -2.5200     1.6750     0.6160 H     1 <1>   0.0800 
 29 H       -2.3770    -3.7890     0.6210 H     1 <1>   0.0800 
 30 H       -2.8520    -2.9130     2.0470 H     1 <1>   0.0800 
 31 H       -2.9350     3.2920    -0.9440 H     1 <1>   0.4000 
 32 H       -5.0020    -3.9460     2.1170 H     1 <1>   0.1500 
 33 H       -6.2200    -6.6850     0.4370 H     1 <1>   0.0800 
 34 H       -6.2330    -5.9530     2.0200 H     1 <1>   0.0800 
 35 H       -5.2410    -7.3530     1.7220 H     1 <1>   0.0800 
 36 H       -4.1370    -6.5160    -1.0130 H     1 <1>   0.0800 
 37 H       -3.1250    -7.1190     0.2730 H     1 <1>   0.0800 
 38 H       -2.7570    -5.6010    -0.4900 H     1 <1>   0.0800 
@<TRIPOS>BOND
  1   1   2  1   
  2   1   3  1   
  3   2   4  2   
  4   2   5  1   
  5   3   6  2   
  6   3  17  1   
  7   4   6  1   
  8   4  18  1   
  9   5   7  1   
 10   5  19  1   
 11   5  20  1   
 12   6  21  1   
 13   7   8  1   
 14   7   9  1   
 15   7  22  1   
 16   8  10  1   
 17   8  23  1   
 18   8  24  1   
 19   9  11  1   
 20   9  25  1   
 21   9  26  1   
 22  10  12  1   
 23  10  27  1   
 24  10  28  1   
 25  11  13  1   
 26  11  29  1   
 27  11  30  1   
 28  12  31  1   
 29  13  14  2   
 30  13  32  1   
 31  14  15  1   
 32  14  16  1   
 33  15  33  1   
 34  15  34  1   
 35  15  35  1   
 36  16  36  1   
 37  16  37  1   
 38  16  38  1   
@<TRIPOS>SUBSTRUCTURE
  1 ****   7 GROUP 4 **** **** 0

# MOE 2024.06 (io_trps.svl 2023.06)
