@<TRIPOS>MOLECULE
NONAME
51 54 1 0 0 
SMALL
USER_CHARGES


@<TRIPOS>ATOM
  1 O       -0.9850     0.5170     1.1700 O.2   1 <1>  -0.5700 
  2 C       -1.7700     0.9740     0.3740 C.2   1 <1>   0.5690 
  3 N       -2.6900     0.1810    -0.2490 N.am  1 <1>  -0.6600 
  4 C       -1.7310     2.4610     0.0800 C.3   1 <1>  -0.0990 
  5 C       -3.7610     0.6140    -1.1830 C.3   1 <1>   0.1400 
  6 C       -2.7710    -1.2830    -0.0170 C.3   1 <1>   0.1400 
  7 C       -0.3690     3.0790     0.4220 C.3   1 <1>   0.0960 
  8 C       -4.7680    -0.5340    -1.1570 C.3   1 <1>   0.2000 
  9 C       -3.8940    -1.7770    -0.9410 C.3   1 <1>  -0.0800 
 10 N       -0.3700     4.5210     0.1200 N.pl3 1 <1>   0.3140 
 11 O       -5.5990    -0.3500    -0.0630 O.3   1 <1>  -0.6800 
 12 C       -4.6540    -3.0100    -0.4070 C.3   1 <1>  -0.0160 
 13 N       -0.5010     4.9860    -1.1370 N.2   1 <1>  -0.7070 
 14 C       -0.2640     5.5300     1.0070 C.2   1 <1>  -0.3020 
 15 C       -3.8660    -4.3230    -0.3180 C.ar  1 <1>  -0.1440 
 16 C       -0.4700     6.2780    -1.0170 C.2   1 <1>   0.1390 
 17 C       -0.3240     6.6810     0.3060 C.2   1 <1>  -0.1810 
 18 C       -4.4420    -5.4420     0.3360 C.ar  1 <1>   0.0000 
 19 C       -2.6180    -4.4950    -0.8490 C.ar  1 <1>  -0.1500 
 20 C       -0.2510     8.1040     0.8190 C.3   1 <1>  -0.0590 
 21 C       -3.6810    -6.6350     0.4120 C.ar  1 <1>   0.3100 
 22 C       -5.7340    -5.4510     0.9140 C.ar  1 <1>  -0.1500 
 23 C       -1.9530    -5.7210    -0.7220 C.ar  1 <1>   0.1600 
 24 N       -2.4400    -6.7570    -0.1200 N.ar  1 <1>  -0.6200 
 25 C       -4.2260    -7.7530     1.0620 C.ar  1 <1>  -0.1500 
 26 C       -6.2380    -6.5590     1.5390 C.ar  1 <1>  -0.1500 
 27 C       -5.4760    -7.7270     1.6180 C.ar  1 <1>  -0.1500 
 28 H       -1.9240     2.6200    -0.9640 H     1 <1>   0.0800 
 29 H       -2.4990     2.9420     0.6570 H     1 <1>   0.0800 
 30 H       -4.2130     1.5440    -0.8830 H     1 <1>   0.0800 
 31 H       -3.3450     0.7150    -2.1700 H     1 <1>   0.0800 
 32 H       -1.8270    -1.7500    -0.2410 H     1 <1>   0.0800 
 33 H       -3.0130    -1.4620     1.0170 H     1 <1>   0.0800 
 34 H        0.4050     2.6130    -0.1600 H     1 <1>   0.0800 
 35 H       -0.1460     2.9430     1.4640 H     1 <1>   0.0800 
 36 H       -5.3750    -0.5860    -2.0450 H     1 <1>   0.0800 
 37 H       -3.4620    -2.0210    -1.8940 H     1 <1>   0.0800 
 38 H       -5.0480    -0.1620     0.7240 H     1 <1>   0.4000 
 39 H       -5.5100    -3.1800    -1.0380 H     1 <1>   0.0800 
 40 H       -5.0220    -2.7750     0.5760 H     1 <1>   0.0800 
 41 H       -0.1540     5.3750     2.0640 H     1 <1>   0.1500 
 42 H       -0.5500     6.9520    -1.8530 H     1 <1>   0.1500 
 43 H       -2.0970    -3.7230    -1.3800 H     1 <1>   0.1500 
 44 H        0.5900     8.6090     0.3790 H     1 <1>   0.0800 
 45 H       -0.1380     8.1080     1.8880 H     1 <1>   0.0800 
 46 H       -1.1520     8.6330     0.5630 H     1 <1>   0.0800 
 47 H       -6.3450    -4.5690     0.8640 H     1 <1>   0.1500 
 48 H       -0.9700    -5.8060    -1.1540 H     1 <1>   0.1500 
 49 H       -3.6220    -8.6400     1.1070 H     1 <1>   0.1500 
 50 H       -7.2220    -6.5470     1.9750 H     1 <1>   0.1500 
 51 H       -5.8820    -8.5920     2.1130 H     1 <1>   0.1500 
@<TRIPOS>BOND
  1   1   2  2   
  2   2   3  am  
  3   2   4  1   
  4   3   5  1   
  5   3   6  1   
  6   4   7  1   
  7   4  28  1   
  8   4  29  1   
  9   5   8  1   
 10   5  30  1   
 11   5  31  1   
 12   6   9  1   
 13   6  32  1   
 14   6  33  1   
 15   7  10  1   
 16   7  34  1   
 17   7  35  1   
 18   8   9  1   
 19   8  11  1   
 20   8  36  1   
 21   9  12  1   
 22   9  37  1   
 23  10  13  1   
 24  10  14  1   
 25  11  38  1   
 26  12  15  1   
 27  12  39  1   
 28  12  40  1   
 29  13  16  2   
 30  14  17  2   
 31  14  41  1   
 32  15  18  ar  
 33  15  19  ar  
 34  16  17  1   
 35  16  42  1   
 36  17  20  1   
 37  18  21  ar  
 38  18  22  ar  
 39  19  23  ar  
 40  19  43  1   
 41  20  44  1   
 42  20  45  1   
 43  20  46  1   
 44  21  24  ar  
 45  21  25  ar  
 46  22  26  ar  
 47  22  47  1   
 48  23  24  ar  
 49  23  48  1   
 50  25  27  ar  
 51  25  49  1   
 52  26  27  ar  
 53  26  50  1   
 54  27  51  1   
@<TRIPOS>SUBSTRUCTURE
  1 ****   6 GROUP 4 **** **** 0

# MOE 2024.06 (io_trps.svl 2023.06)
