@<TRIPOS>MOLECULE
NONAME
36 37 1 0 0 
SMALL
USER_CHARGES


@<TRIPOS>ATOM
  1 S        1.0570    -0.2590     0.9410 S.3   1 <1>  -0.0800 
  2 C        0.9580    -1.0910    -0.6160 C.2   1 <1>  -0.0450 
  3 C        1.2960     1.2960     0.1810 C.2   1 <1>  -0.1100 
  4 C        1.1160    -0.1740    -1.6100 C.2   1 <1>  -0.1810 
  5 C        0.7610    -2.5210    -0.6170 C.2   1 <1>   0.7150 
  6 C        1.3020     1.1660    -1.1570 C.2   1 <1>  -0.1500 
  7 C        1.1100    -0.4610    -3.1020 C.3   1 <1>  -0.0590 
  8 O        1.3940    -3.2220    -1.3850 O.2   1 <1>  -0.5700 
  9 N       -0.1850    -3.1310     0.1760 N.am  1 <1>  -0.6600 
 10 C        0.0580    -4.5100     0.6960 C.3   1 <1>   0.3200 
 11 C       -1.4880    -2.4620     0.5100 C.3   1 <1>   0.1400 
 12 C       -1.1710    -5.3980     0.6090 C.2   1 <1>  -0.3320 
 13 C       -2.2260    -1.9650    -0.7510 C.3   1 <1>   0.1200 
 14 N       -2.0070    -5.4470    -0.4450 N.pl3 1 <1>   0.0330 
 15 C       -1.6580    -6.2770     1.5120 C.2   1 <1>   0.0770 
 16 O       -2.0990    -2.8760    -1.7990 O.3   1 <1>  -0.6800 
 17 C       -2.9540    -6.3480    -0.1110 C.2   1 <1>   0.0060 
 18 N       -2.7770    -6.8720     1.0570 N.2   1 <1>  -0.5650 
 19 C       -4.1100    -6.6870    -1.0240 C.3   1 <1>  -0.0600 
 20 H        1.4120     2.1540     0.8200 H     1 <1>   0.1500 
 21 H        1.4350     1.9770    -1.8530 H     1 <1>   0.1500 
 22 H        0.9360    -1.5030    -3.2980 H     1 <1>   0.0800 
 23 H        2.0600    -0.1910    -3.5280 H     1 <1>   0.0800 
 24 H        0.3380     0.1110    -3.5840 H     1 <1>   0.0800 
 25 H        0.3700    -4.4400     1.7240 H     1 <1>   0.0800 
 26 H        0.8580    -4.9790     0.1480 H     1 <1>   0.0800 
 27 H       -1.3170    -1.6340     1.1730 H     1 <1>   0.0800 
 28 H       -2.1360    -3.1400     1.0380 H     1 <1>   0.0800 
 29 H       -1.8190    -1.0230    -1.0770 H     1 <1>   0.0800 
 30 H       -3.2740    -1.8310    -0.5450 H     1 <1>   0.0800 
 31 H       -1.9800    -4.8570    -1.2870 H     1 <1>   0.2700 
 32 H       -1.2610    -6.5200     2.4830 H     1 <1>   0.1500 
 33 H       -1.1450    -3.0160    -1.9850 H     1 <1>   0.4000 
 34 H       -4.6750    -5.8010    -1.2480 H     1 <1>   0.0800 
 35 H       -4.7570    -7.3980    -0.5420 H     1 <1>   0.0800 
 36 H       -3.7430    -7.1170    -1.9380 H     1 <1>   0.0800 
@<TRIPOS>BOND
  1   1   2  1   
  2   1   3  1   
  3   2   4  2   
  4   2   5  1   
  5   3   6  2   
  6   3  20  1   
  7   4   6  1   
  8   4   7  1   
  9   5   8  2   
 10   5   9  am  
 11   6  21  1   
 12   7  22  1   
 13   7  23  1   
 14   7  24  1   
 15   9  10  1   
 16   9  11  1   
 17  10  12  1   
 18  10  25  1   
 19  10  26  1   
 20  11  13  1   
 21  11  27  1   
 22  11  28  1   
 23  12  14  1   
 24  12  15  2   
 25  13  16  1   
 26  13  29  1   
 27  13  30  1   
 28  14  17  1   
 29  14  31  1   
 30  15  18  1   
 31  15  32  1   
 32  16  33  1   
 33  17  18  2   
 34  17  19  1   
 35  19  34  1   
 36  19  35  1   
 37  19  36  1   
@<TRIPOS>SUBSTRUCTURE
  1 ****   9 GROUP 4 **** **** 0

# MOE 2024.06 (io_trps.svl 2023.06)
