@<TRIPOS>MOLECULE
NONAME
45 47 1 0 0 
SMALL
USER_CHARGES


@<TRIPOS>ATOM
  1 F       -0.6260    -1.1950    -0.3470 F     1 <1>  -0.1900 
  2 C        0.5800    -1.7040    -0.4110 C.ar  1 <1>   0.1900 
  3 C        1.3950    -1.3860    -1.4860 C.ar  1 <1>   0.1900 
  4 C        1.0190    -2.5600     0.5900 C.ar  1 <1>  -0.1440 
  5 F        0.9630    -0.5840    -2.4260 F     1 <1>  -0.1900 
  6 C        2.6690    -1.9090    -1.5930 C.ar  1 <1>  -0.1500 
  7 C        2.3010    -3.0850     0.4780 C.ar  1 <1>  -0.1500 
  8 C        0.1530    -2.9410     1.7900 C.3   1 <1>   0.0450 
  9 C        3.1180    -2.7650    -0.5990 C.ar  1 <1>  -0.1500 
 10 C       -0.1760    -4.4260     1.8110 C.2   1 <1>   0.5690 
 11 O        0.4170    -5.1250     2.5990 O.2   1 <1>  -0.5700 
 12 N       -1.1120    -4.9450     0.9590 N.am  1 <1>  -0.6600 
 13 C       -1.8200    -4.2320    -0.1350 C.3   1 <1>   0.1400 
 14 C       -1.5030    -6.3710     0.9670 C.3   1 <1>   0.1400 
 15 C       -2.7730    -5.2620    -0.7560 C.3   1 <1>   0.2000 
 16 C       -2.1310    -6.6100    -0.4080 C.3   1 <1>  -0.0800 
 17 O       -4.0260    -5.1850    -0.1380 O.3   1 <1>  -0.5600 
 18 C       -3.0980    -7.8080    -0.4440 C.3   1 <1>   0.0200 
 19 C       -4.8950    -4.2360    -0.6740 C.3   1 <1>   0.0400 
 20 C       -2.3990    -9.1460    -0.2690 C.2   1 <1>  -0.0400 
 21 O       -3.1260   -10.2290    -0.2010 O.3   1 <1>  -0.0190 
 22 C       -1.1110    -9.5130    -0.1650 C.2   1 <1>  -0.1500 
 23 N       -2.3970   -11.2980    -0.0550 N.2   1 <1>  -0.4100 
 24 C       -1.1780   -10.8960    -0.0280 C.2   1 <1>   0.1080 
 25 C        0.0160   -11.8100     0.1320 C.3   1 <1>  -0.0590 
 26 H        3.2910    -1.6530    -2.4320 H     1 <1>   0.1500 
 27 H        2.6720    -3.7560     1.2380 H     1 <1>   0.1500 
 28 H       -0.7640    -2.3830     1.8120 H     1 <1>   0.0800 
 29 H        0.6870    -2.7000     2.6920 H     1 <1>   0.0800 
 30 H        4.1080    -3.1860    -0.6610 H     1 <1>   0.1500 
 31 H       -2.3490    -3.3730     0.2380 H     1 <1>   0.0800 
 32 H       -1.0980    -3.9250    -0.8710 H     1 <1>   0.0800 
 33 H       -0.6500    -7.0040     1.1410 H     1 <1>   0.0800 
 34 H       -2.2290    -6.5260     1.7470 H     1 <1>   0.0800 
 35 H       -2.8900    -5.1340    -1.8190 H     1 <1>   0.0800 
 36 H       -1.3350    -6.7840    -1.1090 H     1 <1>   0.0800 
 37 H       -3.6160    -7.8180    -1.3860 H     1 <1>   0.0800 
 38 H       -3.8370    -7.7030     0.3320 H     1 <1>   0.0800 
 39 H       -5.8100    -4.2680    -0.1090 H     1 <1>   0.0800 
 40 H       -5.0980    -4.4800    -1.7020 H     1 <1>   0.0800 
 41 H       -4.4570    -3.2570    -0.5940 H     1 <1>   0.0800 
 42 H       -0.2130    -8.9240    -0.1780 H     1 <1>   0.1500 
 43 H        0.5860   -11.5170     0.9940 H     1 <1>   0.0800 
 44 H        0.6380   -11.7530    -0.7420 H     1 <1>   0.0800 
 45 H       -0.3140   -12.8250     0.2610 H     1 <1>   0.0800 
@<TRIPOS>BOND
  1   1   2  1   
  2   2   3  ar  
  3   2   4  ar  
  4   3   5  1   
  5   3   6  ar  
  6   4   7  ar  
  7   4   8  1   
  8   6   9  ar  
  9   6  26  1   
 10   7   9  ar  
 11   7  27  1   
 12   8  10  1   
 13   8  28  1   
 14   8  29  1   
 15   9  30  1   
 16  10  11  2   
 17  10  12  am  
 18  12  13  1   
 19  12  14  1   
 20  13  15  1   
 21  13  31  1   
 22  13  32  1   
 23  14  16  1   
 24  14  33  1   
 25  14  34  1   
 26  15  16  1   
 27  15  17  1   
 28  15  35  1   
 29  16  18  1   
 30  16  36  1   
 31  17  19  1   
 32  18  20  1   
 33  18  37  1   
 34  18  38  1   
 35  19  39  1   
 36  19  40  1   
 37  19  41  1   
 38  20  21  1   
 39  20  22  2   
 40  21  23  1   
 41  22  24  1   
 42  22  42  1   
 43  23  24  2   
 44  24  25  1   
 45  25  43  1   
 46  25  44  1   
 47  25  45  1   
@<TRIPOS>SUBSTRUCTURE
  1 ****  12 GROUP 4 **** **** 0

# MOE 2024.06 (io_trps.svl 2023.06)
