@<TRIPOS>MOLECULE
NONAME
48 49 1 0 0 
SMALL
USER_CHARGES


@<TRIPOS>ATOM
  1 CL       0.2540     0.7090    -1.5370 Cl    1 <1>  -0.1770 
  2 C        1.4140    -0.4460    -0.9280 C.ar  1 <1>   0.1770 
  3 C        1.3520    -1.7550    -1.3510 C.ar  1 <1>  -0.1500 
  4 C        2.3730    -0.0290    -0.0240 C.ar  1 <1>  -0.1500 
  5 C        2.2610    -2.6970    -0.8690 C.ar  1 <1>   0.0860 
  6 C        3.2880    -0.9470     0.4500 C.ar  1 <1>  -0.1500 
  7 C        3.2610    -2.2780     0.0280 C.ar  1 <1>   0.1000 
  8 C        2.1670    -4.0770    -1.2850 C.2   1 <1>   0.5440 
  9 N        4.2060    -3.1870     0.4920 N.pl3 1 <1>  -0.8690 
 10 O        3.0840    -4.5730    -1.9170 O.2   1 <1>  -0.5700 
 11 N        1.0720    -4.8660    -0.9740 N.am  1 <1>  -0.6600 
 12 C        5.5900    -2.7810     0.8390 C.3   1 <1>   0.1290 
 13 C        0.9290    -6.2530    -1.5080 C.3   1 <1>   0.1400 
 14 C       -0.0090    -4.4520    -0.0390 C.3   1 <1>   0.1400 
 15 C        0.8540    -7.3320    -0.4000 C.3   1 <1>   0.0000 
 16 C       -0.0660    -5.4200     1.1400 C.3   1 <1>  -0.1600 
 17 C       -0.1840    -6.8730     0.6640 C.3   1 <1>   0.2000 
 18 C        0.2710    -8.6180    -1.0430 C.3   1 <1>   0.1200 
 19 C        2.2740    -7.6890     0.1570 C.3   1 <1>  -0.1600 
 20 O       -0.1360    -7.6960     1.7730 O.3   1 <1>  -0.6800 
 21 O        1.0880    -9.1190    -2.0530 O.3   1 <1>  -0.6800 
 22 C        2.9690    -6.7100     1.1180 C.3   1 <1>  -0.1600 
 23 C        4.4240    -7.1200     1.3600 C.3   1 <1>  -0.2400 
 24 H        0.5970    -2.0530    -2.0550 H     1 <1>   0.1500 
 25 H        2.3950     0.9970     0.2970 H     1 <1>   0.1500 
 26 H        4.0310    -0.6310     1.1580 H     1 <1>   0.1500 
 27 H        4.1990    -4.0710    -0.0500 H     1 <1>   0.4000 
 28 H        5.9590    -2.0750     0.1140 H     1 <1>   0.0800 
 29 H        6.2310    -3.6450     0.8440 H     1 <1>   0.0800 
 30 H        5.6030    -2.3310     1.8170 H     1 <1>   0.0800 
 31 H        0.0250    -6.2800    -2.0910 H     1 <1>   0.0800 
 32 H        1.7400    -6.4830    -2.1770 H     1 <1>   0.0800 
 33 H        0.1570    -3.4580     0.3350 H     1 <1>   0.0800 
 34 H       -0.9480    -4.4590    -0.5660 H     1 <1>   0.0800 
 35 H       -0.9250    -5.1790     1.7390 H     1 <1>   0.0800 
 36 H        0.8030    -5.2680     1.7480 H     1 <1>   0.0800 
 37 H       -1.1710    -6.9850     0.2470 H     1 <1>   0.0800 
 38 H       -0.6990    -8.4310    -1.4700 H     1 <1>   0.0800 
 39 H        0.1670    -9.3930    -0.3010 H     1 <1>   0.0800 
 40 H        2.2160    -8.6410     0.6570 H     1 <1>   0.0800 
 41 H        2.9280    -7.8360    -0.6850 H     1 <1>   0.0800 
 42 H        0.7780    -7.7120     2.1190 H     1 <1>   0.4000 
 43 H        1.2560    -8.4510    -2.7450 H     1 <1>   0.4000 
 44 H        2.9620    -5.7170     0.7120 H     1 <1>   0.0800 
 45 H        2.4650    -6.6930     2.0660 H     1 <1>   0.0800 
 46 H        4.9750    -7.1090     0.4360 H     1 <1>   0.0800 
 47 H        4.4740    -8.1070     1.7830 H     1 <1>   0.0800 
 48 H        4.8900    -6.4290     2.0410 H     1 <1>   0.0800 
@<TRIPOS>BOND
  1   1   2  1   
  2   2   3  ar  
  3   2   4  ar  
  4   3   5  ar  
  5   3  24  1   
  6   4   6  ar  
  7   4  25  1   
  8   5   7  ar  
  9   5   8  1   
 10   6   7  ar  
 11   6  26  1   
 12   7   9  1   
 13   8  10  2   
 14   8  11  am  
 15   9  12  1   
 16   9  27  1   
 17  11  13  1   
 18  11  14  1   
 19  12  28  1   
 20  12  29  1   
 21  12  30  1   
 22  13  15  1   
 23  13  31  1   
 24  13  32  1   
 25  14  16  1   
 26  14  33  1   
 27  14  34  1   
 28  15  17  1   
 29  15  18  1   
 30  15  19  1   
 31  16  17  1   
 32  16  35  1   
 33  16  36  1   
 34  17  20  1   
 35  17  37  1   
 36  18  21  1   
 37  18  38  1   
 38  18  39  1   
 39  19  22  1   
 40  19  40  1   
 41  19  41  1   
 42  20  42  1   
 43  21  43  1   
 44  22  23  1   
 45  22  44  1   
 46  22  45  1   
 47  23  46  1   
 48  23  47  1   
 49  23  48  1   
@<TRIPOS>SUBSTRUCTURE
  1 ****  11 GROUP 4 **** **** 0

# MOE 2024.06 (io_trps.svl 2023.06)
