@<TRIPOS>MOLECULE
NONAME
44 46 1 0 0 
SMALL
USER_CHARGES


@<TRIPOS>ATOM
  1 O        0.4010    -4.3140     1.6430 O.co2 1 <1>  -0.9000 
  2 C       -0.1710    -3.4480     0.9600 C.2   1 <1>   1.0330 
  3 O       -1.3470    -3.2020     1.2800 O.co2 1 <1>  -0.9000 
  4 C        0.4150    -2.9380    -0.2290 C.2   1 <1>  -0.2330 
  5 C        0.0330    -3.2960    -1.5240 C.2   1 <1>   0.3720 
  6 C        1.4100    -2.0360    -0.4190 C.2   1 <1>   0.0870 
  7 N        0.7240    -2.6540    -2.3970 N.2   1 <1>  -0.4100 
  8 N       -0.9720    -4.1950    -1.9100 N.pl3 1 <1>  -0.8210 
  9 O        1.5490    -1.9020    -1.7160 O.3   1 <1>  -0.0190 
 10 C        2.2430    -1.2710     0.4790 C.ar  1 <1>   0.0530 
 11 C       -1.0260    -5.5220    -1.2490 C.3   1 <1>   0.2090 
 12 C       -2.3210    -3.5930    -1.9700 C.3   1 <1>   0.2090 
 13 C        2.7690    -0.0390     0.0870 C.ar  1 <1>  -0.1500 
 14 C        2.5620    -1.7200     1.7610 C.ar  1 <1>  -0.1500 
 15 C       -2.4980    -5.7780    -0.9170 C.3   1 <1>  -0.0800 
 16 C       -3.2060    -4.4260    -1.0510 C.3   1 <1>  -0.1600 
 17 C        3.5690     0.7110     0.9300 C.ar  1 <1>  -0.1500 
 18 C        3.3590    -0.9750     2.6110 C.ar  1 <1>  -0.1500 
 19 C       -2.7190    -6.5200     0.4140 C.3   1 <1>   0.3430 
 20 C        3.8660     0.2440     2.1970 C.ar  1 <1>  -0.1500 
 21 N       -2.3470    -5.7240     1.6160 N.4   1 <1>  -0.9590 
 22 C       -1.3330    -6.3880     2.4790 C.3   1 <1>   0.2630 
 23 C       -3.4990    -5.2270     2.4080 C.3   1 <1>   0.2630 
 24 H       -0.4040    -5.5490    -0.3740 H     1 <1>   0.0800 
 25 H       -0.6590    -6.2670    -1.9330 H     1 <1>   0.0800 
 26 H       -2.6740    -3.6440    -2.9860 H     1 <1>   0.0800 
 27 H       -2.3020    -2.5610    -1.6560 H     1 <1>   0.0800 
 28 H        2.5430     0.3360    -0.8960 H     1 <1>   0.1500 
 29 H        2.1880    -2.6690     2.0990 H     1 <1>   0.1500 
 30 H       -2.8710    -6.4140    -1.7000 H     1 <1>   0.0800 
 31 H       -4.1960    -4.5230    -1.4580 H     1 <1>   0.0800 
 32 H       -3.2770    -3.9110    -0.1130 H     1 <1>   0.0800 
 33 H        3.9590     1.6580     0.6000 H     1 <1>   0.1500 
 34 H        3.5850    -1.3480     3.5940 H     1 <1>   0.1500 
 35 H       -2.1380    -7.4270     0.3960 H     1 <1>   0.0800 
 36 H       -3.7560    -6.8010     0.4850 H     1 <1>   0.0800 
 37 H        4.4860     0.8240     2.8580 H     1 <1>   0.1500 
 38 H       -1.8610    -4.8350     1.3080 H     1 <1>   0.4500 
 39 H       -1.7280    -7.2880     2.9170 H     1 <1>   0.0800 
 40 H       -1.0260    -5.7110     3.2610 H     1 <1>   0.0800 
 41 H       -0.4550    -6.6220     1.8980 H     1 <1>   0.0800 
 42 H       -4.0310    -6.0460     2.8610 H     1 <1>   0.0800 
 43 H       -4.1710    -4.6720     1.7750 H     1 <1>   0.0800 
 44 H       -3.1440    -4.5630     3.1810 H     1 <1>   0.0800 
@<TRIPOS>BOND
  1   1   2  ar  
  2   2   3  ar  
  3   2   4  1   
  4   4   5  1   
  5   4   6  2   
  6   5   7  2   
  7   5   8  1   
  8   6   9  1   
  9   6  10  1   
 10   7   9  1   
 11   8  11  1   
 12   8  12  1   
 13  10  13  ar  
 14  10  14  ar  
 15  11  15  1   
 16  11  24  1   
 17  11  25  1   
 18  12  16  1   
 19  12  26  1   
 20  12  27  1   
 21  13  17  ar  
 22  13  28  1   
 23  14  18  ar  
 24  14  29  1   
 25  15  16  1   
 26  15  19  1   
 27  15  30  1   
 28  16  31  1   
 29  16  32  1   
 30  17  20  ar  
 31  17  33  1   
 32  18  20  ar  
 33  18  34  1   
 34  19  21  1   
 35  19  35  1   
 36  19  36  1   
 37  20  37  1   
 38  21  22  1   
 39  21  23  1   
 40  21  38  1   
 41  22  39  1   
 42  22  40  1   
 43  22  41  1   
 44  23  42  1   
 45  23  43  1   
 46  23  44  1   
@<TRIPOS>SUBSTRUCTURE
  1 ****   4 GROUP 4 **** **** 0

# MOE 2024.06 (io_trps.svl 2023.06)
