@<TRIPOS>MOLECULE
NONAME
50 53 1 0 0 
SMALL
USER_CHARGES


@<TRIPOS>ATOM
  1 O       -1.6760    -0.4540     1.3130 O.2   1 <1>  -0.5700 
  2 C       -1.5750     0.1780     0.2760 C.2   1 <1>   0.7160 
  3 N       -1.4060    -0.4780    -0.9060 N.am  1 <1>  -0.7300 
  4 C       -1.6240     1.5980     0.2650 C.2   1 <1>  -0.0860 
  5 C       -1.7600    -1.8820    -1.2010 C.3   1 <1>   0.4000 
  6 C       -2.7870     2.3660     0.2450 C.2   1 <1>   0.3720 
  7 C       -0.6260     2.5160     0.2260 C.2   1 <1>   0.0870 
  8 C       -3.2170    -2.1620    -0.8560 C.2   1 <1>   0.0060 
  9 C       -0.7880    -2.8360    -0.5060 C.3   1 <1>  -0.2400 
 10 N       -2.5050     3.6220     0.1880 N.2   1 <1>  -0.4100 
 11 N       -4.0900     1.8510     0.2720 N.pl3 1 <1>  -0.8210 
 12 O       -1.1990     3.6920     0.1780 O.3   1 <1>  -0.0190 
 13 C        0.8090     2.3860     0.2150 C.ar  1 <1>   0.0530 
 14 N       -4.1360    -2.4620    -1.7100 N.2   1 <1>  -0.3380 
 15 N       -3.7090    -2.1140     0.3810 N.pl3 1 <1>   0.0330 
 16 C       -4.5900     1.3660    -1.0550 C.3   1 <1>   0.2090 
 17 C       -5.0950     2.7630     0.9040 C.3   1 <1>   0.2090 
 18 C        1.6080     3.3290    -0.4330 C.ar  1 <1>  -0.1500 
 19 C        1.4530     1.3200     0.8440 C.ar  1 <1>  -0.1500 
 20 N       -5.2690    -2.6270    -1.0230 N.2   1 <1>  -0.3380 
 21 C       -4.9940    -2.4160     0.2180 C.2   1 <1>   0.0060 
 22 C       -6.0320     0.8280    -0.9650 C.3   1 <1>   0.1200 
 23 C       -6.4980     2.1330     0.9180 C.3   1 <1>   0.1200 
 24 C        2.9850     3.2060    -0.4660 C.ar  1 <1>  -0.1500 
 25 C        2.8290     1.1920     0.8130 C.ar  1 <1>  -0.1500 
 26 C       -5.9900    -2.4790     1.3560 C.3   1 <1>  -0.0600 
 27 O       -6.8870     1.7670    -0.3750 O.3   1 <1>  -0.5600 
 28 C        3.5990     2.1350     0.1570 C.ar  1 <1>  -0.1500 
 29 H       -1.3240     0.1010    -1.7400 H     1 <1>   0.3700 
 30 H       -1.6530    -2.0270    -2.2630 H     1 <1>   0.0800 
 31 H       -0.8670    -2.7650     0.5620 H     1 <1>   0.0800 
 32 H        0.2210    -2.6160    -0.8040 H     1 <1>   0.0800 
 33 H       -1.0150    -3.8460    -0.7940 H     1 <1>   0.0800 
 34 H       -3.1920    -1.8450     1.2270 H     1 <1>   0.2700 
 35 H       -3.9550     0.5790    -1.4190 H     1 <1>   0.0800 
 36 H       -4.5620     2.1730    -1.7670 H     1 <1>   0.0800 
 37 H       -5.1390     3.6930     0.3620 H     1 <1>   0.0800 
 38 H       -4.7910     2.9810     1.9130 H     1 <1>   0.0800 
 39 H        1.1430     4.1680    -0.9200 H     1 <1>   0.1500 
 40 H        0.8760     0.5820     1.3730 H     1 <1>   0.1500 
 41 H       -6.0610    -0.0720    -0.3810 H     1 <1>   0.0800 
 42 H       -6.4080     0.6070    -1.9480 H     1 <1>   0.0800 
 43 H       -7.2180     2.8390     1.2900 H     1 <1>   0.0800 
 44 H       -6.5110     1.2580     1.5450 H     1 <1>   0.0800 
 45 H        3.5800     3.9450    -0.9740 H     1 <1>   0.1500 
 46 H        3.3050     0.3600     1.3050 H     1 <1>   0.1500 
 47 H       -6.0230    -1.5350     1.8700 H     1 <1>   0.0800 
 48 H       -5.7110    -3.2520     2.0480 H     1 <1>   0.0800 
 49 H       -6.9700    -2.6970     0.9700 H     1 <1>   0.0800 
 50 H        4.6710     2.0370     0.1330 H     1 <1>   0.1500 
@<TRIPOS>BOND
  1   1   2  2   
  2   2   3  am  
  3   2   4  1   
  4   3   5  1   
  5   3  29  1   
  6   4   6  1   
  7   4   7  2   
  8   5   8  1   
  9   5   9  1   
 10   5  30  1   
 11   6  10  2   
 12   6  11  1   
 13   7  12  1   
 14   7  13  1   
 15   8  14  2   
 16   8  15  1   
 17   9  31  1   
 18   9  32  1   
 19   9  33  1   
 20  10  12  1   
 21  11  16  1   
 22  11  17  1   
 23  13  18  ar  
 24  13  19  ar  
 25  14  20  1   
 26  15  21  1   
 27  15  34  1   
 28  16  22  1   
 29  16  35  1   
 30  16  36  1   
 31  17  23  1   
 32  17  37  1   
 33  17  38  1   
 34  18  24  ar  
 35  18  39  1   
 36  19  25  ar  
 37  19  40  1   
 38  20  21  2   
 39  21  26  1   
 40  22  27  1   
 41  22  41  1   
 42  22  42  1   
 43  23  27  1   
 44  23  43  1   
 45  23  44  1   
 46  24  28  ar  
 47  24  45  1   
 48  25  28  ar  
 49  25  46  1   
 50  26  47  1   
 51  26  48  1   
 52  26  49  1   
 53  28  50  1   
@<TRIPOS>SUBSTRUCTURE
  1 ****   2 GROUP 4 **** **** 0

# MOE 2024.06 (io_trps.svl 2023.06)
