@<TRIPOS>MOLECULE
NONAME
48 50 1 0 0 
SMALL
USER_CHARGES


@<TRIPOS>ATOM
  1 S        3.3330    -0.2910    -0.9960 S.3   1 <1>  -0.0800 
  2 C        2.7090     1.0370    -0.0120 C.2   1 <1>  -0.0450 
  3 C        3.3170    -1.3990     0.3580 C.2   1 <1>  -0.1100 
  4 C        2.5010     2.3210    -0.6330 C.2   1 <1>   0.7150 
  5 C        2.5250     0.5860     1.2560 C.2   1 <1>  -0.1500 
  6 C        2.8670    -0.7820     1.4650 C.2   1 <1>  -0.1500 
  7 O        2.3380     2.4300    -1.8350 O.2   1 <1>  -0.5700 
  8 N        2.5660     3.4830     0.1050 N.am  1 <1>  -0.6600 
  9 C        3.7630     3.7510     0.9520 C.3   1 <1>   0.1400 
 10 C        1.7550     4.6650    -0.2880 C.3   1 <1>   0.1400 
 11 C        5.0220     3.9130     0.0760 C.3   1 <1>   0.3430 
 12 C        2.6100     5.7770    -0.9090 C.3   1 <1>  -0.1600 
 13 N        4.9970     5.1010    -0.8460 N.4   1 <1>  -0.9590 
 14 C        3.8020     5.2650    -1.7230 C.3   1 <1>   0.3430 
 15 C        6.2590     5.1650    -1.6250 C.3   1 <1>   0.5240 
 16 C        7.3330     5.6770    -0.6750 C.2   1 <1>   0.0460 
 17 N        7.0100     6.6160     0.2430 N.2   1 <1>  -0.5650 
 18 C        8.6360     5.3280    -0.5710 C.2   1 <1>  -0.3320 
 19 C        8.1190     6.8330     0.8720 C.2   1 <1>   0.0060 
 20 N        9.1460     6.0780     0.4250 N.pl3 1 <1>   0.0330 
 21 C        9.4790     4.3320    -1.3510 C.3   1 <1>  -0.0600 
 22 C        8.2760     7.8350     2.0030 C.3   1 <1>   0.0200 
 23 C        9.1380     9.0270     1.5750 C.3   1 <1>  -0.2400 
 24 H        3.6470    -2.4090     0.1810 H     1 <1>   0.1500 
 25 H        2.1410     1.1810     2.0670 H     1 <1>   0.1500 
 26 H        2.7570    -1.2440     2.4310 H     1 <1>   0.1500 
 27 H        3.9140     2.9270     1.6260 H     1 <1>   0.0800 
 28 H        3.6110     4.6330     1.5490 H     1 <1>   0.0800 
 29 H        1.2310     5.0430     0.5740 H     1 <1>   0.0800 
 30 H        1.0080     4.3550    -1.0020 H     1 <1>   0.0800 
 31 H        5.1500     3.0130    -0.5010 H     1 <1>   0.0800 
 32 H        5.8770     4.0030     0.7290 H     1 <1>   0.0800 
 33 H        2.9400     6.4630    -0.1500 H     1 <1>   0.0800 
 34 H        1.9690     6.3350    -1.5680 H     1 <1>   0.0800 
 35 H        5.1020     5.9410    -0.2470 H     1 <1>   0.4500 
 36 H        4.0240     5.9960    -2.4830 H     1 <1>   0.0800 
 37 H        3.5550     4.3380    -2.2150 H     1 <1>   0.0800 
 38 H        6.1590     5.8700    -2.4330 H     1 <1>   0.0800 
 39 H        6.5240     4.2010    -2.0250 H     1 <1>   0.0800 
 40 H       10.1110     6.0960     0.7720 H     1 <1>   0.2700 
 41 H        8.8950     3.8390    -2.1070 H     1 <1>   0.0800 
 42 H        9.8800     3.5850    -0.6890 H     1 <1>   0.0800 
 43 H       10.2980     4.8380    -1.8330 H     1 <1>   0.0800 
 44 H        8.7180     7.3510     2.8560 H     1 <1>   0.0800 
 45 H        7.3030     8.1910     2.2940 H     1 <1>   0.0800 
 46 H       10.1310     8.7070     1.3180 H     1 <1>   0.0800 
 47 H        9.2040     9.7410     2.3770 H     1 <1>   0.0800 
 48 H        8.6970     9.5110     0.7210 H     1 <1>   0.0800 
@<TRIPOS>BOND
  1   1   2  1   
  2   1   3  1   
  3   2   4  1   
  4   2   5  2   
  5   3   6  2   
  6   3  24  1   
  7   4   7  2   
  8   4   8  am  
  9   5   6  1   
 10   5  25  1   
 11   6  26  1   
 12   8   9  1   
 13   8  10  1   
 14   9  11  1   
 15   9  27  1   
 16   9  28  1   
 17  10  12  1   
 18  10  29  1   
 19  10  30  1   
 20  11  13  1   
 21  11  31  1   
 22  11  32  1   
 23  12  14  1   
 24  12  33  1   
 25  12  34  1   
 26  13  14  1   
 27  13  15  1   
 28  13  35  1   
 29  14  36  1   
 30  14  37  1   
 31  15  16  1   
 32  15  38  1   
 33  15  39  1   
 34  16  17  1   
 35  16  18  2   
 36  17  19  2   
 37  18  20  1   
 38  18  21  1   
 39  19  20  1   
 40  19  22  1   
 41  20  40  1   
 42  21  41  1   
 43  21  42  1   
 44  21  43  1   
 45  22  23  1   
 46  22  44  1   
 47  22  45  1   
 48  23  46  1   
 49  23  47  1   
 50  23  48  1   
@<TRIPOS>SUBSTRUCTURE
  1 ****  11 GROUP 4 **** **** 0

# MOE 2024.06 (io_trps.svl 2023.06)
