@<TRIPOS>MOLECULE
NONAME
47 49 1 0 0 
SMALL
USER_CHARGES


@<TRIPOS>ATOM
  1 O       -1.8900    -0.4930     1.6500 O.2   1 <1>  -0.5700 
  2 C       -1.8090     0.1950     0.6600 C.2   1 <1>   0.5690 
  3 N       -1.7510    -0.3540    -0.5780 N.am  1 <1>  -0.7300 
  4 C       -1.8410     1.7140     0.8040 C.3   1 <1>  -0.0190 
  5 C       -1.8960    -1.8020    -0.8510 C.3   1 <1>   0.3200 
  6 C       -3.0850     2.3170     0.1200 C.3   1 <1>  -0.1600 
  7 C       -0.5390     2.3820     0.2990 C.3   1 <1>  -0.1600 
  8 C       -3.3560    -2.1950    -0.7220 C.2   1 <1>   0.0060 
  9 C       -3.2240     3.8290     0.3920 C.3   1 <1>   0.2000 
 10 C       -0.7130     3.8650    -0.0840 C.3   1 <1>  -0.1600 
 11 N       -4.1100    -2.5980    -1.6860 N.2   1 <1>  -0.5650 
 12 N       -3.9860    -2.1240     0.4780 N.pl3 1 <1>   0.0330 
 13 O       -3.8050     4.4220    -0.7440 O.3   1 <1>  -0.5600 
 14 C       -1.8640     4.5170     0.6870 C.3   1 <1>   0.2000 
 15 C       -5.3230    -2.8040    -1.0980 C.ar  1 <1>   0.2270 
 16 C       -5.2650    -2.5090     0.2510 C.ar  1 <1>  -0.1520 
 17 C       -5.1900     4.2870    -0.8400 C.3   1 <1>   0.0400 
 18 O       -1.9350     5.8410     0.3070 O.3   1 <1>  -0.6800 
 19 C       -6.5220    -3.2370    -1.6610 C.ar  1 <1>  -0.1500 
 20 C       -6.3890    -2.6290     1.0690 C.ar  1 <1>  -0.1500 
 21 C       -7.6400    -3.3600    -0.8630 C.ar  1 <1>  -0.1500 
 22 C       -7.5770    -3.0530     0.5110 C.ar  1 <1>   0.0820 
 23 O       -8.6450    -3.1510     1.3460 O.3   1 <1>  -0.3630 
 24 C       -9.8980    -3.6010     0.8810 C.3   1 <1>   0.0400 
 25 H       -1.8480     0.2450    -1.3990 H     1 <1>   0.3700 
 26 H       -1.9260     1.9210     1.8570 H     1 <1>   0.0800 
 27 H       -1.5480    -2.0190    -1.8460 H     1 <1>   0.0800 
 28 H       -1.3050    -2.3660    -0.1490 H     1 <1>   0.0800 
 29 H       -3.9670     1.8130     0.4750 H     1 <1>   0.0800 
 30 H       -3.0070     2.1540    -0.9410 H     1 <1>   0.0800 
 31 H        0.2030     2.2990     1.0750 H     1 <1>   0.0800 
 32 H       -0.1550     1.8580    -0.5600 H     1 <1>   0.0800 
 33 H       -3.8660     3.9980     1.2390 H     1 <1>   0.0800 
 34 H       -0.9300     3.9320    -1.1370 H     1 <1>   0.0800 
 35 H        0.2030     4.3970     0.1060 H     1 <1>   0.0800 
 36 H       -3.5650    -1.7740     1.3490 H     1 <1>   0.2700 
 37 H       -1.6490     4.4870     1.7410 H     1 <1>   0.0800 
 38 H       -5.5130     4.7920    -1.7330 H     1 <1>   0.0800 
 39 H       -5.6520     4.7430     0.0190 H     1 <1>   0.0800 
 40 H       -5.4490     3.2450    -0.9020 H     1 <1>   0.0800 
 41 H       -2.5700     5.8700    -0.4440 H     1 <1>   0.4000 
 42 H       -6.5420    -3.4630    -2.7100 H     1 <1>   0.1500 
 43 H       -6.3340    -2.3950     2.1160 H     1 <1>   0.1500 
 44 H       -8.5570    -3.6930    -1.3090 H     1 <1>   0.1500 
 45 H      -10.5790    -3.6060     1.7130 H     1 <1>   0.0800 
 46 H       -9.7880    -4.5980     0.4920 H     1 <1>   0.0800 
 47 H      -10.2520    -2.9260     0.1230 H     1 <1>   0.0800 
@<TRIPOS>BOND
  1   1   2  2   
  2   2   3  am  
  3   2   4  1   
  4   3   5  1   
  5   3  25  1   
  6   4   6  1   
  7   4   7  1   
  8   4  26  1   
  9   5   8  1   
 10   5  27  1   
 11   5  28  1   
 12   6   9  1   
 13   6  29  1   
 14   6  30  1   
 15   7  10  1   
 16   7  31  1   
 17   7  32  1   
 18   8  11  2   
 19   8  12  1   
 20   9  13  1   
 21   9  14  1   
 22   9  33  1   
 23  10  14  1   
 24  10  34  1   
 25  10  35  1   
 26  11  15  1   
 27  12  16  1   
 28  12  36  1   
 29  13  17  1   
 30  14  18  1   
 31  14  37  1   
 32  15  16  ar  
 33  15  19  ar  
 34  16  20  ar  
 35  17  38  1   
 36  17  39  1   
 37  17  40  1   
 38  18  41  1   
 39  19  21  ar  
 40  19  42  1   
 41  20  22  ar  
 42  20  43  1   
 43  21  22  ar  
 44  21  44  1   
 45  22  23  1   
 46  23  24  1   
 47  24  45  1   
 48  24  46  1   
 49  24  47  1   
@<TRIPOS>SUBSTRUCTURE
  1 ****  12 GROUP 4 **** **** 0

# MOE 2024.06 (io_trps.svl 2023.06)
