@<TRIPOS>MOLECULE
NONAME
48 50 1 0 0 
SMALL
USER_CHARGES


@<TRIPOS>ATOM
  1 O        1.8870    -0.5080     0.4210 O.2   1 <1>  -0.5700 
  2 C        2.6030     0.2200    -0.2290 C.2   1 <1>   0.7150 
  3 N        3.3510    -0.3520    -1.2060 N.am  1 <1>  -0.7300 
  4 C        2.7060     1.6260     0.0320 C.2   1 <1>  -0.2370 
  5 C        4.5720     0.2930    -1.7580 C.3   1 <1>   0.1400 
  6 N        2.9810     2.5520    -0.9190 N.pl3 1 <1>   0.3140 
  7 C        2.5990     2.3240     1.1900 C.2   1 <1>  -0.1500 
  8 C        4.2080     1.3840    -2.7830 C.3   1 <1>   0.2000 
  9 N        3.0820     3.7850    -0.4180 N.2   1 <1>  -0.7070 
 10 C        3.0470     2.3090    -2.3760 C.3   1 <1>   0.0960 
 11 C        2.8480     3.6590     0.8800 C.2   1 <1>   0.2030 
 12 O        3.8400     0.7500    -3.9600 O.3   1 <1>  -0.6800 
 13 C        2.8600     4.7460     1.8490 C.2   1 <1>   0.7160 
 14 O        2.6710     4.5520     3.0380 O.2   1 <1>  -0.5700 
 15 N        3.1080     6.0150     1.4210 N.am  1 <1>  -0.7300 
 16 C        3.4550     7.1630     2.2710 C.3   1 <1>   0.2840 
 17 C        4.9420     7.4310     2.1190 C.ar  1 <1>  -0.1430 
 18 C        5.4280     8.1700     1.0440 C.ar  1 <1>   0.0830 
 19 C        5.8240     6.9210     3.0580 C.ar  1 <1>  -0.1500 
 20 O        4.5250     8.6290     0.1380 O.3   1 <1>  -0.3620 
 21 C        6.7980     8.4000     0.9320 C.ar  1 <1>  -0.1500 
 22 C        7.1840     7.1500     2.9410 C.ar  1 <1>  -0.1500 
 23 C        4.9290     9.2930    -1.0380 C.3   1 <1>   0.1200 
 24 C        7.6690     7.8920     1.8790 C.ar  1 <1>  -0.1500 
 25 C        3.6790     9.6080    -1.8600 C.3   1 <1>  -0.1600 
 26 C        4.0360    10.3220    -3.1680 C.3   1 <1>  -0.2400 
 27 H        3.3130    -1.3740    -1.2190 H     1 <1>   0.3700 
 28 H        5.2080    -0.4450    -2.2180 H     1 <1>   0.0800 
 29 H        5.1260     0.7400    -0.9490 H     1 <1>   0.0800 
 30 H        2.3760     1.9440     2.1730 H     1 <1>   0.1500 
 31 H        5.0800     1.9760    -3.0030 H     1 <1>   0.0800 
 32 H        3.1490     3.2550    -2.8750 H     1 <1>   0.0800 
 33 H        2.1100     1.8710    -2.6650 H     1 <1>   0.0800 
 34 H        3.1600     0.0700    -3.7730 H     1 <1>   0.4000 
 35 H        3.3810     6.1100     0.4400 H     1 <1>   0.3700 
 36 H        3.2150     6.9530     3.2990 H     1 <1>   0.0800 
 37 H        2.8840     8.0220     1.9630 H     1 <1>   0.0800 
 38 H        5.4540     6.3360     3.8840 H     1 <1>   0.1500 
 39 H        7.2050     8.9700     0.1200 H     1 <1>   0.1500 
 40 H        7.8620     6.7510     3.6750 H     1 <1>   0.1500 
 41 H        5.5900     8.6430    -1.5850 H     1 <1>   0.0800 
 42 H        5.4390    10.1990    -0.7590 H     1 <1>   0.0800 
 43 H        8.7270     8.0710     1.7890 H     1 <1>   0.1500 
 44 H        3.0240    10.2350    -1.2810 H     1 <1>   0.0800 
 45 H        3.1640     8.6900    -2.0870 H     1 <1>   0.0800 
 46 H        4.5400    11.2510    -2.9660 H     1 <1>   0.0800 
 47 H        3.1410    10.5350    -3.7270 H     1 <1>   0.0800 
 48 H        4.6760     9.7030    -3.7730 H     1 <1>   0.0800 
@<TRIPOS>BOND
  1   1   2  2   
  2   2   3  am  
  3   2   4  1   
  4   3   5  1   
  5   3  27  1   
  6   4   6  1   
  7   4   7  2   
  8   5   8  1   
  9   5  28  1   
 10   5  29  1   
 11   6   9  1   
 12   6  10  1   
 13   7  11  1   
 14   7  30  1   
 15   8  10  1   
 16   8  12  1   
 17   8  31  1   
 18   9  11  2   
 19  10  32  1   
 20  10  33  1   
 21  11  13  1   
 22  12  34  1   
 23  13  14  2   
 24  13  15  am  
 25  15  16  1   
 26  15  35  1   
 27  16  17  1   
 28  16  36  1   
 29  16  37  1   
 30  17  18  ar  
 31  17  19  ar  
 32  18  20  1   
 33  18  21  ar  
 34  19  22  ar  
 35  19  38  1   
 36  20  23  1   
 37  21  24  ar  
 38  21  39  1   
 39  22  24  ar  
 40  22  40  1   
 41  23  25  1   
 42  23  41  1   
 43  23  42  1   
 44  24  43  1   
 45  25  26  1   
 46  25  44  1   
 47  25  45  1   
 48  26  46  1   
 49  26  47  1   
 50  26  48  1   
@<TRIPOS>SUBSTRUCTURE
  1 ****   9 GROUP 4 **** **** 0

# MOE 2024.06 (io_trps.svl 2023.06)
