@<TRIPOS>MOLECULE
NONAME
44 46 1 0 0 
SMALL
USER_CHARGES


@<TRIPOS>ATOM
  1 F       -0.9000    -0.4930    -1.0450 F     1 <1>  -0.1900 
  2 C       -1.8910    -1.0950    -0.4180 C.ar  1 <1>   0.1900 
  3 C       -3.1310    -0.4850    -0.2460 C.ar  1 <1>   0.4100 
  4 C       -1.6900    -2.3490     0.0830 C.ar  1 <1>   0.1600 
  5 N       -4.0810    -1.1260     0.4080 N.ar  1 <1>  -0.6200 
  6 N       -3.4490     0.7850    -0.7270 N.pl3 1 <1>  -0.8380 
  7 N       -2.6410    -2.9950     0.7260 N.ar  1 <1>  -0.6200 
  8 C       -3.7960    -2.3440     0.8640 C.ar  1 <1>   0.7200 
  9 C       -3.0970     1.1920    -2.1130 C.3   1 <1>   0.1290 
 10 C       -4.5030     1.6050    -0.0700 C.3   1 <1>   0.1290 
 11 N       -4.7950    -3.0060     1.5490 N.pl3 1 <1>  -0.8380 
 12 C       -4.9280    -4.4940     1.5020 C.3   1 <1>   0.2090 
 13 C       -6.0770    -2.3450     1.9420 C.3   1 <1>   0.2090 
 14 C       -6.1110    -4.9090     0.6050 C.3   1 <1>   0.1100 
 15 C       -7.2230    -2.7980     1.0170 C.3   1 <1>   0.1100 
 16 N       -7.3910    -4.2720     1.0150 N.3   1 <1>  -0.8100 
 17 C       -8.5070    -4.6630     0.1380 C.3   1 <1>   0.1100 
 18 C       -8.9840    -6.0770     0.4750 C.3   1 <1>   0.0960 
 19 N      -10.2270    -6.3740    -0.2530 N.pl3 1 <1>   0.3140 
 20 N      -10.2540    -6.6770    -1.5430 N.2   1 <1>  -0.7070 
 21 C      -11.4790    -6.3870     0.2140 C.2   1 <1>   0.0360 
 22 C      -11.5160    -6.8530    -1.7610 C.2   1 <1>   0.3660 
 23 N      -12.3240    -6.6850    -0.7060 N.2   1 <1>  -0.5650 
 24 H       -0.7370    -2.8310    -0.0420 H     1 <1>   0.1500 
 25 H       -2.7130     0.3540    -2.6680 H     1 <1>   0.0800 
 26 H       -2.3480     1.9650    -2.0830 H     1 <1>   0.0800 
 27 H       -3.9690     1.5640    -2.6220 H     1 <1>   0.0800 
 28 H       -4.5470     1.3770     0.9820 H     1 <1>   0.0800 
 29 H       -5.4600     1.3890    -0.5130 H     1 <1>   0.0800 
 30 H       -4.2810     2.6510    -0.1850 H     1 <1>   0.0800 
 31 H       -5.0940    -4.8610     2.4990 H     1 <1>   0.0800 
 32 H       -4.0300    -4.9550     1.1320 H     1 <1>   0.0800 
 33 H       -5.9880    -1.2740     1.9120 H     1 <1>   0.0800 
 34 H       -6.3150    -2.6190     2.9540 H     1 <1>   0.0800 
 35 H       -6.2060    -5.9780     0.6490 H     1 <1>   0.0800 
 36 H       -5.8780    -4.6370    -0.4110 H     1 <1>   0.0800 
 37 H       -7.0160    -2.4480     0.0200 H     1 <1>   0.0800 
 38 H       -8.1340    -2.3350     1.3540 H     1 <1>   0.0800 
 39 H       -8.2100    -4.6050    -0.8960 H     1 <1>   0.0800 
 40 H       -9.3290    -3.9850     0.2950 H     1 <1>   0.0800 
 41 H       -9.1730    -6.1560     1.5300 H     1 <1>   0.0800 
 42 H       -8.2470    -6.8010     0.1870 H     1 <1>   0.0800 
 43 H      -11.7280    -6.1730     1.2380 H     1 <1>   0.1500 
 44 H      -11.9200    -7.1190    -2.7250 H     1 <1>   0.1500 
@<TRIPOS>BOND
  1   1   2  1   
  2   2   3  ar  
  3   2   4  ar  
  4   3   5  ar  
  5   3   6  1   
  6   4   7  ar  
  7   4  24  1   
  8   5   8  ar  
  9   6   9  1   
 10   6  10  1   
 11   7   8  ar  
 12   8  11  1   
 13   9  25  1   
 14   9  26  1   
 15   9  27  1   
 16  10  28  1   
 17  10  29  1   
 18  10  30  1   
 19  11  12  1   
 20  11  13  1   
 21  12  14  1   
 22  12  31  1   
 23  12  32  1   
 24  13  15  1   
 25  13  33  1   
 26  13  34  1   
 27  14  16  1   
 28  14  35  1   
 29  14  36  1   
 30  15  16  1   
 31  15  37  1   
 32  15  38  1   
 33  16  17  1   
 34  17  18  1   
 35  17  39  1   
 36  17  40  1   
 37  18  19  1   
 38  18  41  1   
 39  18  42  1   
 40  19  20  1   
 41  19  21  1   
 42  20  22  2   
 43  21  23  2   
 44  21  43  1   
 45  22  23  1   
 46  22  44  1   
@<TRIPOS>SUBSTRUCTURE
  1 ****  15 GROUP 4 **** **** 0

# MOE 2024.06 (io_trps.svl 2023.06)
