@<TRIPOS>MOLECULE
NONAME
49 51 1 0 0 
SMALL
USER_CHARGES


@<TRIPOS>ATOM
  1 F       -1.6690     1.4580    -0.0410 F     1 <1>  -0.1900 
  2 C       -0.8980     2.4170     0.4140 C.ar  1 <1>   0.1900 
  3 C        0.4120     2.5070    -0.0420 C.ar  1 <1>   0.0830 
  4 C       -1.4390     3.3100     1.3260 C.ar  1 <1>  -0.1440 
  5 O        0.8500     1.5910    -0.9470 O.3   1 <1>  -0.3630 
  6 C        1.2040     3.5390     0.4540 C.ar  1 <1>  -0.1500 
  7 C       -0.6300     4.3290     1.8070 C.ar  1 <1>  -0.1500 
  8 C       -2.8790     3.1660     1.7780 C.3   1 <1>   0.4870 
  9 C        2.1860     1.5830    -1.4020 C.3   1 <1>   0.0400 
 10 C        0.6820     4.4390     1.3710 C.ar  1 <1>  -0.1500 
 11 N       -3.7750     3.3330     0.6060 N.4   1 <1>  -0.9590 
 12 C       -5.1810     2.9500     0.9370 C.3   1 <1>   0.3430 
 13 C       -3.6940     4.6980     0.0140 C.3   1 <1>   0.3430 
 14 C       -6.0790     2.9630    -0.3190 C.3   1 <1>   0.0000 
 15 C       -4.5370     4.7580    -1.2620 C.3   1 <1>  -0.1600 
 16 C       -7.5200     2.6170     0.0860 C.3   1 <1>   0.2000 
 17 C       -5.9940     4.3420    -1.0060 C.3   1 <1>  -0.1600 
 18 C       -5.7130     1.8070    -1.2660 C.3   1 <1>  -0.1600 
 19 O       -7.8020     3.1560     1.3420 O.3   1 <1>  -0.5600 
 20 C       -7.5970     1.0850     0.1160 C.3   1 <1>  -0.1600 
 21 C       -6.3760     0.5700    -0.6590 C.3   1 <1>  -0.1600 
 22 C       -9.1590     3.2070     1.6630 C.3   1 <1>   0.0400 
 23 H        2.2250     3.6590     0.1400 H     1 <1>   0.1500 
 24 H       -1.0020     5.0440     2.5230 H     1 <1>   0.1500 
 25 H       -3.1090     3.9020     2.5310 H     1 <1>   0.0800 
 26 H       -3.0150     2.1860     2.2060 H     1 <1>   0.0800 
 27 H        2.3010     0.7590    -2.0840 H     1 <1>   0.0800 
 28 H        2.8430     1.4520    -0.5600 H     1 <1>   0.0800 
 29 H        2.3900     2.5080    -1.9110 H     1 <1>   0.0800 
 30 H        1.3070     5.2320     1.7490 H     1 <1>   0.1500 
 31 H       -3.4340     2.6700    -0.1050 H     1 <1>   0.4500 
 32 H       -5.2080     1.9660     1.3750 H     1 <1>   0.0800 
 33 H       -5.5830     3.6440     1.6570 H     1 <1>   0.0800 
 34 H       -4.0620     5.4250     0.7200 H     1 <1>   0.0800 
 35 H       -2.6690     4.9410    -0.2230 H     1 <1>   0.0800 
 36 H       -4.5180     5.7630    -1.6450 H     1 <1>   0.0800 
 37 H       -4.0950     4.1240    -2.0120 H     1 <1>   0.0800 
 38 H       -8.2110     3.0130    -0.6400 H     1 <1>   0.0800 
 39 H       -6.5390     4.3330    -1.9360 H     1 <1>   0.0800 
 40 H       -6.4600     5.0770    -0.3700 H     1 <1>   0.0800 
 41 H       -6.1490     1.9840    -2.2350 H     1 <1>   0.0800 
 42 H       -4.6540     1.6670    -1.3960 H     1 <1>   0.0800 
 43 H       -7.5730     0.7130     1.1260 H     1 <1>   0.0800 
 44 H       -8.5050     0.7580    -0.3600 H     1 <1>   0.0800 
 45 H       -5.6970     0.0810     0.0190 H     1 <1>   0.0800 
 46 H       -6.6610    -0.1340    -1.4240 H     1 <1>   0.0800 
 47 H       -9.2570     3.6390     2.6440 H     1 <1>   0.0800 
 48 H       -9.5680     2.2110     1.6680 H     1 <1>   0.0800 
 49 H       -9.6730     3.8230     0.9450 H     1 <1>   0.0800 
@<TRIPOS>BOND
  1   1   2  1   
  2   2   3  ar  
  3   2   4  ar  
  4   3   5  1   
  5   3   6  ar  
  6   4   7  ar  
  7   4   8  1   
  8   5   9  1   
  9   6  10  ar  
 10   6  23  1   
 11   7  10  ar  
 12   7  24  1   
 13   8  11  1   
 14   8  25  1   
 15   8  26  1   
 16   9  27  1   
 17   9  28  1   
 18   9  29  1   
 19  10  30  1   
 20  11  12  1   
 21  11  13  1   
 22  11  31  1   
 23  12  14  1   
 24  12  32  1   
 25  12  33  1   
 26  13  15  1   
 27  13  34  1   
 28  13  35  1   
 29  14  16  1   
 30  14  17  1   
 31  14  18  1   
 32  15  17  1   
 33  15  36  1   
 34  15  37  1   
 35  16  19  1   
 36  16  20  1   
 37  16  38  1   
 38  17  39  1   
 39  17  40  1   
 40  18  21  1   
 41  18  41  1   
 42  18  42  1   
 43  19  22  1   
 44  20  21  1   
 45  20  43  1   
 46  20  44  1   
 47  21  45  1   
 48  21  46  1   
 49  22  47  1   
 50  22  48  1   
 51  22  49  1   
@<TRIPOS>SUBSTRUCTURE
  1 ****  11 GROUP 4 **** **** 0

# MOE 2024.06 (io_trps.svl 2023.06)
