@<TRIPOS>MOLECULE
NONAME
51 53 1 0 0 
SMALL
USER_CHARGES


@<TRIPOS>ATOM
  1 CL       1.9140    -0.7900    -4.7670 Cl    1 <1>  -0.1770 
  2 C        2.3070    -1.3750    -3.1720 C.ar  1 <1>   0.1770 
  3 C        2.2050    -2.7280    -2.9070 C.ar  1 <1>  -0.1500 
  4 C        2.7120    -0.4810    -2.1990 C.ar  1 <1>  -0.1500 
  5 C        2.5090    -3.2000    -1.6390 C.ar  1 <1>  -0.1440 
  6 C        3.0210    -0.9500    -0.9340 C.ar  1 <1>  -0.1500 
  7 C        2.9220    -2.3110    -0.6490 C.ar  1 <1>   0.0830 
  8 C        2.4090    -4.6820    -1.3310 C.3   1 <1>   0.4870 
  9 O        3.2030    -2.8340     0.5740 O.3   1 <1>  -0.3630 
 10 N        0.9790    -5.0440    -1.1120 N.4   1 <1>  -0.9590 
 11 C        4.0540    -2.1930     1.5050 C.3   1 <1>   0.2000 
 12 C        0.4680    -4.4280     0.1570 C.3   1 <1>   0.3430 
 13 C        0.8380    -6.5270    -0.9500 C.3   1 <1>   0.3430 
 14 C        5.4930    -2.2470     0.9880 C.3   1 <1>  -0.2400 
 15 C        3.9190    -2.9450     2.8270 C.3   1 <1>  -0.2400 
 16 C        0.5970    -5.5200     1.2240 C.3   1 <1>   0.2000 
 17 C        0.2190    -6.7690     0.4310 C.3   1 <1>  -0.0800 
 18 O        1.9290    -5.6240     1.6230 O.3   1 <1>  -0.6800 
 19 C        0.6320    -8.1180     1.0500 C.3   1 <1>  -0.0170 
 20 C        0.3400    -9.2480     0.0760 C.ar  1 <1>  -0.1430 
 21 C        1.3480    -9.9070    -0.5990 C.ar  1 <1>  -0.1500 
 22 C       -0.9490    -9.6690    -0.1890 C.ar  1 <1>  -0.1500 
 23 C        1.0270   -10.9110    -1.4980 C.ar  1 <1>   0.1600 
 24 C       -1.1620   -10.6830    -1.1070 C.ar  1 <1>   0.1600 
 25 N       -0.2050   -11.3040    -1.7750 N.ar  1 <1>  -0.6200 
 26 H        1.8940    -3.3850    -3.7010 H     1 <1>   0.1500 
 27 H        2.7830     0.5660    -2.4350 H     1 <1>   0.1500 
 28 H        3.3310    -0.2390    -0.1910 H     1 <1>   0.1500 
 29 H        2.9910    -4.9180    -0.4540 H     1 <1>   0.0800 
 30 H        2.8080    -5.2420    -2.1600 H     1 <1>   0.0800 
 31 H        0.4370    -4.6980    -1.9130 H     1 <1>   0.4500 
 32 H        3.7260    -1.1780     1.6460 H     1 <1>   0.0800 
 33 H        1.0030    -3.5360     0.4340 H     1 <1>   0.0800 
 34 H       -0.5740    -4.1830     0.0380 H     1 <1>   0.0800 
 35 H        0.2200    -6.9550    -1.7230 H     1 <1>   0.0800 
 36 H        1.8090    -6.9950    -0.9830 H     1 <1>   0.0800 
 37 H        5.8000    -3.2650     0.8290 H     1 <1>   0.0800 
 38 H        6.1560    -1.8010     1.7080 H     1 <1>   0.0800 
 39 H        5.5900    -1.6990     0.0680 H     1 <1>   0.0800 
 40 H        4.2230    -3.9700     2.7130 H     1 <1>   0.0800 
 41 H        2.9050    -2.8990     3.1800 H     1 <1>   0.0800 
 42 H        4.5500    -2.4880     3.5680 H     1 <1>   0.0800 
 43 H       -0.0220    -5.3540     2.0900 H     1 <1>   0.0800 
 44 H       -0.8490    -6.7750     0.3060 H     1 <1>   0.0800 
 45 H        2.2020    -4.8600     2.1760 H     1 <1>   0.4000 
 46 H        0.0920    -8.2820     1.9660 H     1 <1>   0.0800 
 47 H        1.6820    -8.1240     1.2910 H     1 <1>   0.0800 
 48 H        2.3810    -9.6600    -0.4360 H     1 <1>   0.1500 
 49 H       -1.7910    -9.2240     0.3090 H     1 <1>   0.1500 
 50 H        1.8240   -11.4190    -2.0160 H     1 <1>   0.1500 
 51 H       -2.1730   -11.0010    -1.3030 H     1 <1>   0.1500 
@<TRIPOS>BOND
  1   1   2  1   
  2   2   3  ar  
  3   2   4  ar  
  4   3   5  ar  
  5   3  26  1   
  6   4   6  ar  
  7   4  27  1   
  8   5   7  ar  
  9   5   8  1   
 10   6   7  ar  
 11   6  28  1   
 12   7   9  1   
 13   8  10  1   
 14   8  29  1   
 15   8  30  1   
 16   9  11  1   
 17  10  12  1   
 18  10  13  1   
 19  10  31  1   
 20  11  14  1   
 21  11  15  1   
 22  11  32  1   
 23  12  16  1   
 24  12  33  1   
 25  12  34  1   
 26  13  17  1   
 27  13  35  1   
 28  13  36  1   
 29  14  37  1   
 30  14  38  1   
 31  14  39  1   
 32  15  40  1   
 33  15  41  1   
 34  15  42  1   
 35  16  17  1   
 36  16  18  1   
 37  16  43  1   
 38  17  19  1   
 39  17  44  1   
 40  18  45  1   
 41  19  20  1   
 42  19  46  1   
 43  19  47  1   
 44  20  21  ar  
 45  20  22  ar  
 46  21  23  ar  
 47  21  48  1   
 48  22  24  ar  
 49  22  49  1   
 50  23  25  ar  
 51  23  50  1   
 52  24  25  ar  
 53  24  51  1   
@<TRIPOS>SUBSTRUCTURE
  1 ****  10 GROUP 4 **** **** 0

# MOE 2024.06 (io_trps.svl 2023.06)
