@<TRIPOS>MOLECULE
NONAME
52 55 1 0 0 
SMALL
USER_CHARGES


@<TRIPOS>ATOM
  1 O       -2.2770     0.9530     2.0200 O.2   1 <1>  -0.5700 
  2 C       -1.6060     1.8450     1.5260 C.2   1 <1>   0.5440 
  3 N       -0.9630     1.5630     0.3310 N.am  1 <1>  -0.6600 
  4 C       -1.5510     3.1430     2.2040 C.ar  1 <1>   0.3960 
  5 C       -1.1130     0.2670    -0.3690 C.3   1 <1>   0.1400 
  6 C       -0.2200     2.5300    -0.5120 C.3   1 <1>   0.1400 
  7 N       -0.4630     3.9250     2.1180 N.ar  1 <1>  -0.6200 
  8 C       -2.6700     3.5400     2.9450 C.ar  1 <1>   0.1600 
  9 C       -0.7660     0.5690    -1.8210 C.3   1 <1>  -0.1600 
 10 C        0.2070     1.7420    -1.7460 C.3   1 <1>  -0.1600 
 11 C       -0.5670     5.0670     2.7720 C.ar  1 <1>   0.4100 
 12 N       -2.7970     4.6830     3.6070 N.ar  1 <1>  -0.6200 
 13 N        0.5150     5.9240     2.6950 N.pl3 1 <1>  -0.8380 
 14 C       -1.7130     5.4240     3.4960 C.ar  1 <1>   0.1600 
 15 C        0.5300     6.9060     1.5660 C.3   1 <1>   0.2090 
 16 C        1.8850     5.3820     2.9740 C.3   1 <1>   0.2090 
 17 C        1.1850     6.3240     0.2960 C.3   1 <1>   0.2090 
 18 C        2.5810     4.8130     1.7180 C.3   1 <1>   0.2090 
 19 N        2.5470     5.7610     0.5600 N.pl3 1 <1>  -0.8380 
 20 C        3.6590     6.5430     0.3380 C.ar  1 <1>   0.4100 
 21 N        3.5830     7.7930     0.7470 N.ar  1 <1>  -0.6200 
 22 C        4.8110     6.0400    -0.2640 C.ar  1 <1>  -0.1430 
 23 C        4.6680     8.5150     0.5650 C.ar  1 <1>   0.4700 
 24 C        5.8810     6.9010    -0.3800 C.ar  1 <1>   0.1670 
 25 C        4.8640     4.6000    -0.7800 C.3   1 <1>  -0.0970 
 26 N        5.8170     8.1500     0.0320 N.ar  1 <1>  -0.6200 
 27 C        7.2120     6.4930    -0.9860 C.3   1 <1>  -0.0970 
 28 H       -2.1150    -0.1160    -0.2720 H     1 <1>   0.0800 
 29 H       -0.4160    -0.4380     0.0500 H     1 <1>   0.0800 
 30 H        0.6400     2.9150     0.0080 H     1 <1>   0.0800 
 31 H       -0.8740     3.3400    -0.7850 H     1 <1>   0.0800 
 32 H       -3.5090     2.8670     2.9880 H     1 <1>   0.1500 
 33 H       -1.6620     0.8680    -2.3370 H     1 <1>   0.0800 
 34 H       -0.3440    -0.2860    -2.3170 H     1 <1>   0.0800 
 35 H        1.2070     1.3760    -1.5940 H     1 <1>   0.0800 
 36 H        0.1890     2.3490    -2.6330 H     1 <1>   0.0800 
 37 H       -1.6990     6.3740     3.9960 H     1 <1>   0.1500 
 38 H        1.0760     7.7820     1.8700 H     1 <1>   0.0800 
 39 H       -0.4760     7.2090     1.3360 H     1 <1>   0.0800 
 40 H        1.8190     4.6090     3.7200 H     1 <1>   0.0800 
 41 H        2.4950     6.1730     3.3740 H     1 <1>   0.0800 
 42 H        1.2560     7.0960    -0.4500 H     1 <1>   0.0800 
 43 H        0.5560     5.5450    -0.0960 H     1 <1>   0.0800 
 44 H        2.1000     3.8950     1.4350 H     1 <1>   0.0800 
 45 H        3.6020     4.5820     1.9650 H     1 <1>   0.0800 
 46 H        4.6110     9.5380     0.8970 H     1 <1>   0.1500 
 47 H        3.8810     4.2520    -1.0460 H     1 <1>   0.0800 
 48 H        5.2630     3.9540    -0.0190 H     1 <1>   0.0800 
 49 H        5.4740     4.5260    -1.6600 H     1 <1>   0.0800 
 50 H        7.4520     5.4760    -0.7440 H     1 <1>   0.0800 
 51 H        7.9980     7.1200    -0.6040 H     1 <1>   0.0800 
 52 H        7.1710     6.6090    -2.0540 H     1 <1>   0.0800 
@<TRIPOS>BOND
  1   1   2  2   
  2   2   3  am  
  3   2   4  1   
  4   3   5  1   
  5   3   6  1   
  6   4   7  ar  
  7   4   8  ar  
  8   5   9  1   
  9   5  28  1   
 10   5  29  1   
 11   6  10  1   
 12   6  30  1   
 13   6  31  1   
 14   7  11  ar  
 15   8  12  ar  
 16   8  32  1   
 17   9  10  1   
 18   9  33  1   
 19   9  34  1   
 20  10  35  1   
 21  10  36  1   
 22  11  13  1   
 23  11  14  ar  
 24  12  14  ar  
 25  13  15  1   
 26  13  16  1   
 27  14  37  1   
 28  15  17  1   
 29  15  38  1   
 30  15  39  1   
 31  16  18  1   
 32  16  40  1   
 33  16  41  1   
 34  17  19  1   
 35  17  42  1   
 36  17  43  1   
 37  18  19  1   
 38  18  44  1   
 39  18  45  1   
 40  19  20  1   
 41  20  21  ar  
 42  20  22  ar  
 43  21  23  ar  
 44  22  24  ar  
 45  22  25  1   
 46  23  26  ar  
 47  23  46  1   
 48  24  26  ar  
 49  24  27  1   
 50  25  47  1   
 51  25  48  1   
 52  25  49  1   
 53  27  50  1   
 54  27  51  1   
 55  27  52  1   
@<TRIPOS>SUBSTRUCTURE
  1 ****  18 GROUP 4 **** **** 0

# MOE 2024.06 (io_trps.svl 2023.06)
