@<TRIPOS>MOLECULE
NONAME
40 42 1 0 0 
SMALL
USER_CHARGES


@<TRIPOS>ATOM
  1 S       -1.1080     1.1930    -0.2200 S.o2  1 <1>   1.5000 
  2 O       -1.2120     1.1840    -1.6630 O.2   1 <1>  -0.6500 
  3 O       -1.6990     2.2980     0.5080 O.2   1 <1>  -0.6500 
  4 N       -1.8550    -0.2130     0.3580 N.am  1 <1>  -0.8490 
  5 C        0.6090     1.0180     0.3270 C.2   1 <1>  -0.0220 
  6 C       -1.4670    -1.4240    -0.3940 C.3   1 <1>   0.1960 
  7 C       -3.3210    -0.0780     0.3430 C.3   1 <1>   0.1960 
  8 S        1.8740     0.8970    -0.8950 S.3   1 <1>  -0.0800 
  9 C        1.1700     0.9560     1.5540 C.2   1 <1>  -0.1500 
 10 C       -1.8940    -2.7260     0.3430 C.3   1 <1>  -0.1060 
 11 C       -4.0380    -1.3950     0.6830 C.3   1 <1>  -0.1600 
 12 C        3.1290     0.7710     0.3230 C.2   1 <1>  -0.1100 
 13 C        2.5950     0.8180     1.5560 C.2   1 <1>  -0.1500 
 14 C       -2.3140    -3.7440    -0.7310 C.2   1 <1>   0.9060 
 15 C       -3.0600    -2.3800     1.3140 C.3   1 <1>   0.2000 
 16 C       -0.7390    -3.3130     1.1990 C.3   1 <1>  -0.0650 
 17 O       -3.1290    -4.6360    -0.4520 O.co2 1 <1>  -0.9000 
 18 O       -1.8330    -3.6690    -1.8680 O.co2 1 <1>  -0.9000 
 19 O       -3.7510    -3.4990     1.7280 O.3   1 <1>  -0.6800 
 20 C        0.5360    -3.6880     0.4250 C.3   1 <1>  -0.1950 
 21 C        1.7950    -4.0000     1.1700 C.3   1 <1>  -0.2000 
 22 C        1.7020    -2.7560     0.3370 C.3   1 <1>  -0.2000 
 23 H       -1.9370    -1.3720    -1.3640 H     1 <1>   0.0800 
 24 H       -0.4080    -1.4360    -0.5740 H     1 <1>   0.0800 
 25 H       -3.6030     0.6690     1.0670 H     1 <1>   0.0800 
 26 H       -3.6500     0.2610    -0.6270 H     1 <1>   0.0800 
 27 H        0.6180     1.0030     2.4770 H     1 <1>   0.1500 
 28 H       -4.4420    -1.8230    -0.2180 H     1 <1>   0.0800 
 29 H       -4.8500    -1.1970     1.3580 H     1 <1>   0.0800 
 30 H        4.1450     0.6730    -0.0190 H     1 <1>   0.1500 
 31 H        3.1440     0.7610     2.4800 H     1 <1>   0.1500 
 32 H       -2.6640    -1.9230     2.2060 H     1 <1>   0.0800 
 33 H       -0.4830    -2.6170     1.9780 H     1 <1>   0.0800 
 34 H       -1.1020    -4.2070     1.6750 H     1 <1>   0.0800 
 35 H       -3.7100    -4.1450     0.9530 H     1 <1>   0.4000 
 36 H        0.3300    -4.3100    -0.4320 H     1 <1>   0.1000 
 37 H        1.8000    -3.9090     2.2420 H     1 <1>   0.1000 
 38 H        2.4020    -4.8170     0.8200 H     1 <1>   0.1000 
 39 H        2.2310    -2.7000    -0.5980 H     1 <1>   0.1000 
 40 H        1.6490    -1.8080     0.8400 H     1 <1>   0.1000 
@<TRIPOS>BOND
  1   1   2  2   
  2   1   3  2   
  3   1   4  am  
  4   1   5  1   
  5   4   6  1   
  6   4   7  1   
  7   5   8  1   
  8   5   9  2   
  9   6  10  1   
 10   6  23  1   
 11   6  24  1   
 12   7  11  1   
 13   7  25  1   
 14   7  26  1   
 15   8  12  1   
 16   9  13  1   
 17   9  27  1   
 18  10  14  1   
 19  10  15  1   
 20  10  16  1   
 21  11  15  1   
 22  11  28  1   
 23  11  29  1   
 24  12  13  2   
 25  12  30  1   
 26  13  31  1   
 27  14  17  ar  
 28  14  18  ar  
 29  15  19  1   
 30  15  32  1   
 31  16  20  1   
 32  16  33  1   
 33  16  34  1   
 34  19  35  1   
 35  20  21  1   
 36  20  22  1   
 37  20  36  1   
 38  21  22  1   
 39  21  37  1   
 40  21  38  1   
 41  22  39  1   
 42  22  40  1   
@<TRIPOS>SUBSTRUCTURE
  1 ****   6 GROUP 4 **** **** 0

# MOE 2024.06 (io_trps.svl 2023.06)
