@<TRIPOS>MOLECULE
NONAME
59 61 1 0 0 
SMALL
USER_CHARGES


@<TRIPOS>ATOM
  1 O        0.3880     0.4880     1.7490 O.2   1 <1>  -0.5700 
  2 C       -0.2760     1.3710     1.2680 C.2   1 <1>   0.5690 
  3 N       -1.4840     1.2480     0.6810 N.am  1 <1>  -0.6600 
  4 C        0.1690     2.8040     1.2720 C.3   1 <1>  -0.0990 
  5 C       -2.0190     2.5390     0.2150 C.3   1 <1>   0.1400 
  6 C       -2.1630    -0.0370     0.4130 C.3   1 <1>   0.2780 
  7 C       -1.1180     3.5720     0.9180 C.3   1 <1>  -0.0190 
  8 C       -2.3590    -0.2070    -1.0820 C.2   1 <1>  -0.2880 
  9 C       -0.8700     4.8310     0.0950 C.2   1 <1>   0.5690 
 10 C       -1.7500    -1.1280    -1.8370 C.2   1 <1>  -0.3000 
 11 O       -0.7950     4.7380    -1.1050 O.2   1 <1>  -0.5700 
 12 N       -0.6830     6.0460     0.7060 N.am  1 <1>  -0.6600 
 13 C        0.0600     6.2100     1.9870 C.3   1 <1>   0.1400 
 14 C       -0.9480     7.3030    -0.0490 C.3   1 <1>   0.1400 
 15 C        1.5750     6.0080     1.7660 C.3   1 <1>   0.3430 
 16 C        0.3460     8.0380    -0.4160 C.3   1 <1>  -0.1600 
 17 N        2.2220     6.9930     0.8310 N.4   1 <1>  -0.9590 
 18 C        1.5730     7.1310    -0.5150 C.3   1 <1>   0.3430 
 19 C        3.6590     6.6880     0.6590 C.3   1 <1>   0.5230 
 20 C        4.3480     7.9460     0.1690 C.2   1 <1>  -0.3320 
 21 N        5.5860     7.9190    -0.4060 N.pl3 1 <1>   0.0480 
 22 C        3.9160     9.2370     0.2080 C.2   1 <1>  -0.1500 
 23 C        5.9060     9.1900    -0.7280 C.2   1 <1>  -0.3020 
 24 C        6.4530     6.7480    -0.6520 C.3   1 <1>   0.0160 
 25 C        4.9020    10.0540    -0.3710 C.2   1 <1>  -0.0860 
 26 C        4.7890    11.4810    -0.5180 C.2   1 <1>   0.5950 
 27 O        3.8040    12.0930    -0.1870 O.2   1 <1>  -0.5700 
 28 C        5.9430    12.2550    -1.1140 C.3   1 <1>  -0.1790 
 29 H        0.9200     2.9200     0.5120 H     1 <1>   0.0800 
 30 H        0.5550     3.0710     2.2370 H     1 <1>   0.0800 
 31 H       -3.0510     2.6560     0.4980 H     1 <1>   0.0800 
 32 H       -1.9260     2.5890    -0.8570 H     1 <1>   0.0800 
 33 H       -3.1130    -0.0560     0.9170 H     1 <1>   0.0800 
 34 H       -1.5620    -0.8460     0.7960 H     1 <1>   0.0800 
 35 H       -1.6220     3.8450     1.8260 H     1 <1>   0.0800 
 36 H       -3.0540     0.5040    -1.4920 H     1 <1>   0.1500 
 37 H       -1.9020    -1.2320    -2.8980 H     1 <1>   0.1500 
 38 H       -1.0460    -1.8500    -1.4600 H     1 <1>   0.1500 
 39 H       -0.2920     5.4900     2.7040 H     1 <1>   0.0800 
 40 H       -0.1260     7.1870     2.4000 H     1 <1>   0.0800 
 41 H       -1.5870     7.9460     0.5330 H     1 <1>   0.0800 
 42 H       -1.4840     7.0660    -0.9550 H     1 <1>   0.0800 
 43 H        1.7270     5.0120     1.3880 H     1 <1>   0.0800 
 44 H        2.0640     6.0660     2.7260 H     1 <1>   0.0800 
 45 H        0.5240     8.8450     0.2720 H     1 <1>   0.0800 
 46 H        0.1880     8.4920    -1.3790 H     1 <1>   0.0800 
 47 H        2.2120     7.9260     1.2580 H     1 <1>   0.4500 
 48 H        2.2700     7.5900    -1.1990 H     1 <1>   0.0800 
 49 H        1.2980     6.1670    -0.9150 H     1 <1>   0.0800 
 50 H        3.7840     5.8890    -0.0530 H     1 <1>   0.0800 
 51 H        4.0970     6.3900     1.5980 H     1 <1>   0.0800 
 52 H        3.0010     9.6560     0.5930 H     1 <1>   0.1500 
 53 H        6.8400     9.4430    -1.2020 H     1 <1>   0.1500 
 54 H        6.6970     6.2770     0.2820 H     1 <1>   0.0800 
 55 H        7.3620     7.0690    -1.1290 H     1 <1>   0.0800 
 56 H        5.9480     6.0520    -1.2960 H     1 <1>   0.0800 
 57 H        6.8340    12.0770    -0.5420 H     1 <1>   0.0800 
 58 H        5.7240    13.3070    -1.0990 H     1 <1>   0.0800 
 59 H        6.1000    11.9450    -2.1290 H     1 <1>   0.0800 
@<TRIPOS>BOND
  1   1   2  2   
  2   2   3  am  
  3   2   4  1   
  4   3   5  1   
  5   3   6  1   
  6   4   7  1   
  7   4  29  1   
  8   4  30  1   
  9   5   7  1   
 10   5  31  1   
 11   5  32  1   
 12   6   8  1   
 13   6  33  1   
 14   6  34  1   
 15   7   9  1   
 16   7  35  1   
 17   8  10  2   
 18   8  36  1   
 19   9  11  2   
 20   9  12  am  
 21  10  37  1   
 22  10  38  1   
 23  12  13  1   
 24  12  14  1   
 25  13  15  1   
 26  13  39  1   
 27  13  40  1   
 28  14  16  1   
 29  14  41  1   
 30  14  42  1   
 31  15  17  1   
 32  15  43  1   
 33  15  44  1   
 34  16  18  1   
 35  16  45  1   
 36  16  46  1   
 37  17  18  1   
 38  17  19  1   
 39  17  47  1   
 40  18  48  1   
 41  18  49  1   
 42  19  20  1   
 43  19  50  1   
 44  19  51  1   
 45  20  21  1   
 46  20  22  2   
 47  21  23  1   
 48  21  24  1   
 49  22  25  1   
 50  22  52  1   
 51  23  25  2   
 52  23  53  1   
 53  24  54  1   
 54  24  55  1   
 55  24  56  1   
 56  25  26  1   
 57  26  27  2   
 58  26  28  1   
 59  28  57  1   
 60  28  58  1   
 61  28  59  1   
@<TRIPOS>SUBSTRUCTURE
  1 ****  18 GROUP 4 **** **** 0

# MOE 2024.06 (io_trps.svl 2023.06)
