@<TRIPOS>MOLECULE
NONAME
45 47 1 0 0 
SMALL
USER_CHARGES


@<TRIPOS>ATOM
  1 N       -0.1390    -0.1470     0.1260 N.ar  1 <1>  -0.1790 
  2 C        1.0810    -0.6430    -0.1300 C.ar  1 <1>   0.4610 
  3 C       -1.2300    -0.9390     0.4130 C.ar  1 <1>   0.2110 
  4 N        2.1130     0.1800    -0.4070 N.pl3 1 <1>  -0.8690 
  5 C        1.2600    -2.0710    -0.1150 C.ar  1 <1>   0.0000 
  6 C       -1.1000    -2.2850     0.4420 C.ar  1 <1>  -0.1500 
  7 C        2.2760     1.6770    -0.4480 C.3   1 <1>   0.2090 
  8 C        0.1540    -2.8970     0.1770 C.ar  1 <1>   0.0000 
  9 C        2.4920    -2.7030    -0.3740 C.ar  1 <1>  -0.1500 
 10 C        3.6090     2.1880     0.1970 C.3   1 <1>   0.4230 
 11 C        0.3070    -4.2890     0.2000 C.ar  1 <1>  -0.1500 
 12 C        2.6210    -4.0700    -0.3470 C.ar  1 <1>  -0.1500 
 13 N        3.8640     3.6600    -0.0450 N.4   1 <1>  -0.9590 
 14 C        4.8150     1.3860    -0.3360 C.3   1 <1>  -0.1600 
 15 C        1.5220    -4.8700    -0.0580 C.ar  1 <1>  -0.1500 
 16 C        5.1230     4.1150     0.6320 C.3   1 <1>   0.3430 
 17 C        2.7420     4.5600     0.3540 C.3   1 <1>   0.3430 
 18 C        6.1500     1.8470     0.2590 C.3   1 <1>  -0.1600 
 19 C        6.3230     3.3540     0.0760 C.3   1 <1>  -0.1600 
 20 C        2.8620     5.8890    -0.3830 C.3   1 <1>  -0.2400 
 21 H       -0.2680     0.8580     0.0800 H     1 <1>   0.4570 
 22 H       -2.1730    -0.4520     0.6070 H     1 <1>   0.1500 
 23 H        2.9770    -0.3010    -0.6950 H     1 <1>   0.4000 
 24 H       -1.9370    -2.9250     0.6650 H     1 <1>   0.1500 
 25 H        1.4460     2.1350     0.0570 H     1 <1>   0.0800 
 26 H        2.2600     1.9830    -1.4820 H     1 <1>   0.0800 
 27 H        3.3680    -2.1260    -0.6010 H     1 <1>   0.1500 
 28 H        3.5430     2.0260     1.2610 H     1 <1>   0.0800 
 29 H       -0.5410    -4.9140     0.4230 H     1 <1>   0.1500 
 30 H        3.5710    -4.5390    -0.5470 H     1 <1>   0.1500 
 31 H        4.0280     3.7870    -1.0530 H     1 <1>   0.4500 
 32 H        4.8560     1.4610    -1.4090 H     1 <1>   0.0800 
 33 H        4.7030     0.3450    -0.0890 H     1 <1>   0.0800 
 34 H        1.6350    -5.9420    -0.0400 H     1 <1>   0.1500 
 35 H        5.0520     3.9460     1.6950 H     1 <1>   0.0800 
 36 H        5.2770     5.1700     0.4700 H     1 <1>   0.0800 
 37 H        2.7530     4.7240     1.4210 H     1 <1>   0.0800 
 38 H        1.7950     4.1200     0.0910 H     1 <1>   0.0800 
 39 H        6.9650     1.3260    -0.2180 H     1 <1>   0.0800 
 40 H        6.1820     1.6060     1.3100 H     1 <1>   0.0800 
 41 H        7.2120     3.6750     0.5920 H     1 <1>   0.0800 
 42 H        6.4540     3.5930    -0.9660 H     1 <1>   0.0800 
 43 H        3.7400     6.4340    -0.0850 H     1 <1>   0.0800 
 44 H        2.0100     6.5010    -0.1450 H     1 <1>   0.0800 
 45 H        2.8730     5.7420    -1.4480 H     1 <1>   0.0800 
@<TRIPOS>BOND
  1   1   2  ar  
  2   1   3  ar  
  3   1  21  1   
  4   2   4  1   
  5   2   5  ar  
  6   3   6  ar  
  7   3  22  1   
  8   4   7  1   
  9   4  23  1   
 10   5   8  ar  
 11   5   9  ar  
 12   6   8  ar  
 13   6  24  1   
 14   7  10  1   
 15   7  25  1   
 16   7  26  1   
 17   8  11  ar  
 18   9  12  ar  
 19   9  27  1   
 20  10  13  1   
 21  10  14  1   
 22  10  28  1   
 23  11  15  ar  
 24  11  29  1   
 25  12  15  ar  
 26  12  30  1   
 27  13  16  1   
 28  13  17  1   
 29  13  31  1   
 30  14  18  1   
 31  14  32  1   
 32  14  33  1   
 33  15  34  1   
 34  16  19  1   
 35  16  35  1   
 36  16  36  1   
 37  17  20  1   
 38  17  37  1   
 39  17  38  1   
 40  18  19  1   
 41  18  39  1   
 42  18  40  1   
 43  19  41  1   
 44  19  42  1   
 45  20  43  1   
 46  20  44  1   
 47  20  45  1   
@<TRIPOS>SUBSTRUCTURE
  1 ****   4 GROUP 4 **** **** 0

# MOE 2024.06 (io_trps.svl 2023.06)
