@<TRIPOS>MOLECULE
NONAME
57 60 1 0 0 
SMALL
USER_CHARGES


@<TRIPOS>ATOM
  1 O        1.4720    -0.5730     1.7240 O.co2 1 <1>  -0.9000 
  2 C        1.3730     0.3760     0.9290 C.2   1 <1>   0.9060 
  3 O        0.5040     1.2360     1.0590 O.co2 1 <1>  -0.9000 
  4 C        2.3810     0.4850    -0.2320 C.3   1 <1>  -0.1060 
  5 C        3.7410    -0.0790     0.2390 C.3   1 <1>   0.4230 
  6 C        2.5840     1.9720    -0.6440 C.3   1 <1>  -0.1600 
  7 C        1.8900    -0.3130    -1.4630 C.3   1 <1>  -0.1600 
  8 N        3.6200    -1.5440     0.5510 N.4   1 <1>  -0.9590 
  9 C        4.2920     0.7790     1.4000 C.3   1 <1>   0.1400 
 10 C        3.1850     2.8130     0.4930 C.3   1 <1>   0.1400 
 11 C        1.8740    -1.8250    -1.1850 C.3   1 <1>  -0.1600 
 12 C        3.2100    -2.3330    -0.6390 C.3   1 <1>   0.3430 
 13 C        4.7830    -2.1430     1.2590 C.3   1 <1>   0.2630 
 14 N        4.4680     2.1810     0.9170 N.am  1 <1>  -0.6600 
 15 C        5.7180     2.6900     0.6810 C.2   1 <1>   0.5690 
 16 O        6.6960     1.9820     0.7480 O.2   1 <1>  -0.5700 
 17 C        5.8880     4.1570     0.3000 C.3   1 <1>  -0.0990 
 18 C        7.3400     4.6640     0.3680 C.3   1 <1>  -0.1600 
 19 C        7.4410     6.1520     0.0060 C.3   1 <1>   0.0210 
 20 C        8.8680     6.6710     0.0690 C.2   1 <1>  -0.1810 
 21 C        9.2180     8.0120    -0.2090 C.ar  1 <1>   0.0000 
 22 C       10.0110     6.0110     0.3810 C.2   1 <1>  -0.3020 
 23 C       10.5970     8.1040    -0.0490 C.ar  1 <1>  -0.1520 
 24 C        8.4920     9.1490    -0.5810 C.ar  1 <1>  -0.1500 
 25 N       11.0700     6.8700     0.3130 N.pl3 1 <1>   0.0330 
 26 C       11.2660     9.3130    -0.2530 C.ar  1 <1>  -0.1500 
 27 C        9.1510    10.3400    -0.7820 C.ar  1 <1>  -0.1500 
 28 C       10.5390    10.4220    -0.6180 C.ar  1 <1>  -0.1500 
 29 H        4.4410     0.0250    -0.5720 H     1 <1>   0.0800 
 30 H        1.6350     2.4000    -0.9210 H     1 <1>   0.0800 
 31 H        3.2300     2.0420    -1.5010 H     1 <1>   0.0800 
 32 H        0.8960     0.0130    -1.7250 H     1 <1>   0.0800 
 33 H        2.5330    -0.1190    -2.3050 H     1 <1>   0.0800 
 34 H        2.7860    -1.5370     1.1990 H     1 <1>   0.4500 
 35 H        5.2370     0.3950     1.7360 H     1 <1>   0.0800 
 36 H        3.6130     0.7770     2.2360 H     1 <1>   0.0800 
 37 H        2.5070     2.8450     1.3320 H     1 <1>   0.0800 
 38 H        3.3320     3.8220     0.1550 H     1 <1>   0.0800 
 39 H        1.6390    -2.3520    -2.0920 H     1 <1>   0.0800 
 40 H        1.0960    -2.0550    -0.4750 H     1 <1>   0.0800 
 41 H        3.9660    -2.2510    -1.4020 H     1 <1>   0.0800 
 42 H        3.1070    -3.3710    -0.3690 H     1 <1>   0.0800 
 43 H        5.6740    -2.0520     0.6590 H     1 <1>   0.0800 
 44 H        4.5980    -3.1860     1.4570 H     1 <1>   0.0800 
 45 H        4.9420    -1.6440     2.2000 H     1 <1>   0.0800 
 46 H        5.5160     4.2870    -0.6990 H     1 <1>   0.0800 
 47 H        5.2870     4.7470     0.9680 H     1 <1>   0.0800 
 48 H        7.7220     4.5150     1.3640 H     1 <1>   0.0800 
 49 H        7.9500     4.0930    -0.3110 H     1 <1>   0.0800 
 50 H        6.8390     6.7290     0.6850 H     1 <1>   0.0800 
 51 H        7.0670     6.3060    -0.9900 H     1 <1>   0.0800 
 52 H       10.1410     4.9770     0.6480 H     1 <1>   0.1500 
 53 H        7.4280     9.0750    -0.7040 H     1 <1>   0.1500 
 54 H       12.0510     6.6420     0.4970 H     1 <1>   0.2700 
 55 H       12.3330     9.3660    -0.1250 H     1 <1>   0.1500 
 56 H        8.6050    11.2220    -1.0680 H     1 <1>   0.1500 
 57 H       11.0310    11.3650    -0.7820 H     1 <1>   0.1500 
@<TRIPOS>BOND
  1   1   2  ar  
  2   2   3  ar  
  3   2   4  1   
  4   4   5  1   
  5   4   6  1   
  6   4   7  1   
  7   5   8  1   
  8   5   9  1   
  9   5  29  1   
 10   6  10  1   
 11   6  30  1   
 12   6  31  1   
 13   7  11  1   
 14   7  32  1   
 15   7  33  1   
 16   8  12  1   
 17   8  13  1   
 18   8  34  1   
 19   9  14  1   
 20   9  35  1   
 21   9  36  1   
 22  10  14  1   
 23  10  37  1   
 24  10  38  1   
 25  11  12  1   
 26  11  39  1   
 27  11  40  1   
 28  12  41  1   
 29  12  42  1   
 30  13  43  1   
 31  13  44  1   
 32  13  45  1   
 33  14  15  am  
 34  15  16  2   
 35  15  17  1   
 36  17  18  1   
 37  17  46  1   
 38  17  47  1   
 39  18  19  1   
 40  18  48  1   
 41  18  49  1   
 42  19  20  1   
 43  19  50  1   
 44  19  51  1   
 45  20  21  1   
 46  20  22  2   
 47  21  23  ar  
 48  21  24  ar  
 49  22  25  1   
 50  22  52  1   
 51  23  25  1   
 52  23  26  ar  
 53  24  27  ar  
 54  24  53  1   
 55  25  54  1   
 56  26  28  ar  
 57  26  55  1   
 58  27  28  ar  
 59  27  56  1   
 60  28  57  1   
@<TRIPOS>SUBSTRUCTURE
  1 ****  17 GROUP 4 **** **** 0

# MOE 2024.06 (io_trps.svl 2023.06)
