@<TRIPOS>MOLECULE
NONAME
48 49 1 0 0 
SMALL
USER_CHARGES


@<TRIPOS>ATOM
  1 F       -1.3860    -0.9060     0.0270 F     1 <1>  -0.1900 
  2 C       -1.5310    -2.2040     0.0310 C.ar  1 <1>   0.1900 
  3 C       -2.6880    -2.7430     0.5610 C.ar  1 <1>  -0.1500 
  4 C       -0.5230    -2.9900    -0.4940 C.ar  1 <1>  -0.1500 
  5 C       -2.8370    -4.1200     0.5620 C.ar  1 <1>  -0.1500 
  6 C       -0.6790    -4.3670    -0.4910 C.ar  1 <1>  -0.1500 
  7 C       -1.8400    -4.9340     0.0360 C.ar  1 <1>   0.0830 
  8 O       -2.0630    -6.2700     0.0630 O.3   1 <1>  -0.3630 
  9 C       -0.9690    -7.1810     0.0870 C.3   1 <1>   0.1810 
 10 C       -1.4560    -8.6210     0.2370 C.2   1 <1>   0.5690 
 11 O       -1.1850    -9.1900     1.2660 O.2   1 <1>  -0.5700 
 12 N       -2.1710    -9.2530    -0.7530 N.am  1 <1>  -0.6600 
 13 C       -2.3040   -10.7500    -0.7240 C.3   1 <1>   0.3210 
 14 C       -2.7440    -8.5800    -1.9670 C.3   1 <1>   0.1400 
 15 C       -3.6890   -11.2160    -0.2810 C.2   1 <1>   0.0460 
 16 C       -4.2360    -8.1880    -1.8440 C.3   1 <1>   0.3430 
 17 N       -4.7440   -11.1920    -1.1260 N.2   1 <1>  -0.5650 
 18 C       -4.0530   -11.7270     0.9200 C.2   1 <1>  -0.3320 
 19 N       -4.5750    -7.4280    -0.5930 N.4   1 <1>  -0.9590 
 20 C       -5.7060   -11.7180    -0.4400 C.2   1 <1>   0.0360 
 21 N       -5.3510   -12.0620     0.8150 N.pl3 1 <1>   0.0330 
 22 C       -3.2490   -11.9530     2.1910 C.3   1 <1>  -0.0600 
 23 C       -4.8690    -8.3620     0.5380 C.3   1 <1>   0.2630 
 24 C       -5.7200    -6.5010    -0.8190 C.3   1 <1>   0.2630 
 25 H       -3.4450    -2.0940     0.9650 H     1 <1>   0.1500 
 26 H        0.3620    -2.5270    -0.8940 H     1 <1>   0.1500 
 27 H       -3.7230    -4.5590     0.9810 H     1 <1>   0.1500 
 28 H        0.1080    -4.9690    -0.9050 H     1 <1>   0.1500 
 29 H       -0.3380    -6.9260     0.9200 H     1 <1>   0.0800 
 30 H       -0.4140    -7.0890    -0.8270 H     1 <1>   0.0800 
 31 H       -1.5680   -11.1700    -0.0620 H     1 <1>   0.0800 
 32 H       -2.1020   -11.1500    -1.7020 H     1 <1>   0.0800 
 33 H       -2.6390    -9.2380    -2.8130 H     1 <1>   0.0800 
 34 H       -2.1780    -7.6960    -2.1970 H     1 <1>   0.0800 
 35 H       -4.8490    -9.0690    -1.9100 H     1 <1>   0.0800 
 36 H       -4.4770    -7.5810    -2.7000 H     1 <1>   0.0800 
 37 H       -3.7360    -6.8770    -0.3280 H     1 <1>   0.4500 
 38 H       -6.7020   -11.8830    -0.8150 H     1 <1>   0.1500 
 39 H       -5.9400   -12.5110     1.5240 H     1 <1>   0.2700 
 40 H       -2.2450   -11.5810     2.0840 H     1 <1>   0.0800 
 41 H       -3.1980   -13.0040     2.4160 H     1 <1>   0.0800 
 42 H       -3.7070   -11.4420     3.0190 H     1 <1>   0.0800 
 43 H       -5.6620    -9.0400     0.2670 H     1 <1>   0.0800 
 44 H       -5.1610    -7.8110     1.4160 H     1 <1>   0.0800 
 45 H       -3.9980    -8.9470     0.7820 H     1 <1>   0.0800 
 46 H       -6.5980    -7.0560    -1.1050 H     1 <1>   0.0800 
 47 H       -5.4830    -5.7990    -1.6020 H     1 <1>   0.0800 
 48 H       -5.9370    -5.9510     0.0820 H     1 <1>   0.0800 
@<TRIPOS>BOND
  1   1   2  1   
  2   2   3  ar  
  3   2   4  ar  
  4   3   5  ar  
  5   3  25  1   
  6   4   6  ar  
  7   4  26  1   
  8   5   7  ar  
  9   5  27  1   
 10   6   7  ar  
 11   6  28  1   
 12   7   8  1   
 13   8   9  1   
 14   9  10  1   
 15   9  29  1   
 16   9  30  1   
 17  10  11  2   
 18  10  12  am  
 19  12  13  1   
 20  12  14  1   
 21  13  15  1   
 22  13  31  1   
 23  13  32  1   
 24  14  16  1   
 25  14  33  1   
 26  14  34  1   
 27  15  17  1   
 28  15  18  2   
 29  16  19  1   
 30  16  35  1   
 31  16  36  1   
 32  17  20  2   
 33  18  21  1   
 34  18  22  1   
 35  19  23  1   
 36  19  24  1   
 37  19  37  1   
 38  20  21  1   
 39  20  38  1   
 40  21  39  1   
 41  22  40  1   
 42  22  41  1   
 43  22  42  1   
 44  23  43  1   
 45  23  44  1   
 46  23  45  1   
 47  24  46  1   
 48  24  47  1   
 49  24  48  1   
@<TRIPOS>SUBSTRUCTURE
  1 ****   8 GROUP 4 **** **** 0

# MOE 2024.06 (io_trps.svl 2023.06)
