@<TRIPOS>MOLECULE
NONAME
48 50 1 0 0 
SMALL
USER_CHARGES


@<TRIPOS>ATOM
  1 O       -1.8520     0.0170     2.5740 O.2   1 <1>  -0.5700 
  2 C       -1.9380     0.5810     1.5000 C.2   1 <1>   0.5440 
  3 N       -2.1880    -0.1610     0.3680 N.am  1 <1>  -0.6600 
  4 C       -1.8430     2.0190     1.4640 C.ar  1 <1>   0.0860 
  5 C       -2.2610    -1.6640     0.4160 C.3   1 <1>   0.3640 
  6 C       -2.5590     0.4740    -0.9370 C.3   1 <1>   0.1400 
  7 C       -0.8020     2.6850     0.8040 C.ar  1 <1>   0.3920 
  8 C       -2.8000     2.7980     2.1000 C.ar  1 <1>  -0.1500 
  9 C       -0.9910    -2.3300    -0.1480 C.ar  1 <1>  -0.1440 
 10 C       -3.5450    -2.1880    -0.3050 C.3   1 <1>   0.2000 
 11 C       -3.0820    -0.5480    -1.9580 C.3   1 <1>   0.1200 
 12 O        0.1490     1.9320     0.2110 O.3   1 <1>  -0.3630 
 13 N       -0.6760     4.0070     0.7110 N.ar  1 <1>  -0.6200 
 14 C       -2.6760     4.1650     2.0220 C.ar  1 <1>  -0.1500 
 15 C       -0.8630    -3.7080    -0.0150 C.ar  1 <1>  -0.1500 
 16 C        0.0420    -1.6310    -0.7640 C.ar  1 <1>  -0.1500 
 17 O       -4.0290    -1.3650    -1.3470 O.3   1 <1>  -0.5600 
 18 C       -4.7010    -2.3600     0.6870 C.3   1 <1>   0.1200 
 19 C        1.2950     2.5010    -0.3900 C.3   1 <1>   0.0400 
 20 C       -1.6140     4.7180     1.3240 C.ar  1 <1>   0.3930 
 21 C        0.2460    -4.3730    -0.5080 C.ar  1 <1>  -0.1500 
 22 C        1.1530    -2.2920    -1.2590 C.ar  1 <1>  -0.1500 
 23 O       -4.4860    -3.4820     1.4840 O.3   1 <1>  -0.6800 
 24 O       -1.5500     6.0610     1.2770 O.3   1 <1>  -0.3630 
 25 C        1.2550    -3.6650    -1.1350 C.ar  1 <1>  -0.1500 
 26 C       -0.4950     6.7260     0.6100 C.3   1 <1>   0.0400 
 27 H       -2.3190    -1.9830     1.4420 H     1 <1>   0.0800 
 28 H       -3.3260     1.2090    -0.7660 H     1 <1>   0.0800 
 29 H       -1.7040     0.9770    -1.3530 H     1 <1>   0.0800 
 30 H       -3.6070     2.3320     2.6390 H     1 <1>   0.1500 
 31 H       -3.3440    -3.1440    -0.7520 H     1 <1>   0.0800 
 32 H       -2.2860    -1.1610    -2.3440 H     1 <1>   0.0800 
 33 H       -3.5580    -0.0430    -2.7800 H     1 <1>   0.0800 
 34 H       -3.3880     4.8160     2.4950 H     1 <1>   0.1500 
 35 H       -1.6300    -4.2760     0.4820 H     1 <1>   0.1500 
 36 H        0.0040    -0.5620    -0.8600 H     1 <1>   0.1500 
 37 H       -5.6330    -2.4960     0.1660 H     1 <1>   0.0800 
 38 H       -4.7680    -1.5010     1.3320 H     1 <1>   0.0800 
 39 H        1.9130     1.7040    -0.7620 H     1 <1>   0.0800 
 40 H        1.8300     3.0680     0.3520 H     1 <1>   0.0800 
 41 H        0.9840     3.1400    -1.1990 H     1 <1>   0.0800 
 42 H        0.3260    -5.4410    -0.4000 H     1 <1>   0.1500 
 43 H        1.9400    -1.7360    -1.7350 H     1 <1>   0.1500 
 44 H       -4.7220    -4.2980     1.0010 H     1 <1>   0.4000 
 45 H        2.1180    -4.1800    -1.5190 H     1 <1>   0.1500 
 46 H       -0.6490     7.7850     0.7050 H     1 <1>   0.0800 
 47 H       -0.5060     6.4410    -0.4280 H     1 <1>   0.0800 
 48 H        0.4370     6.4440     1.0670 H     1 <1>   0.0800 
@<TRIPOS>BOND
  1   1   2  2   
  2   2   3  am  
  3   2   4  1   
  4   3   5  1   
  5   3   6  1   
  6   4   7  ar  
  7   4   8  ar  
  8   5   9  1   
  9   5  10  1   
 10   5  27  1   
 11   6  11  1   
 12   6  28  1   
 13   6  29  1   
 14   7  12  1   
 15   7  13  ar  
 16   8  14  ar  
 17   8  30  1   
 18   9  15  ar  
 19   9  16  ar  
 20  10  17  1   
 21  10  18  1   
 22  10  31  1   
 23  11  17  1   
 24  11  32  1   
 25  11  33  1   
 26  12  19  1   
 27  13  20  ar  
 28  14  20  ar  
 29  14  34  1   
 30  15  21  ar  
 31  15  35  1   
 32  16  22  ar  
 33  16  36  1   
 34  18  23  1   
 35  18  37  1   
 36  18  38  1   
 37  19  39  1   
 38  19  40  1   
 39  19  41  1   
 40  20  24  1   
 41  21  25  ar  
 42  21  42  1   
 43  22  25  ar  
 44  22  43  1   
 45  23  44  1   
 46  24  26  1   
 47  25  45  1   
 48  26  46  1   
 49  26  47  1   
 50  26  48  1   
@<TRIPOS>SUBSTRUCTURE
  1 ****   3 GROUP 4 **** **** 0

# MOE 2024.06 (io_trps.svl 2023.06)
