@<TRIPOS>MOLECULE
NONAME
41 42 1 0 0 
SMALL
USER_CHARGES


@<TRIPOS>ATOM
  1 CL       0.2600     2.5460     2.4180 Cl    1 <1>  -0.1770 
  2 C       -1.1860     2.4830     1.4360 C.ar  1 <1>   0.1770 
  3 C       -1.1320     2.7770     0.0800 C.ar  1 <1>  -0.1440 
  4 C       -2.3730     2.1340     2.0520 C.ar  1 <1>  -0.1500 
  5 C       -2.3070     2.7190    -0.6560 C.ar  1 <1>  -0.1500 
  6 C        0.1720     3.1570    -0.6010 C.3   1 <1>   0.2140 
  7 C       -3.5370     2.0760     1.3060 C.ar  1 <1>  -0.1500 
  8 C       -3.5010     2.3690    -0.0470 C.ar  1 <1>  -0.1500 
  9 S        0.2740     4.9690    -0.6390 S.3   1 <1>  -0.4600 
 10 C        2.0200     5.2870    -1.0880 C.3   1 <1>   0.1310 
 11 C        2.3180     6.7800    -1.1700 C.2   1 <1>   0.5690 
 12 O        3.3510     7.1430    -1.6780 O.2   1 <1>  -0.5700 
 13 N        1.4260     7.6770    -0.6710 N.am  1 <1>  -0.7300 
 14 C        1.5200     9.1500    -0.7900 C.3   1 <1>   0.2200 
 15 C        2.9140     9.7010    -0.4330 C.3   1 <1>   0.3430 
 16 C        0.5590     9.8160     0.1860 C.3   1 <1>  -0.1600 
 17 N        2.7030    10.8080     0.5380 N.4   1 <1>  -0.9590 
 18 C        1.2330    11.1320     0.5680 C.3   1 <1>   0.3170 
 19 C        3.5540    12.0150     0.3730 C.3   1 <1>   0.2630 
 20 C        0.7830    11.6510     1.9480 C.2   1 <1>   0.9060 
 21 O        1.5350    11.3840     2.8970 O.co2 1 <1>  -0.9000 
 22 O       -0.2430    12.3240     2.0450 O.co2 1 <1>  -0.9000 
 23 H       -2.3830     1.9110     3.1040 H     1 <1>   0.1500 
 24 H       -2.2980     2.9500    -1.7070 H     1 <1>   0.1500 
 25 H        0.1970     2.8130    -1.6200 H     1 <1>   0.0800 
 26 H        1.0320     2.7890    -0.0730 H     1 <1>   0.0800 
 27 H       -4.4680     1.8050     1.7750 H     1 <1>   0.1500 
 28 H       -4.4070     2.3270    -0.6280 H     1 <1>   0.1500 
 29 H        2.6350     4.8290    -0.3350 H     1 <1>   0.0800 
 30 H        2.1980     4.8230    -2.0410 H     1 <1>   0.0800 
 31 H        0.5370     7.3000    -0.3180 H     1 <1>   0.3700 
 32 H        1.2810     9.4390    -1.8000 H     1 <1>   0.0800 
 33 H        3.3950    10.0630    -1.3250 H     1 <1>   0.0800 
 34 H        3.5200     8.9280     0.0100 H     1 <1>   0.0800 
 35 H        0.4440     9.2200     1.0770 H     1 <1>   0.0800 
 36 H       -0.4090     9.9950    -0.2460 H     1 <1>   0.0800 
 37 H        2.8320    10.4810     1.5220 H     1 <1>   0.4500 
 38 H        1.0040    11.8820    -0.1670 H     1 <1>   0.0800 
 39 H        3.3730    12.4750    -0.5830 H     1 <1>   0.0800 
 40 H        4.5950    11.7470     0.4450 H     1 <1>   0.0800 
 41 H        3.3280    12.7260     1.1530 H     1 <1>   0.0800 
@<TRIPOS>BOND
  1   1   2  1   
  2   2   3  ar  
  3   2   4  ar  
  4   3   5  ar  
  5   3   6  1   
  6   4   7  ar  
  7   4  23  1   
  8   5   8  ar  
  9   5  24  1   
 10   6   9  1   
 11   6  25  1   
 12   6  26  1   
 13   7   8  ar  
 14   7  27  1   
 15   8  28  1   
 16   9  10  1   
 17  10  11  1   
 18  10  29  1   
 19  10  30  1   
 20  11  12  2   
 21  11  13  am  
 22  13  14  1   
 23  13  31  1   
 24  14  15  1   
 25  14  16  1   
 26  14  32  1   
 27  15  17  1   
 28  15  33  1   
 29  15  34  1   
 30  16  18  1   
 31  16  35  1   
 32  16  36  1   
 33  17  18  1   
 34  17  19  1   
 35  17  37  1   
 36  18  20  1   
 37  18  38  1   
 38  19  39  1   
 39  19  40  1   
 40  19  41  1   
 41  20  21  ar  
 42  20  22  ar  
@<TRIPOS>SUBSTRUCTURE
  1 ****  13 GROUP 4 **** **** 0

# MOE 2024.06 (io_trps.svl 2023.06)
