@<TRIPOS>MOLECULE
NONAME
52 55 1 0 0 
SMALL
USER_CHARGES


@<TRIPOS>ATOM
  1 O       -0.0580     1.1080     2.4370 O.2   1 <1>  -0.5700 
  2 C       -0.0150     2.0400     1.6570 C.2   1 <1>   0.5440 
  3 N       -1.1910     2.5470     1.1440 N.am  1 <1>  -0.6600 
  4 C        1.2630     2.5930     1.2860 C.ar  1 <1>   0.0860 
  5 C       -2.5120     2.0250     1.6110 C.3   1 <1>   0.1400 
  6 C       -1.2150     3.6480     0.1320 C.3   1 <1>   0.1400 
  7 C        1.9280     2.1990     0.1170 C.ar  1 <1>   0.0000 
  8 C        1.9100     3.5550     2.0330 C.ar  1 <1>  -0.1500 
  9 C       -3.5770     3.1190     1.5400 C.3   1 <1>  -0.1600 
 10 C       -2.4720     3.5330    -0.7260 C.3   1 <1>  -0.1600 
 11 C        3.1210     2.8070    -0.2100 C.ar  1 <1>   0.1050 
 12 C        1.7100     1.2840    -0.9290 C.2   1 <1>   0.1080 
 13 C        3.1300     4.0980     1.6130 C.ar  1 <1>   0.1660 
 14 C       -3.7420     3.7020     0.1250 C.3   1 <1>   0.4180 
 15 N        3.7460     3.7560     0.5090 N.ar  1 <1>  -0.5670 
 16 N        3.5150     2.2480    -1.3890 N.pl3 1 <1>   0.3140 
 17 N        2.6380     1.3160    -1.8260 N.2   1 <1>  -0.7070 
 18 C        0.5310     0.3400    -1.0220 C.3   1 <1>  -0.0590 
 19 C        3.8080     5.1530     2.4620 C.3   1 <1>  -0.0970 
 20 O       -3.9750     5.0760     0.3170 O.3   1 <1>  -0.5600 
 21 C       -4.9360     3.0450    -0.5670 C.2   1 <1>  -0.2880 
 22 C        4.7440     2.5720    -2.1230 C.3   1 <1>   0.0160 
 23 C       -4.6400     5.7790    -0.6960 C.3   1 <1>   0.1200 
 24 C       -5.9980     3.7090    -1.0290 C.2   1 <1>  -0.2760 
 25 C       -6.0520     5.2200    -0.9130 C.3   1 <1>  -0.0220 
 26 C       -7.2070     3.0590    -1.6770 C.3   1 <1>  -0.1020 
 27 H       -2.4290     1.6770     2.6270 H     1 <1>   0.0800 
 28 H       -2.7970     1.1900     0.9950 H     1 <1>   0.0800 
 29 H       -0.3490     3.5930    -0.5040 H     1 <1>   0.0800 
 30 H       -1.2070     4.5980     0.6400 H     1 <1>   0.0800 
 31 H        1.4640     3.8900     2.9510 H     1 <1>   0.1500 
 32 H       -3.2880     3.8980     2.2240 H     1 <1>   0.0800 
 33 H       -4.5160     2.7250     1.8820 H     1 <1>   0.0800 
 34 H       -2.4720     2.5620    -1.1880 H     1 <1>   0.0800 
 35 H       -2.4450     4.2560    -1.5170 H     1 <1>   0.0800 
 36 H        0.4460    -0.2310    -0.1160 H     1 <1>   0.0800 
 37 H        0.6680    -0.3370    -1.8460 H     1 <1>   0.0800 
 38 H       -0.3740     0.8970    -1.1760 H     1 <1>   0.0800 
 39 H        3.2370     5.3720     3.3450 H     1 <1>   0.0800 
 40 H        3.9240     6.0550     1.8900 H     1 <1>   0.0800 
 41 H        4.7810     4.8040     2.7570 H     1 <1>   0.0800 
 42 H       -4.8400     1.9760    -0.6330 H     1 <1>   0.1500 
 43 H        4.7590     3.6240    -2.3350 H     1 <1>   0.0800 
 44 H        4.7670     2.0140    -3.0400 H     1 <1>   0.0800 
 45 H        5.5910     2.3120    -1.5160 H     1 <1>   0.0800 
 46 H       -4.0670     5.7070    -1.6030 H     1 <1>   0.0800 
 47 H       -4.6900     6.8120    -0.4010 H     1 <1>   0.0800 
 48 H       -6.4560     5.6500    -1.8120 H     1 <1>   0.0800 
 49 H       -6.6860     5.5010    -0.0910 H     1 <1>   0.0800 
 50 H       -8.0960     3.2930    -1.1180 H     1 <1>   0.0800 
 51 H       -7.0920     1.9900    -1.7040 H     1 <1>   0.0800 
 52 H       -7.3260     3.4150    -2.6850 H     1 <1>   0.0800 
@<TRIPOS>BOND
  1   1   2  2   
  2   2   3  am  
  3   2   4  1   
  4   3   5  1   
  5   3   6  1   
  6   4   7  ar  
  7   4   8  ar  
  8   5   9  1   
  9   5  27  1   
 10   5  28  1   
 11   6  10  1   
 12   6  29  1   
 13   6  30  1   
 14   7  11  ar  
 15   7  12  1   
 16   8  13  ar  
 17   8  31  1   
 18   9  14  1   
 19   9  32  1   
 20   9  33  1   
 21  10  14  1   
 22  10  34  1   
 23  10  35  1   
 24  11  15  ar  
 25  11  16  1   
 26  12  17  2   
 27  12  18  1   
 28  13  15  ar  
 29  13  19  1   
 30  14  20  1   
 31  14  21  1   
 32  16  17  1   
 33  16  22  1   
 34  18  36  1   
 35  18  37  1   
 36  18  38  1   
 37  19  39  1   
 38  19  40  1   
 39  19  41  1   
 40  20  23  1   
 41  21  24  2   
 42  21  42  1   
 43  22  43  1   
 44  22  44  1   
 45  22  45  1   
 46  23  25  1   
 47  23  46  1   
 48  23  47  1   
 49  24  25  1   
 50  24  26  1   
 51  25  48  1   
 52  25  49  1   
 53  26  50  1   
 54  26  51  1   
 55  26  52  1   
@<TRIPOS>SUBSTRUCTURE
  1 ****   6 GROUP 4 **** **** 0

# MOE 2024.06 (io_trps.svl 2023.06)
