@<TRIPOS>MOLECULE
NONAME
43 44 1 0 0 
SMALL
USER_CHARGES


@<TRIPOS>ATOM
  1 O        0.6620     1.6510    -1.9360 O.2   1 <1>  -0.5700 
  2 C        1.0840     2.5480    -1.2510 C.2   1 <1>   0.5690 
  3 N        0.4670     3.7190    -0.9840 N.am  1 <1>  -0.6600 
  4 C        2.4270     2.4970    -0.5810 C.3   1 <1>  -0.0990 
  5 C        1.2770     4.6150    -0.1480 C.3   1 <1>   0.1400 
  6 C       -0.8100     4.1660    -1.5820 C.3   1 <1>   0.1400 
  7 C        2.3870     3.6920     0.3920 C.3   1 <1>  -0.0800 
  8 C       -1.9010     4.1760    -0.5150 C.3   1 <1>  -0.2400 
  9 C        3.7510     4.3840     0.5170 C.3   1 <1>   0.3430 
 10 N        3.7670     5.3730     1.6410 N.4   1 <1>  -0.9590 
 11 C        4.8210     6.4130     1.4350 C.3   1 <1>   0.5230 
 12 C        3.8430     4.7410     2.9940 C.3   1 <1>   0.2630 
 13 C        4.3010     7.4260     0.4260 C.2   1 <1>   0.0060 
 14 N        3.0660     7.4890     0.0590 N.2   1 <1>  -0.3380 
 15 N        5.0350     8.3600    -0.1890 N.pl3 1 <1>   0.0330 
 16 N        2.9700     8.4760    -0.8250 N.2   1 <1>  -0.3380 
 17 C        4.1450     8.9860    -0.9590 C.2   1 <1>   0.0060 
 18 C        4.4840    10.1510    -1.8740 C.3   1 <1>   0.0200 
 19 C        4.9620    11.3720    -1.0800 C.3   1 <1>  -0.2400 
 20 H        3.1810     2.6100    -1.3400 H     1 <1>   0.0800 
 21 H        2.5550     1.5590    -0.0720 H     1 <1>   0.0800 
 22 H        0.6860     5.0370     0.6460 H     1 <1>   0.0800 
 23 H        1.6710     5.4010    -0.7710 H     1 <1>   0.0800 
 24 H       -1.0890     3.4900    -2.3750 H     1 <1>   0.0800 
 25 H       -0.6880     5.1490    -2.0050 H     1 <1>   0.0800 
 26 H        2.0730     3.3120     1.3470 H     1 <1>   0.0800 
 27 H       -2.0060     3.1940    -0.0890 H     1 <1>   0.0800 
 28 H       -2.8380     4.4530    -0.9630 H     1 <1>   0.0800 
 29 H       -1.6720     4.8850     0.2590 H     1 <1>   0.0800 
 30 H        3.9590     4.8870    -0.4150 H     1 <1>   0.0800 
 31 H        4.5180     3.6430     0.6760 H     1 <1>   0.0800 
 32 H        2.8930     5.9240     1.5550 H     1 <1>   0.4500 
 33 H        5.7340     5.9600     1.0840 H     1 <1>   0.0800 
 34 H        5.0200     6.9240     2.3630 H     1 <1>   0.0800 
 35 H        4.7580     4.1800     3.0980 H     1 <1>   0.0800 
 36 H        3.0110     4.0710     3.1430 H     1 <1>   0.0800 
 37 H        3.8100     5.4960     3.7630 H     1 <1>   0.0800 
 38 H        6.0310     8.5830    -0.1140 H     1 <1>   0.2700 
 39 H        3.6040    10.4200    -2.4340 H     1 <1>   0.0800 
 40 H        5.2400     9.8520    -2.5780 H     1 <1>   0.0800 
 41 H        4.2060    11.6700    -0.3730 H     1 <1>   0.0800 
 42 H        5.1440    12.1950    -1.7480 H     1 <1>   0.0800 
 43 H        5.8700    11.1550    -0.5480 H     1 <1>   0.0800 
@<TRIPOS>BOND
  1   1   2  2   
  2   2   3  am  
  3   2   4  1   
  4   3   5  1   
  5   3   6  1   
  6   4   7  1   
  7   4  20  1   
  8   4  21  1   
  9   5   7  1   
 10   5  22  1   
 11   5  23  1   
 12   6   8  1   
 13   6  24  1   
 14   6  25  1   
 15   7   9  1   
 16   7  26  1   
 17   8  27  1   
 18   8  28  1   
 19   8  29  1   
 20   9  10  1   
 21   9  30  1   
 22   9  31  1   
 23  10  11  1   
 24  10  12  1   
 25  10  32  1   
 26  11  13  1   
 27  11  33  1   
 28  11  34  1   
 29  12  35  1   
 30  12  36  1   
 31  12  37  1   
 32  13  14  2   
 33  13  15  1   
 34  14  16  1   
 35  15  17  1   
 36  15  38  1   
 37  16  17  2   
 38  17  18  1   
 39  18  19  1   
 40  18  39  1   
 41  18  40  1   
 42  19  41  1   
 43  19  42  1   
 44  19  43  1   
@<TRIPOS>SUBSTRUCTURE
  1 ****  14 GROUP 4 **** **** 0

# MOE 2024.06 (io_trps.svl 2023.06)
