@<TRIPOS>MOLECULE
NONAME
52 55 1 0 0 
SMALL
USER_CHARGES


@<TRIPOS>ATOM
  1 O       -0.2770    -1.2640    -0.6380 O.2   1 <1>  -0.5700 
  2 C        0.6670    -2.0170    -0.6590 C.2   1 <1>   0.5690 
  3 N        1.0040    -2.7730    -1.7490 N.am  1 <1>  -0.6600 
  4 C        1.5300    -2.1460     0.5780 C.3   1 <1>  -0.0990 
  5 C        2.1730    -3.6860    -1.6970 C.3   1 <1>   0.1400 
  6 C        0.2110    -2.7640    -3.0070 C.3   1 <1>   0.0600 
  7 C        3.0200    -2.1080     0.1970 C.3   1 <1>  -0.0800 
  8 C        3.3710    -2.9800    -1.0320 C.3   1 <1>  -0.0800 
  9 C        3.9440    -2.5590     1.3350 C.3   1 <1>  -0.1600 
 10 C        4.4530    -3.9610    -0.5570 C.3   1 <1>  -0.1600 
 11 C        5.1020    -3.2500     0.6290 C.3   1 <1>   0.2200 
 12 N        5.8740    -4.1350     1.5540 N.am  1 <1>  -0.6600 
 13 C        7.0610    -3.7180     2.1250 C.2   1 <1>   0.6160 
 14 C        5.2970    -5.4710     1.9040 C.3   1 <1>   0.0600 
 15 O        7.6960    -4.4850     2.8220 O.2   1 <1>  -0.5700 
 16 C        7.5620    -2.3800     1.9250 C.2   1 <1>  -0.0140 
 17 C        8.3710    -2.0780     0.7670 C.ar  1 <1>   0.0280 
 18 C        7.2670    -1.3800     2.8030 C.2   1 <1>  -0.1360 
 19 C        8.7970    -0.7520     0.5680 C.ar  1 <1>   0.1170 
 20 C        8.7490    -3.0370    -0.1790 C.ar  1 <1>  -0.1500 
 21 C        7.7020    -0.0460     2.6020 C.2   1 <1>   0.6160 
 22 N        8.4460     0.2190     1.4970 N.am  1 <1>  -0.5470 
 23 C        9.5590    -0.4230    -0.5480 C.ar  1 <1>  -0.1500 
 24 C        9.5050    -2.7030    -1.2850 C.ar  1 <1>  -0.1440 
 25 O        7.4290     0.8670     3.3580 O.2   1 <1>  -0.5700 
 26 C        9.9090    -1.3870    -1.4670 C.ar  1 <1>  -0.1500 
 27 C        9.9070    -3.7550    -2.3040 C.3   1 <1>  -0.0970 
 28 H        1.3030    -1.3480     1.2610 H     1 <1>   0.0800 
 29 H        1.2830    -3.0770     1.0520 H     1 <1>   0.0800 
 30 H        1.8920    -4.5570    -1.1300 H     1 <1>   0.0800 
 31 H        2.4430    -4.0020    -2.6900 H     1 <1>   0.0800 
 32 H       -0.1610    -3.7520    -3.2110 H     1 <1>   0.0800 
 33 H        0.8300    -2.4390    -3.8250 H     1 <1>   0.0800 
 34 H       -0.6260    -2.0920    -2.9220 H     1 <1>   0.0800 
 35 H        3.2650    -1.0890    -0.0570 H     1 <1>   0.0800 
 36 H        3.8140    -2.3330    -1.7710 H     1 <1>   0.0800 
 37 H        3.4340    -3.2580     1.9720 H     1 <1>   0.0800 
 38 H        4.2820    -1.7220     1.9200 H     1 <1>   0.0800 
 39 H        5.1710    -4.1660    -1.3310 H     1 <1>   0.0800 
 40 H        3.9840    -4.8750    -0.2470 H     1 <1>   0.0800 
 41 H        5.7440    -2.4890     0.2210 H     1 <1>   0.0800 
 42 H        4.2350    -5.3960     2.0530 H     1 <1>   0.0800 
 43 H        5.7330    -5.8520     2.8120 H     1 <1>   0.0800 
 44 H        5.4980    -6.1700     1.1110 H     1 <1>   0.0800 
 45 H        6.6830    -1.5570     3.6860 H     1 <1>   0.1500 
 46 H        8.4490    -4.0610    -0.0410 H     1 <1>   0.1500 
 47 H        8.7570     1.1850     1.4010 H     1 <1>   0.3700 
 48 H        9.8780     0.5940    -0.6910 H     1 <1>   0.1500 
 49 H       10.5000    -1.1220    -2.3270 H     1 <1>   0.1500 
 50 H        9.5160    -3.4970    -3.2710 H     1 <1>   0.0800 
 51 H        9.5290    -4.7230    -2.0280 H     1 <1>   0.0800 
 52 H       10.9790    -3.8120    -2.3660 H     1 <1>   0.0800 
@<TRIPOS>BOND
  1   1   2  2   
  2   2   3  am  
  3   2   4  1   
  4   3   5  1   
  5   3   6  1   
  6   4   7  1   
  7   4  28  1   
  8   4  29  1   
  9   5   8  1   
 10   5  30  1   
 11   5  31  1   
 12   6  32  1   
 13   6  33  1   
 14   6  34  1   
 15   7   8  1   
 16   7   9  1   
 17   7  35  1   
 18   8  10  1   
 19   8  36  1   
 20   9  11  1   
 21   9  37  1   
 22   9  38  1   
 23  10  11  1   
 24  10  39  1   
 25  10  40  1   
 26  11  12  1   
 27  11  41  1   
 28  12  13  am  
 29  12  14  1   
 30  13  15  2   
 31  13  16  1   
 32  14  42  1   
 33  14  43  1   
 34  14  44  1   
 35  16  17  1   
 36  16  18  2   
 37  17  19  ar  
 38  17  20  ar  
 39  18  21  1   
 40  18  45  1   
 41  19  22  1   
 42  19  23  ar  
 43  20  24  ar  
 44  20  46  1   
 45  21  22  am  
 46  21  25  2   
 47  22  47  1   
 48  23  26  ar  
 49  23  48  1   
 50  24  26  ar  
 51  24  27  1   
 52  26  49  1   
 53  27  50  1   
 54  27  51  1   
 55  27  52  1   
@<TRIPOS>SUBSTRUCTURE
  1 ****  11 GROUP 4 **** **** 0

# MOE 2024.06 (io_trps.svl 2023.06)
