@<TRIPOS>MOLECULE
NONAME
54 57 1 0 0 
SMALL
USER_CHARGES


@<TRIPOS>ATOM
  1 O        0.0870     1.5540    -0.9030 O.2   1 <1>  -0.5700 
  2 C       -0.3500     2.6800    -0.9460 C.2   1 <1>   0.5690 
  3 N       -1.1400     3.2320     0.0310 N.am  1 <1>  -0.6600 
  4 C        0.0140     3.5420    -2.1500 C.3   1 <1>   0.1810 
  5 C       -1.5980     4.6570    -0.0900 C.3   1 <1>   0.3640 
  6 C       -1.5570     2.5450     1.2840 C.3   1 <1>   0.2200 
  7 O        0.2620     4.8640    -1.7570 O.3   1 <1>  -0.5600 
  8 C       -3.1030     4.7150    -0.3560 C.ar  1 <1>  -0.1440 
  9 C       -0.8490     5.5100    -1.1520 C.3   1 <1>   0.2610 
 10 C       -0.3380     2.3010     2.1720 C.3   1 <1>  -0.2400 
 11 C       -2.3190     1.2510     0.9930 C.3   1 <1>  -0.2400 
 12 C       -3.7410     3.7970    -1.1810 C.ar  1 <1>  -0.1500 
 13 C       -3.8540     5.7260     0.2280 C.ar  1 <1>  -0.1500 
 14 C       -0.4420     6.8390    -0.5010 C.2   1 <1>   0.5690 
 15 C       -5.1030     3.8830    -1.4090 C.ar  1 <1>  -0.1500 
 16 C       -5.2160     5.8140     0.0000 C.ar  1 <1>  -0.1500 
 17 O       -1.1740     7.7830    -0.6900 O.2   1 <1>  -0.5700 
 18 N        0.6660     6.9620     0.3070 N.am  1 <1>  -0.6600 
 19 C       -5.8420     4.8910    -0.8180 C.ar  1 <1>  -0.1500 
 20 C        1.1570     8.3160     0.7030 C.3   1 <1>   0.3200 
 21 C        1.5650     5.8410     0.7300 C.3   1 <1>   0.1400 
 22 C        2.6560     8.4110     0.4740 C.2   1 <1>  -0.3320 
 23 C        2.9170     5.9630     0.0250 C.3   1 <1>   0.0960 
 24 N        3.4150     7.3360     0.1820 N.pl3 1 <1>   0.3140 
 25 C        3.4880     9.4740     0.5080 C.2   1 <1>  -0.1500 
 26 N        4.7090     7.6660     0.0400 N.2   1 <1>  -0.7070 
 27 C        4.7450     8.9470     0.2320 C.2   1 <1>   0.1080 
 28 C        6.0280     9.7390     0.1560 C.3   1 <1>  -0.0590 
 29 H       -0.7840     3.5340    -2.8700 H     1 <1>   0.0800 
 30 H        0.9080     3.1610    -2.6090 H     1 <1>   0.0800 
 31 H       -1.4290     5.1170     0.8690 H     1 <1>   0.0800 
 32 H       -2.2310     3.1910     1.8230 H     1 <1>   0.0800 
 33 H       -1.5330     5.7440    -1.9490 H     1 <1>   0.0800 
 34 H        0.3460     1.6180     1.7010 H     1 <1>   0.0800 
 35 H       -0.6490     1.8710     3.1070 H     1 <1>   0.0800 
 36 H        0.1670     3.2270     2.3760 H     1 <1>   0.0800 
 37 H       -1.6840     0.5150     0.5360 H     1 <1>   0.0800 
 38 H       -3.1560     1.4480     0.3490 H     1 <1>   0.0800 
 39 H       -2.6940     0.8390     1.9110 H     1 <1>   0.0800 
 40 H       -3.1860     3.0040    -1.6510 H     1 <1>   0.1500 
 41 H       -3.3850     6.4620     0.8610 H     1 <1>   0.1500 
 42 H       -5.5890     3.1650    -2.0470 H     1 <1>   0.1500 
 43 H       -5.7880     6.6020     0.4570 H     1 <1>   0.1500 
 44 H       -6.9010     4.9590    -0.9950 H     1 <1>   0.1500 
 45 H        0.6640     9.0860     0.1340 H     1 <1>   0.0800 
 46 H        0.9420     8.4760     1.7450 H     1 <1>   0.0800 
 47 H        1.7180     5.8970     1.7950 H     1 <1>   0.0800 
 48 H        1.1340     4.8800     0.5200 H     1 <1>   0.0800 
 49 H        2.8090     5.7560    -1.0230 H     1 <1>   0.0800 
 50 H        3.6310     5.2820     0.4470 H     1 <1>   0.0800 
 51 H        3.2620    10.5070     0.7040 H     1 <1>   0.1500 
 52 H        5.8400    10.7790     0.3450 H     1 <1>   0.0800 
 53 H        6.4570     9.6290    -0.8230 H     1 <1>   0.0800 
 54 H        6.7220     9.3650     0.8850 H     1 <1>   0.0800 
@<TRIPOS>BOND
  1   1   2  2   
  2   2   3  am  
  3   2   4  1   
  4   3   5  1   
  5   3   6  1   
  6   4   7  1   
  7   4  29  1   
  8   4  30  1   
  9   5   8  1   
 10   5   9  1   
 11   5  31  1   
 12   6  10  1   
 13   6  11  1   
 14   6  32  1   
 15   7   9  1   
 16   8  12  ar  
 17   8  13  ar  
 18   9  14  1   
 19   9  33  1   
 20  10  34  1   
 21  10  35  1   
 22  10  36  1   
 23  11  37  1   
 24  11  38  1   
 25  11  39  1   
 26  12  15  ar  
 27  12  40  1   
 28  13  16  ar  
 29  13  41  1   
 30  14  17  2   
 31  14  18  am  
 32  15  19  ar  
 33  15  42  1   
 34  16  19  ar  
 35  16  43  1   
 36  18  20  1   
 37  18  21  1   
 38  19  44  1   
 39  20  22  1   
 40  20  45  1   
 41  20  46  1   
 42  21  23  1   
 43  21  47  1   
 44  21  48  1   
 45  22  24  1   
 46  22  25  2   
 47  23  24  1   
 48  23  49  1   
 49  23  50  1   
 50  24  26  1   
 51  25  27  1   
 52  25  51  1   
 53  26  27  2   
 54  27  28  1   
 55  28  52  1   
 56  28  53  1   
 57  28  54  1   
@<TRIPOS>SUBSTRUCTURE
  1 ****   9 GROUP 4 **** **** 0

# MOE 2024.06 (io_trps.svl 2023.06)
