@<TRIPOS>MOLECULE
NONAME
51 53 1 0 0 
SMALL
USER_CHARGES


@<TRIPOS>ATOM
  1 O        0.9840     0.2630    -1.1680 O.2   1 <1>  -0.5700 
  2 C        2.1730     0.2690    -0.9370 C.2   1 <1>   0.7150 
  3 N        2.7700    -0.9490    -0.9880 N.am  1 <1>  -0.7300 
  4 C        2.8360     1.5070    -0.6440 C.2   1 <1>  -0.2370 
  5 C        4.0600    -1.4860    -0.4750 C.3   1 <1>   0.1400 
  6 N        4.1710     1.7300    -0.6390 N.pl3 1 <1>   0.3140 
  7 C        2.2790     2.7080    -0.3400 C.2   1 <1>  -0.1500 
  8 C        5.0630    -0.4430     0.0400 C.3   1 <1>   0.2000 
  9 N        4.4810     2.9970    -0.3450 N.2   1 <1>  -0.7070 
 10 C        5.2380     0.7520    -0.8940 C.3   1 <1>   0.0960 
 11 C        3.3220     3.6090    -0.1580 C.2   1 <1>   0.2030 
 12 O        6.2950    -1.0700     0.1900 O.3   1 <1>  -0.6800 
 13 C        3.1610     5.0140     0.1860 C.2   1 <1>   0.7160 
 14 O        2.0650     5.5270     0.3300 O.2   1 <1>  -0.5700 
 15 N        4.2750     5.7890     0.3470 N.am  1 <1>  -0.7300 
 16 C        4.3090     7.2240     0.7050 C.3   1 <1>   0.1400 
 17 C        4.4360     8.0700    -0.5610 C.3   1 <1>  -0.0170 
 18 C        4.5490     9.5420    -0.1990 C.ar  1 <1>  -0.1440 
 19 C        5.7920    10.1430    -0.0790 C.ar  1 <1>  -0.1500 
 20 C        3.4030    10.2910     0.0200 C.ar  1 <1>  -0.1500 
 21 C        5.8950    11.4910     0.2560 C.ar  1 <1>   0.0820 
 22 C        3.4980    11.6310     0.3550 C.ar  1 <1>  -0.1500 
 23 O        7.0700    12.1590     0.3930 O.3   1 <1>  -0.3620 
 24 C        4.7410    12.2260     0.4720 C.ar  1 <1>  -0.1500 
 25 C        8.3290    11.5790     0.1340 C.3   1 <1>   0.2000 
 26 C        9.3720    12.4430     0.8370 C.3   1 <1>  -0.2400 
 27 C        8.5640    11.5570    -1.3790 C.3   1 <1>  -0.2400 
 28 H        2.0970    -1.6740    -1.2520 H     1 <1>   0.3700 
 29 H        4.5190    -2.0400    -1.2770 H     1 <1>   0.0800 
 30 H        3.8470    -2.1750     0.3250 H     1 <1>   0.0800 
 31 H        1.2310     2.9450    -0.2550 H     1 <1>   0.1500 
 32 H        4.7730    -0.1040     1.0220 H     1 <1>   0.0800 
 33 H        6.1780     1.2350    -0.6970 H     1 <1>   0.0800 
 34 H        5.1950     0.4530    -1.9240 H     1 <1>   0.0800 
 35 H        6.6600    -1.3680    -0.6660 H     1 <1>   0.4000 
 36 H        5.1670     5.3070     0.1990 H     1 <1>   0.3700 
 37 H        5.1420     7.4090     1.3600 H     1 <1>   0.0800 
 38 H        3.4040     7.4900     1.2270 H     1 <1>   0.0800 
 39 H        3.5700     7.9170    -1.1800 H     1 <1>   0.0800 
 40 H        5.3060     7.7660    -1.1150 H     1 <1>   0.0800 
 41 H        6.6690     9.5510    -0.2500 H     1 <1>   0.1500 
 42 H        2.4320     9.8340    -0.0690 H     1 <1>   0.1500 
 43 H        2.6070    12.2090     0.5230 H     1 <1>   0.1500 
 44 H        4.8250    13.2660     0.7310 H     1 <1>   0.1500 
 45 H        8.3510    10.5890     0.5550 H     1 <1>   0.0800 
 46 H        9.3440    13.4490     0.4570 H     1 <1>   0.0800 
 47 H       10.3550    12.0400     0.6760 H     1 <1>   0.0800 
 48 H        9.1800    12.4580     1.8950 H     1 <1>   0.0800 
 49 H        8.5190    12.5550    -1.7750 H     1 <1>   0.0800 
 50 H        7.8240    10.9520    -1.8700 H     1 <1>   0.0800 
 51 H        9.5330    11.1450    -1.5930 H     1 <1>   0.0800 
@<TRIPOS>BOND
  1   1   2  2   
  2   2   3  am  
  3   2   4  1   
  4   3   5  1   
  5   3  28  1   
  6   4   6  1   
  7   4   7  2   
  8   5   8  1   
  9   5  29  1   
 10   5  30  1   
 11   6   9  1   
 12   6  10  1   
 13   7  11  1   
 14   7  31  1   
 15   8  10  1   
 16   8  12  1   
 17   8  32  1   
 18   9  11  2   
 19  10  33  1   
 20  10  34  1   
 21  11  13  1   
 22  12  35  1   
 23  13  14  2   
 24  13  15  am  
 25  15  16  1   
 26  15  36  1   
 27  16  17  1   
 28  16  37  1   
 29  16  38  1   
 30  17  18  1   
 31  17  39  1   
 32  17  40  1   
 33  18  19  ar  
 34  18  20  ar  
 35  19  21  ar  
 36  19  41  1   
 37  20  22  ar  
 38  20  42  1   
 39  21  23  1   
 40  21  24  ar  
 41  22  24  ar  
 42  22  43  1   
 43  23  25  1   
 44  24  44  1   
 45  25  26  1   
 46  25  27  1   
 47  25  45  1   
 48  26  46  1   
 49  26  47  1   
 50  26  48  1   
 51  27  49  1   
 52  27  50  1   
 53  27  51  1   
@<TRIPOS>SUBSTRUCTURE
  1 ****  15 GROUP 4 **** **** 0

# MOE 2024.06 (io_trps.svl 2023.06)
