@<TRIPOS>MOLECULE
NONAME
55 59 1 0 0 
SMALL
USER_CHARGES


@<TRIPOS>ATOM
  1 O       -3.8810     1.1330    -2.9920 O.2   1 <1>  -0.5700 
  2 C       -2.7850     0.9700    -2.5100 C.2   1 <1>   0.6300 
  3 N       -2.1970    -0.2510    -2.4730 N.am  1 <1>  -0.7300 
  4 C       -2.0340     2.1440    -1.8880 C.3   1 <1>   0.0320 
  5 C       -2.8230    -1.5210    -2.8960 C.3   1 <1>   0.2200 
  6 C       -2.2030     2.1900    -0.3770 C.ar  1 <1>  -0.0320 
  7 C       -0.7130     2.5630    -2.4740 C.3   1 <1>  -0.2000 
  8 C       -1.9120     3.4400    -2.6400 C.3   1 <1>  -0.2000 
  9 C       -3.2690    -2.3400    -1.6900 C.3   1 <1>  -0.0800 
 10 C       -1.7420    -2.4270    -3.4640 C.3   1 <1>   0.1200 
 11 C       -3.2470     2.9050     0.1850 C.ar  1 <1>  -0.1500 
 12 C       -1.3280     1.5060     0.4520 C.ar  1 <1>  -0.1500 
 13 C       -1.9740    -3.0500    -1.2700 C.3   1 <1>   0.1200 
 14 C       -3.9490    -1.5360    -0.5590 C.3   1 <1>  -0.0170 
 15 O       -1.0890    -2.9520    -2.3480 O.3   1 <1>  -0.5600 
 16 C       -3.4120     2.9430     1.5590 C.ar  1 <1>  -0.1500 
 17 C       -1.4970     1.5360     1.8250 C.ar  1 <1>  -0.1500 
 18 C       -4.5370    -2.3460     0.6030 C.ar  1 <1>  -0.1440 
 19 C       -2.5380     2.2550     2.3860 C.ar  1 <1>  -0.1440 
 20 C       -5.0520    -1.6650     1.7350 C.ar  1 <1>   0.0000 
 21 C       -4.6120    -3.7110     0.6170 C.ar  1 <1>  -0.1500 
 22 C       -2.7100     2.2780     3.8940 C.3   1 <1>  -0.0970 
 23 C       -5.5810    -2.4410     2.7950 C.ar  1 <1>   0.3100 
 24 C       -5.0810    -0.2570     1.8730 C.ar  1 <1>  -0.1500 
 25 C       -5.1540    -4.3820     1.7200 C.ar  1 <1>   0.1600 
 26 N       -5.6200    -3.7960     2.7750 N.ar  1 <1>  -0.6200 
 27 C       -6.1000    -1.7890     3.9260 C.ar  1 <1>  -0.1500 
 28 C       -5.6000     0.3470     2.9860 C.ar  1 <1>  -0.1500 
 29 C       -6.1150    -0.4250     4.0290 C.ar  1 <1>  -0.1500 
 30 H       -1.2810    -0.3620    -2.0350 H     1 <1>   0.3700 
 31 H       -3.6210    -1.3380    -3.5980 H     1 <1>   0.0800 
 32 H        0.0710     2.8930    -1.8140 H     1 <1>   0.1000 
 33 H       -0.3370     2.0460    -3.3400 H     1 <1>   0.1000 
 34 H       -2.3850     3.5100    -3.6050 H     1 <1>   0.1000 
 35 H       -1.9580     4.3630    -2.0890 H     1 <1>   0.1000 
 36 H       -3.9610    -3.0800    -2.0510 H     1 <1>   0.0800 
 37 H       -1.0380    -1.9010    -4.0850 H     1 <1>   0.0800 
 38 H       -2.1760    -3.2470    -4.0100 H     1 <1>   0.0800 
 39 H       -3.9360     3.4330    -0.4510 H     1 <1>   0.1500 
 40 H       -0.5120     0.9470     0.0320 H     1 <1>   0.1500 
 41 H       -2.1340    -4.0910    -1.0500 H     1 <1>   0.0800 
 42 H       -1.5140    -2.5670    -0.4240 H     1 <1>   0.0800 
 43 H       -4.7410    -0.9490    -0.9920 H     1 <1>   0.0800 
 44 H       -3.2280    -0.8510    -0.1480 H     1 <1>   0.0800 
 45 H       -4.2260     3.5080     1.9780 H     1 <1>   0.1500 
 46 H       -0.8130     0.9980     2.4580 H     1 <1>   0.1500 
 47 H       -4.2690    -4.3220    -0.1940 H     1 <1>   0.1500 
 48 H       -3.4850     2.9630     4.1840 H     1 <1>   0.0800 
 49 H       -1.7910     2.5820     4.3630 H     1 <1>   0.0800 
 50 H       -2.9700     1.2950     4.2450 H     1 <1>   0.0800 
 51 H       -4.6900     0.3630     1.0880 H     1 <1>   0.1500 
 52 H       -5.1860    -5.4580     1.6860 H     1 <1>   0.1500 
 53 H       -6.4910    -2.4060     4.7140 H     1 <1>   0.1500 
 54 H       -5.6160     1.4190     3.0690 H     1 <1>   0.1500 
 55 H       -6.5190     0.0610     4.9000 H     1 <1>   0.1500 
@<TRIPOS>BOND
  1   1   2  2   
  2   2   3  am  
  3   2   4  1   
  4   3   5  1   
  5   3  30  1   
  6   4   6  1   
  7   4   7  1   
  8   4   8  1   
  9   5   9  1   
 10   5  10  1   
 11   5  31  1   
 12   6  11  ar  
 13   6  12  ar  
 14   7   8  1   
 15   7  32  1   
 16   7  33  1   
 17   8  34  1   
 18   8  35  1   
 19   9  13  1   
 20   9  14  1   
 21   9  36  1   
 22  10  15  1   
 23  10  37  1   
 24  10  38  1   
 25  11  16  ar  
 26  11  39  1   
 27  12  17  ar  
 28  12  40  1   
 29  13  15  1   
 30  13  41  1   
 31  13  42  1   
 32  14  18  1   
 33  14  43  1   
 34  14  44  1   
 35  16  19  ar  
 36  16  45  1   
 37  17  19  ar  
 38  17  46  1   
 39  18  20  ar  
 40  18  21  ar  
 41  19  22  1   
 42  20  23  ar  
 43  20  24  ar  
 44  21  25  ar  
 45  21  47  1   
 46  22  48  1   
 47  22  49  1   
 48  22  50  1   
 49  23  26  ar  
 50  23  27  ar  
 51  24  28  ar  
 52  24  51  1   
 53  25  26  ar  
 54  25  52  1   
 55  27  29  ar  
 56  27  53  1   
 57  28  29  ar  
 58  28  54  1   
 59  29  55  1   
@<TRIPOS>SUBSTRUCTURE
  1 ****  14 GROUP 4 **** **** 0

# MOE 2024.06 (io_trps.svl 2023.06)
