@<TRIPOS>MOLECULE
NONAME
47 50 1 0 0 
SMALL
USER_CHARGES


@<TRIPOS>ATOM
  1 F       -1.0580    -0.2790     0.2890 F     1 <1>  -0.1900 
  2 C       -1.3790    -1.5080     0.6050 C.ar  1 <1>   0.1900 
  3 C       -0.8340    -2.5450    -0.1100 C.ar  1 <1>  -0.1500 
  4 C       -2.2700    -1.6970     1.6660 C.ar  1 <1>  -0.1500 
  5 C       -1.1960    -3.8500     0.2470 C.ar  1 <1>   0.0000 
  6 C       -2.6260    -2.9780     2.0200 C.ar  1 <1>  -0.1500 
  7 C       -2.0830    -4.0510     1.3010 C.ar  1 <1>  -0.1520 
  8 C       -0.8540    -5.1270    -0.2360 C.2   1 <1>  -0.1810 
  9 N       -2.2660    -5.3990     1.4440 N.pl3 1 <1>   0.0330 
 10 C       -1.5250    -6.0640     0.4990 C.2   1 <1>  -0.2370 
 11 C        0.1090    -5.3630    -1.3850 C.3   1 <1>  -0.0590 
 12 C       -1.5350    -7.5020     0.4190 C.2   1 <1>   0.7150 
 13 O       -0.4950    -8.1260     0.3360 O.2   1 <1>  -0.5700 
 14 N       -2.7270    -8.1860     0.4390 N.am  1 <1>  -0.6600 
 15 C       -3.9980    -7.6160    -0.0820 C.3   1 <1>   0.1400 
 16 C       -2.7790    -9.6700     0.4110 C.3   1 <1>   0.1400 
 17 C       -4.7410    -8.8050    -0.6860 C.3   1 <1>   0.2000 
 18 C       -4.2300   -10.0220     0.0790 C.3   1 <1>  -0.0800 
 19 O       -6.1120    -8.6810    -0.5350 O.3   1 <1>  -0.6800 
 20 C       -4.3810   -11.3380    -0.6970 C.3   1 <1>   0.0210 
 21 C       -3.7740   -12.4940     0.0740 C.2   1 <1>   0.1080 
 22 N       -4.1790   -12.8400     1.2560 N.2   1 <1>  -0.7070 
 23 C       -2.7290   -13.2920    -0.3790 C.2   1 <1>  -0.1500 
 24 N       -3.3970   -13.8840     1.5910 N.pl3 1 <1>   0.3000 
 25 C       -2.5090   -14.1750     0.6170 C.2   1 <1>  -0.3320 
 26 C       -1.4890   -15.2960     0.7000 C.3   1 <1>  -0.0600 
 27 H       -0.1520    -2.3720    -0.9190 H     1 <1>   0.1500 
 28 H       -2.6580    -0.8390     2.1840 H     1 <1>   0.1500 
 29 H       -3.3080    -3.1610     2.8320 H     1 <1>   0.1500 
 30 H       -2.8320    -5.8510     2.1690 H     1 <1>   0.2700 
 31 H       -0.2420    -4.8610    -2.2670 H     1 <1>   0.0800 
 32 H        0.1980    -6.4130    -1.5970 H     1 <1>   0.0800 
 33 H        1.0810    -4.9830    -1.1270 H     1 <1>   0.0800 
 34 H       -4.5570    -7.1950     0.7350 H     1 <1>   0.0800 
 35 H       -3.8050    -6.8660    -0.8290 H     1 <1>   0.0800 
 36 H       -2.1110   -10.0340    -0.3520 H     1 <1>   0.0800 
 37 H       -2.4840   -10.0820     1.3620 H     1 <1>   0.0800 
 38 H       -4.5180    -8.8760    -1.7370 H     1 <1>   0.0800 
 39 H       -4.7540   -10.1050     1.0160 H     1 <1>   0.0800 
 40 H       -6.3670    -8.8360     0.3950 H     1 <1>   0.4000 
 41 H       -3.9040   -11.2600    -1.6570 H     1 <1>   0.0800 
 42 H       -5.4250   -11.5430    -0.8570 H     1 <1>   0.0800 
 43 H       -2.2230   -13.2030    -1.3240 H     1 <1>   0.1500 
 44 H       -3.4940   -14.3750     2.4880 H     1 <1>   0.2700 
 45 H       -0.8980   -15.3250    -0.1980 H     1 <1>   0.0800 
 46 H       -1.9850   -16.2430     0.8150 H     1 <1>   0.0800 
 47 H       -0.8310   -15.1390     1.5360 H     1 <1>   0.0800 
@<TRIPOS>BOND
  1   1   2  1   
  2   2   3  ar  
  3   2   4  ar  
  4   3   5  ar  
  5   3  27  1   
  6   4   6  ar  
  7   4  28  1   
  8   5   7  ar  
  9   5   8  1   
 10   6   7  ar  
 11   6  29  1   
 12   7   9  1   
 13   8  10  2   
 14   8  11  1   
 15   9  10  1   
 16   9  30  1   
 17  10  12  1   
 18  11  31  1   
 19  11  32  1   
 20  11  33  1   
 21  12  13  2   
 22  12  14  am  
 23  14  15  1   
 24  14  16  1   
 25  15  17  1   
 26  15  34  1   
 27  15  35  1   
 28  16  18  1   
 29  16  36  1   
 30  16  37  1   
 31  17  18  1   
 32  17  19  1   
 33  17  38  1   
 34  18  20  1   
 35  18  39  1   
 36  19  40  1   
 37  20  21  1   
 38  20  41  1   
 39  20  42  1   
 40  21  22  2   
 41  21  23  1   
 42  22  24  1   
 43  23  25  2   
 44  23  43  1   
 45  24  25  1   
 46  24  44  1   
 47  25  26  1   
 48  26  45  1   
 49  26  46  1   
 50  26  47  1   
@<TRIPOS>SUBSTRUCTURE
  1 ****  14 GROUP 4 **** **** 0

# MOE 2024.06 (io_trps.svl 2023.06)
