@<TRIPOS>MOLECULE
NONAME
39 40 1 0 0 
SMALL
USER_CHARGES


@<TRIPOS>ATOM
  1 S       -0.7160     0.5090    -1.1540 S.o2  1 <1>   1.4470 
  2 O       -1.1490     1.7630    -1.7380 O.2   1 <1>  -0.6500 
  3 O       -0.6600    -0.6430    -2.0300 O.2   1 <1>  -0.6500 
  4 N       -1.8190     0.1610     0.0890 N.am  1 <1>  -0.8490 
  5 C        0.8780     0.7300    -0.2940 C.ar  1 <1>  -0.0090 
  6 C       -1.4440    -0.9450     0.9920 C.3   1 <1>   0.1960 
  7 C       -3.2210     0.1190    -0.3630 C.3   1 <1>   0.1960 
  8 C        1.2030     1.8610     0.4610 C.ar  1 <1>  -0.1440 
  9 C        1.8140    -0.2980    -0.3540 C.ar  1 <1>  -0.1500 
 10 C       -1.6730    -2.3310     0.3810 C.3   1 <1>  -0.1860 
 11 C       -3.9030    -1.2390    -0.1480 C.3   1 <1>  -0.1600 
 12 C        2.4320     1.9440     1.1000 C.ar  1 <1>  -0.1500 
 13 C        0.2350     3.0270     0.6180 C.3   1 <1>  -0.0970 
 14 C        3.0350    -0.2230     0.2910 C.ar  1 <1>  -0.1440 
 15 C       -1.6210    -3.2920     1.5460 C.2   1 <1>   0.9060 
 16 C       -2.9450    -2.3750    -0.4930 C.3   1 <1>   0.2000 
 17 C        3.3440     0.9100     1.0170 C.ar  1 <1>  -0.1500 
 18 C        4.0040    -1.3880     0.2020 C.3   1 <1>  -0.0970 
 19 O       -0.5110    -3.6000     1.9870 O.co2 1 <1>  -0.9000 
 20 O       -2.6730    -3.6940     2.0610 O.co2 1 <1>  -0.9000 
 21 O       -3.6280    -3.5600    -0.3320 O.3   1 <1>  -0.6800 
 22 H       -0.4200    -0.8560     1.3120 H     1 <1>   0.0800 
 23 H       -2.0480    -0.8620     1.8820 H     1 <1>   0.0800 
 24 H       -3.7760     0.8770     0.1620 H     1 <1>   0.0800 
 25 H       -3.2710     0.3590    -1.4130 H     1 <1>   0.0800 
 26 H        1.5760    -1.1880    -0.9130 H     1 <1>   0.1500 
 27 H       -0.8360    -2.5710    -0.2440 H     1 <1>   0.0800 
 28 H       -4.7780    -1.2980    -0.7690 H     1 <1>   0.0800 
 29 H       -4.2120    -1.3280     0.8790 H     1 <1>   0.0800 
 30 H        2.6870     2.8170     1.6750 H     1 <1>   0.1500 
 31 H        0.5730     3.7130     1.3730 H     1 <1>   0.0800 
 32 H       -0.7380     2.6720     0.9060 H     1 <1>   0.0800 
 33 H        0.1500     3.5630    -0.3110 H     1 <1>   0.0800 
 34 H       -2.6720    -2.3020    -1.5320 H     1 <1>   0.0800 
 35 H        4.2890     0.9910     1.5250 H     1 <1>   0.1500 
 36 H        4.9080    -1.1810     0.7440 H     1 <1>   0.0800 
 37 H        4.2540    -1.5800    -0.8260 H     1 <1>   0.0800 
 38 H        3.5480    -2.2700     0.6180 H     1 <1>   0.0800 
 39 H       -3.4990    -3.8230     0.6300 H     1 <1>   0.4000 
@<TRIPOS>BOND
  1   1   2  2   
  2   1   3  2   
  3   1   4  am  
  4   1   5  1   
  5   4   6  1   
  6   4   7  1   
  7   5   8  ar  
  8   5   9  ar  
  9   6  10  1   
 10   6  22  1   
 11   6  23  1   
 12   7  11  1   
 13   7  24  1   
 14   7  25  1   
 15   8  12  ar  
 16   8  13  1   
 17   9  14  ar  
 18   9  26  1   
 19  10  15  1   
 20  10  16  1   
 21  10  27  1   
 22  11  16  1   
 23  11  28  1   
 24  11  29  1   
 25  12  17  ar  
 26  12  30  1   
 27  13  31  1   
 28  13  32  1   
 29  13  33  1   
 30  14  17  ar  
 31  14  18  1   
 32  15  19  ar  
 33  15  20  ar  
 34  16  21  1   
 35  16  34  1   
 36  17  35  1   
 37  18  36  1   
 38  18  37  1   
 39  18  38  1   
 40  21  39  1   
@<TRIPOS>SUBSTRUCTURE
  1 ****   6 GROUP 4 **** **** 0

# MOE 2024.06 (io_trps.svl 2023.06)
