@<TRIPOS>MOLECULE
NONAME
40 42 1 0 0 
SMALL
USER_CHARGES


@<TRIPOS>ATOM
  1 F       -0.8840    -0.8180     1.0960 F     1 <1>  -0.1900 
  2 C       -1.2690    -1.9710     0.6100 C.ar  1 <1>   0.1900 
  3 C       -0.3580    -2.9000     0.0950 C.ar  1 <1>   0.0820 
  4 C       -2.6260    -2.2280     0.6380 C.ar  1 <1>  -0.1500 
  5 O        0.9970    -2.7630     0.0130 O.3   1 <1>  -0.3630 
  6 C       -0.8650    -4.0960    -0.3880 C.ar  1 <1>  -0.1500 
  7 C       -3.0950    -3.4330     0.1500 C.ar  1 <1>  -0.1500 
  8 C        1.6700    -1.5720     0.3570 C.3   1 <1>   0.0400 
  9 C       -2.2300    -4.3930    -0.3760 C.ar  1 <1>   0.0530 
 10 C       -2.7090    -5.6630    -0.8710 C.2   1 <1>   0.0870 
 11 O       -1.9550    -6.7280    -0.7160 O.3   1 <1>  -0.0190 
 12 C       -3.8500    -6.0760    -1.4860 C.2   1 <1>  -0.2330 
 13 N       -2.5150    -7.8200    -1.1660 N.2   1 <1>  -0.4100 
 14 C       -3.6520    -7.4470    -1.6320 C.2   1 <1>   0.3720 
 15 C       -5.0270    -5.3820    -1.9190 C.2   1 <1>   1.0330 
 16 N       -4.5860    -8.3050    -2.1920 N.pl3 1 <1>  -0.8520 
 17 O       -5.0410    -4.1480    -2.0440 O.co2 1 <1>  -0.9000 
 18 O       -6.0790    -6.0100    -2.1600 O.co2 1 <1>  -0.9000 
 19 C       -5.0550    -9.4070    -1.3280 C.3   1 <1>   0.2090 
 20 C       -6.3970    -9.0340    -0.6840 C.3   1 <1>  -0.0800 
 21 C       -6.2730    -7.9590     0.4040 C.3   1 <1>   0.1200 
 22 C       -7.0420   -10.2070     0.0440 C.3   1 <1>  -0.1600 
 23 O       -6.7590    -8.5310     1.5820 O.3   1 <1>  -0.5600 
 24 C       -7.6410    -9.5520     1.2750 C.3   1 <1>   0.1200 
 25 H       -3.3080    -1.4970     1.0330 H     1 <1>   0.1500 
 26 H       -0.1780    -4.8190    -0.7890 H     1 <1>   0.1500 
 27 H       -4.1530    -3.6320     0.1700 H     1 <1>   0.1500 
 28 H        2.7150    -1.7050     0.1450 H     1 <1>   0.0800 
 29 H        1.5330    -1.3830     1.4070 H     1 <1>   0.0800 
 30 H        1.2780    -0.7640    -0.2360 H     1 <1>   0.0800 
 31 H       -5.3990    -7.7000    -2.4390 H     1 <1>   0.4000 
 32 H       -4.3250    -9.6300    -0.5680 H     1 <1>   0.0800 
 33 H       -5.1790   -10.2830    -1.9400 H     1 <1>   0.0800 
 34 H       -7.0650    -8.6730    -1.4470 H     1 <1>   0.0800 
 35 H       -6.8750    -7.0990     0.1630 H     1 <1>   0.0800 
 36 H       -5.2570    -7.6510     0.5720 H     1 <1>   0.0800 
 37 H       -6.3030   -10.9230     0.3610 H     1 <1>   0.0800 
 38 H       -7.7890   -10.7010    -0.5510 H     1 <1>   0.0800 
 39 H       -7.7160   -10.2220     2.1140 H     1 <1>   0.0800 
 40 H       -8.5990    -9.1100     1.0580 H     1 <1>   0.0800 
@<TRIPOS>BOND
  1   1   2  1   
  2   2   3  ar  
  3   2   4  ar  
  4   3   5  1   
  5   3   6  ar  
  6   4   7  ar  
  7   4  25  1   
  8   5   8  1   
  9   6   9  ar  
 10   6  26  1   
 11   7   9  ar  
 12   7  27  1   
 13   8  28  1   
 14   8  29  1   
 15   8  30  1   
 16   9  10  1   
 17  10  11  1   
 18  10  12  2   
 19  11  13  1   
 20  12  14  1   
 21  12  15  1   
 22  13  14  2   
 23  14  16  1   
 24  15  17  ar  
 25  15  18  ar  
 26  16  19  1   
 27  16  31  1   
 28  19  20  1   
 29  19  32  1   
 30  19  33  1   
 31  20  21  1   
 32  20  22  1   
 33  20  34  1   
 34  21  23  1   
 35  21  35  1   
 36  21  36  1   
 37  22  24  1   
 38  22  37  1   
 39  22  38  1   
 40  23  24  1   
 41  24  39  1   
 42  24  40  1   
@<TRIPOS>SUBSTRUCTURE
  1 ****  10 GROUP 4 **** **** 0

# MOE 2024.06 (io_trps.svl 2023.06)
