@<TRIPOS>MOLECULE
NONAME
59 63 1 0 0 
SMALL
USER_CHARGES


@<TRIPOS>ATOM
  1 O        0.5260    -0.2870    -1.3270 O.2   1 <1>  -0.5700 
  2 C        1.3750    -1.1310    -1.1140 C.2   1 <1>   0.5440 
  3 N        2.5840    -0.7580    -0.5620 N.am  1 <1>  -0.6600 
  4 C        1.0830    -2.5100    -1.4440 C.ar  1 <1>   0.0860 
  5 C        2.9330     0.6740    -0.3370 C.3   1 <1>   0.1400 
  6 C        3.5540    -1.7200     0.0330 C.3   1 <1>   0.1400 
  7 C        0.0460    -3.2020    -0.8500 C.ar  1 <1>  -0.1500 
  8 C        1.8180    -3.2310    -2.3740 C.ar  1 <1>  -0.1500 
  9 C        3.0430     0.9470     1.1660 C.3   1 <1>  -0.1600 
 10 C        3.6700    -1.4670     1.5400 C.3   1 <1>  -0.1600 
 11 C       -0.2110    -4.5280    -1.1720 C.ar  1 <1>   0.4100 
 12 C        1.4970    -4.5470    -2.6330 C.ar  1 <1>   0.1600 
 13 C        4.0350    -0.0080     1.8450 C.3   1 <1>  -0.1600 
 14 N        0.5120    -5.2090    -2.0530 N.ar  1 <1>  -0.6200 
 15 N       -1.2620    -5.1870    -0.5550 N.pl3 1 <1>  -0.8380 
 16 C       -2.6110    -4.5580    -0.5710 C.3   1 <1>   0.2090 
 17 C       -1.4040    -6.6640    -0.6660 C.3   1 <1>   0.2090 
 18 C       -3.6100    -5.7120    -0.6930 C.3   1 <1>   0.2000 
 19 C       -2.8470    -6.9640    -0.2710 C.3   1 <1>  -0.0800 
 20 O       -4.7110    -5.5340     0.1330 O.3   1 <1>  -0.6800 
 21 C       -3.4050    -8.2470    -0.9090 C.3   1 <1>  -0.0170 
 22 C       -2.6290    -9.4750    -0.4480 C.ar  1 <1>  -0.1430 
 23 C       -2.8440   -10.0790     0.8140 C.ar  1 <1>   0.0000 
 24 C       -1.6810   -10.0300    -1.2580 C.ar  1 <1>  -0.1500 
 25 C       -2.0540   -11.2060     1.1480 C.ar  1 <1>   0.3100 
 26 C       -3.7960    -9.6330     1.7620 C.ar  1 <1>  -0.1500 
 27 C       -0.9570   -11.1490    -0.8320 C.ar  1 <1>   0.1600 
 28 N       -1.1170   -11.7270     0.3160 N.ar  1 <1>  -0.6200 
 29 C       -2.2400   -11.8210     2.3960 C.ar  1 <1>  -0.1500 
 30 C       -3.9530   -10.2570     2.9700 C.ar  1 <1>  -0.1500 
 31 C       -3.1660   -11.3640     3.2940 C.ar  1 <1>  -0.1500 
 32 H        3.8740     0.8820    -0.8170 H     1 <1>   0.0800 
 33 H        2.1910     1.3220    -0.7700 H     1 <1>   0.0800 
 34 H        3.2450    -2.7370    -0.1290 H     1 <1>   0.0800 
 35 H        4.5140    -1.5820    -0.4350 H     1 <1>   0.0800 
 36 H       -0.5660    -2.7070    -0.1230 H     1 <1>   0.1500 
 37 H        2.6320    -2.7570    -2.8890 H     1 <1>   0.1500 
 38 H        3.3550     1.9650     1.3200 H     1 <1>   0.0800 
 39 H        2.0680     0.8350     1.6070 H     1 <1>   0.0800 
 40 H        2.7300    -1.7100     2.0050 H     1 <1>   0.0800 
 41 H        4.4170    -2.1200     1.9540 H     1 <1>   0.0800 
 42 H        2.0820    -5.0890    -3.3570 H     1 <1>   0.1500 
 43 H        4.0270     0.1550     2.9090 H     1 <1>   0.0800 
 44 H        5.0290     0.1950     1.4850 H     1 <1>   0.0800 
 45 H       -2.7580    -4.0190     0.3480 H     1 <1>   0.0800 
 46 H       -2.7050    -3.8890    -1.4090 H     1 <1>   0.0800 
 47 H       -1.2280    -6.9720    -1.6830 H     1 <1>   0.0800 
 48 H       -0.7040    -7.1630    -0.0170 H     1 <1>   0.0800 
 49 H       -3.9540    -5.7850    -1.7110 H     1 <1>   0.0800 
 50 H       -2.8650    -7.0490     0.8010 H     1 <1>   0.0800 
 51 H       -4.4210    -5.4510     1.0620 H     1 <1>   0.4000 
 52 H       -3.3460    -8.1650    -1.9810 H     1 <1>   0.0800 
 53 H       -4.4470    -8.3580    -0.6660 H     1 <1>   0.0800 
 54 H       -1.4640    -9.6290    -2.2310 H     1 <1>   0.1500 
 55 H       -4.4140    -8.7860     1.5320 H     1 <1>   0.1500 
 56 H       -0.2170   -11.5540    -1.5020 H     1 <1>   0.1500 
 57 H       -1.6240   -12.6710     2.6230 H     1 <1>   0.1500 
 58 H       -4.6820    -9.9080     3.6820 H     1 <1>   0.1500 
 59 H       -3.2980   -11.8460     4.2470 H     1 <1>   0.1500 
@<TRIPOS>BOND
  1   1   2  2   
  2   2   3  am  
  3   2   4  1   
  4   3   5  1   
  5   3   6  1   
  6   4   7  ar  
  7   4   8  ar  
  8   5   9  1   
  9   5  32  1   
 10   5  33  1   
 11   6  10  1   
 12   6  34  1   
 13   6  35  1   
 14   7  11  ar  
 15   7  36  1   
 16   8  12  ar  
 17   8  37  1   
 18   9  13  1   
 19   9  38  1   
 20   9  39  1   
 21  10  13  1   
 22  10  40  1   
 23  10  41  1   
 24  11  14  ar  
 25  11  15  1   
 26  12  14  ar  
 27  12  42  1   
 28  13  43  1   
 29  13  44  1   
 30  15  16  1   
 31  15  17  1   
 32  16  18  1   
 33  16  45  1   
 34  16  46  1   
 35  17  19  1   
 36  17  47  1   
 37  17  48  1   
 38  18  19  1   
 39  18  20  1   
 40  18  49  1   
 41  19  21  1   
 42  19  50  1   
 43  20  51  1   
 44  21  22  1   
 45  21  52  1   
 46  21  53  1   
 47  22  23  ar  
 48  22  24  ar  
 49  23  25  ar  
 50  23  26  ar  
 51  24  27  ar  
 52  24  54  1   
 53  25  28  ar  
 54  25  29  ar  
 55  26  30  ar  
 56  26  55  1   
 57  27  28  ar  
 58  27  56  1   
 59  29  31  ar  
 60  29  57  1   
 61  30  31  ar  
 62  30  58  1   
 63  31  59  1   
@<TRIPOS>SUBSTRUCTURE
  1 ****  15 GROUP 4 **** **** 0

# MOE 2024.06 (io_trps.svl 2023.06)
