@<TRIPOS>MOLECULE
NONAME
49 51 1 0 0 
SMALL
USER_CHARGES


@<TRIPOS>ATOM
  1 O        0.7580    -0.0400    -1.0400 O.2   1 <1>  -0.5700 
  2 C        1.7220    -0.7760    -0.9200 C.2   1 <1>   0.7160 
  3 N        2.9820    -0.2130    -0.8540 N.am  1 <1>  -0.6600 
  4 C        1.5250    -2.2040    -0.8420 C.2   1 <1>  -0.0860 
  5 C        4.1510    -0.9100    -0.2250 C.3   1 <1>   0.1400 
  6 C        3.2050     1.1930    -1.2940 C.3   1 <1>   0.1400 
  7 C        0.6480    -2.9660    -0.1250 C.2   1 <1>  -0.3320 
  8 C        2.2540    -3.1530    -1.5630 C.2   1 <1>   0.1390 
  9 C        4.6860    -0.1650     1.0060 C.3   1 <1>   0.1400 
 10 C        3.1380     2.1400    -0.0890 C.3   1 <1>  -0.1600 
 11 N        0.8920    -4.2550    -0.4280 N.pl3 1 <1>   0.3140 
 12 C       -0.4280    -2.4980     0.8430 C.3   1 <1>  -0.0600 
 13 N        1.8920    -4.3700    -1.3130 N.2   1 <1>  -0.7070 
 14 N        5.3410     1.1190     0.6130 N.am  1 <1>  -0.6600 
 15 C        4.4620     2.3230     0.6690 C.3   1 <1>   0.1400 
 16 C        0.1990    -5.4410     0.0890 C.3   1 <1>   0.0160 
 17 C        6.6540     1.1020     0.1980 C.2   1 <1>   0.5690 
 18 O        7.2550     0.0550     0.1100 O.2   1 <1>  -0.5700 
 19 C        7.3940     2.3970    -0.1710 C.3   1 <1>  -0.0190 
 20 C        8.7540     2.2140    -0.8560 C.3   1 <1>  -0.1600 
 21 C        7.7430     3.2750     1.0360 C.3   1 <1>  -0.1600 
 22 C        9.4490     3.5670    -0.7070 C.3   1 <1>  -0.1600 
 23 C        8.8700     4.1990     0.5640 C.3   1 <1>  -0.1600 
 24 H        4.9400    -1.0200    -0.9480 H     1 <1>   0.0800 
 25 H        3.8670    -1.8960     0.0970 H     1 <1>   0.0800 
 26 H        2.4370     1.4660    -1.9990 H     1 <1>   0.0800 
 27 H        4.1530     1.2770    -1.7980 H     1 <1>   0.0800 
 28 H        3.0380    -2.9010    -2.2560 H     1 <1>   0.1500 
 29 H        5.4100    -0.7910     1.5000 H     1 <1>   0.0800 
 30 H        3.8870     0.0160     1.7030 H     1 <1>   0.0800 
 31 H        2.3720     1.8010     0.5870 H     1 <1>   0.0800 
 32 H        2.8270     3.1080    -0.4360 H     1 <1>   0.0800 
 33 H       -0.4190    -1.4250     0.9280 H     1 <1>   0.0800 
 34 H       -0.2610    -2.9170     1.8190 H     1 <1>   0.0800 
 35 H       -1.3980    -2.7990     0.4910 H     1 <1>   0.0800 
 36 H        4.2540     2.5560     1.6990 H     1 <1>   0.0800 
 37 H        4.9660     3.1710     0.2480 H     1 <1>   0.0800 
 38 H       -0.8430    -5.3780    -0.1630 H     1 <1>   0.0800 
 39 H        0.3190    -5.4840     1.1540 H     1 <1>   0.0800 
 40 H        0.6250    -6.3200    -0.3580 H     1 <1>   0.0800 
 41 H        6.7820     2.9590    -0.8520 H     1 <1>   0.0800 
 42 H        8.6510     1.9180    -1.8860 H     1 <1>   0.0800 
 43 H        9.3280     1.4670    -0.3340 H     1 <1>   0.0800 
 44 H        8.1110     2.6470     1.8300 H     1 <1>   0.0800 
 45 H        6.8970     3.8310     1.3980 H     1 <1>   0.0800 
 46 H        9.2160     4.1880    -1.5550 H     1 <1>   0.0800 
 47 H       10.5170     3.4500    -0.6430 H     1 <1>   0.0800 
 48 H        9.6240     4.2900     1.3270 H     1 <1>   0.0800 
 49 H        8.4840     5.1790     0.3400 H     1 <1>   0.0800 
@<TRIPOS>BOND
  1   1   2  2   
  2   2   3  am  
  3   2   4  1   
  4   3   5  1   
  5   3   6  1   
  6   4   7  2   
  7   4   8  1   
  8   5   9  1   
  9   5  24  1   
 10   5  25  1   
 11   6  10  1   
 12   6  26  1   
 13   6  27  1   
 14   7  11  1   
 15   7  12  1   
 16   8  13  2   
 17   8  28  1   
 18   9  14  1   
 19   9  29  1   
 20   9  30  1   
 21  10  15  1   
 22  10  31  1   
 23  10  32  1   
 24  11  13  1   
 25  11  16  1   
 26  12  33  1   
 27  12  34  1   
 28  12  35  1   
 29  14  15  1   
 30  14  17  am  
 31  15  36  1   
 32  15  37  1   
 33  16  38  1   
 34  16  39  1   
 35  16  40  1   
 36  17  18  2   
 37  17  19  1   
 38  19  20  1   
 39  19  21  1   
 40  19  41  1   
 41  20  22  1   
 42  20  42  1   
 43  20  43  1   
 44  21  23  1   
 45  21  44  1   
 46  21  45  1   
 47  22  23  1   
 48  22  46  1   
 49  22  47  1   
 50  23  48  1   
 51  23  49  1   
@<TRIPOS>SUBSTRUCTURE
  1 ****   5 GROUP 4 **** **** 0

# MOE 2024.06 (io_trps.svl 2023.06)
