@<TRIPOS>MOLECULE
NONAME
47 50 1 0 0 
SMALL
USER_CHARGES


@<TRIPOS>ATOM
  1 O       -1.0670     0.4750     1.8730 O.2   1 <1>  -0.5700 
  2 C       -1.1290     1.3340     1.0350 C.2   1 <1>   0.4230 
  3 C       -2.3450     1.9090     0.5310 C.ar  1 <1>   0.0860 
  4 C        0.1670     1.8610     0.4660 C.3   1 <1>  -0.0990 
  5 C       -2.2850     3.0570    -0.2690 C.ar  1 <1>   0.0830 
  6 C       -3.6010     1.3630     0.7980 C.ar  1 <1>  -0.1500 
  7 C        0.0520     3.3720     0.2410 C.3   1 <1>   0.2800 
  8 O       -1.1050     3.6680    -0.5310 O.3   1 <1>  -0.3630 
  9 C       -3.4370     3.6100    -0.8060 C.ar  1 <1>  -0.1500 
 10 C       -4.7490     1.9220     0.2710 C.ar  1 <1>  -0.1500 
 11 C        1.2500     3.9920    -0.4840 C.3   1 <1>   0.3430 
 12 C       -0.0150     4.2080     1.5180 C.3   1 <1>  -0.1600 
 13 C       -4.6690     3.0440    -0.5370 C.ar  1 <1>  -0.1500 
 14 N        1.2330     5.4450    -0.1280 N.4   1 <1>  -0.9590 
 15 C        0.3510     5.6170     1.0650 C.3   1 <1>   0.3430 
 16 C        0.8030     6.3210    -1.2540 C.3   1 <1>   0.5240 
 17 C        1.2140     7.7430    -0.9110 C.2   1 <1>   0.0460 
 18 N        2.4190     7.9880    -0.3420 N.2   1 <1>  -0.5650 
 19 C        0.5520     8.8980    -1.0660 C.2   1 <1>  -0.0100 
 20 C        2.4170     9.2670    -0.1980 C.2   1 <1>   0.2980 
 21 O        1.3160     9.8520    -0.6140 O.3   1 <1>  -0.2800 
 22 C        3.5400    10.1180     0.3900 C.3   1 <1>   0.1000 
 23 C        3.0740    10.8550     1.6530 C.3   1 <1>  -0.2400 
 24 C        4.0740    11.1190    -0.6440 C.3   1 <1>  -0.2400 
 25 H        0.3670     1.3580    -0.4620 H     1 <1>   0.0800 
 26 H        0.9720     1.6410     1.1450 H     1 <1>   0.0800 
 27 H       -3.6680     0.4870     1.4220 H     1 <1>   0.1500 
 28 H       -3.3730     4.4820    -1.4320 H     1 <1>   0.1500 
 29 H       -5.7100     1.4830     0.4860 H     1 <1>   0.1500 
 30 H        1.1900     3.8270    -1.5470 H     1 <1>   0.0800 
 31 H        2.1560     3.5460    -0.1070 H     1 <1>   0.0800 
 32 H        0.7210     3.8690     2.2260 H     1 <1>   0.0800 
 33 H       -0.9800     4.1770     1.9930 H     1 <1>   0.0800 
 34 H       -5.5670     3.4720    -0.9510 H     1 <1>   0.1500 
 35 H        2.1770     5.8030     0.1060 H     1 <1>   0.4500 
 36 H        0.8500     6.1670     1.8480 H     1 <1>   0.0800 
 37 H       -0.5480     6.1440     0.7860 H     1 <1>   0.0800 
 38 H       -0.2610     6.2540    -1.4130 H     1 <1>   0.0800 
 39 H        1.3120     6.0280    -2.1570 H     1 <1>   0.0800 
 40 H       -0.4160     9.1460    -1.4670 H     1 <1>   0.1500 
 41 H        4.3450     9.4570     0.6630 H     1 <1>   0.0800 
 42 H        2.2750    11.5360     1.4180 H     1 <1>   0.0800 
 43 H        3.8870    11.4120     2.0840 H     1 <1>   0.0800 
 44 H        2.7200    10.1490     2.3830 H     1 <1>   0.0800 
 45 H        3.3000    11.8080    -0.9360 H     1 <1>   0.0800 
 46 H        4.4140    10.5960    -1.5200 H     1 <1>   0.0800 
 47 H        4.8980    11.6770    -0.2370 H     1 <1>   0.0800 
@<TRIPOS>BOND
  1   1   2  2   
  2   2   3  1   
  3   2   4  1   
  4   3   5  ar  
  5   3   6  ar  
  6   4   7  1   
  7   4  25  1   
  8   4  26  1   
  9   5   8  1   
 10   5   9  ar  
 11   6  10  ar  
 12   6  27  1   
 13   7   8  1   
 14   7  11  1   
 15   7  12  1   
 16   9  13  ar  
 17   9  28  1   
 18  10  13  ar  
 19  10  29  1   
 20  11  14  1   
 21  11  30  1   
 22  11  31  1   
 23  12  15  1   
 24  12  32  1   
 25  12  33  1   
 26  13  34  1   
 27  14  15  1   
 28  14  16  1   
 29  14  35  1   
 30  15  36  1   
 31  15  37  1   
 32  16  17  1   
 33  16  38  1   
 34  16  39  1   
 35  17  18  1   
 36  17  19  2   
 37  18  20  2   
 38  19  21  1   
 39  19  40  1   
 40  20  21  1   
 41  20  22  1   
 42  22  23  1   
 43  22  24  1   
 44  22  41  1   
 45  23  42  1   
 46  23  43  1   
 47  23  44  1   
 48  24  45  1   
 49  24  46  1   
 50  24  47  1   
@<TRIPOS>SUBSTRUCTURE
  1 ****  15 GROUP 4 **** **** 0

# MOE 2024.06 (io_trps.svl 2023.06)
