@<TRIPOS>MOLECULE
NONAME
42 44 1 0 0 
SMALL
USER_CHARGES


@<TRIPOS>ATOM
  1 O       -0.1690     0.7050     1.2000 O.3   1 <1>  -0.5600 
  2 C       -1.4940     0.3750     0.9430 C.3   1 <1>   0.2000 
  3 C        0.6610    -0.1360     0.4710 C.3   1 <1>   0.1200 
  4 C       -1.5170    -0.0230    -0.5320 C.3   1 <1>  -0.1600 
  5 C       -2.3860     1.5780     1.3000 C.3   1 <1>   0.1100 
  6 C       -0.0720    -0.3870    -0.8410 C.3   1 <1>  -0.1600 
  7 N       -3.8080     1.3500     0.9630 N.3   1 <1>  -0.8100 
  8 C       -4.5980     2.6000     0.9140 C.3   1 <1>   0.2530 
  9 C       -4.4320     0.2660     1.7580 C.3   1 <1>   0.2900 
 10 C       -6.0090     2.3980     0.3440 C.ar  1 <1>   0.1670 
 11 C       -4.7340    -0.8990     0.8410 C.2   1 <1>   0.0070 
 12 N       -6.1170     2.0690    -0.9410 N.ar  1 <1>  -0.6200 
 13 C       -7.1000     2.5710     1.1850 C.ar  1 <1>  -0.1500 
 14 N       -5.1800    -0.7140    -0.3960 N.pl3 1 <1>   0.0330 
 15 N       -4.5970    -2.1520     1.1120 N.2   1 <1>  -0.3380 
 16 C       -7.3510     1.9230    -1.3980 C.ar  1 <1>   0.1600 
 17 C       -8.3780     2.4030     0.6960 C.ar  1 <1>  -0.1500 
 18 C       -5.3060    -1.9520    -0.8680 C.2   1 <1>   0.0060 
 19 N       -4.9640    -2.8260     0.0170 N.2   1 <1>  -0.3380 
 20 C       -8.4950     2.0720    -0.6360 C.ar  1 <1>  -0.1500 
 21 C       -5.7860    -2.2690    -2.2670 C.3   1 <1>  -0.0600 
 22 H       -1.7330    -0.4740     1.5590 H     1 <1>   0.0800 
 23 H        0.7810    -1.0490     1.0300 H     1 <1>   0.0800 
 24 H        1.6140     0.3440     0.3300 H     1 <1>   0.0800 
 25 H       -1.8420     0.8020    -1.1410 H     1 <1>   0.0800 
 26 H       -2.1850    -0.8530    -0.6840 H     1 <1>   0.0800 
 27 H       -2.0250     2.4260     0.7430 H     1 <1>   0.0800 
 28 H       -2.2890     1.7930     2.3500 H     1 <1>   0.0800 
 29 H        0.0310    -1.4130    -1.1450 H     1 <1>   0.0800 
 30 H        0.3230     0.2530    -1.6110 H     1 <1>   0.0800 
 31 H       -4.0910     3.3070     0.2800 H     1 <1>   0.0800 
 32 H       -4.6560     3.0250     1.9010 H     1 <1>   0.0800 
 33 H       -5.3490     0.5960     2.2130 H     1 <1>   0.0800 
 34 H       -3.7770    -0.0630     2.5470 H     1 <1>   0.0800 
 35 H       -6.9580     2.8350     2.2170 H     1 <1>   0.1500 
 36 H       -5.3530     0.2030    -0.8300 H     1 <1>   0.2700 
 37 H       -7.4570     1.6700    -2.4400 H     1 <1>   0.1500 
 38 H       -9.2440     2.5280     1.3230 H     1 <1>   0.1500 
 39 H       -9.4640     1.9320    -1.0810 H     1 <1>   0.1500 
 40 H       -5.1310    -1.8200    -2.9900 H     1 <1>   0.0800 
 41 H       -6.7830    -1.8930    -2.4060 H     1 <1>   0.0800 
 42 H       -5.7920    -3.3330    -2.4170 H     1 <1>   0.0800 
@<TRIPOS>BOND
  1   1   2  1   
  2   1   3  1   
  3   2   4  1   
  4   2   5  1   
  5   2  22  1   
  6   3   6  1   
  7   3  23  1   
  8   3  24  1   
  9   4   6  1   
 10   4  25  1   
 11   4  26  1   
 12   5   7  1   
 13   5  27  1   
 14   5  28  1   
 15   6  29  1   
 16   6  30  1   
 17   7   8  1   
 18   7   9  1   
 19   8  10  1   
 20   8  31  1   
 21   8  32  1   
 22   9  11  1   
 23   9  33  1   
 24   9  34  1   
 25  10  12  ar  
 26  10  13  ar  
 27  11  14  1   
 28  11  15  2   
 29  12  16  ar  
 30  13  17  ar  
 31  13  35  1   
 32  14  18  1   
 33  14  36  1   
 34  15  19  1   
 35  16  20  ar  
 36  16  37  1   
 37  17  20  ar  
 38  17  38  1   
 39  18  19  2   
 40  18  21  1   
 41  20  39  1   
 42  21  40  1   
 43  21  41  1   
 44  21  42  1   
@<TRIPOS>SUBSTRUCTURE
  1 ****   7 GROUP 4 **** **** 0

# MOE 2024.06 (io_trps.svl 2023.06)
