@<TRIPOS>MOLECULE
NONAME
59 62 1 0 0 
SMALL
USER_CHARGES


@<TRIPOS>ATOM
  1 O        0.0040     0.4500     0.3810 O.3   1 <1>  -0.5600 
  2 C        0.2710     1.1420    -0.7900 C.3   1 <1>   0.1200 
  3 C       -1.3670     0.5050     0.6440 C.3   1 <1>   0.1200 
  4 C       -0.6230     2.3730    -0.6690 C.3   1 <1>   0.4230 
  5 C       -1.8960     1.7340    -0.1210 C.3   1 <1>  -0.0800 
  6 N       -0.0640     3.2720     0.3780 N.4   1 <1>  -0.9060 
  7 C       -2.8670     1.3360    -1.2510 C.3   1 <1>  -0.0170 
  8 C        0.7100     4.4480    -0.0830 C.3   1 <1>   0.4230 
  9 C       -4.1400     0.7300    -0.6830 C.ar  1 <1>  -0.1440 
 10 C        2.0040     4.0130    -0.7820 C.3   1 <1>  -0.1600 
 11 C        0.9740     5.3280     1.1420 C.3   1 <1>  -0.1600 
 12 C       -4.3730    -0.6310    -0.6940 C.ar  1 <1>  -0.1500 
 13 C       -5.1340     1.5130    -0.1270 C.ar  1 <1>  -0.1500 
 14 C        2.8750     5.2240    -1.1050 C.3   1 <1>   0.2090 
 15 C        1.8620     6.5130     0.7730 C.3   1 <1>   0.2090 
 16 C       -5.5460    -1.1300    -0.1530 C.ar  1 <1>   0.1600 
 17 C       -6.2710     0.9120     0.3870 C.ar  1 <1>   0.1600 
 18 N        3.0820     5.9680     0.1500 N.pl3 1 <1>  -0.8380 
 19 N       -6.4970    -0.3900     0.3910 N.ar  1 <1>  -0.6200 
 20 C        4.2120     6.7760     0.2000 C.ar  1 <1>   0.1000 
 21 C        4.2800     7.9730    -0.5030 C.ar  1 <1>  -0.1500 
 22 C        5.3030     6.3850     0.9640 C.ar  1 <1>  -0.1500 
 23 C        5.4120     8.7660    -0.4460 C.ar  1 <1>  -0.1440 
 24 C        6.4420     7.1680     1.0300 C.ar  1 <1>  -0.1440 
 25 C        6.4910     8.3590     0.3230 C.ar  1 <1>  -0.1500 
 26 C        5.4880    10.0740    -1.2130 C.3   1 <1>  -0.0970 
 27 C        7.6340     6.7400     1.8670 C.3   1 <1>  -0.0970 
 28 H        1.3220     1.3600    -0.8460 H     1 <1>   0.0800 
 29 H       -0.0140     0.5210    -1.6230 H     1 <1>   0.0800 
 30 H       -1.8110    -0.4170     0.3090 H     1 <1>   0.0800 
 31 H       -1.5050     0.5980     1.7080 H     1 <1>   0.0800 
 32 H       -0.7760     2.8890    -1.6030 H     1 <1>   0.0800 
 33 H       -2.4190     2.3950     0.5470 H     1 <1>   0.0800 
 34 H       -0.8210     3.5940     0.9860 H     1 <1>   0.4500 
 35 H        0.5340     2.6770     0.9740 H     1 <1>   0.4500 
 36 H       -2.4060     0.6310    -1.9220 H     1 <1>   0.0800 
 37 H       -3.1340     2.2050    -1.8290 H     1 <1>   0.0800 
 38 H        0.1180     5.0170    -0.7820 H     1 <1>   0.0800 
 39 H        2.5750     3.3600    -0.1460 H     1 <1>   0.0800 
 40 H        1.7890     3.5080    -1.7050 H     1 <1>   0.0800 
 41 H        0.0510     5.7070     1.5410 H     1 <1>   0.0800 
 42 H        1.4810     4.7670     1.9080 H     1 <1>   0.0800 
 43 H       -3.6610    -1.3160    -1.1180 H     1 <1>   0.1500 
 44 H       -5.0450     2.5820    -0.0880 H     1 <1>   0.1500 
 45 H        2.4020     5.8630    -1.8320 H     1 <1>   0.0800 
 46 H        3.8280     4.9070    -1.4970 H     1 <1>   0.0800 
 47 H        2.1270     7.0720     1.6560 H     1 <1>   0.0800 
 48 H        1.3640     7.1750     0.0840 H     1 <1>   0.0800 
 49 H       -5.7110    -2.1950    -0.1690 H     1 <1>   0.1500 
 50 H       -7.0380     1.5350     0.8170 H     1 <1>   0.1500 
 51 H        3.4390     8.2760    -1.0950 H     1 <1>   0.1500 
 52 H        5.2420     5.4600     1.5040 H     1 <1>   0.1500 
 53 H        7.3730     8.9720     0.3710 H     1 <1>   0.1500 
 54 H        6.3250    10.0530    -1.8880 H     1 <1>   0.0800 
 55 H        5.6160    10.8920    -0.5270 H     1 <1>   0.0800 
 56 H        4.5920    10.2400    -1.7820 H     1 <1>   0.0800 
 57 H        7.8050     7.4570     2.6500 H     1 <1>   0.0800 
 58 H        8.5120     6.6820     1.2490 H     1 <1>   0.0800 
 59 H        7.4640     5.7770     2.3130 H     1 <1>   0.0800 
@<TRIPOS>BOND
  1   1   2  1   
  2   1   3  1   
  3   2   4  1   
  4   2  28  1   
  5   2  29  1   
  6   3   5  1   
  7   3  30  1   
  8   3  31  1   
  9   4   5  1   
 10   4   6  1   
 11   4  32  1   
 12   5   7  1   
 13   5  33  1   
 14   6   8  1   
 15   6  34  1   
 16   6  35  1   
 17   7   9  1   
 18   7  36  1   
 19   7  37  1   
 20   8  10  1   
 21   8  11  1   
 22   8  38  1   
 23   9  12  ar  
 24   9  13  ar  
 25  10  14  1   
 26  10  39  1   
 27  10  40  1   
 28  11  15  1   
 29  11  41  1   
 30  11  42  1   
 31  12  16  ar  
 32  12  43  1   
 33  13  17  ar  
 34  13  44  1   
 35  14  18  1   
 36  14  45  1   
 37  14  46  1   
 38  15  18  1   
 39  15  47  1   
 40  15  48  1   
 41  16  19  ar  
 42  16  49  1   
 43  17  19  ar  
 44  17  50  1   
 45  18  20  1   
 46  20  21  ar  
 47  20  22  ar  
 48  21  23  ar  
 49  21  51  1   
 50  22  24  ar  
 51  22  52  1   
 52  23  25  ar  
 53  23  26  1   
 54  24  25  ar  
 55  24  27  1   
 56  25  53  1   
 57  26  54  1   
 58  26  55  1   
 59  26  56  1   
 60  27  57  1   
 61  27  58  1   
 62  27  59  1   
@<TRIPOS>SUBSTRUCTURE
  1 ****   8 GROUP 4 **** **** 0

# MOE 2024.06 (io_trps.svl 2023.06)
