@<TRIPOS>MOLECULE
NONAME
52 55 1 0 0 
SMALL
USER_CHARGES


@<TRIPOS>ATOM
  1 S        2.4250     3.1790    -0.6230 S.3   1 <1>  -0.0800 
  2 C        2.5330     1.4510    -0.2980 C.2   1 <1>   0.3250 
  3 C        0.7160     3.0460    -0.8290 C.2   1 <1>  -0.1100 
  4 N        1.3680     0.8890    -0.3530 N.2   1 <1>  -0.5650 
  5 C        3.8450     0.8780    -0.0130 C.ar  1 <1>   0.6730 
  6 C        0.3180     1.7690    -0.6480 C.2   1 <1>   0.1410 
  7 N        3.8990    -0.4120     0.3570 N.ar  1 <1>  -0.6200 
  8 N        4.9260     1.6660    -0.1330 N.ar  1 <1>  -0.6200 
  9 C       -1.0760     1.3320    -0.7720 C.2   1 <1>   0.7160 
 10 C        5.0810    -0.9200     0.6090 C.ar  1 <1>   0.1600 
 11 C        6.0950     1.1330     0.1250 C.ar  1 <1>   0.1600 
 12 O       -1.8530     2.0570    -1.3720 O.2   1 <1>  -0.5700 
 13 N       -1.5750     0.1510    -0.2380 N.am  1 <1>  -0.6600 
 14 C        6.2290    -0.1780     0.5060 C.ar  1 <1>  -0.1500 
 15 C       -2.8700    -0.3960    -0.7380 C.3   1 <1>   0.2200 
 16 C       -0.8800    -0.5680     0.8740 C.3   1 <1>   0.0600 
 17 C       -4.0150    -0.1850     0.2480 C.3   1 <1>  -0.1600 
 18 C       -2.8600    -1.9010    -1.0110 C.3   1 <1>  -0.1600 
 19 C       -5.0700    -1.2170    -0.1690 C.3   1 <1>  -0.0800 
 20 C       -4.3430    -2.2940    -0.9830 C.3   1 <1>  -0.0800 
 21 C       -5.7560    -1.9600     0.9860 C.3   1 <1>  -0.1600 
 22 C       -4.6570    -3.6290    -0.2890 C.3   1 <1>  -0.1600 
 23 C       -5.9610    -3.3910     0.4800 C.3   1 <1>   0.4230 
 24 N       -7.1410    -3.4640    -0.4430 N.4   1 <1>  -0.9590 
 25 C       -8.4270    -3.0890     0.2280 C.3   1 <1>   0.2630 
 26 C       -7.3070    -4.8190    -1.0630 C.3   1 <1>   0.2630 
 27 H        0.1560     3.9310    -1.0720 H     1 <1>   0.1500 
 28 H        5.1330    -1.9550     0.9050 H     1 <1>   0.1500 
 29 H        6.9680     1.7580     0.0300 H     1 <1>   0.1500 
 30 H        7.1920    -0.6050     0.7150 H     1 <1>   0.1500 
 31 H       -3.1360     0.0900    -1.6630 H     1 <1>   0.0800 
 32 H       -1.5850    -1.0850     1.4990 H     1 <1>   0.0800 
 33 H       -0.3390     0.1300     1.4880 H     1 <1>   0.0800 
 34 H       -0.1840    -1.2800     0.4630 H     1 <1>   0.0800 
 35 H       -3.6760    -0.3640     1.2510 H     1 <1>   0.0800 
 36 H       -4.3940     0.8200     0.1780 H     1 <1>   0.0800 
 37 H       -2.4110    -2.1140    -1.9650 H     1 <1>   0.0800 
 38 H       -2.3220    -2.4240    -0.2440 H     1 <1>   0.0800 
 39 H       -5.8050    -0.7410    -0.7980 H     1 <1>   0.0800 
 40 H       -4.7320    -2.2930    -1.9890 H     1 <1>   0.0800 
 41 H       -6.6450    -1.4620     1.3240 H     1 <1>   0.0800 
 42 H       -5.0840    -2.0130     1.8260 H     1 <1>   0.0800 
 43 H       -3.8950    -3.8420     0.4400 H     1 <1>   0.0800 
 44 H       -4.6780    -4.4520    -0.9770 H     1 <1>   0.0800 
 45 H       -6.0750    -4.0880     1.2950 H     1 <1>   0.0800 
 46 H       -6.9550    -2.7830    -1.1930 H     1 <1>   0.4500 
 47 H       -8.6040    -3.7240     1.0810 H     1 <1>   0.0800 
 48 H       -9.2510    -3.1990    -0.4590 H     1 <1>   0.0800 
 49 H       -8.4030    -2.0640     0.5580 H     1 <1>   0.0800 
 50 H       -7.4110    -5.5710    -0.2970 H     1 <1>   0.0800 
 51 H       -6.4580    -5.0660    -1.6780 H     1 <1>   0.0800 
 52 H       -8.1870    -4.8390    -1.6850 H     1 <1>   0.0800 
@<TRIPOS>BOND
  1   1   2  1   
  2   1   3  1   
  3   2   4  2   
  4   2   5  1   
  5   3   6  2   
  6   3  27  1   
  7   4   6  1   
  8   5   7  ar  
  9   5   8  ar  
 10   6   9  1   
 11   7  10  ar  
 12   8  11  ar  
 13   9  12  2   
 14   9  13  am  
 15  10  14  ar  
 16  10  28  1   
 17  11  14  ar  
 18  11  29  1   
 19  13  15  1   
 20  13  16  1   
 21  14  30  1   
 22  15  17  1   
 23  15  18  1   
 24  15  31  1   
 25  16  32  1   
 26  16  33  1   
 27  16  34  1   
 28  17  19  1   
 29  17  35  1   
 30  17  36  1   
 31  18  20  1   
 32  18  37  1   
 33  18  38  1   
 34  19  20  1   
 35  19  21  1   
 36  19  39  1   
 37  20  22  1   
 38  20  40  1   
 39  21  23  1   
 40  21  41  1   
 41  21  42  1   
 42  22  23  1   
 43  22  43  1   
 44  22  44  1   
 45  23  24  1   
 46  23  45  1   
 47  24  25  1   
 48  24  26  1   
 49  24  46  1   
 50  25  47  1   
 51  25  48  1   
 52  25  49  1   
 53  26  50  1   
 54  26  51  1   
 55  26  52  1   
@<TRIPOS>SUBSTRUCTURE
  1 ****  13 GROUP 4 **** **** 0

# MOE 2024.06 (io_trps.svl 2023.06)
