@<TRIPOS>MOLECULE
NONAME
52 54 1 0 0 
SMALL
USER_CHARGES


@<TRIPOS>ATOM
  1 O       -1.0080    -0.1410     0.9130 O.2   1 <1>  -0.5700 
  2 C       -1.7710    -1.0820     0.9050 C.2   1 <1>   0.6900 
  3 N       -3.1300    -0.9320     0.7060 N.am  1 <1>  -0.4200 
  4 N       -1.2650    -2.3360     1.0940 N.am  1 <1>  -0.5390 
  5 C       -3.9490    -2.0470     0.6610 C.2   1 <1>   0.6160 
  6 C       -3.6970     0.4330     0.5100 C.3   1 <1>   0.0600 
  7 C       -2.0480    -3.4730     1.0900 C.2   1 <1>  -0.0410 
  8 O       -5.1390    -1.9270     0.4180 O.2   1 <1>  -0.5700 
  9 C       -3.3770    -3.3500     0.8750 C.2   1 <1>  -0.1240 
 10 C       -4.3070    -4.5600     0.8610 C.3   1 <1>  -0.0220 
 11 C       -4.9430    -4.7470    -0.5260 C.3   1 <1>   0.3430 
 12 N       -6.3680    -5.2040    -0.4500 N.4   1 <1>  -0.9590 
 13 C       -6.8070    -5.8670    -1.7180 C.3   1 <1>   0.4230 
 14 C       -7.2040    -4.0290    -0.0350 C.3   1 <1>   0.3430 
 15 C       -8.3340    -6.0760    -1.7790 C.3   1 <1>  -0.1600 
 16 C       -6.0690    -7.2120    -1.9240 C.3   1 <1>  -0.1600 
 17 C       -8.6920    -4.3540    -0.0300 C.3   1 <1>  -0.1600 
 18 C       -9.1350    -4.8280    -1.4120 C.3   1 <1>  -0.1600 
 19 C       -6.4830    -8.4180    -1.0430 C.3   1 <1>  -0.0170 
 20 C       -6.6930    -8.1390     0.4420 C.ar  1 <1>   0.1670 
 21 N       -5.6990    -7.5520     1.0960 N.ar  1 <1>  -0.6200 
 22 C       -7.8890    -8.5140     1.0380 C.ar  1 <1>  -0.1500 
 23 C       -5.8910    -7.3740     2.3970 C.ar  1 <1>   0.1600 
 24 C       -8.0870    -8.2920     2.3830 C.ar  1 <1>  -0.1500 
 25 C       -7.0490    -7.7090     3.0750 C.ar  1 <1>  -0.1500 
 26 H       -0.2530    -2.3590     1.2480 H     1 <1>   0.3700 
 27 H       -3.1130     1.1620     1.0450 H     1 <1>   0.0800 
 28 H       -4.7080     0.4770     0.8750 H     1 <1>   0.0800 
 29 H       -3.6880     0.6790    -0.5370 H     1 <1>   0.0800 
 30 H       -1.5500    -4.4150     1.2620 H     1 <1>   0.1500 
 31 H       -5.0570    -4.4160     1.6180 H     1 <1>   0.0800 
 32 H       -3.7570    -5.4500     1.1100 H     1 <1>   0.0800 
 33 H       -4.3410    -5.4510    -1.0720 H     1 <1>   0.0800 
 34 H       -4.9090    -3.8130    -1.0620 H     1 <1>   0.0800 
 35 H       -6.4140    -5.9440     0.2780 H     1 <1>   0.4500 
 36 H       -6.5430    -5.2130    -2.5340 H     1 <1>   0.0800 
 37 H       -7.0310    -3.2110    -0.7170 H     1 <1>   0.0800 
 38 H       -6.9120    -3.6960     0.9470 H     1 <1>   0.0800 
 39 H       -8.6350    -6.8610    -1.1140 H     1 <1>   0.0800 
 40 H       -8.6030    -6.3840    -2.7740 H     1 <1>   0.0800 
 41 H       -5.0100    -7.0780    -1.8300 H     1 <1>   0.0800 
 42 H       -6.2280    -7.5070    -2.9470 H     1 <1>   0.0800 
 43 H       -9.2410    -3.4680     0.2370 H     1 <1>   0.0800 
 44 H       -8.8980    -5.1040     0.7140 H     1 <1>   0.0800 
 45 H      -10.1880    -5.0570    -1.4020 H     1 <1>   0.0800 
 46 H       -8.9700    -4.0510    -2.1410 H     1 <1>   0.0800 
 47 H       -5.7230    -9.1760    -1.1270 H     1 <1>   0.0800 
 48 H       -7.3810    -8.8490    -1.4500 H     1 <1>   0.0800 
 49 H       -8.6660    -8.9890     0.4640 H     1 <1>   0.1500 
 50 H       -5.0830    -6.9370     2.9600 H     1 <1>   0.1500 
 51 H       -9.0040    -8.5730     2.8740 H     1 <1>   0.1500 
 52 H       -7.1320    -7.5260     4.1310 H     1 <1>   0.1500 
@<TRIPOS>BOND
  1   1   2  2   
  2   2   3  am  
  3   2   4  am  
  4   3   5  am  
  5   3   6  1   
  6   4   7  1   
  7   4  26  1   
  8   5   8  2   
  9   5   9  1   
 10   6  27  1   
 11   6  28  1   
 12   6  29  1   
 13   7   9  2   
 14   7  30  1   
 15   9  10  1   
 16  10  11  1   
 17  10  31  1   
 18  10  32  1   
 19  11  12  1   
 20  11  33  1   
 21  11  34  1   
 22  12  13  1   
 23  12  14  1   
 24  12  35  1   
 25  13  15  1   
 26  13  16  1   
 27  13  36  1   
 28  14  17  1   
 29  14  37  1   
 30  14  38  1   
 31  15  18  1   
 32  15  39  1   
 33  15  40  1   
 34  16  19  1   
 35  16  41  1   
 36  16  42  1   
 37  17  18  1   
 38  17  43  1   
 39  17  44  1   
 40  18  45  1   
 41  18  46  1   
 42  19  20  1   
 43  19  47  1   
 44  19  48  1   
 45  20  21  ar  
 46  20  22  ar  
 47  21  23  ar  
 48  22  24  ar  
 49  22  49  1   
 50  23  25  ar  
 51  23  50  1   
 52  24  25  ar  
 53  24  51  1   
 54  25  52  1   
@<TRIPOS>SUBSTRUCTURE
  1 ****  11 GROUP 4 **** **** 0

# MOE 2024.06 (io_trps.svl 2023.06)
