@<TRIPOS>MOLECULE
NONAME
51 52 1 0 0 
SMALL
USER_CHARGES


@<TRIPOS>ATOM
  1 O        0.2410     1.4130    -1.9690 O.2   1 <1>  -0.5700 
  2 C        0.2050     2.4910    -1.4090 C.2   1 <1>   0.5440 
  3 N        1.2700     3.2900    -1.6300 N.am  1 <1>  -0.8000 
  4 C       -0.9140     2.8830    -0.5740 C.ar  1 <1>   0.0860 
  5 C       -0.8820     3.9730     0.3240 C.ar  1 <1>   0.4100 
  6 C       -2.1000     2.1630    -0.6430 C.ar  1 <1>  -0.1500 
  7 N       -1.9180     4.3410     1.0740 N.ar  1 <1>  -0.6200 
  8 N        0.2450     4.7520     0.5260 N.pl3 1 <1>  -0.8380 
  9 C       -3.1710     2.5380     0.1360 C.ar  1 <1>  -0.1430 
 10 C       -3.0260     3.6380     0.9730 C.ar  1 <1>   0.1670 
 11 C        0.1050     6.2200     0.2820 C.3   1 <1>   0.2090 
 12 C        1.0690     4.3730     1.7030 C.3   1 <1>   0.2090 
 13 C       -4.4670     1.7400     0.0540 C.3   1 <1>  -0.0970 
 14 C       -4.1700     4.1060     1.8540 C.3   1 <1>  -0.0970 
 15 C        1.2320     6.7500    -0.6180 C.3   1 <1>   0.1100 
 16 C        2.3170     5.2430     1.8940 C.3   1 <1>  -0.1600 
 17 N        2.5610     6.8560     0.0390 N.3   1 <1>  -0.8100 
 18 C        3.0610     5.5930     0.6010 C.3   1 <1>   0.1100 
 19 C        3.5600     7.4300    -0.9140 C.3   1 <1>   0.1710 
 20 C        3.2200     8.8070    -1.5130 C.2   1 <1>   0.5690 
 21 O        3.1380     8.8740    -2.7190 O.2   1 <1>  -0.5700 
 22 N        3.0190     9.9130    -0.7150 N.am  1 <1>  -0.6600 
 23 C        3.0480     9.8730     0.7740 C.3   1 <1>   0.0600 
 24 C        2.6480    11.2370    -1.2880 C.3   1 <1>   0.0600 
 25 H        2.0640     2.9590    -2.1750 H     1 <1>   0.3700 
 26 H        1.3690     4.1360    -1.0530 H     1 <1>   0.3700 
 27 H       -2.1700     1.3190    -1.3080 H     1 <1>   0.1500 
 28 H        0.0850     6.7600     1.2120 H     1 <1>   0.0800 
 29 H       -0.8320     6.4020    -0.2160 H     1 <1>   0.0800 
 30 H        1.3760     3.3490     1.5770 H     1 <1>   0.0800 
 31 H        0.4590     4.4240     2.5900 H     1 <1>   0.0800 
 32 H       -4.3450     0.8730    -0.5710 H     1 <1>   0.0800 
 33 H       -5.2490     2.3480    -0.3630 H     1 <1>   0.0800 
 34 H       -4.7620     1.4070     1.0320 H     1 <1>   0.0800 
 35 H       -3.9360     5.0580     2.2980 H     1 <1>   0.0800 
 36 H       -4.3360     3.3950     2.6410 H     1 <1>   0.0800 
 37 H       -5.0670     4.2180     1.2750 H     1 <1>   0.0800 
 38 H        0.9340     7.7330    -0.9380 H     1 <1>   0.0800 
 39 H        1.3000     6.1360    -1.4990 H     1 <1>   0.0800 
 40 H        2.9860     4.6950     2.5310 H     1 <1>   0.0800 
 41 H        2.0610     6.1450     2.4200 H     1 <1>   0.0800 
 42 H        2.9900     4.7950    -0.1180 H     1 <1>   0.0800 
 43 H        4.1000     5.7180     0.8530 H     1 <1>   0.0800 
 44 H        3.6970     6.7430    -1.7310 H     1 <1>   0.0800 
 45 H        4.5060     7.5280    -0.4150 H     1 <1>   0.0800 
 46 H        3.6680     9.0690     1.1270 H     1 <1>   0.0800 
 47 H        2.0490     9.7280     1.1470 H     1 <1>   0.0800 
 48 H        3.4400    10.7970     1.1610 H     1 <1>   0.0800 
 49 H        2.6100    11.1940    -2.3630 H     1 <1>   0.0800 
 50 H        3.3780    11.9730    -1.0020 H     1 <1>   0.0800 
 51 H        1.6810    11.5320    -0.9220 H     1 <1>   0.0800 
@<TRIPOS>BOND
  1   1   2  2   
  2   2   3  am  
  3   2   4  1   
  4   3  25  1   
  5   3  26  1   
  6   4   5  ar  
  7   4   6  ar  
  8   5   7  ar  
  9   5   8  1   
 10   6   9  ar  
 11   6  27  1   
 12   7  10  ar  
 13   8  11  1   
 14   8  12  1   
 15   9  10  ar  
 16   9  13  1   
 17  10  14  1   
 18  11  15  1   
 19  11  28  1   
 20  11  29  1   
 21  12  16  1   
 22  12  30  1   
 23  12  31  1   
 24  13  32  1   
 25  13  33  1   
 26  13  34  1   
 27  14  35  1   
 28  14  36  1   
 29  14  37  1   
 30  15  17  1   
 31  15  38  1   
 32  15  39  1   
 33  16  18  1   
 34  16  40  1   
 35  16  41  1   
 36  17  18  1   
 37  17  19  1   
 38  18  42  1   
 39  18  43  1   
 40  19  20  1   
 41  19  44  1   
 42  19  45  1   
 43  20  21  2   
 44  20  22  am  
 45  22  23  1   
 46  22  24  1   
 47  23  46  1   
 48  23  47  1   
 49  23  48  1   
 50  24  49  1   
 51  24  50  1   
 52  24  51  1   
@<TRIPOS>SUBSTRUCTURE
  1 ****   8 GROUP 4 **** **** 0

# MOE 2024.06 (io_trps.svl 2023.06)
