@<TRIPOS>MOLECULE
NONAME
43 45 1 0 0 
SMALL
USER_CHARGES


@<TRIPOS>ATOM
  1 O       -1.5780     0.1710     2.1710 O.2   1 <1>  -0.5700 
  2 C       -2.2020     0.6720     1.2560 C.2   1 <1>   0.7160 
  3 N       -3.3310     0.0430     0.7910 N.am  1 <1>  -0.6600 
  4 C       -1.7440     1.8910     0.6480 C.2   1 <1>  -0.0860 
  5 C       -4.1000     0.4750    -0.4040 C.3   1 <1>   0.1400 
  6 C       -3.6300    -1.3760     1.1090 C.3   1 <1>   0.1400 
  7 C       -0.5820     2.0550    -0.0870 C.2   1 <1>   0.1080 
  8 C       -2.2690     3.1320     0.5950 C.2   1 <1>  -0.0400 
  9 C       -5.1470    -0.6220    -0.6070 C.3   1 <1>   0.2000 
 10 C       -4.4820    -1.8890    -0.0640 C.3   1 <1>  -0.0800 
 11 N       -0.4930     3.2560    -0.5210 N.2   1 <1>  -0.4100 
 12 C        0.4570     0.9760    -0.3510 C.3   1 <1>   0.0210 
 13 O       -1.5300     3.9520    -0.1120 O.3   1 <1>  -0.0190 
 14 C       -3.5370     3.6710     1.2280 C.3   1 <1>  -0.0600 
 15 O       -6.2420    -0.3370     0.1910 O.3   1 <1>  -0.6800 
 16 C       -3.6380    -2.5630    -1.1670 C.3   1 <1>  -0.0170 
 17 C       -0.0550    -0.0880    -1.3290 C.3   1 <1>  -0.2400 
 18 C       -2.8900    -3.7880    -0.6660 C.ar  1 <1>   0.1670 
 19 N       -1.6050    -3.6250    -0.4010 N.ar  1 <1>  -0.6200 
 20 C       -3.5610    -4.9990    -0.5070 C.ar  1 <1>   0.1600 
 21 C       -1.0410    -4.7390     0.0370 C.ar  1 <1>   0.1600 
 22 N       -3.0000    -6.1150    -0.0710 N.ar  1 <1>  -0.6200 
 23 C       -1.7160    -5.9430     0.1960 C.ar  1 <1>   0.1600 
 24 H       -4.5610     1.4360    -0.2600 H     1 <1>   0.0800 
 25 H       -3.4390     0.5180    -1.2530 H     1 <1>   0.0800 
 26 H       -2.7220    -1.9390     1.2450 H     1 <1>   0.0800 
 27 H       -4.1950    -1.4130     2.0240 H     1 <1>   0.0800 
 28 H       -5.4850    -0.7030    -1.6260 H     1 <1>   0.0800 
 29 H       -5.2180    -2.5930     0.2820 H     1 <1>   0.0800 
 30 H        1.3390     1.4370    -0.7570 H     1 <1>   0.0800 
 31 H        0.7290     0.5120     0.5810 H     1 <1>   0.0800 
 32 H       -4.0300     2.9070     1.8010 H     1 <1>   0.0800 
 33 H       -4.2050     4.0250     0.4640 H     1 <1>   0.0800 
 34 H       -3.2920     4.4890     1.8820 H     1 <1>   0.0800 
 35 H       -5.9350    -0.1480     1.1010 H     1 <1>   0.4000 
 36 H       -2.9250    -1.8660    -1.5710 H     1 <1>   0.0800 
 37 H       -4.2830    -2.8630    -1.9740 H     1 <1>   0.0800 
 38 H       -0.3710     0.3750    -2.2480 H     1 <1>   0.0800 
 39 H       -0.8820    -0.6260    -0.9030 H     1 <1>   0.0800 
 40 H        0.7270    -0.7920    -1.5470 H     1 <1>   0.0800 
 41 H       -4.6080    -5.0490    -0.7500 H     1 <1>   0.1500 
 42 H        0.0050    -4.6970     0.2810 H     1 <1>   0.1500 
 43 H       -1.1720    -6.7960     0.5590 H     1 <1>   0.1500 
@<TRIPOS>BOND
  1   1   2  2   
  2   2   3  am  
  3   2   4  1   
  4   3   5  1   
  5   3   6  1   
  6   4   7  1   
  7   4   8  2   
  8   5   9  1   
  9   5  24  1   
 10   5  25  1   
 11   6  10  1   
 12   6  26  1   
 13   6  27  1   
 14   7  11  2   
 15   7  12  1   
 16   8  13  1   
 17   8  14  1   
 18   9  10  1   
 19   9  15  1   
 20   9  28  1   
 21  10  16  1   
 22  10  29  1   
 23  11  13  1   
 24  12  17  1   
 25  12  30  1   
 26  12  31  1   
 27  14  32  1   
 28  14  33  1   
 29  14  34  1   
 30  15  35  1   
 31  16  18  1   
 32  16  36  1   
 33  16  37  1   
 34  17  38  1   
 35  17  39  1   
 36  17  40  1   
 37  18  19  ar  
 38  18  20  ar  
 39  19  21  ar  
 40  20  22  ar  
 41  20  41  1   
 42  21  23  ar  
 43  21  42  1   
 44  22  23  ar  
 45  23  43  1   
@<TRIPOS>SUBSTRUCTURE
  1 ****   3 GROUP 4 **** **** 0

# MOE 2024.06 (io_trps.svl 2023.06)
