@<TRIPOS>MOLECULE
NONAME
53 55 1 0 0 
SMALL
USER_CHARGES


@<TRIPOS>ATOM
  1 CL      -1.7490    -0.6280     2.7200 Cl    1 <1>  -0.1770 
  2 C       -2.5990    -1.1890     1.2970 C.ar  1 <1>   0.1770 
  3 C       -3.2420    -0.2910     0.4530 C.ar  1 <1>   0.0830 
  4 C       -2.6040    -2.5500     1.0510 C.ar  1 <1>  -0.1500 
  5 O       -3.1880     1.0350     0.7330 O.3   1 <1>  -0.3630 
  6 C       -3.9270    -0.7940    -0.6620 C.ar  1 <1>   0.0830 
  7 C       -3.2700    -3.0460    -0.0600 C.ar  1 <1>  -0.1440 
  8 C       -2.0560     1.7200     0.2440 C.3   1 <1>   0.0400 
  9 O       -4.6320    -0.0550    -1.5600 O.3   1 <1>  -0.3630 
 10 C       -3.9160    -2.1580    -0.9100 C.ar  1 <1>  -0.1500 
 11 C       -3.3060    -4.5360    -0.3420 C.3   1 <1>   0.4860 
 12 C       -5.2850     1.1380    -1.1770 C.3   1 <1>   0.0400 
 13 N       -4.2620    -5.1780     0.6010 N.4   1 <1>  -0.9590 
 14 C       -4.0500    -6.6720     0.5780 C.3   1 <1>   0.3430 
 15 C       -5.6670    -4.7400     0.3080 C.3   1 <1>   0.3430 
 16 C       -5.0230    -7.4690     1.4650 C.3   1 <1>   0.1400 
 17 C       -6.5810    -4.9620     1.5200 C.3   1 <1>  -0.1600 
 18 N       -6.4100    -7.3720     0.9270 N.am  1 <1>  -0.6600 
 19 C       -7.2770    -6.3300     1.5340 C.3   1 <1>   0.1400 
 20 C       -6.7540    -8.1320    -0.1670 C.2   1 <1>   0.5770 
 21 O       -5.8830    -8.6400    -0.8340 O.2   1 <1>  -0.5700 
 22 C       -8.2120    -8.3070    -0.5890 C.3   1 <1>   0.0530 
 23 C       -9.1310    -8.9390     0.4920 C.3   1 <1>   0.0000 
 24 C       -8.5230    -9.5590    -1.4580 C.3   1 <1>   0.0000 
 25 C       -9.8470    -9.6840    -0.6630 C.3   1 <1>   0.0000 
 26 H       -2.0800    -3.1950     1.7350 H     1 <1>   0.1500 
 27 H       -2.1510     2.7580     0.5070 H     1 <1>   0.0800 
 28 H       -2.0170     1.6120    -0.8260 H     1 <1>   0.0800 
 29 H       -1.1710     1.3090     0.6970 H     1 <1>   0.0800 
 30 H       -4.4320    -2.5080    -1.7880 H     1 <1>   0.1500 
 31 H       -2.3170    -4.9430    -0.2040 H     1 <1>   0.0800 
 32 H       -3.6080    -4.7160    -1.3610 H     1 <1>   0.0800 
 33 H       -6.0430     1.3550    -1.9080 H     1 <1>   0.0800 
 34 H       -4.5680     1.9380    -1.1540 H     1 <1>   0.0800 
 35 H       -5.7350     1.0020    -0.2100 H     1 <1>   0.0800 
 36 H       -4.0300    -4.8230     1.5350 H     1 <1>   0.4500 
 37 H       -3.0460    -6.8920     0.9010 H     1 <1>   0.0800 
 38 H       -4.1510    -7.0390    -0.4310 H     1 <1>   0.0800 
 39 H       -6.0540    -5.2630    -0.5530 H     1 <1>   0.0800 
 40 H       -5.6710    -3.6850     0.0850 H     1 <1>   0.0800 
 41 H       -4.9820    -7.1280     2.4850 H     1 <1>   0.0800 
 42 H       -4.7240    -8.5040     1.4570 H     1 <1>   0.0800 
 43 H       -7.3540    -4.2150     1.4980 H     1 <1>   0.0800 
 44 H       -6.0390    -4.8100     2.4350 H     1 <1>   0.0800 
 45 H       -8.1980    -6.2520     0.9810 H     1 <1>   0.0800 
 46 H       -7.5280    -6.6110     2.5440 H     1 <1>   0.0800 
 47 H       -8.6380    -7.4140    -1.0150 H     1 <1>   0.0000 
 48 H       -9.7570    -8.2290     1.0040 H     1 <1>   0.0000 
 49 H       -8.6080    -9.6090     1.1530 H     1 <1>   0.0000 
 50 H       -7.8600   -10.3880    -1.2740 H     1 <1>   0.0000 
 51 H       -8.6610    -9.3420    -2.5020 H     1 <1>   0.0000 
 52 H      -10.6480    -9.1090    -1.0960 H     1 <1>   0.0000 
 53 H      -10.1210   -10.6960    -0.4260 H     1 <1>   0.0000 
@<TRIPOS>BOND
  1   1   2  1   
  2   2   3  ar  
  3   2   4  ar  
  4   3   5  1   
  5   3   6  ar  
  6   4   7  ar  
  7   4  26  1   
  8   5   8  1   
  9   6   9  1   
 10   6  10  ar  
 11   7  10  ar  
 12   7  11  1   
 13   8  27  1   
 14   8  28  1   
 15   8  29  1   
 16   9  12  1   
 17  10  30  1   
 18  11  13  1   
 19  11  31  1   
 20  11  32  1   
 21  12  33  1   
 22  12  34  1   
 23  12  35  1   
 24  13  14  1   
 25  13  15  1   
 26  13  36  1   
 27  14  16  1   
 28  14  37  1   
 29  14  38  1   
 30  15  17  1   
 31  15  39  1   
 32  15  40  1   
 33  16  18  1   
 34  16  41  1   
 35  16  42  1   
 36  17  19  1   
 37  17  43  1   
 38  17  44  1   
 39  18  19  1   
 40  18  20  am  
 41  19  45  1   
 42  19  46  1   
 43  20  21  2   
 44  20  22  1   
 45  22  23  1   
 46  22  24  1   
 47  22  47  1   
 48  23  25  1   
 49  23  48  1   
 50  23  49  1   
 51  24  25  1   
 52  24  50  1   
 53  24  51  1   
 54  25  52  1   
 55  25  53  1   
@<TRIPOS>SUBSTRUCTURE
  1 ****  15 GROUP 4 **** **** 0

# MOE 2024.06 (io_trps.svl 2023.06)
