@<TRIPOS>MOLECULE
NONAME
43 45 1 0 0 
SMALL
USER_CHARGES


@<TRIPOS>ATOM
  1 O       -0.3910     0.1720     1.0530 O.2   1 <1>  -0.5700 
  2 C       -1.4150     0.7950     0.8440 C.2   1 <1>   0.7160 
  3 N       -2.5750     0.0970     0.5960 N.am  1 <1>  -0.6600 
  4 C       -1.4010     2.2380     0.8460 C.2   1 <1>  -0.0860 
  5 C       -3.7890     0.6780    -0.0390 C.3   1 <1>   0.1400 
  6 C       -2.6000    -1.3850     0.4690 C.3   1 <1>   0.1400 
  7 C       -0.5970     3.1370     0.2080 C.2   1 <1>  -0.3320 
  8 C       -2.2740     3.0520     1.5690 C.2   1 <1>   0.1390 
  9 C       -4.7710    -0.4890    -0.1250 C.3   1 <1>   0.2000 
 10 C       -3.8630    -1.7010    -0.3400 C.3   1 <1>  -0.0800 
 11 N       -1.0150     4.3690     0.5510 N.pl3 1 <1>   0.3140 
 12 C        0.5720     2.8500    -0.7230 C.3   1 <1>  -0.0600 
 13 N       -2.0610     4.3150     1.3900 N.2   1 <1>  -0.7070 
 14 O       -5.4100    -0.5990     1.1020 O.3   1 <1>  -0.6800 
 15 C       -4.4860    -3.0700    -0.0110 C.3   1 <1>   0.0210 
 16 C       -0.4550     5.6570     0.1230 C.3   1 <1>   0.0160 
 17 C       -3.4860    -4.1880    -0.2350 C.2   1 <1>   0.1080 
 18 N       -2.9050    -4.3950    -1.3760 N.2   1 <1>  -0.7070 
 19 C       -3.0750    -5.0940     0.7360 C.2   1 <1>  -0.1500 
 20 N       -2.0980    -5.4500    -1.1600 N.pl3 1 <1>   0.3000 
 21 C       -2.1820    -5.8910     0.1130 C.2   1 <1>  -0.3320 
 22 C       -1.3930    -7.0640     0.6620 C.3   1 <1>  -0.0600 
 23 H       -4.2000     1.4930     0.5290 H     1 <1>   0.0800 
 24 H       -3.5370     1.0190    -1.0280 H     1 <1>   0.0800 
 25 H       -1.7180    -1.7500    -0.0340 H     1 <1>   0.0800 
 26 H       -2.6500    -1.8210     1.4520 H     1 <1>   0.0800 
 27 H       -3.0480     2.6720     2.2150 H     1 <1>   0.1500 
 28 H       -5.5150    -0.3660    -0.8930 H     1 <1>   0.0800 
 29 H       -3.5760    -1.7120    -1.3770 H     1 <1>   0.0800 
 30 H        0.7070     1.7900    -0.8430 H     1 <1>   0.0800 
 31 H        1.4790     3.2590    -0.3150 H     1 <1>   0.0800 
 32 H        0.3940     3.2820    -1.6920 H     1 <1>   0.0800 
 33 H       -4.7330    -0.5680     1.8080 H     1 <1>   0.4000 
 34 H       -5.3380    -3.2380    -0.6450 H     1 <1>   0.0800 
 35 H       -4.8200    -3.1000     1.0100 H     1 <1>   0.0800 
 36 H       -0.5130     5.7300    -0.9460 H     1 <1>   0.0800 
 37 H        0.5680     5.7190     0.4430 H     1 <1>   0.0800 
 38 H       -1.0210     6.4530     0.5700 H     1 <1>   0.0800 
 39 H       -3.4110    -5.1280     1.7570 H     1 <1>   0.1500 
 40 H       -1.5050    -5.8440    -1.9000 H     1 <1>   0.2700 
 41 H       -1.6340    -7.2190     1.6990 H     1 <1>   0.0800 
 42 H       -0.3370    -6.8740     0.5810 H     1 <1>   0.0800 
 43 H       -1.6310    -7.9610     0.1180 H     1 <1>   0.0800 
@<TRIPOS>BOND
  1   1   2  2   
  2   2   3  am  
  3   2   4  1   
  4   3   5  1   
  5   3   6  1   
  6   4   7  2   
  7   4   8  1   
  8   5   9  1   
  9   5  23  1   
 10   5  24  1   
 11   6  10  1   
 12   6  25  1   
 13   6  26  1   
 14   7  11  1   
 15   7  12  1   
 16   8  13  2   
 17   8  27  1   
 18   9  10  1   
 19   9  14  1   
 20   9  28  1   
 21  10  15  1   
 22  10  29  1   
 23  11  13  1   
 24  11  16  1   
 25  12  30  1   
 26  12  31  1   
 27  12  32  1   
 28  14  33  1   
 29  15  17  1   
 30  15  34  1   
 31  15  35  1   
 32  16  36  1   
 33  16  37  1   
 34  16  38  1   
 35  17  18  2   
 36  17  19  1   
 37  18  20  1   
 38  19  21  2   
 39  19  39  1   
 40  20  21  1   
 41  20  40  1   
 42  21  22  1   
 43  22  41  1   
 44  22  42  1   
 45  22  43  1   
@<TRIPOS>SUBSTRUCTURE
  1 ****   3 GROUP 4 **** **** 0

# MOE 2024.06 (io_trps.svl 2023.06)
