@<TRIPOS>MOLECULE
NONAME
49 51 1 0 0 
SMALL
USER_CHARGES


@<TRIPOS>ATOM
  1 S       -0.0320    -0.1620     2.2780 S.3   1 <1>  -0.0800 
  2 C        0.9070    -1.2710     1.2790 C.2   1 <1>  -0.0450 
  3 C        0.8470     1.2280     1.6830 C.2   1 <1>  -0.1100 
  4 C        1.8240    -0.5590     0.5680 C.2   1 <1>  -0.1810 
  5 C        0.5840    -2.6740     1.3390 C.2   1 <1>   0.7150 
  6 C        1.7830     0.8480     0.7950 C.2   1 <1>  -0.1500 
  7 C        2.8480    -1.1490    -0.3850 C.3   1 <1>  -0.0590 
  8 O        0.7580    -3.2980     2.3700 O.2   1 <1>  -0.5700 
  9 N        0.0810    -3.3170     0.2310 N.am  1 <1>  -0.6600 
 10 C        0.0100    -4.8170     0.2070 C.3   1 <1>   0.3640 
 11 C       -0.6110    -2.5370    -0.8400 C.3   1 <1>   0.1400 
 12 C        1.3680    -5.3710    -0.2360 C.ar  1 <1>  -0.1430 
 13 C       -1.1220    -5.4180    -0.6820 C.3   1 <1>   0.2000 
 14 C       -1.3290    -3.4140    -1.8730 C.3   1 <1>   0.1200 
 15 C        1.9740    -6.3650     0.5200 C.ar  1 <1>  -0.1500 
 16 C        2.0100    -4.9130    -1.3800 C.ar  1 <1>  -0.1500 
 17 O       -1.9860    -4.4550    -1.2280 O.3   1 <1>  -0.5600 
 18 C       -1.9960    -6.4140     0.0920 C.3   1 <1>   0.1200 
 19 C        3.1930    -6.9030     0.1440 C.ar  1 <1>   0.0830 
 20 C        3.2370    -5.4320    -1.7560 C.ar  1 <1>  -0.1500 
 21 O       -1.2360    -7.4900     0.5430 O.3   1 <1>  -0.6800 
 22 O        3.7000    -7.9000     0.9100 O.3   1 <1>  -0.3630 
 23 C        3.8440    -6.4140    -0.9930 C.ar  1 <1>   0.0830 
 24 C        3.7660    -9.1740     0.3110 C.3   1 <1>   0.0400 
 25 O        5.0630    -6.8520    -1.3960 O.3   1 <1>  -0.3630 
 26 C        6.1410    -6.6030    -0.5200 C.3   1 <1>   0.0400 
 27 H        0.5690     2.1940     2.0660 H     1 <1>   0.1500 
 28 H        2.4580     1.5160     0.2890 H     1 <1>   0.1500 
 29 H        3.8380    -0.8690    -0.0740 H     1 <1>   0.0800 
 30 H        2.6800    -0.7840    -1.3820 H     1 <1>   0.0800 
 31 H        2.7900    -2.2230    -0.3940 H     1 <1>   0.0800 
 32 H       -0.1650    -5.1580     1.2130 H     1 <1>   0.0800 
 33 H       -1.3420    -1.8950    -0.3780 H     1 <1>   0.0800 
 34 H        0.1000    -1.9080    -1.3460 H     1 <1>   0.0800 
 35 H       -0.6820    -5.9400    -1.5140 H     1 <1>   0.0800 
 36 H       -0.6390    -3.8240    -2.5900 H     1 <1>   0.0800 
 37 H       -2.0650    -2.8340    -2.4000 H     1 <1>   0.0800 
 38 H        1.4990    -6.7380     1.4120 H     1 <1>   0.1500 
 39 H        1.5640    -4.1450    -1.9830 H     1 <1>   0.1500 
 40 H       -2.7790    -6.7980    -0.5390 H     1 <1>   0.0800 
 41 H       -2.4300    -5.9340     0.9520 H     1 <1>   0.0800 
 42 H        3.7350    -5.0740    -2.6380 H     1 <1>   0.1500 
 43 H       -0.9250    -8.0400    -0.2040 H     1 <1>   0.4000 
 44 H        4.1110    -9.8750     1.0490 H     1 <1>   0.0800 
 45 H        4.4520    -9.1450    -0.5160 H     1 <1>   0.0800 
 46 H        2.7830    -9.4490    -0.0280 H     1 <1>   0.0800 
 47 H        7.0520    -6.8700    -1.0240 H     1 <1>   0.0800 
 48 H        6.0260    -7.1980     0.3670 H     1 <1>   0.0800 
 49 H        6.1500    -5.5570    -0.2690 H     1 <1>   0.0800 
@<TRIPOS>BOND
  1   1   2  1   
  2   1   3  1   
  3   2   4  2   
  4   2   5  1   
  5   3   6  2   
  6   3  27  1   
  7   4   6  1   
  8   4   7  1   
  9   5   8  2   
 10   5   9  am  
 11   6  28  1   
 12   7  29  1   
 13   7  30  1   
 14   7  31  1   
 15   9  10  1   
 16   9  11  1   
 17  10  12  1   
 18  10  13  1   
 19  10  32  1   
 20  11  14  1   
 21  11  33  1   
 22  11  34  1   
 23  12  15  ar  
 24  12  16  ar  
 25  13  17  1   
 26  13  18  1   
 27  13  35  1   
 28  14  17  1   
 29  14  36  1   
 30  14  37  1   
 31  15  19  ar  
 32  15  38  1   
 33  16  20  ar  
 34  16  39  1   
 35  18  21  1   
 36  18  40  1   
 37  18  41  1   
 38  19  22  1   
 39  19  23  ar  
 40  20  23  ar  
 41  20  42  1   
 42  21  43  1   
 43  22  24  1   
 44  23  25  1   
 45  24  44  1   
 46  24  45  1   
 47  24  46  1   
 48  25  26  1   
 49  26  47  1   
 50  26  48  1   
 51  26  49  1   
@<TRIPOS>SUBSTRUCTURE
  1 ****  12 GROUP 4 **** **** 0

# MOE 2024.06 (io_trps.svl 2023.06)
