@<TRIPOS>MOLECULE
NONAME
45 47 1 0 0 
SMALL
USER_CHARGES


@<TRIPOS>ATOM
  1 CL      -0.4500    -2.7040    -2.4530 Cl    1 <1>  -0.1770 
  2 C       -1.4870    -2.4200    -1.0710 C.ar  1 <1>   0.1770 
  3 C       -2.0710    -3.4620    -0.3390 C.ar  1 <1>   0.0830 
  4 C       -1.7350    -1.0990    -0.7520 C.ar  1 <1>  -0.1500 
  5 O       -1.8730    -4.7830    -0.6000 O.3   1 <1>  -0.3630 
  6 C       -2.9390    -3.1530     0.7120 C.ar  1 <1>  -0.1440 
  7 C       -2.5850    -0.8180     0.2980 C.ar  1 <1>   0.1770 
  8 C       -0.5760    -5.2930    -0.8490 C.3   1 <1>   0.0400 
  9 C       -3.1890    -1.8250     1.0280 C.ar  1 <1>  -0.1500 
 10 C       -3.6070    -4.2540     1.5220 C.3   1 <1>   0.4870 
 11 CL      -2.9130     0.8440     0.7120 Cl    1 <1>  -0.1770 
 12 N       -4.3520    -5.1420     0.6030 N.4   1 <1>  -0.9590 
 13 C       -5.5040    -4.4910    -0.1000 C.3   1 <1>   0.3430 
 14 C       -4.8790    -6.3700     1.2420 C.3   1 <1>   0.3430 
 15 C       -6.6840    -5.4760     0.0070 C.3   1 <1>   0.2000 
 16 C       -6.0200    -6.8160     0.3240 C.3   1 <1>  -0.0800 
 17 O       -7.4460    -5.1110     1.1080 O.3   1 <1>  -0.6800 
 18 C       -5.5480    -7.5280    -0.9690 C.3   1 <1>   0.0200 
 19 C       -4.2970    -8.3600    -0.7610 C.2   1 <1>  -0.0400 
 20 O       -3.1390    -7.7610    -0.6810 O.3   1 <1>  -0.0190 
 21 C       -4.0880    -9.6780    -0.6290 C.2   1 <1>  -0.1500 
 22 N       -2.1710    -8.5990    -0.4750 N.2   1 <1>  -0.4100 
 23 C       -2.7090    -9.7660    -0.4490 C.2   1 <1>   0.1080 
 24 C       -1.9420   -11.0550    -0.2490 C.3   1 <1>  -0.0590 
 25 H       -1.2800    -0.3040    -1.3140 H     1 <1>   0.1500 
 26 H       -0.5380    -6.3080    -0.4940 H     1 <1>   0.0800 
 27 H        0.1550    -4.6970    -0.3300 H     1 <1>   0.0800 
 28 H       -0.3930    -5.2840    -1.9090 H     1 <1>   0.0800 
 29 H       -3.8460    -1.5500     1.8350 H     1 <1>   0.1500 
 30 H       -4.2770    -3.8300     2.2520 H     1 <1>   0.0800 
 31 H       -2.8470    -4.8190     2.0380 H     1 <1>   0.0800 
 32 H       -3.6480    -5.4250    -0.1060 H     1 <1>   0.4500 
 33 H       -5.7690    -3.5510     0.3550 H     1 <1>   0.0800 
 34 H       -5.2480    -4.3270    -1.1330 H     1 <1>   0.0800 
 35 H       -4.1180    -7.1250     1.3600 H     1 <1>   0.0800 
 36 H       -5.2880    -6.1270     2.2100 H     1 <1>   0.0800 
 37 H       -7.3130    -5.4760    -0.8670 H     1 <1>   0.0800 
 38 H       -6.6810    -7.4770     0.8580 H     1 <1>   0.0800 
 39 H       -8.3110    -5.5740     1.1180 H     1 <1>   0.4000 
 40 H       -5.3340    -6.8170    -1.7490 H     1 <1>   0.0800 
 41 H       -6.3380    -8.1650    -1.3290 H     1 <1>   0.0800 
 42 H       -4.7810   -10.5000    -0.6480 H     1 <1>   0.1500 
 43 H       -2.2950   -11.5600     0.6310 H     1 <1>   0.0800 
 44 H       -0.8930   -10.8450    -0.1320 H     1 <1>   0.0800 
 45 H       -2.0740   -11.6950    -1.1020 H     1 <1>   0.0800 
@<TRIPOS>BOND
  1   1   2  1   
  2   2   3  ar  
  3   2   4  ar  
  4   3   5  1   
  5   3   6  ar  
  6   4   7  ar  
  7   4  25  1   
  8   5   8  1   
  9   6   9  ar  
 10   6  10  1   
 11   7   9  ar  
 12   7  11  1   
 13   8  26  1   
 14   8  27  1   
 15   8  28  1   
 16   9  29  1   
 17  10  12  1   
 18  10  30  1   
 19  10  31  1   
 20  12  13  1   
 21  12  14  1   
 22  12  32  1   
 23  13  15  1   
 24  13  33  1   
 25  13  34  1   
 26  14  16  1   
 27  14  35  1   
 28  14  36  1   
 29  15  16  1   
 30  15  17  1   
 31  15  37  1   
 32  16  18  1   
 33  16  38  1   
 34  17  39  1   
 35  18  19  1   
 36  18  40  1   
 37  18  41  1   
 38  19  20  1   
 39  19  21  2   
 40  20  22  1   
 41  21  23  1   
 42  21  42  1   
 43  22  23  2   
 44  23  24  1   
 45  24  43  1   
 46  24  44  1   
 47  24  45  1   
@<TRIPOS>SUBSTRUCTURE
  1 ****  12 GROUP 4 **** **** 0

# MOE 2024.06 (io_trps.svl 2023.06)
