@<TRIPOS>MOLECULE
NONAME
52 55 1 0 0 
SMALL
USER_CHARGES


@<TRIPOS>ATOM
  1 O       -2.4890     0.0870     0.1030 O.2   1 <1>  -0.5700 
  2 C       -2.7710     1.0930    -0.5260 C.2   1 <1>   0.5440 
  3 N       -3.8550     0.9970    -1.3650 N.am  1 <1>  -0.6600 
  4 C       -2.0670     2.3500    -0.3250 C.ar  1 <1>   0.0860 
  5 C       -5.1720     1.4160    -0.7960 C.3   1 <1>   0.1400 
  6 C       -3.9730    -0.2250    -2.2280 C.3   1 <1>   0.1400 
  7 C       -2.2540     3.4380    -1.1760 C.ar  1 <1>  -0.1500 
  8 C       -1.1830     2.5190     0.7380 C.ar  1 <1>  -0.1500 
  9 C       -5.7620     0.2990     0.1090 C.3   1 <1>   0.4230 
 10 C       -4.8610    -1.3130    -1.5750 C.3   1 <1>   0.3430 
 11 C       -1.6060     4.6430    -0.9740 C.ar  1 <1>   0.0830 
 12 C       -0.5250     3.7150     0.9580 C.ar  1 <1>   0.0830 
 13 N       -5.0720    -1.0290    -0.1140 N.4   1 <1>  -0.9590 
 14 C       -7.2900     0.1670    -0.0760 C.3   1 <1>   0.1200 
 15 O       -1.8780     5.6280    -1.8650 O.3   1 <1>  -0.3630 
 16 C       -0.7350     4.7880     0.1000 C.ar  1 <1>  -0.1500 
 17 O        0.3030     3.7590     2.0310 O.3   1 <1>  -0.3620 
 18 C       -5.7100    -2.1080     0.6930 C.3   1 <1>   0.5180 
 19 O       -7.7990    -0.8690     0.7180 O.3   1 <1>  -0.5600 
 20 C       -1.2320     6.8810    -1.8020 C.3   1 <1>   0.0400 
 21 C        1.0650     4.9070     2.3330 C.3   1 <1>   0.0400 
 22 C       -5.0530    -3.4570     0.3800 C.3   1 <1>  -0.1950 
 23 C       -7.2400    -2.1360     0.4840 C.3   1 <1>   0.1200 
 24 C       -4.7460    -4.4170     1.4880 C.3   1 <1>  -0.2000 
 25 C       -3.6280    -3.7360     0.7540 C.3   1 <1>  -0.2000 
 26 H       -5.0540     2.3190    -0.2200 H     1 <1>   0.0800 
 27 H       -5.8450     1.6400    -1.6060 H     1 <1>   0.0800 
 28 H       -4.3730     0.0470    -3.1900 H     1 <1>   0.0800 
 29 H       -2.9900    -0.6340    -2.3960 H     1 <1>   0.0800 
 30 H       -2.9140     3.3570    -2.0200 H     1 <1>   0.1500 
 31 H       -0.9990     1.7030     1.4150 H     1 <1>   0.1500 
 32 H       -5.5940     0.5970     1.1310 H     1 <1>   0.0800 
 33 H       -4.3800    -2.2680    -1.7070 H     1 <1>   0.0800 
 34 H       -5.8110    -1.3500    -2.0810 H     1 <1>   0.0800 
 35 H       -4.1030    -0.8910     0.2450 H     1 <1>   0.4500 
 36 H       -7.5460    -0.0320    -1.1020 H     1 <1>   0.0800 
 37 H       -7.7800     1.0760     0.2280 H     1 <1>   0.0800 
 38 H       -0.2320     5.7180     0.2650 H     1 <1>   0.1500 
 39 H       -5.5340    -1.8950     1.7350 H     1 <1>   0.0800 
 40 H       -1.5870     7.4810    -2.6200 H     1 <1>   0.0800 
 41 H       -0.1700     6.7320    -1.8940 H     1 <1>   0.0800 
 42 H       -1.4770     7.3550    -0.8690 H     1 <1>   0.0800 
 43 H        1.6530     4.6960     3.2080 H     1 <1>   0.0800 
 44 H        0.3980     5.7270     2.5310 H     1 <1>   0.0800 
 45 H        1.7120     5.1260     1.5030 H     1 <1>   0.0800 
 46 H       -5.4300    -3.9050    -0.5240 H     1 <1>   0.1000 
 47 H       -7.6910    -2.8240     1.1770 H     1 <1>   0.0800 
 48 H       -7.4910    -2.4450    -0.5150 H     1 <1>   0.0800 
 49 H       -4.9170    -4.1390     2.5150 H     1 <1>   0.1000 
 50 H       -4.8910    -5.4730     1.3250 H     1 <1>   0.1000 
 51 H       -3.0160    -4.3320     0.0980 H     1 <1>   0.1000 
 52 H       -3.0510    -2.9950     1.2840 H     1 <1>   0.1000 
@<TRIPOS>BOND
  1   1   2  2   
  2   2   3  am  
  3   2   4  1   
  4   3   5  1   
  5   3   6  1   
  6   4   7  ar  
  7   4   8  ar  
  8   5   9  1   
  9   5  26  1   
 10   5  27  1   
 11   6  10  1   
 12   6  28  1   
 13   6  29  1   
 14   7  11  ar  
 15   7  30  1   
 16   8  12  ar  
 17   8  31  1   
 18   9  13  1   
 19   9  14  1   
 20   9  32  1   
 21  10  13  1   
 22  10  33  1   
 23  10  34  1   
 24  11  15  1   
 25  11  16  ar  
 26  12  16  ar  
 27  12  17  1   
 28  13  18  1   
 29  13  35  1   
 30  14  19  1   
 31  14  36  1   
 32  14  37  1   
 33  15  20  1   
 34  16  38  1   
 35  17  21  1   
 36  18  22  1   
 37  18  23  1   
 38  18  39  1   
 39  19  23  1   
 40  20  40  1   
 41  20  41  1   
 42  20  42  1   
 43  21  43  1   
 44  21  44  1   
 45  21  45  1   
 46  22  24  1   
 47  22  25  1   
 48  22  46  1   
 49  23  47  1   
 50  23  48  1   
 51  24  25  1   
 52  24  49  1   
 53  24  50  1   
 54  25  51  1   
 55  25  52  1   
@<TRIPOS>SUBSTRUCTURE
  1 ****   2 GROUP 4 **** **** 0

# MOE 2024.06 (io_trps.svl 2023.06)
