@<TRIPOS>MOLECULE
NONAME
45 47 1 0 0 
SMALL
USER_CHARGES


@<TRIPOS>ATOM
  1 CL       0.4530    -0.3790     1.2640 Cl    1 <1>  -0.1770 
  2 C       -0.0420    -1.9370     0.6080 C.ar  1 <1>   0.1770 
  3 C       -1.4220    -2.2790     0.4750 C.ar  1 <1>   0.4100 
  4 C        0.9140    -2.8440     0.2610 C.ar  1 <1>   0.2170 
  5 N       -1.7670    -3.4980     0.0840 N.ar  1 <1>  -0.6200 
  6 N       -2.4580    -1.4180     0.7180 N.pl3 1 <1>  -0.8380 
  7 N        0.4850    -4.0550    -0.1780 N.ar  1 <1>  -0.1790 
  8 C        2.4220    -2.6260     0.3350 C.3   1 <1>  -0.0970 
  9 C       -0.8230    -4.3490    -0.2430 C.ar  1 <1>   0.7710 
 10 C       -3.8190    -1.8940     1.1460 C.3   1 <1>   0.2090 
 11 C       -2.4070     0.0510     0.4200 C.3   1 <1>   0.2090 
 12 N       -1.2250    -5.5480    -0.6540 N.pl3 1 <1>  -0.9000 
 13 C       -4.9140    -1.6620     0.0620 C.3   1 <1>   0.0000 
 14 C       -3.7590     0.6010    -0.0630 C.3   1 <1>  -0.1600 
 15 C       -6.2730    -1.5270     0.7870 C.3   1 <1>   0.2000 
 16 C       -4.5420    -0.4590    -0.8470 C.3   1 <1>  -0.1600 
 17 C       -5.1240    -2.9340    -0.7780 C.3   1 <1>  -0.1600 
 18 O       -7.2420    -1.0180    -0.0860 O.3   1 <1>  -0.5600 
 19 C       -6.6650    -2.9690     1.1330 C.3   1 <1>  -0.1600 
 20 C       -6.0280    -3.8540     0.0530 C.3   1 <1>  -0.1600 
 21 C       -8.3130    -0.3730     0.5270 C.3   1 <1>   0.0400 
 22 H        1.1340    -4.7840    -0.4570 H     1 <1>   0.4570 
 23 H        2.6700    -1.6320     0.6620 H     1 <1>   0.0800 
 24 H        2.8700    -2.7690    -0.6320 H     1 <1>   0.0800 
 25 H        2.8660    -3.3170     1.0300 H     1 <1>   0.0800 
 26 H       -3.7880    -2.9300     1.4320 H     1 <1>   0.0800 
 27 H       -4.0790    -1.3420     2.0320 H     1 <1>   0.0800 
 28 H       -2.1020     0.5900     1.3010 H     1 <1>   0.0800 
 29 H       -1.6790     0.2230    -0.3540 H     1 <1>   0.0800 
 30 H       -0.6710    -6.3500    -0.9560 H     1 <1>   0.4000 
 31 H       -2.2380    -5.7110    -0.6910 H     1 <1>   0.4000 
 32 H       -4.3380     0.9250     0.7830 H     1 <1>   0.0800 
 33 H       -3.5860     1.4630    -0.6820 H     1 <1>   0.0800 
 34 H       -6.2080    -0.8880     1.6510 H     1 <1>   0.0800 
 35 H       -3.9150    -0.8070    -1.6500 H     1 <1>   0.0800 
 36 H       -5.4120    -0.0180    -1.2990 H     1 <1>   0.0800 
 37 H       -5.6490    -2.6710    -1.6810 H     1 <1>   0.0800 
 38 H       -4.1980    -3.4050    -1.0500 H     1 <1>   0.0800 
 39 H       -6.2480    -3.2260     2.0910 H     1 <1>   0.0800 
 40 H       -7.7310    -3.1010     1.1790 H     1 <1>   0.0800 
 41 H       -5.4540    -4.6420     0.5090 H     1 <1>   0.0800 
 42 H       -6.7850    -4.2910    -0.5750 H     1 <1>   0.0800 
 43 H       -8.9970    -0.0610    -0.2420 H     1 <1>   0.0800 
 44 H       -7.9490     0.4880     1.0590 H     1 <1>   0.0800 
 45 H       -8.8080    -1.0530     1.1970 H     1 <1>   0.0800 
@<TRIPOS>BOND
  1   1   2  1   
  2   2   3  ar  
  3   2   4  ar  
  4   3   5  ar  
  5   3   6  1   
  6   4   7  ar  
  7   4   8  1   
  8   5   9  ar  
  9   6  10  1   
 10   6  11  1   
 11   7   9  ar  
 12   7  22  1   
 13   8  23  1   
 14   8  24  1   
 15   8  25  1   
 16   9  12  1   
 17  10  13  1   
 18  10  26  1   
 19  10  27  1   
 20  11  14  1   
 21  11  28  1   
 22  11  29  1   
 23  12  30  1   
 24  12  31  1   
 25  13  15  1   
 26  13  16  1   
 27  13  17  1   
 28  14  16  1   
 29  14  32  1   
 30  14  33  1   
 31  15  18  1   
 32  15  19  1   
 33  15  34  1   
 34  16  35  1   
 35  16  36  1   
 36  17  20  1   
 37  17  37  1   
 38  17  38  1   
 39  18  21  1   
 40  19  20  1   
 41  19  39  1   
 42  19  40  1   
 43  20  41  1   
 44  20  42  1   
 45  21  43  1   
 46  21  44  1   
 47  21  45  1   
@<TRIPOS>SUBSTRUCTURE
  1 ****   6 GROUP 4 **** **** 0

# MOE 2024.06 (io_trps.svl 2023.06)
