@<TRIPOS>MOLECULE
NONAME
43 45 1 0 0 
SMALL
USER_CHARGES


@<TRIPOS>ATOM
  1 O        0.8200    -0.0600    -0.6800 O.co2 1 <1>  -0.9000 
  2 C        2.0340    -0.1170    -0.8630 C.2   1 <1>   0.9060 
  3 O        2.5680    -0.7940    -1.7500 O.co2 1 <1>  -0.9000 
  4 C        2.9350     0.6550     0.0720 C.3   1 <1>  -0.1860 
  5 C        3.9610    -0.2980     0.6940 C.3   1 <1>   0.2000 
  6 C        3.6030     1.8720    -0.6170 C.3   1 <1>  -0.1600 
  7 O        4.7520    -0.8190    -0.3170 O.3   1 <1>  -0.6800 
  8 C        4.8720     0.4560     1.6810 C.3   1 <1>   0.3430 
  9 C        5.0700     2.0690    -0.2260 C.3   1 <1>   0.3430 
 10 N        5.2400     1.8600     1.2470 N.4   1 <1>  -0.9590 
 11 C        6.6100     2.2060     1.7020 C.3   1 <1>   0.4860 
 12 C        6.8480     3.6890     1.4880 C.ar  1 <1>  -0.1440 
 13 C        7.5320     4.1600     0.3360 C.ar  1 <1>   0.0000 
 14 C        6.3770     4.5620     2.4340 C.ar  1 <1>  -0.1500 
 15 C        7.6820     5.5590     0.1570 C.ar  1 <1>   0.0000 
 16 C        8.0730     3.3040    -0.6540 C.ar  1 <1>  -0.1500 
 17 C        6.5450     5.9370     2.2700 C.ar  1 <1>  -0.1500 
 18 C        8.3310     6.0410    -1.0100 C.ar  1 <1>  -0.1440 
 19 C        7.1760     6.4160     1.1590 C.ar  1 <1>  -0.1500 
 20 C        8.6970     3.7930    -1.7640 C.ar  1 <1>  -0.1500 
 21 C        8.8220     5.1710    -1.9430 C.ar  1 <1>  -0.1500 
 22 C        8.4990     7.5370    -1.2480 C.3   1 <1>  -0.0970 
 23 H        2.3080     1.0190     0.8650 H     1 <1>   0.0800 
 24 H        3.4700    -1.1260     1.1770 H     1 <1>   0.0800 
 25 H        3.0400     2.7630    -0.4030 H     1 <1>   0.0800 
 26 H        3.5720     1.7360    -1.6860 H     1 <1>   0.0800 
 27 H        4.1160    -1.0410    -1.0690 H     1 <1>   0.4000 
 28 H        5.7590    -0.1390     1.8160 H     1 <1>   0.0800 
 29 H        4.3660     0.5110     2.6300 H     1 <1>   0.0800 
 30 H        5.3850     3.0590    -0.5140 H     1 <1>   0.0800 
 31 H        5.6730     1.3520    -0.7610 H     1 <1>   0.0800 
 32 H        4.5870     2.5180     1.6840 H     1 <1>   0.4500 
 33 H        6.7050     1.9910     2.7530 H     1 <1>   0.0800 
 34 H        7.3410     1.6170     1.1770 H     1 <1>   0.0800 
 35 H        5.8700     4.2230     3.3210 H     1 <1>   0.1500 
 36 H        8.0060     2.2380    -0.5520 H     1 <1>   0.1500 
 37 H        6.1730     6.6100     3.0240 H     1 <1>   0.1500 
 38 H        7.2910     7.4790     1.0500 H     1 <1>   0.1500 
 39 H        9.1030     3.1340    -2.5120 H     1 <1>   0.1500 
 40 H        9.3180     5.5250    -2.8310 H     1 <1>   0.1500 
 41 H        8.9990     7.7280    -2.1810 H     1 <1>   0.0800 
 42 H        9.0860     7.9730    -0.4600 H     1 <1>   0.0800 
 43 H        7.5370     8.0170    -1.2810 H     1 <1>   0.0800 
@<TRIPOS>BOND
  1   1   2  ar  
  2   2   3  ar  
  3   2   4  1   
  4   4   5  1   
  5   4   6  1   
  6   4  23  1   
  7   5   7  1   
  8   5   8  1   
  9   5  24  1   
 10   6   9  1   
 11   6  25  1   
 12   6  26  1   
 13   7  27  1   
 14   8  10  1   
 15   8  28  1   
 16   8  29  1   
 17   9  10  1   
 18   9  30  1   
 19   9  31  1   
 20  10  11  1   
 21  10  32  1   
 22  11  12  1   
 23  11  33  1   
 24  11  34  1   
 25  12  13  ar  
 26  12  14  ar  
 27  13  15  ar  
 28  13  16  ar  
 29  14  17  ar  
 30  14  35  1   
 31  15  18  ar  
 32  15  19  ar  
 33  16  20  ar  
 34  16  36  1   
 35  17  19  ar  
 36  17  37  1   
 37  18  21  ar  
 38  18  22  1   
 39  19  38  1   
 40  20  21  ar  
 41  20  39  1   
 42  21  40  1   
 43  22  41  1   
 44  22  42  1   
 45  22  43  1   
@<TRIPOS>SUBSTRUCTURE
  1 ****   9 GROUP 4 **** **** 0

# MOE 2024.06 (io_trps.svl 2023.06)
