@<TRIPOS>MOLECULE
NONAME
53 56 1 0 0 
SMALL
USER_CHARGES


@<TRIPOS>ATOM
  1 O        1.1540    -0.2990     0.6370 O.co2 1 <1>  -0.9000 
  2 C        1.5410     0.5870    -0.1410 C.2   1 <1>   0.9060 
  3 O        0.8470     1.5690    -0.3990 O.co2 1 <1>  -0.9000 
  4 C        2.9410     0.4460    -0.7680 C.3   1 <1>  -0.1060 
  5 C        3.9050    -0.0590     0.3310 C.3   1 <1>   0.4230 
  6 C        3.4740     1.8230    -1.2620 C.3   1 <1>  -0.1600 
  7 C        2.8790    -0.5530    -1.9610 C.3   1 <1>  -0.1600 
  8 N        3.5150    -1.4500     0.7440 N.4   1 <1>  -0.9590 
  9 C        3.9900     0.9660     1.4840 C.3   1 <1>   0.1400 
 10 C        3.6270     2.8440    -0.1210 C.3   1 <1>   0.1400 
 11 C        3.7560    -1.7970    -1.7440 C.3   1 <1>  -0.1600 
 12 C        3.5250    -2.4440    -0.3700 C.3   1 <1>   0.3430 
 13 C        4.1460    -1.9690     1.9870 C.3   1 <1>   0.2630 
 14 N        4.5000     2.2640     0.9440 N.am  1 <1>  -0.6600 
 15 C        5.7010     2.7800     1.3530 C.2   1 <1>   0.5690 
 16 O        6.4540     2.1400     2.0490 O.2   1 <1>  -0.5700 
 17 C        6.1230     4.1740     0.9250 C.3   1 <1>  -0.0990 
 18 C        7.3350     4.6870     1.7130 C.3   1 <1>   0.0960 
 19 N        7.6750     6.0530     1.2770 N.pl3 1 <1>   0.0480 
 20 C        8.3640     6.4080     0.1600 C.ar  1 <1>  -0.1520 
 21 C        7.2840     7.2240     1.8460 C.2   1 <1>   0.0360 
 22 C        8.3390     7.7910     0.1350 C.ar  1 <1>   0.2270 
 23 C        9.0120     5.6800    -0.8420 C.ar  1 <1>  -0.1500 
 24 N        7.6540     8.2770     1.2060 N.2   1 <1>  -0.5650 
 25 C        8.9640     8.4800    -0.9030 C.ar  1 <1>  -0.1500 
 26 C        9.6270     6.3690    -1.8630 C.ar  1 <1>  -0.1500 
 27 C        9.6040     7.7690    -1.8950 C.ar  1 <1>  -0.1500 
 28 H        4.8920    -0.1130    -0.0930 H     1 <1>   0.0800 
 29 H        2.7900     2.2300    -1.9880 H     1 <1>   0.0800 
 30 H        4.4260     1.7030    -1.7470 H     1 <1>   0.0800 
 31 H        1.8580    -0.8740    -2.0960 H     1 <1>   0.0800 
 32 H        3.1690    -0.0730    -2.8800 H     1 <1>   0.0800 
 33 H        2.4880    -1.2940     0.9400 H     1 <1>   0.4500 
 34 H        4.6540     0.6070     2.2480 H     1 <1>   0.0800 
 35 H        3.0210     1.1240     1.9260 H     1 <1>   0.0800 
 36 H        2.6640     3.0810     0.3020 H     1 <1>   0.0800 
 37 H        4.0380     3.7540    -0.5180 H     1 <1>   0.0800 
 38 H        4.7950    -1.5320    -1.8390 H     1 <1>   0.0800 
 39 H        3.5450    -2.5210    -2.5110 H     1 <1>   0.0800 
 40 H        4.2930    -3.1800    -0.1990 H     1 <1>   0.0800 
 41 H        2.5740    -2.9520    -0.3820 H     1 <1>   0.0800 
 42 H        5.2140    -2.0420     1.8600 H     1 <1>   0.0800 
 43 H        3.7520    -2.9440     2.2220 H     1 <1>   0.0800 
 44 H        3.9350    -1.3110     2.8140 H     1 <1>   0.0800 
 45 H        6.3620     4.1490    -0.1220 H     1 <1>   0.0800 
 46 H        5.2980     4.8430     1.0840 H     1 <1>   0.0800 
 47 H        8.1850     4.0490     1.5520 H     1 <1>   0.0800 
 48 H        7.1140     4.7000     2.7660 H     1 <1>   0.0800 
 49 H        6.7100     7.2430     2.7560 H     1 <1>   0.1500 
 50 H        9.0300     4.6050    -0.8090 H     1 <1>   0.1500 
 51 H        8.9300     9.5530    -0.8990 H     1 <1>   0.1500 
 52 H       10.1350     5.8370    -2.6490 H     1 <1>   0.1500 
 53 H       10.0920     8.2860    -2.7030 H     1 <1>   0.1500 
@<TRIPOS>BOND
  1   1   2  ar  
  2   2   3  ar  
  3   2   4  1   
  4   4   5  1   
  5   4   6  1   
  6   4   7  1   
  7   5   8  1   
  8   5   9  1   
  9   5  28  1   
 10   6  10  1   
 11   6  29  1   
 12   6  30  1   
 13   7  11  1   
 14   7  31  1   
 15   7  32  1   
 16   8  12  1   
 17   8  13  1   
 18   8  33  1   
 19   9  14  1   
 20   9  34  1   
 21   9  35  1   
 22  10  14  1   
 23  10  36  1   
 24  10  37  1   
 25  11  12  1   
 26  11  38  1   
 27  11  39  1   
 28  12  40  1   
 29  12  41  1   
 30  13  42  1   
 31  13  43  1   
 32  13  44  1   
 33  14  15  am  
 34  15  16  2   
 35  15  17  1   
 36  17  18  1   
 37  17  45  1   
 38  17  46  1   
 39  18  19  1   
 40  18  47  1   
 41  18  48  1   
 42  19  20  1   
 43  19  21  1   
 44  20  22  ar  
 45  20  23  ar  
 46  21  24  2   
 47  21  49  1   
 48  22  24  1   
 49  22  25  ar  
 50  23  26  ar  
 51  23  50  1   
 52  25  27  ar  
 53  25  51  1   
 54  26  27  ar  
 55  26  52  1   
 56  27  53  1   
@<TRIPOS>SUBSTRUCTURE
  1 ****  15 GROUP 4 **** **** 0

# MOE 2024.06 (io_trps.svl 2023.06)
