@<TRIPOS>MOLECULE
NONAME
56 58 1 0 0 
SMALL
USER_CHARGES


@<TRIPOS>ATOM
  1 O       -1.2830    -0.5020    -1.2520 O.2   1 <1>  -0.5700 
  2 C       -2.0410    -0.9660    -0.4410 C.2   1 <1>   0.5690 
  3 N       -2.1850    -0.5290     0.8160 N.am  1 <1>  -0.7300 
  4 C       -2.9570    -2.1270    -0.7040 C.3   1 <1>  -0.0990 
  5 C       -3.1490    -1.3120     1.6000 C.3   1 <1>   0.1400 
  6 C       -3.9030    -2.1070     0.5160 C.3   1 <1>  -0.0190 
  7 C       -4.3560    -3.4980     0.9520 C.2   1 <1>   0.5690 
  8 O       -3.7800    -4.0190     1.8790 O.2   1 <1>  -0.5700 
  9 N       -5.3840    -4.1410     0.3090 N.am  1 <1>  -0.6600 
 10 C       -5.7640    -5.5420     0.6830 C.3   1 <1>   0.1400 
 11 C       -6.2330    -3.5630    -0.7720 C.3   1 <1>   0.1400 
 12 C       -7.0270    -5.5950     1.5550 C.3   1 <1>   0.1400 
 13 C       -7.4220    -2.7750    -0.2050 C.3   1 <1>  -0.1600 
 14 N       -8.1790    -4.8740     0.9260 N.am  1 <1>  -0.6600 
 15 C       -8.1010    -3.3920     1.0260 C.3   1 <1>   0.1400 
 16 C       -9.1610    -5.4900     0.1770 C.2   1 <1>   0.5440 
 17 O       -9.8890    -4.8020    -0.5140 O.2   1 <1>  -0.5700 
 18 C       -9.3250    -6.9300     0.1680 C.ar  1 <1>   0.0860 
 19 C       -9.1480    -7.6620    -1.0030 C.ar  1 <1>  -0.1500 
 20 C       -9.6640    -7.6320     1.3240 C.ar  1 <1>  -0.1500 
 21 C       -9.2800    -9.0390    -1.0180 C.ar  1 <1>  -0.1500 
 22 C       -9.7970    -9.0090     1.3150 C.ar  1 <1>  -0.1500 
 23 C       -9.6010    -9.7230     0.1440 C.ar  1 <1>  -0.1430 
 24 C       -9.7470   -11.2360     0.1300 C.3   1 <1>  -0.0170 
 25 C      -11.1940   -11.6340    -0.1840 C.3   1 <1>  -0.1600 
 26 C      -11.3680   -13.1580    -0.2050 C.3   1 <1>  -0.1600 
 27 C      -12.8160   -13.5410    -0.5190 C.3   1 <1>  -0.2400 
 28 H       -1.5790     0.1900     1.2180 H     1 <1>   0.3700 
 29 H       -2.3710    -3.0280    -0.7280 H     1 <1>   0.0800 
 30 H       -3.4800    -1.9990    -1.6320 H     1 <1>   0.0800 
 31 H       -3.8120    -0.6720     2.1560 H     1 <1>   0.0800 
 32 H       -2.6080    -1.9550     2.2760 H     1 <1>   0.0800 
 33 H       -4.7670    -1.5220     0.2660 H     1 <1>   0.0800 
 34 H       -4.9560    -6.0120     1.2170 H     1 <1>   0.0800 
 35 H       -5.9260    -6.1210    -0.2090 H     1 <1>   0.0800 
 36 H       -6.6150    -4.3650    -1.3820 H     1 <1>   0.0800 
 37 H       -5.6480    -2.9320    -1.4170 H     1 <1>   0.0800 
 38 H       -6.8080    -5.1550     2.5130 H     1 <1>   0.0800 
 39 H       -7.2760    -6.6250     1.7320 H     1 <1>   0.0800 
 40 H       -8.1590    -2.6800    -0.9830 H     1 <1>   0.0800 
 41 H       -7.1100    -1.7780     0.0430 H     1 <1>   0.0800 
 42 H       -9.0940    -2.9870     1.1290 H     1 <1>   0.0800 
 43 H       -7.5480    -3.1260     1.9100 H     1 <1>   0.0800 
 44 H       -8.9080    -7.1360    -1.9110 H     1 <1>   0.1500 
 45 H       -9.8260    -7.0860     2.2360 H     1 <1>   0.1500 
 46 H       -9.1360    -9.5770    -1.9380 H     1 <1>   0.1500 
 47 H      -10.0590    -9.5250     2.2220 H     1 <1>   0.1500 
 48 H       -9.4600   -11.6340     1.0870 H     1 <1>   0.0800 
 49 H       -9.0870   -11.6550    -0.6090 H     1 <1>   0.0800 
 50 H      -11.4720   -11.2260    -1.1400 H     1 <1>   0.0800 
 51 H      -11.8460   -11.2070     0.5590 H     1 <1>   0.0800 
 52 H      -11.0940   -13.5680     0.7530 H     1 <1>   0.0800 
 53 H      -10.7200   -13.5870    -0.9500 H     1 <1>   0.0800 
 54 H      -13.4820   -13.1410     0.2270 H     1 <1>   0.0800 
 55 H      -12.9200   -14.6110    -0.5300 H     1 <1>   0.0800 
 56 H      -13.1060   -13.1590    -1.4820 H     1 <1>   0.0800 
@<TRIPOS>BOND
  1   1   2  2   
  2   2   3  am  
  3   2   4  1   
  4   3   5  1   
  5   3  28  1   
  6   4   6  1   
  7   4  29  1   
  8   4  30  1   
  9   5   6  1   
 10   5  31  1   
 11   5  32  1   
 12   6   7  1   
 13   6  33  1   
 14   7   8  2   
 15   7   9  am  
 16   9  10  1   
 17   9  11  1   
 18  10  12  1   
 19  10  34  1   
 20  10  35  1   
 21  11  13  1   
 22  11  36  1   
 23  11  37  1   
 24  12  14  1   
 25  12  38  1   
 26  12  39  1   
 27  13  15  1   
 28  13  40  1   
 29  13  41  1   
 30  14  15  1   
 31  14  16  am  
 32  15  42  1   
 33  15  43  1   
 34  16  17  2   
 35  16  18  1   
 36  18  19  ar  
 37  18  20  ar  
 38  19  21  ar  
 39  19  44  1   
 40  20  22  ar  
 41  20  45  1   
 42  21  23  ar  
 43  21  46  1   
 44  22  23  ar  
 45  22  47  1   
 46  23  24  1   
 47  24  25  1   
 48  24  48  1   
 49  24  49  1   
 50  25  26  1   
 51  25  50  1   
 52  25  51  1   
 53  26  27  1   
 54  26  52  1   
 55  26  53  1   
 56  27  54  1   
 57  27  55  1   
 58  27  56  1   
@<TRIPOS>SUBSTRUCTURE
  1 ****  12 GROUP 4 **** **** 0

# MOE 2024.06 (io_trps.svl 2023.06)
