@<TRIPOS>MOLECULE
NONAME
62 64 1 0 0 
SMALL
USER_CHARGES


@<TRIPOS>ATOM
  1 O       -0.5220     1.9640    -0.7570 O.2   1 <1>  -0.5700 
  2 C        0.0620     1.8760     0.2940 C.2   1 <1>   0.5690 
  3 N        1.1050     2.6760     0.6590 N.am  1 <1>  -0.4940 
  4 C       -0.3560     0.7790     1.2520 C.3   1 <1>  -0.0990 
  5 C        1.8770     3.5800    -0.1050 C.2   1 <1>  -0.0880 
  6 C        0.2730    -0.5540     0.8090 C.3   1 <1>  -0.1600 
  7 N        2.2860     3.4340    -1.4010 N.pl3 1 <1>   0.3140 
  8 C        2.4070     4.7460     0.3360 C.2   1 <1>  -0.1810 
  9 C        0.0820    -1.7050     1.8010 C.3   1 <1>   0.4230 
 10 N        3.0660     4.4790    -1.7800 N.2   1 <1>  -0.7070 
 11 C        2.0240     2.3340    -2.3620 C.3   1 <1>   0.2390 
 12 C        3.1240     5.2500    -0.7410 C.2   1 <1>   0.1390 
 13 C        2.2800     5.4140     1.6930 C.3   1 <1>  -0.0590 
 14 N        0.8780    -2.8620     1.3310 N.4   1 <1>  -0.9590 
 15 C       -1.3870    -2.0920     1.9890 C.3   1 <1>  -0.2400 
 16 C        2.4600     0.9410    -1.8890 C.ar  1 <1>  -0.1440 
 17 C        0.3700    -3.5750     0.1080 C.3   1 <1>   0.3430 
 18 C        1.2250    -3.8450     2.4090 C.3   1 <1>   0.3430 
 19 C        3.4990     0.7500    -0.9880 C.ar  1 <1>  -0.1500 
 20 C        1.8190    -0.1700    -2.4160 C.ar  1 <1>  -0.1500 
 21 C        1.3430    -4.6950    -0.3370 C.3   1 <1>   0.1100 
 22 C        2.2660    -4.8770     1.9070 C.3   1 <1>   0.1100 
 23 C        3.8920    -0.5260    -0.6160 C.ar  1 <1>  -0.1440 
 24 C        2.2170    -1.4470    -2.0640 C.ar  1 <1>  -0.1500 
 25 N        2.5850    -4.7070     0.4690 N.3   1 <1>  -0.8100 
 26 C        3.2530    -1.6260    -1.1640 C.ar  1 <1>  -0.1500 
 27 C        5.0400    -0.7100     0.3600 C.3   1 <1>  -0.0970 
 28 C        3.5150    -5.7450     0.0040 C.3   1 <1>   0.0300 
 29 H        1.3780     2.6320     1.6390 H     1 <1>   0.3700 
 30 H       -1.4290     0.7140     1.2380 H     1 <1>   0.0800 
 31 H       -0.0440     1.0330     2.2490 H     1 <1>   0.0800 
 32 H        1.3280    -0.3900     0.6820 H     1 <1>   0.0800 
 33 H       -0.1390    -0.8150    -0.1500 H     1 <1>   0.0800 
 34 H        0.4750    -1.3870     2.7550 H     1 <1>   0.0800 
 35 H        2.5560     2.5620    -3.2670 H     1 <1>   0.0800 
 36 H        0.9780     2.3410    -2.5990 H     1 <1>   0.0800 
 37 H        3.6720     6.1770    -0.7280 H     1 <1>   0.1500 
 38 H        1.5070     4.9490     2.2750 H     1 <1>   0.0800 
 39 H        2.0310     6.4530     1.5640 H     1 <1>   0.0800 
 40 H        3.2120     5.3430     2.2240 H     1 <1>   0.0800 
 41 H        1.8000    -2.5160     1.0180 H     1 <1>   0.4500 
 42 H       -1.8700    -2.2710     1.0450 H     1 <1>   0.0800 
 43 H       -1.9130    -1.2910     2.4760 H     1 <1>   0.0800 
 44 H       -1.4810    -2.9620     2.6120 H     1 <1>   0.0800 
 45 H        0.2580    -2.8730    -0.7010 H     1 <1>   0.0800 
 46 H       -0.5970    -4.0060     0.3030 H     1 <1>   0.0800 
 47 H        0.3380    -4.3660     2.7290 H     1 <1>   0.0800 
 48 H        1.6310    -3.3300     3.2640 H     1 <1>   0.0800 
 49 H        4.0210     1.6000    -0.5800 H     1 <1>   0.1500 
 50 H        1.0130    -0.0410    -3.1190 H     1 <1>   0.1500 
 51 H        1.5890    -4.5500    -1.3750 H     1 <1>   0.0800 
 52 H        0.8450    -5.6470    -0.2550 H     1 <1>   0.0800 
 53 H        1.8880    -5.8700     2.0850 H     1 <1>   0.0800 
 54 H        3.1690    -4.7690     2.4830 H     1 <1>   0.0800 
 55 H        1.7320    -2.2970    -2.5080 H     1 <1>   0.1500 
 56 H        3.5740    -2.6200    -0.9060 H     1 <1>   0.1500 
 57 H        4.9650     0.0000     1.1640 H     1 <1>   0.0800 
 58 H        5.9740    -0.5540    -0.1500 H     1 <1>   0.0800 
 59 H        5.0380    -1.7020     0.7750 H     1 <1>   0.0800 
 60 H        3.7680    -5.5770    -1.0300 H     1 <1>   0.0800 
 61 H        3.0770    -6.7240     0.1010 H     1 <1>   0.0800 
 62 H        4.4240    -5.7110     0.5810 H     1 <1>   0.0800 
@<TRIPOS>BOND
  1   1   2  2   
  2   2   3  am  
  3   2   4  1   
  4   3   5  1   
  5   3  29  1   
  6   4   6  1   
  7   4  30  1   
  8   4  31  1   
  9   5   7  1   
 10   5   8  2   
 11   6   9  1   
 12   6  32  1   
 13   6  33  1   
 14   7  10  1   
 15   7  11  1   
 16   8  12  1   
 17   8  13  1   
 18   9  14  1   
 19   9  15  1   
 20   9  34  1   
 21  10  12  2   
 22  11  16  1   
 23  11  35  1   
 24  11  36  1   
 25  12  37  1   
 26  13  38  1   
 27  13  39  1   
 28  13  40  1   
 29  14  17  1   
 30  14  18  1   
 31  14  41  1   
 32  15  42  1   
 33  15  43  1   
 34  15  44  1   
 35  16  19  ar  
 36  16  20  ar  
 37  17  21  1   
 38  17  45  1   
 39  17  46  1   
 40  18  22  1   
 41  18  47  1   
 42  18  48  1   
 43  19  23  ar  
 44  19  49  1   
 45  20  24  ar  
 46  20  50  1   
 47  21  25  1   
 48  21  51  1   
 49  21  52  1   
 50  22  25  1   
 51  22  53  1   
 52  22  54  1   
 53  23  26  ar  
 54  23  27  1   
 55  24  26  ar  
 56  24  55  1   
 57  25  28  1   
 58  26  56  1   
 59  27  57  1   
 60  27  58  1   
 61  27  59  1   
 62  28  60  1   
 63  28  61  1   
 64  28  62  1   
@<TRIPOS>SUBSTRUCTURE
  1 ****   6 GROUP 4 **** **** 0

# MOE 2024.06 (io_trps.svl 2023.06)
