@<TRIPOS>MOLECULE
NONAME
48 50 1 0 0 
SMALL
USER_CHARGES


@<TRIPOS>ATOM
  1 O       -1.3400    -0.1480     1.4210 O.3   1 <1>  -0.5600 
  2 C       -1.6870     1.0830     0.8740 C.3   1 <1>   0.1200 
  3 C       -1.1840    -1.2150     0.5440 C.3   1 <1>   0.1200 
  4 C       -3.1130     1.1050     0.2820 C.3   1 <1>   0.4230 
  5 C       -2.5500    -1.7610     0.1010 C.3   1 <1>  -0.0800 
  6 N       -3.1490     0.4510    -1.0910 N.4   1 <1>  -0.9590 
  7 C       -4.1800     0.6100     1.3100 C.3   1 <1>   0.2090 
  8 C       -3.5720    -1.8540     1.2490 C.3   1 <1>   0.2090 
  9 C       -3.1390    -1.0550    -1.1270 C.3   1 <1>   0.3430 
 10 C       -4.3330     0.9270    -1.8660 C.3   1 <1>   0.2630 
 11 N       -4.6420    -0.8110     1.1360 N.pl3 1 <1>  -0.8380 
 12 C       -5.9410    -1.1690     0.9920 C.ar  1 <1>   0.4100 
 13 N       -6.2150    -2.0830     0.0830 N.ar  1 <1>  -0.6200 
 14 C       -6.9440    -0.5950     1.7950 C.ar  1 <1>  -0.1500 
 15 C       -7.4770    -2.4830    -0.0400 C.ar  1 <1>   0.7710 
 16 C       -8.2250    -1.0130     1.6520 C.ar  1 <1>   0.2180 
 17 N       -8.4600    -1.9680     0.7220 N.ar  1 <1>  -0.1790 
 18 N       -7.7920    -3.4380    -0.9580 N.pl3 1 <1>  -0.8380 
 19 C       -9.3860    -0.4830     2.4760 C.3   1 <1>  -0.0970 
 20 C       -6.7350    -4.2240    -1.6770 C.3   1 <1>   0.1290 
 21 C       -9.1690    -3.8410    -1.3940 C.3   1 <1>   0.1290 
 22 H       -1.6330     1.7950     1.6790 H     1 <1>   0.0800 
 23 H       -0.9500     1.3610     0.1400 H     1 <1>   0.0800 
 24 H       -0.5690    -0.9150    -0.2880 H     1 <1>   0.0800 
 25 H       -0.6570    -1.9800     1.0900 H     1 <1>   0.0800 
 26 H       -3.3200     2.1510     0.1320 H     1 <1>   0.0800 
 27 H       -2.3660    -2.7740    -0.2090 H     1 <1>   0.0800 
 28 H       -2.3010     0.7620    -1.5820 H     1 <1>   0.4500 
 29 H       -5.0290     1.2640     1.2290 H     1 <1>   0.0800 
 30 H       -3.7920     0.7300     2.3080 H     1 <1>   0.0800 
 31 H       -3.0810    -1.7650     2.2040 H     1 <1>   0.0800 
 32 H       -4.0280    -2.8300     1.2290 H     1 <1>   0.0800 
 33 H       -4.1520    -1.4100    -1.2380 H     1 <1>   0.0800 
 34 H       -2.5960    -1.3750    -2.0010 H     1 <1>   0.0800 
 35 H       -5.2420     0.5910    -1.3910 H     1 <1>   0.0800 
 36 H       -4.3060     0.5350    -2.8700 H     1 <1>   0.0800 
 37 H       -4.3440     2.0040    -1.9180 H     1 <1>   0.0800 
 38 H       -6.6660     0.1450     2.5220 H     1 <1>   0.1500 
 39 H       -9.3780    -2.3680     0.5760 H     1 <1>   0.4570 
 40 H       -9.0460     0.2650     3.1710 H     1 <1>   0.0800 
 41 H       -9.8420    -1.2780     3.0390 H     1 <1>   0.0800 
 42 H      -10.1280    -0.0340     1.8390 H     1 <1>   0.0800 
 43 H       -7.0150    -5.2630    -1.7240 H     1 <1>   0.0800 
 44 H       -5.7840    -4.1650    -1.1760 H     1 <1>   0.0800 
 45 H       -6.6210    -3.8510    -2.6810 H     1 <1>   0.0800 
 46 H       -9.1800    -4.0120    -2.4580 H     1 <1>   0.0800 
 47 H       -9.8970    -3.0780    -1.1830 H     1 <1>   0.0800 
 48 H       -9.4560    -4.7570    -0.9030 H     1 <1>   0.0800 
@<TRIPOS>BOND
  1   1   2  1   
  2   1   3  1   
  3   2   4  1   
  4   2  22  1   
  5   2  23  1   
  6   3   5  1   
  7   3  24  1   
  8   3  25  1   
  9   4   6  1   
 10   4   7  1   
 11   4  26  1   
 12   5   8  1   
 13   5   9  1   
 14   5  27  1   
 15   6   9  1   
 16   6  10  1   
 17   6  28  1   
 18   7  11  1   
 19   7  29  1   
 20   7  30  1   
 21   8  11  1   
 22   8  31  1   
 23   8  32  1   
 24   9  33  1   
 25   9  34  1   
 26  10  35  1   
 27  10  36  1   
 28  10  37  1   
 29  11  12  1   
 30  12  13  ar  
 31  12  14  ar  
 32  13  15  ar  
 33  14  16  ar  
 34  14  38  1   
 35  15  17  ar  
 36  15  18  1   
 37  16  17  ar  
 38  16  19  1   
 39  17  39  1   
 40  18  20  1   
 41  18  21  1   
 42  19  40  1   
 43  19  41  1   
 44  19  42  1   
 45  20  43  1   
 46  20  44  1   
 47  20  45  1   
 48  21  46  1   
 49  21  47  1   
 50  21  48  1   
@<TRIPOS>SUBSTRUCTURE
  1 ****  12 GROUP 4 **** **** 0

# MOE 2024.06 (io_trps.svl 2023.06)
