@<TRIPOS>MOLECULE
NONAME
53 54 1 0 0 
SMALL
USER_CHARGES


@<TRIPOS>ATOM
  1 O        0.0660     0.7490    -0.3080 O.2   1 <1>  -0.5700 
  2 C        0.0120     1.9510    -0.2500 C.2   1 <1>   0.5690 
  3 N       -1.0380     2.5670     0.3330 N.am  1 <1>  -0.7300 
  4 C        1.1230     2.7980    -0.8750 C.3   1 <1>   0.1810 
  5 C       -1.1820     4.0410     0.4240 C.3   1 <1>   0.3640 
  6 O        1.1310     4.1300    -0.4120 O.3   1 <1>  -0.5600 
  7 C       -2.5980     4.4150    -0.0130 C.ar  1 <1>  -0.1440 
  8 C       -0.1310     4.7850    -0.4450 C.3   1 <1>   0.2610 
  9 C       -3.1750     3.8580    -1.1480 C.ar  1 <1>  -0.1500 
 10 C       -3.3270     5.3350     0.7260 C.ar  1 <1>  -0.1500 
 11 C        0.0240     6.2620    -0.0340 C.2   1 <1>   0.5690 
 12 C       -4.4550     4.2150    -1.5350 C.ar  1 <1>  -0.1500 
 13 C       -4.6070     5.6940     0.3410 C.ar  1 <1>  -0.1500 
 14 O       -0.4390     6.6220     1.0270 O.2   1 <1>  -0.5700 
 15 N        0.6900     7.1540    -0.8520 N.am  1 <1>  -0.6600 
 16 C       -5.1720     5.1340    -0.7910 C.ar  1 <1>  -0.1500 
 17 C        0.9170     8.5760    -0.4180 C.3   1 <1>   0.1400 
 18 C        1.1490     6.7900    -2.2250 C.3   1 <1>   0.0600 
 19 C        2.2830     8.8470     0.2830 C.3   1 <1>   0.0000 
 20 C        3.4680     8.4500    -0.6330 C.3   1 <1>   0.1200 
 21 C        2.3690     7.9980     1.5850 C.3   1 <1>  -0.1600 
 22 C        2.3920    10.3700     0.5920 C.3   1 <1>  -0.1600 
 23 O        3.4400     9.1370    -1.8430 O.3   1 <1>  -0.6800 
 24 C        3.5970     8.2370     2.4810 C.3   1 <1>  -0.2400 
 25 C        1.3650    10.9390     1.5860 C.3   1 <1>  -0.2400 
 26 H       -1.7850     2.0010     0.7380 H     1 <1>   0.3700 
 27 H        1.0040     2.8100    -1.9430 H     1 <1>   0.0800 
 28 H        2.0770     2.3640    -0.6370 H     1 <1>   0.0800 
 29 H       -1.0440     4.3150     1.4570 H     1 <1>   0.0800 
 30 H       -0.4750     4.7600    -1.4610 H     1 <1>   0.0800 
 31 H       -2.6350     3.1380    -1.7390 H     1 <1>   0.1500 
 32 H       -2.9000     5.7870     1.6070 H     1 <1>   0.1500 
 33 H       -4.8940     3.7770    -2.4150 H     1 <1>   0.1500 
 34 H       -5.1620     6.4100     0.9220 H     1 <1>   0.1500 
 35 H       -6.1670     5.4130    -1.0900 H     1 <1>   0.1500 
 36 H        0.8130     9.2230    -1.2700 H     1 <1>   0.0800 
 37 H        0.1260     8.8480     0.2590 H     1 <1>   0.0800 
 38 H        1.4090     7.6680    -2.7870 H     1 <1>   0.0800 
 39 H        0.3660     6.2800    -2.7570 H     1 <1>   0.0800 
 40 H        2.0100     6.1460    -2.1610 H     1 <1>   0.0800 
 41 H        3.4530     7.3960    -0.8430 H     1 <1>   0.0800 
 42 H        4.4070     8.6850    -0.1640 H     1 <1>   0.0800 
 43 H        1.4840     8.1640     2.1750 H     1 <1>   0.0800 
 44 H        2.3620     6.9550     1.3200 H     1 <1>   0.0800 
 45 H        3.3780    10.5850     0.9660 H     1 <1>   0.0800 
 46 H        2.2960    10.9220    -0.3270 H     1 <1>   0.0800 
 47 H        2.5690     9.0350    -2.2660 H     1 <1>   0.4000 
 48 H        3.6260     9.2480     2.8440 H     1 <1>   0.0800 
 49 H        4.5120     8.0250     1.9590 H     1 <1>   0.0800 
 50 H        3.5460     7.5830     3.3350 H     1 <1>   0.0800 
 51 H        1.4450    10.4610     2.5460 H     1 <1>   0.0800 
 52 H        0.3600    10.8220     1.2230 H     1 <1>   0.0800 
 53 H        1.5450    11.9900     1.7260 H     1 <1>   0.0800 
@<TRIPOS>BOND
  1   1   2  2   
  2   2   3  am  
  3   2   4  1   
  4   3   5  1   
  5   3  26  1   
  6   4   6  1   
  7   4  27  1   
  8   4  28  1   
  9   5   7  1   
 10   5   8  1   
 11   5  29  1   
 12   6   8  1   
 13   7   9  ar  
 14   7  10  ar  
 15   8  11  1   
 16   8  30  1   
 17   9  12  ar  
 18   9  31  1   
 19  10  13  ar  
 20  10  32  1   
 21  11  14  2   
 22  11  15  am  
 23  12  16  ar  
 24  12  33  1   
 25  13  16  ar  
 26  13  34  1   
 27  15  17  1   
 28  15  18  1   
 29  16  35  1   
 30  17  19  1   
 31  17  36  1   
 32  17  37  1   
 33  18  38  1   
 34  18  39  1   
 35  18  40  1   
 36  19  20  1   
 37  19  21  1   
 38  19  22  1   
 39  20  23  1   
 40  20  41  1   
 41  20  42  1   
 42  21  24  1   
 43  21  43  1   
 44  21  44  1   
 45  22  25  1   
 46  22  45  1   
 47  22  46  1   
 48  23  47  1   
 49  24  48  1   
 50  24  49  1   
 51  24  50  1   
 52  25  51  1   
 53  25  52  1   
 54  25  53  1   
@<TRIPOS>SUBSTRUCTURE
  1 ****  11 GROUP 4 **** **** 0

# MOE 2024.06 (io_trps.svl 2023.06)
