@<TRIPOS>MOLECULE
NONAME
49 52 1 0 0 
SMALL
USER_CHARGES


@<TRIPOS>ATOM
  1 O        1.1880    -0.3600    -2.6880 O.2   1 <1>  -0.5700 
  2 C        1.5570    -0.7580    -1.5980 C.2   1 <1>   0.5440 
  3 N        2.1460     0.1350    -0.7200 N.am  1 <1>  -0.6600 
  4 C        1.4330    -2.1680    -1.2970 C.ar  1 <1>   0.0860 
  5 C        2.8410    -0.3090     0.5260 C.3   1 <1>   0.1400 
  6 C        2.2140     1.5940    -1.0190 C.3   1 <1>   0.1400 
  7 C        0.5650    -2.6500    -0.3140 C.ar  1 <1>   0.0820 
  8 C        2.2010    -3.0970    -2.0030 C.ar  1 <1>  -0.1500 
  9 C        4.2770    -0.7590     0.2260 C.3   1 <1>   0.1400 
 10 C        3.6430     2.1560    -0.9670 C.3   1 <1>  -0.1600 
 11 O       -0.1910    -1.7750     0.3970 O.3   1 <1>  -0.3620 
 12 C        0.4800    -4.0220    -0.0570 C.ar  1 <1>   0.0820 
 13 C        2.1270    -4.4510    -1.7380 C.ar  1 <1>  -0.1500 
 14 N        5.1720     0.3830    -0.1550 N.am  1 <1>  -0.6600 
 15 C        4.7400     1.1570    -1.3570 C.3   1 <1>   0.1400 
 16 C       -0.8660    -2.2460     1.5480 C.3   1 <1>   0.1200 
 17 O       -0.3750    -4.5120     0.8750 O.3   1 <1>  -0.3630 
 18 C        1.2660    -4.9160    -0.7590 C.ar  1 <1>  -0.1500 
 19 C        6.3110     0.6500     0.5720 C.2   1 <1>   0.5770 
 20 C       -1.4170    -3.6550     1.2990 C.3   1 <1>   0.1200 
 21 O        6.6090    -0.0210     1.5340 O.2   1 <1>  -0.5700 
 22 C        7.2440     1.7990     0.1800 C.3   1 <1>   0.0530 
 23 C        8.3960     2.1390     1.1710 C.3   1 <1>   0.0000 
 24 C        6.6920     3.2200     0.4770 C.3   1 <1>   0.0000 
 25 C        8.1470     3.6280     0.8240 C.3   1 <1>   0.0000 
 26 H        2.3060    -1.1280     0.9690 H     1 <1>   0.0800 
 27 H        2.8550     0.4890     1.2480 H     1 <1>   0.0800 
 28 H        1.5920     2.1240    -0.3190 H     1 <1>   0.0800 
 29 H        1.8140     1.7830    -2.0000 H     1 <1>   0.0800 
 30 H        2.8610    -2.7370    -2.7740 H     1 <1>   0.1500 
 31 H        4.2710    -1.4840    -0.5670 H     1 <1>   0.0800 
 32 H        4.6590    -1.2520     1.1020 H     1 <1>   0.0800 
 33 H        3.8400     2.5460     0.0160 H     1 <1>   0.0800 
 34 H        3.6830     2.9900    -1.6440 H     1 <1>   0.0800 
 35 H        2.7340    -5.1470    -2.2930 H     1 <1>   0.1500 
 36 H        5.5740     1.6920    -1.7740 H     1 <1>   0.0800 
 37 H        4.3830     0.4850    -2.1200 H     1 <1>   0.0800 
 38 H       -1.6610    -1.5580     1.7700 H     1 <1>   0.0800 
 39 H       -0.1670    -2.2570     2.3650 H     1 <1>   0.0800 
 40 H        1.1940    -5.9670    -0.5440 H     1 <1>   0.1500 
 41 H       -2.1680    -3.6340     0.5290 H     1 <1>   0.0800 
 42 H       -1.8410    -4.0660     2.1970 H     1 <1>   0.0800 
 43 H        7.6180     1.7110    -0.8260 H     1 <1>   0.0000 
 44 H        9.3600     1.7770     0.8600 H     1 <1>   0.0000 
 45 H        8.1680     1.9250     2.2020 H     1 <1>   0.0000 
 46 H        6.0390     3.2490     1.3330 H     1 <1>   0.0000 
 47 H        6.2960     3.7260    -0.3850 H     1 <1>   0.0000 
 48 H        8.7040     3.9550    -0.0370 H     1 <1>   0.0000 
 49 H        8.2240     4.2920     1.6670 H     1 <1>   0.0000 
@<TRIPOS>BOND
  1   1   2  2   
  2   2   3  am  
  3   2   4  1   
  4   3   5  1   
  5   3   6  1   
  6   4   7  ar  
  7   4   8  ar  
  8   5   9  1   
  9   5  26  1   
 10   5  27  1   
 11   6  10  1   
 12   6  28  1   
 13   6  29  1   
 14   7  11  1   
 15   7  12  ar  
 16   8  13  ar  
 17   8  30  1   
 18   9  14  1   
 19   9  31  1   
 20   9  32  1   
 21  10  15  1   
 22  10  33  1   
 23  10  34  1   
 24  11  16  1   
 25  12  17  1   
 26  12  18  ar  
 27  13  18  ar  
 28  13  35  1   
 29  14  15  1   
 30  14  19  am  
 31  15  36  1   
 32  15  37  1   
 33  16  20  1   
 34  16  38  1   
 35  16  39  1   
 36  17  20  1   
 37  18  40  1   
 38  19  21  2   
 39  19  22  1   
 40  20  41  1   
 41  20  42  1   
 42  22  23  1   
 43  22  24  1   
 44  22  43  1   
 45  23  25  1   
 46  23  44  1   
 47  23  45  1   
 48  24  25  1   
 49  24  46  1   
 50  24  47  1   
 51  25  48  1   
 52  25  49  1   
@<TRIPOS>SUBSTRUCTURE
  1 ****   5 GROUP 4 **** **** 0

# MOE 2024.06 (io_trps.svl 2023.06)
