@<TRIPOS>MOLECULE
NONAME
48 50 1 0 0 
SMALL
USER_CHARGES


@<TRIPOS>ATOM
  1 O       -0.5790     1.0010    -1.3690 O.2   1 <1>  -0.5700 
  2 C       -0.6560     2.2000    -1.2370 C.2   1 <1>   0.5690 
  3 N       -1.3840     2.8100    -0.2440 N.am  1 <1>  -0.6600 
  4 C        0.1060     3.0630    -2.2420 C.3   1 <1>   0.1810 
  5 C       -1.4350     4.3100    -0.1460 C.3   1 <1>   0.3640 
  6 C       -2.0430     2.0890     0.8830 C.3   1 <1>   0.2200 
  7 O        0.4880     4.2980    -1.6960 O.3   1 <1>  -0.5600 
  8 C       -2.8860     4.7890    -0.1930 C.ar  1 <1>  -0.1440 
  9 C       -0.6050     5.0610    -1.2180 C.3   1 <1>   0.2610 
 10 C       -0.9930     1.3850     1.7420 C.3   1 <1>  -0.2400 
 11 C       -3.1130     1.1190     0.3790 C.3   1 <1>  -0.2400 
 12 C       -3.7660     4.3180    -1.1590 C.ar  1 <1>  -0.1500 
 13 C       -3.3380     5.7180     0.7330 C.ar  1 <1>  -0.1500 
 14 C       -0.1660     6.4200    -0.6530 C.2   1 <1>   0.5690 
 15 C       -5.0760     4.7630    -1.1940 C.ar  1 <1>  -0.1500 
 16 C       -4.6480     6.1640     0.6990 C.ar  1 <1>  -0.1500 
 17 O       -0.8240     7.3800    -0.9830 O.2   1 <1>  -0.5700 
 18 N        0.8900     6.5650     0.2220 N.am  1 <1>  -0.6600 
 19 C       -5.5180     5.6860    -0.2640 C.ar  1 <1>  -0.1500 
 20 C        1.3290     7.9400     0.6540 C.3   1 <1>   0.3210 
 21 C        1.7690     5.4520     0.6920 C.3   1 <1>   0.0600 
 22 C        2.7740     8.2670     0.2730 C.2   1 <1>   0.3350 
 23 N        3.1270     8.9240    -0.7620 N.2   1 <1>  -0.4100 
 24 N        3.8020     7.8940     1.0330 N.2   1 <1>  -0.5650 
 25 O        4.4220     9.0110    -0.7430 O.3   1 <1>  -0.0190 
 26 C        4.7610     8.3790     0.3500 C.2   1 <1>   0.3280 
 27 H       -0.5040     3.2400    -3.1090 H     1 <1>   0.0800 
 28 H        1.0010     2.5500    -2.5450 H     1 <1>   0.0800 
 29 H       -1.0330     4.5710     0.8170 H     1 <1>   0.0800 
 30 H       -2.5410     2.8090     1.5100 H     1 <1>   0.0800 
 31 H       -1.2360     5.2600    -2.0660 H     1 <1>   0.0800 
 32 H       -0.5100     0.5990     1.1900 H     1 <1>   0.0800 
 33 H       -1.4630     0.9460     2.6030 H     1 <1>   0.0800 
 34 H       -0.2540     2.0880     2.0790 H     1 <1>   0.0800 
 35 H       -2.6770     0.3120    -0.1800 H     1 <1>   0.0800 
 36 H       -3.8240     1.6360    -0.2380 H     1 <1>   0.0800 
 37 H       -3.6390     0.6970     1.2150 H     1 <1>   0.0800 
 38 H       -3.4370     3.5970    -1.8870 H     1 <1>   0.1500 
 39 H       -2.6750     6.1090     1.4860 H     1 <1>   0.1500 
 40 H       -5.7520     4.3900    -1.9440 H     1 <1>   0.1500 
 41 H       -4.9900     6.8860     1.4200 H     1 <1>   0.1500 
 42 H       -6.5360     6.0330    -0.2910 H     1 <1>   0.1500 
 43 H        0.6970     8.6940     0.2200 H     1 <1>   0.0800 
 44 H        1.2310     8.0160     1.7210 H     1 <1>   0.0800 
 45 H        2.1230     5.6540     1.6870 H     1 <1>   0.0800 
 46 H        2.6160     5.3620     0.0330 H     1 <1>   0.0800 
 47 H        1.2440     4.5140     0.7050 H     1 <1>   0.0800 
 48 H        5.8060     8.3140     0.5950 H     1 <1>   0.1500 
@<TRIPOS>BOND
  1   1   2  2   
  2   2   3  am  
  3   2   4  1   
  4   3   5  1   
  5   3   6  1   
  6   4   7  1   
  7   4  27  1   
  8   4  28  1   
  9   5   8  1   
 10   5   9  1   
 11   5  29  1   
 12   6  10  1   
 13   6  11  1   
 14   6  30  1   
 15   7   9  1   
 16   8  12  ar  
 17   8  13  ar  
 18   9  14  1   
 19   9  31  1   
 20  10  32  1   
 21  10  33  1   
 22  10  34  1   
 23  11  35  1   
 24  11  36  1   
 25  11  37  1   
 26  12  15  ar  
 27  12  38  1   
 28  13  16  ar  
 29  13  39  1   
 30  14  17  2   
 31  14  18  am  
 32  15  19  ar  
 33  15  40  1   
 34  16  19  ar  
 35  16  41  1   
 36  18  20  1   
 37  18  21  1   
 38  19  42  1   
 39  20  22  1   
 40  20  43  1   
 41  20  44  1   
 42  21  45  1   
 43  21  46  1   
 44  21  47  1   
 45  22  23  2   
 46  22  24  1   
 47  23  25  1   
 48  24  26  2   
 49  25  26  1   
 50  26  48  1   
@<TRIPOS>SUBSTRUCTURE
  1 ****   9 GROUP 4 **** **** 0

# MOE 2024.06 (io_trps.svl 2023.06)
