@<TRIPOS>MOLECULE
NONAME
46 49 1 0 0 
SMALL
USER_CHARGES


@<TRIPOS>ATOM
  1 O       -0.6400     0.2830     1.5240 O.2   1 <1>  -0.5700 
  2 C       -1.5610     0.9180     1.0460 C.2   1 <1>   0.5440 
  3 N       -2.6740     0.2300     0.6170 N.am  1 <1>  -0.6600 
  4 C       -1.4580     2.3570     0.9180 C.ar  1 <1>   0.0860 
  5 C       -3.7310     0.7750    -0.2740 C.3   1 <1>   0.1400 
  6 C       -2.7650    -1.2520     0.6680 C.3   1 <1>   0.1400 
  7 C       -0.3950     2.9360     0.2450 C.ar  1 <1>  -0.1500 
  8 C       -2.4340     3.2090     1.4780 C.ar  1 <1>  -0.1500 
  9 C       -4.7570    -0.3510    -0.3740 C.3   1 <1>   0.2000 
 10 C       -3.9040    -1.6220    -0.2890 C.3   1 <1>  -0.0800 
 11 C       -0.3170     4.3220     0.1040 C.ar  1 <1>  -0.1520 
 12 C       -2.3670     4.5750     1.3450 C.ar  1 <1>  -0.1500 
 13 O       -5.5840    -0.2740     0.7360 O.3   1 <1>  -0.6800 
 14 C       -4.6640    -2.9010     0.1090 C.3   1 <1>  -0.0170 
 15 N        0.6200     5.1160    -0.5150 N.pl3 1 <1>   0.0480 
 16 C       -1.2990     5.1450     0.6460 C.ar  1 <1>   0.0000 
 17 C       -3.7480    -4.1140     0.0670 C.ar  1 <1>  -0.1430 
 18 C        0.2270     6.4150    -0.3690 C.2   1 <1>  -0.3020 
 19 C        1.8390     4.6480    -1.1930 C.3   1 <1>   0.0160 
 20 C       -0.9330     6.4670     0.3290 C.2   1 <1>  -0.1500 
 21 C       -3.1170    -4.5960     1.1970 C.ar  1 <1>  -0.1500 
 22 C       -3.4980    -4.7940    -1.1070 C.ar  1 <1>  -0.1500 
 23 C       -2.2880    -5.7010     1.0980 C.ar  1 <1>   0.1600 
 24 C       -2.6520    -5.8900    -1.0970 C.ar  1 <1>   0.1600 
 25 N       -2.0390    -6.3600    -0.0220 N.ar  1 <1>  -0.6200 
 26 H       -4.1730     1.6750     0.1140 H     1 <1>   0.0800 
 27 H       -3.3040     0.9720    -1.2420 H     1 <1>   0.0800 
 28 H       -1.8360    -1.7060     0.3650 H     1 <1>   0.0800 
 29 H       -2.9920    -1.5510     1.6760 H     1 <1>   0.0800 
 30 H        0.3730     2.3090    -0.1710 H     1 <1>   0.1500 
 31 H       -3.2460     2.7630     2.0250 H     1 <1>   0.1500 
 32 H       -5.3640    -0.2970    -1.2610 H     1 <1>   0.0800 
 33 H       -3.4650    -1.7810    -1.2580 H     1 <1>   0.0800 
 34 H       -3.1130     5.2200     1.7720 H     1 <1>   0.1500 
 35 H       -5.0230    -0.1780     1.5320 H     1 <1>   0.4000 
 36 H       -5.4870    -3.0530    -0.5680 H     1 <1>   0.0800 
 37 H       -5.0780    -2.7990     1.0970 H     1 <1>   0.0800 
 38 H        0.7980     7.2330    -0.7710 H     1 <1>   0.1500 
 39 H        2.3820     5.4890    -1.5810 H     1 <1>   0.0800 
 40 H        1.5660     3.9930    -1.9990 H     1 <1>   0.0800 
 41 H        2.4530     4.1180    -0.4880 H     1 <1>   0.0800 
 42 H       -1.5000     7.3360     0.6120 H     1 <1>   0.1500 
 43 H       -3.2600    -4.1250     2.1520 H     1 <1>   0.1500 
 44 H       -3.9530    -4.4840    -2.0290 H     1 <1>   0.1500 
 45 H       -1.8020    -6.0620     1.9890 H     1 <1>   0.1500 
 46 H       -2.4690    -6.4090    -2.0220 H     1 <1>   0.1500 
@<TRIPOS>BOND
  1   1   2  2   
  2   2   3  am  
  3   2   4  1   
  4   3   5  1   
  5   3   6  1   
  6   4   7  ar  
  7   4   8  ar  
  8   5   9  1   
  9   5  26  1   
 10   5  27  1   
 11   6  10  1   
 12   6  28  1   
 13   6  29  1   
 14   7  11  ar  
 15   7  30  1   
 16   8  12  ar  
 17   8  31  1   
 18   9  10  1   
 19   9  13  1   
 20   9  32  1   
 21  10  14  1   
 22  10  33  1   
 23  11  15  1   
 24  11  16  ar  
 25  12  16  ar  
 26  12  34  1   
 27  13  35  1   
 28  14  17  1   
 29  14  36  1   
 30  14  37  1   
 31  15  18  1   
 32  15  19  1   
 33  16  20  1   
 34  17  21  ar  
 35  17  22  ar  
 36  18  20  2   
 37  18  38  1   
 38  19  39  1   
 39  19  40  1   
 40  19  41  1   
 41  20  42  1   
 42  21  23  ar  
 43  21  43  1   
 44  22  24  ar  
 45  22  44  1   
 46  23  25  ar  
 47  23  45  1   
 48  24  25  ar  
 49  24  46  1   
@<TRIPOS>SUBSTRUCTURE
  1 ****   3 GROUP 4 **** **** 0

# MOE 2024.06 (io_trps.svl 2023.06)
