@<TRIPOS>MOLECULE
NONAME
35 35 1 0 0 
SMALL
USER_CHARGES


@<TRIPOS>ATOM
  1 O        0.2470    -0.0560    -1.5920 O.2   1 <1>  -0.5700 
  2 C        1.1440    -0.5890    -0.9860 C.2   1 <1>   0.5690 
  3 N        2.1830     0.0830    -0.4180 N.am  1 <1>  -0.4930 
  4 C        1.1020    -2.0930    -0.8300 C.3   1 <1>  -0.0990 
  5 C        2.4450     1.4760    -0.4060 C.2   1 <1>   0.0630 
  6 C        0.2360    -2.4990     0.3710 C.3   1 <1>  -0.0990 
  7 C        3.4800     2.0930     0.2080 C.2   1 <1>  -0.3320 
  8 C        1.7220     2.5070    -1.0060 C.2   1 <1>   0.1390 
  9 C        0.2330    -3.9990     0.5520 C.2   1 <1>   0.5690 
 10 N        3.3410     3.4220    -0.0430 N.pl3 1 <1>   0.3140 
 11 C        4.6110     1.4940     1.0320 C.3   1 <1>  -0.0600 
 12 N        2.2520     3.6740    -0.7910 N.2   1 <1>  -0.7070 
 13 O        1.1940    -4.5190     1.0630 O.2   1 <1>  -0.5700 
 14 N       -0.8420    -4.7060     0.1190 N.am  1 <1>  -0.7300 
 15 C        4.2160     4.5260     0.4090 C.3   1 <1>   0.0960 
 16 C       -0.9910    -6.1800     0.2220 C.3   1 <1>   0.0600 
 17 C        5.3650     4.7640    -0.5790 C.3   1 <1>  -0.2400 
 18 H        2.8710    -0.4760     0.0800 H     1 <1>   0.3700 
 19 H        2.1000    -2.4750    -0.7080 H     1 <1>   0.0800 
 20 H        0.6950    -2.5190    -1.7290 H     1 <1>   0.0800 
 21 H       -0.7690    -2.1450     0.2330 H     1 <1>   0.0800 
 22 H        0.6240    -2.0520     1.2690 H     1 <1>   0.0800 
 23 H        0.8250     2.3600    -1.5830 H     1 <1>   0.1500 
 24 H        4.5200     0.4250     1.0880 H     1 <1>   0.0800 
 25 H        4.5890     1.8870     2.0330 H     1 <1>   0.0800 
 26 H        5.5610     1.7290     0.5850 H     1 <1>   0.0800 
 27 H       -1.6220    -4.2100    -0.3170 H     1 <1>   0.3700 
 28 H        4.6000     4.2890     1.3830 H     1 <1>   0.0800 
 29 H        3.6150     5.4140     0.4880 H     1 <1>   0.0800 
 30 H       -0.1240    -6.6130     0.6930 H     1 <1>   0.0800 
 31 H       -1.0990    -6.6050    -0.7610 H     1 <1>   0.0800 
 32 H       -1.8600    -6.4180     0.8100 H     1 <1>   0.0800 
 33 H        5.9790     3.8860    -0.6650 H     1 <1>   0.0800 
 34 H        5.9750     5.5810    -0.2400 H     1 <1>   0.0800 
 35 H        4.9670     5.0140    -1.5480 H     1 <1>   0.0800 
@<TRIPOS>BOND
  1   1   2  2   
  2   2   3  am  
  3   2   4  1   
  4   3   5  1   
  5   3  18  1   
  6   4   6  1   
  7   4  19  1   
  8   4  20  1   
  9   5   7  2   
 10   5   8  1   
 11   6   9  1   
 12   6  21  1   
 13   6  22  1   
 14   7  10  1   
 15   7  11  1   
 16   8  12  2   
 17   8  23  1   
 18   9  13  2   
 19   9  14  am  
 20  10  12  1   
 21  10  15  1   
 22  11  24  1   
 23  11  25  1   
 24  11  26  1   
 25  14  16  1   
 26  14  27  1   
 27  15  17  1   
 28  15  28  1   
 29  15  29  1   
 30  16  30  1   
 31  16  31  1   
 32  16  32  1   
 33  17  33  1   
 34  17  34  1   
 35  17  35  1   
@<TRIPOS>SUBSTRUCTURE
  1 ****   3 GROUP 4 **** **** 0

# MOE 2024.06 (io_trps.svl 2023.06)
