@<TRIPOS>MOLECULE
NONAME
41 43 1 0 0 
SMALL
USER_CHARGES


@<TRIPOS>ATOM
  1 F       -2.5620     0.0550    -2.0080 F     1 <1>  -0.1900 
  2 C       -2.7490     0.7750    -0.9340 C.ar  1 <1>   0.1900 
  3 C       -2.9560     0.1430     0.2930 C.ar  1 <1>   0.0860 
  4 C       -2.7220     2.1500    -1.0840 C.ar  1 <1>  -0.1500 
  5 C       -2.9990    -1.2950     0.4510 C.2   1 <1>   0.5440 
  6 C       -3.1170     0.9750     1.4020 C.ar  1 <1>  -0.1500 
  7 C       -2.8990     2.9480     0.0320 C.ar  1 <1>  -0.1500 
  8 O       -2.3000    -1.8190     1.2970 O.2   1 <1>  -0.5700 
  9 N       -3.8480    -2.0920    -0.2790 N.am  1 <1>  -0.6600 
 10 C       -3.0910     2.3540     1.2680 C.ar  1 <1>   0.0830 
 11 C       -5.0240    -1.6280    -1.0600 C.3   1 <1>   0.1400 
 12 C       -3.8800    -3.5730    -0.1510 C.3   1 <1>   0.1400 
 13 O       -3.2500     3.1380     2.3440 O.3   1 <1>  -0.5320 
 14 C       -6.0370    -2.7600    -0.9070 C.3   1 <1>   0.2000 
 15 C       -5.1600    -4.0140    -0.8720 C.3   1 <1>  -0.0800 
 16 O       -6.6690    -2.6010     0.3180 O.3   1 <1>  -0.6800 
 17 C       -5.8150    -5.2670    -0.2650 C.3   1 <1>   0.0210 
 18 C       -4.8560    -6.4410    -0.2910 C.2   1 <1>   0.1080 
 19 N       -4.4160    -6.9660    -1.3920 N.2   1 <1>  -0.7070 
 20 C       -4.3380    -7.0700     0.8360 C.2   1 <1>  -0.1500 
 21 N       -3.5970    -7.9570    -0.9920 N.pl3 1 <1>   0.3000 
 22 C       -3.5310    -8.0390     0.3540 C.2   1 <1>  -0.3320 
 23 C       -2.6890    -9.0520     1.1070 C.3   1 <1>  -0.0600 
 24 H       -2.5610     2.5850    -2.0550 H     1 <1>   0.1500 
 25 H       -3.2590     0.5230     2.3670 H     1 <1>   0.1500 
 26 H       -2.8840     4.0210    -0.0460 H     1 <1>   0.1500 
 27 H       -5.4140    -0.6930    -0.6980 H     1 <1>   0.0800 
 28 H       -4.7400    -1.5290    -2.0930 H     1 <1>   0.0800 
 29 H       -3.0070    -4.0140    -0.6020 H     1 <1>   0.0800 
 30 H       -3.9110    -3.8400     0.8920 H     1 <1>   0.0800 
 31 H       -3.3360     2.6430     3.1790 H     1 <1>   0.4500 
 32 H       -6.7830    -2.7750    -1.6840 H     1 <1>   0.0800 
 33 H       -4.8850    -4.2460    -1.8870 H     1 <1>   0.0800 
 34 H       -5.9800    -2.4790     1.0030 H     1 <1>   0.4000 
 35 H       -6.6910    -5.5260    -0.8330 H     1 <1>   0.0800 
 36 H       -6.1190    -5.0850     0.7490 H     1 <1>   0.0800 
 37 H       -4.5500    -6.8170     1.8590 H     1 <1>   0.1500 
 38 H       -3.0970    -8.5550    -1.6610 H     1 <1>   0.2700 
 39 H       -2.8060    -8.9130     2.1670 H     1 <1>   0.0800 
 40 H       -1.6500    -8.9300     0.8590 H     1 <1>   0.0800 
 41 H       -2.9970   -10.0510     0.8560 H     1 <1>   0.0800 
@<TRIPOS>BOND
  1   1   2  1   
  2   2   3  ar  
  3   2   4  ar  
  4   3   5  1   
  5   3   6  ar  
  6   4   7  ar  
  7   4  24  1   
  8   5   8  2   
  9   5   9  am  
 10   6  10  ar  
 11   6  25  1   
 12   7  10  ar  
 13   7  26  1   
 14   9  11  1   
 15   9  12  1   
 16  10  13  1   
 17  11  14  1   
 18  11  27  1   
 19  11  28  1   
 20  12  15  1   
 21  12  29  1   
 22  12  30  1   
 23  13  31  1   
 24  14  15  1   
 25  14  16  1   
 26  14  32  1   
 27  15  17  1   
 28  15  33  1   
 29  16  34  1   
 30  17  18  1   
 31  17  35  1   
 32  17  36  1   
 33  18  19  2   
 34  18  20  1   
 35  19  21  1   
 36  20  22  2   
 37  20  37  1   
 38  21  22  1   
 39  21  38  1   
 40  22  23  1   
 41  23  39  1   
 42  23  40  1   
 43  23  41  1   
@<TRIPOS>SUBSTRUCTURE
  1 ****   9 GROUP 4 **** **** 0

# MOE 2024.06 (io_trps.svl 2023.06)
