@<TRIPOS>MOLECULE
NONAME
57 59 1 0 0 
SMALL
USER_CHARGES


@<TRIPOS>ATOM
  1 O       -1.2030     0.5850     1.8810 O.2   1 <1>  -0.5700 
  2 C       -1.5930     0.8760     0.7630 C.2   1 <1>   0.5440 
  3 N       -2.0630    -0.1170    -0.0650 N.am  1 <1>  -0.6600 
  4 C       -1.5240     2.2440     0.3130 C.ar  1 <1>   0.0860 
  5 C       -2.0300    -1.5590     0.3430 C.3   1 <1>   0.3640 
  6 C       -2.6840     0.1940    -1.3870 C.3   1 <1>   0.1400 
  7 C       -2.6050     3.1080     0.5280 C.ar  1 <1>   0.0830 
  8 C       -0.4090     2.7410    -0.3810 C.ar  1 <1>   0.0830 
  9 C       -0.7690    -2.2720    -0.1770 C.ar  1 <1>  -0.1440 
 10 C       -3.3300    -2.3070    -0.0930 C.3   1 <1>   0.2000 
 11 C       -3.1330    -1.0730    -2.1300 C.3   1 <1>   0.1200 
 12 O       -3.6880     2.6080     1.1750 O.3   1 <1>  -0.3630 
 13 C       -2.5630     4.4230     0.0730 C.ar  1 <1>  -0.1500 
 14 O        0.6820     1.9940    -0.6670 O.3   1 <1>  -0.3630 
 15 C       -0.3870     4.0470    -0.8400 C.ar  1 <1>  -0.1500 
 16 C       -0.4800    -3.5340     0.3290 C.ar  1 <1>  -0.1500 
 17 C        0.1030    -1.7220    -1.1130 C.ar  1 <1>  -0.1500 
 18 O       -3.9280    -1.8550    -1.2920 O.3   1 <1>  -0.5600 
 19 C       -4.4070    -2.2070     0.9950 C.3   1 <1>   0.1200 
 20 C       -4.7540     3.4180     1.6170 C.3   1 <1>   0.0400 
 21 C       -1.4570     4.8900    -0.6120 C.ar  1 <1>  -0.1500 
 22 C        1.3880     1.3560     0.3810 C.3   1 <1>   0.0400 
 23 C        0.6290    -4.2440    -0.0960 C.ar  1 <1>   0.0830 
 24 C        1.2260    -2.4140    -1.5310 C.ar  1 <1>  -0.1500 
 25 O       -4.0930    -3.0470     2.0610 O.3   1 <1>  -0.6800 
 26 O        0.8040    -5.4880     0.4150 O.3   1 <1>  -0.3630 
 27 C        1.5070    -3.6680    -1.0190 C.ar  1 <1>   0.0830 
 28 C        0.7390    -6.5600    -0.5000 C.3   1 <1>   0.0400 
 29 O        2.6420    -4.2770    -1.4400 O.3   1 <1>  -0.3630 
 30 C        3.6470    -4.4600    -0.4670 C.3   1 <1>   0.0400 
 31 H       -1.9770    -1.6130     1.4170 H     1 <1>   0.0800 
 32 H       -3.5410     0.8260    -1.2310 H     1 <1>   0.0800 
 33 H       -1.9790     0.7310    -1.9980 H     1 <1>   0.0800 
 34 H       -3.1080    -3.3470    -0.2460 H     1 <1>   0.0800 
 35 H       -2.2920    -1.6580    -2.4580 H     1 <1>   0.0800 
 36 H       -3.7230    -0.8090    -2.9900 H     1 <1>   0.0800 
 37 H       -3.3820     5.0970     0.2350 H     1 <1>   0.1500 
 38 H        0.4760     4.4000    -1.3770 H     1 <1>   0.1500 
 39 H       -1.1210    -3.9840     1.0660 H     1 <1>   0.1500 
 40 H       -0.0700    -0.7430    -1.5220 H     1 <1>   0.1500 
 41 H       -5.3660    -2.5040     0.6090 H     1 <1>   0.0800 
 42 H       -4.4650    -1.1980     1.3690 H     1 <1>   0.0800 
 43 H       -5.4350     2.7970     2.1710 H     1 <1>   0.0800 
 44 H       -5.2540     3.8380     0.7630 H     1 <1>   0.0800 
 45 H       -4.3640     4.1900     2.2570 H     1 <1>   0.0800 
 46 H       -1.4270     5.9060    -0.9670 H     1 <1>   0.1500 
 47 H        2.4230     1.2960     0.1000 H     1 <1>   0.0800 
 48 H        0.9950     0.3650     0.5200 H     1 <1>   0.0800 
 49 H        1.2830     1.9300     1.2850 H     1 <1>   0.0800 
 50 H        1.8960    -1.9790    -2.2500 H     1 <1>   0.1500 
 51 H       -4.2900    -3.9770     1.8380 H     1 <1>   0.4000 
 52 H        0.7560    -7.4790     0.0560 H     1 <1>   0.0800 
 53 H        1.5850    -6.5170    -1.1620 H     1 <1>   0.0800 
 54 H       -0.1770    -6.4840    -1.0600 H     1 <1>   0.0800 
 55 H        4.5170    -4.8610    -0.9530 H     1 <1>   0.0800 
 56 H        3.2970    -5.1460     0.2830 H     1 <1>   0.0800 
 57 H        3.8770    -3.5070    -0.0230 H     1 <1>   0.0800 
@<TRIPOS>BOND
  1   1   2  2   
  2   2   3  am  
  3   2   4  1   
  4   3   5  1   
  5   3   6  1   
  6   4   7  ar  
  7   4   8  ar  
  8   5   9  1   
  9   5  10  1   
 10   5  31  1   
 11   6  11  1   
 12   6  32  1   
 13   6  33  1   
 14   7  12  1   
 15   7  13  ar  
 16   8  14  1   
 17   8  15  ar  
 18   9  16  ar  
 19   9  17  ar  
 20  10  18  1   
 21  10  19  1   
 22  10  34  1   
 23  11  18  1   
 24  11  35  1   
 25  11  36  1   
 26  12  20  1   
 27  13  21  ar  
 28  13  37  1   
 29  14  22  1   
 30  15  21  ar  
 31  15  38  1   
 32  16  23  ar  
 33  16  39  1   
 34  17  24  ar  
 35  17  40  1   
 36  19  25  1   
 37  19  41  1   
 38  19  42  1   
 39  20  43  1   
 40  20  44  1   
 41  20  45  1   
 42  21  46  1   
 43  22  47  1   
 44  22  48  1   
 45  22  49  1   
 46  23  26  1   
 47  23  27  ar  
 48  24  27  ar  
 49  24  50  1   
 50  25  51  1   
 51  26  28  1   
 52  27  29  1   
 53  28  52  1   
 54  28  53  1   
 55  28  54  1   
 56  29  30  1   
 57  30  55  1   
 58  30  56  1   
 59  30  57  1   
@<TRIPOS>SUBSTRUCTURE
  1 ****   3 GROUP 4 **** **** 0

# MOE 2024.06 (io_trps.svl 2023.06)
