@<TRIPOS>MOLECULE
NONAME
53 55 1 0 0 
SMALL
USER_CHARGES


@<TRIPOS>ATOM
  1 O        1.5190     0.3820    -1.5550 O.2   1 <1>  -0.5700 
  2 C        1.8920    -0.2320    -0.5780 C.2   1 <1>   0.5440 
  3 N        2.4950     0.4690     0.4490 N.am  1 <1>  -0.6600 
  4 C        1.7840    -1.6720    -0.5360 C.ar  1 <1>   0.0860 
  5 C        3.5190    -0.1490     1.3390 C.3   1 <1>   0.1400 
  6 C        2.3480     1.9460     0.5620 C.3   1 <1>   0.1400 
  7 C        2.4730    -2.4890    -1.4250 C.ar  1 <1>   0.1660 
  8 C        1.0200    -2.3290     0.4210 C.ar  1 <1>   0.1660 
  9 C        4.8610    -0.3080     0.5970 C.3   1 <1>   0.3430 
 10 C        3.6590     2.6700     0.2350 C.3   1 <1>  -0.1600 
 11 N        2.4690    -3.7980    -1.3250 N.ar  1 <1>  -0.6200 
 12 C        3.2830    -1.9400    -2.5900 C.3   1 <1>  -0.0960 
 13 N        1.0080    -3.6370     0.5340 N.ar  1 <1>  -0.6200 
 14 C        0.1370    -1.5900     1.4160 C.3   1 <1>  -0.0970 
 15 N        5.4870     0.9840     0.1390 N.4   1 <1>  -0.9590 
 16 C        4.6010     1.8810    -0.6770 C.3   1 <1>   0.3430 
 17 C        1.7320    -4.3010    -0.3490 C.ar  1 <1>   0.4700 
 18 C        6.7610     0.7170    -0.5810 C.3   1 <1>   0.4860 
 19 C        7.5510     2.0080    -0.6310 C.ar  1 <1>  -0.1440 
 20 C        8.0810     2.5390     0.5350 C.ar  1 <1>  -0.1500 
 21 C        7.7430     2.6770    -1.8320 C.ar  1 <1>  -0.1500 
 22 C        8.7800     3.7330     0.5160 C.ar  1 <1>   0.0820 
 23 C        8.4460     3.8690    -1.8590 C.ar  1 <1>  -0.1500 
 24 O        9.2460     4.1770     1.7070 O.3   1 <1>  -0.3630 
 25 C        8.9630     4.4010    -0.6910 C.ar  1 <1>  -0.1500 
 26 C       10.0440     5.3380     1.7960 C.3   1 <1>   0.0400 
 27 H        3.1810    -1.1190     1.6620 H     1 <1>   0.0800 
 28 H        3.6530     0.4510     2.2230 H     1 <1>   0.0800 
 29 H        2.0210     2.2010     1.5560 H     1 <1>   0.0800 
 30 H        1.5800     2.2850    -0.1160 H     1 <1>   0.0800 
 31 H        4.6980    -0.9480    -0.2540 H     1 <1>   0.0800 
 32 H        5.5480    -0.8170     1.2530 H     1 <1>   0.0800 
 33 H        4.1630     2.9580     1.1410 H     1 <1>   0.0800 
 34 H        3.3960     3.5840    -0.2670 H     1 <1>   0.0800 
 35 H        3.7040    -0.9770    -2.3730 H     1 <1>   0.0800 
 36 H        2.6420    -1.8490    -3.4490 H     1 <1>   0.0800 
 37 H        4.0830    -2.6150    -2.8370 H     1 <1>   0.0800 
 38 H       -0.1520    -0.6220     1.0500 H     1 <1>   0.0800 
 39 H        0.6540    -1.4760     2.3500 H     1 <1>   0.0800 
 40 H       -0.7610    -2.1550     1.5910 H     1 <1>   0.0800 
 41 H        5.7570     1.5360     0.9630 H     1 <1>   0.4500 
 42 H        5.2080     2.5910    -1.2140 H     1 <1>   0.0800 
 43 H        4.0340     1.3140    -1.3990 H     1 <1>   0.0800 
 44 H        1.7190    -5.3760    -0.2660 H     1 <1>   0.1500 
 45 H        6.5640     0.3580    -1.5790 H     1 <1>   0.0800 
 46 H        7.3400    -0.0260    -0.0560 H     1 <1>   0.0800 
 47 H        7.9720     2.0420     1.4830 H     1 <1>   0.1500 
 48 H        7.3540     2.2840    -2.7570 H     1 <1>   0.1500 
 49 H        8.5950     4.3860    -2.7920 H     1 <1>   0.1500 
 50 H        9.5020     5.3290    -0.7390 H     1 <1>   0.1500 
 51 H       10.3230     5.4750     2.8260 H     1 <1>   0.0800 
 52 H        9.4730     6.1840     1.4570 H     1 <1>   0.0800 
 53 H       10.9270     5.2020     1.1950 H     1 <1>   0.0800 
@<TRIPOS>BOND
  1   1   2  2   
  2   2   3  am  
  3   2   4  1   
  4   3   5  1   
  5   3   6  1   
  6   4   7  ar  
  7   4   8  ar  
  8   5   9  1   
  9   5  27  1   
 10   5  28  1   
 11   6  10  1   
 12   6  29  1   
 13   6  30  1   
 14   7  11  ar  
 15   7  12  1   
 16   8  13  ar  
 17   8  14  1   
 18   9  15  1   
 19   9  31  1   
 20   9  32  1   
 21  10  16  1   
 22  10  33  1   
 23  10  34  1   
 24  11  17  ar  
 25  12  35  1   
 26  12  36  1   
 27  12  37  1   
 28  13  17  ar  
 29  14  38  1   
 30  14  39  1   
 31  14  40  1   
 32  15  16  1   
 33  15  18  1   
 34  15  41  1   
 35  16  42  1   
 36  16  43  1   
 37  17  44  1   
 38  18  19  1   
 39  18  45  1   
 40  18  46  1   
 41  19  20  ar  
 42  19  21  ar  
 43  20  22  ar  
 44  20  47  1   
 45  21  23  ar  
 46  21  48  1   
 47  22  24  1   
 48  22  25  ar  
 49  23  25  ar  
 50  23  49  1   
 51  24  26  1   
 52  25  50  1   
 53  26  51  1   
 54  26  52  1   
 55  26  53  1   
@<TRIPOS>SUBSTRUCTURE
  1 ****  15 GROUP 4 **** **** 0

# MOE 2024.06 (io_trps.svl 2023.06)
