@<TRIPOS>MOLECULE
NONAME
55 58 1 0 0 
SMALL
USER_CHARGES


@<TRIPOS>ATOM
  1 O       -3.3030     1.1710    -1.5220 O.2   1 <1>  -0.5700 
  2 C       -2.6490     1.0390    -0.5150 C.2   1 <1>   0.5690 
  3 N       -2.3050    -0.1910    -0.0590 N.am  1 <1>  -0.7300 
  4 C       -2.1940     2.2640     0.2750 C.3   1 <1>  -0.0190 
  5 C       -2.6790    -1.4580    -0.7230 C.3   1 <1>   0.2200 
  6 C       -3.2800     3.3560     0.3400 C.3   1 <1>  -0.1600 
  7 C       -0.8970     2.8480    -0.3140 C.3   1 <1>  -0.1600 
  8 C       -3.9480    -1.9960    -0.0850 C.3   1 <1>  -0.0800 
  9 C       -1.6710    -2.5450    -0.3710 C.3   1 <1>   0.1200 
 10 C       -2.7950     4.5890     1.1070 C.3   1 <1>   0.1400 
 11 C       -0.4330     4.0880     0.4560 C.3   1 <1>   0.1400 
 12 C       -3.4090    -2.7700     1.1230 C.3   1 <1>   0.1200 
 13 C       -4.7280    -2.9000    -1.0600 C.3   1 <1>  -0.0170 
 14 O       -2.0550    -3.0310     0.8800 O.3   1 <1>  -0.5600 
 15 N       -1.5320     5.0920     0.4980 N.am  1 <1>  -0.6600 
 16 C       -6.0600    -3.3460    -0.4640 C.ar  1 <1>  -0.1440 
 17 C       -1.3480     6.3550    -0.0060 C.2   1 <1>   0.5690 
 18 C       -7.1760    -2.4800    -0.3760 C.ar  1 <1>   0.0000 
 19 C       -6.2080    -4.6170     0.0090 C.ar  1 <1>  -0.1500 
 20 O       -0.2860     6.7260    -0.4470 O.2   1 <1>  -0.5700 
 21 C       -2.4840     7.3510    -0.0280 C.3   1 <1>  -0.1790 
 22 C       -8.3580    -2.9910     0.2160 C.ar  1 <1>   0.3100 
 23 C       -7.1930    -1.1440    -0.8410 C.ar  1 <1>  -0.1500 
 24 C       -7.4250    -5.0230     0.5700 C.ar  1 <1>   0.1600 
 25 N       -8.4650    -4.2600     0.6830 N.ar  1 <1>  -0.6200 
 26 C       -9.4790    -2.1530     0.3270 C.ar  1 <1>  -0.1500 
 27 C       -8.3040    -0.3550    -0.7190 C.ar  1 <1>  -0.1500 
 28 C       -9.4630    -0.8620    -0.1260 C.ar  1 <1>  -0.1500 
 29 H       -1.8060    -0.3090     0.8250 H     1 <1>   0.3700 
 30 H       -1.9900     1.9480     1.2820 H     1 <1>   0.0800 
 31 H       -2.7650    -1.3080    -1.7860 H     1 <1>   0.0800 
 32 H       -4.1600     2.9620     0.8150 H     1 <1>   0.0800 
 33 H       -3.5550     3.6570    -0.6570 H     1 <1>   0.0800 
 34 H       -1.0560     3.1190    -1.3430 H     1 <1>   0.0800 
 35 H       -0.1190     2.1050    -0.2890 H     1 <1>   0.0800 
 36 H       -4.5870    -1.1930     0.2360 H     1 <1>   0.0800 
 37 H       -0.6610    -2.1780    -0.3240 H     1 <1>   0.0800 
 38 H       -1.7300    -3.3600    -1.0700 H     1 <1>   0.0800 
 39 H       -2.6050     4.3280     2.1340 H     1 <1>   0.0800 
 40 H       -3.5640     5.3400     1.0950 H     1 <1>   0.0800 
 41 H        0.4410     4.4980    -0.0220 H     1 <1>   0.0800 
 42 H       -0.1640     3.8210     1.4630 H     1 <1>   0.0800 
 43 H       -3.9190    -3.7030     1.2870 H     1 <1>   0.0800 
 44 H       -3.4680    -2.1710     2.0160 H     1 <1>   0.0800 
 45 H       -4.1370    -3.7640    -1.3080 H     1 <1>   0.0800 
 46 H       -4.9140    -2.3750    -1.9810 H     1 <1>   0.0800 
 47 H       -5.4070    -5.3320    -0.0310 H     1 <1>   0.1500 
 48 H       -3.3040     6.9550    -0.5960 H     1 <1>   0.0800 
 49 H       -2.1560     8.2630    -0.4910 H     1 <1>   0.0800 
 50 H       -2.7990     7.5670     0.9740 H     1 <1>   0.0800 
 51 H       -6.3160    -0.7310    -1.3040 H     1 <1>   0.1500 
 52 H       -7.4980    -6.0340     0.9330 H     1 <1>   0.1500 
 53 H      -10.3590    -2.5660     0.7840 H     1 <1>   0.1500 
 54 H       -8.3000     0.6610    -1.0770 H     1 <1>   0.1500 
 55 H      -10.3300    -0.2310    -0.0350 H     1 <1>   0.1500 
@<TRIPOS>BOND
  1   1   2  2   
  2   2   3  am  
  3   2   4  1   
  4   3   5  1   
  5   3  29  1   
  6   4   6  1   
  7   4   7  1   
  8   4  30  1   
  9   5   8  1   
 10   5   9  1   
 11   5  31  1   
 12   6  10  1   
 13   6  32  1   
 14   6  33  1   
 15   7  11  1   
 16   7  34  1   
 17   7  35  1   
 18   8  12  1   
 19   8  13  1   
 20   8  36  1   
 21   9  14  1   
 22   9  37  1   
 23   9  38  1   
 24  10  15  1   
 25  10  39  1   
 26  10  40  1   
 27  11  15  1   
 28  11  41  1   
 29  11  42  1   
 30  12  14  1   
 31  12  43  1   
 32  12  44  1   
 33  13  16  1   
 34  13  45  1   
 35  13  46  1   
 36  15  17  am  
 37  16  18  ar  
 38  16  19  ar  
 39  17  20  2   
 40  17  21  1   
 41  18  22  ar  
 42  18  23  ar  
 43  19  24  ar  
 44  19  47  1   
 45  21  48  1   
 46  21  49  1   
 47  21  50  1   
 48  22  25  ar  
 49  22  26  ar  
 50  23  27  ar  
 51  23  51  1   
 52  24  25  ar  
 53  24  52  1   
 54  26  28  ar  
 55  26  53  1   
 56  27  28  ar  
 57  27  54  1   
 58  28  55  1   
@<TRIPOS>SUBSTRUCTURE
  1 ****   2 GROUP 4 **** **** 0

# MOE 2024.06 (io_trps.svl 2023.06)
