@<TRIPOS>MOLECULE
NONAME
47 49 1 0 0 
SMALL
USER_CHARGES


@<TRIPOS>ATOM
  1 O        3.7580    -1.8980     1.7950 O.2   1 <1>  -0.5700 
  2 C        2.9340    -1.7710     0.9070 C.2   1 <1>   0.5440 
  3 N        2.8800    -0.5320     0.3210 N.am  1 <1>  -0.6600 
  4 C        2.1640    -2.9030     0.4400 C.ar  1 <1>   0.0860 
  5 C        2.9640     0.6950     1.1930 C.3   1 <1>   0.2200 
  6 C        3.0710    -0.4030    -1.1490 C.3   1 <1>   0.1400 
  7 C        0.8290    -2.7950     0.0140 C.ar  1 <1>   0.3920 
  8 C        2.7390    -4.1680     0.3990 C.ar  1 <1>  -0.1500 
  9 C        2.2410     1.9090     0.5880 C.3   1 <1>   0.1200 
 10 C        4.4350     1.0470     1.5210 C.3   1 <1>   0.3430 
 11 C        3.9930     0.7660    -1.5450 C.3   1 <1>  -0.0800 
 12 O        0.2280    -1.5880     0.0960 O.3   1 <1>  -0.3630 
 13 N        0.0950    -3.7970    -0.4610 N.ar  1 <1>  -0.6200 
 14 C        1.9840    -5.2130    -0.0770 C.ar  1 <1>  -0.1500 
 15 O        3.0990     2.6160    -0.2610 O.3   1 <1>  -0.5600 
 16 N        5.3930     0.3500     0.5990 N.4   1 <1>  -0.9590 
 17 C        3.2400     2.1080    -1.5440 C.3   1 <1>   0.1200 
 18 C        5.3580     0.8490    -0.8180 C.3   1 <1>   0.3430 
 19 C       -1.1350    -1.4010    -0.2420 C.3   1 <1>   0.0400 
 20 C        0.6840    -4.9840    -0.4960 C.ar  1 <1>   0.3930 
 21 C        6.7720     0.3380     1.1620 C.3   1 <1>   0.2630 
 22 O       -0.0030    -6.0420    -0.9620 O.3   1 <1>  -0.3630 
 23 C       -1.3430    -5.9180    -1.3970 C.3   1 <1>   0.0400 
 24 H        2.4630     0.4690     2.1200 H     1 <1>   0.0800 
 25 H        3.4930    -1.3200    -1.5260 H     1 <1>   0.0800 
 26 H        2.1060    -0.2830    -1.6140 H     1 <1>   0.0800 
 27 H        3.7500    -4.3240     0.7360 H     1 <1>   0.1500 
 28 H        1.9690     2.5860     1.3780 H     1 <1>   0.0800 
 29 H        1.3440     1.6230     0.0650 H     1 <1>   0.0800 
 30 H        4.6260     0.7270     2.5310 H     1 <1>   0.0800 
 31 H        4.5780     2.1140     1.4810 H     1 <1>   0.0800 
 32 H        4.2270     0.6030    -2.5820 H     1 <1>   0.0800 
 33 H        2.3820    -6.2110    -0.1300 H     1 <1>   0.1500 
 34 H        5.0200    -0.6210     0.6040 H     1 <1>   0.4500 
 35 H        2.2640     2.0180    -1.9930 H     1 <1>   0.0800 
 36 H        3.7960     2.8390    -2.1060 H     1 <1>   0.0800 
 37 H        5.6940     1.8730    -0.8400 H     1 <1>   0.0800 
 38 H        6.0650     0.2700    -1.3890 H     1 <1>   0.0800 
 39 H       -1.3880    -0.3690    -0.0810 H     1 <1>   0.0800 
 40 H       -1.7390    -2.0310     0.3880 H     1 <1>   0.0800 
 41 H       -1.2770    -1.6610    -1.2760 H     1 <1>   0.0800 
 42 H        7.1590     1.3410     1.2250 H     1 <1>   0.0800 
 43 H        7.4250    -0.2490     0.5370 H     1 <1>   0.0800 
 44 H        6.7640    -0.0950     2.1490 H     1 <1>   0.0800 
 45 H       -1.6850    -6.8850    -1.7200 H     1 <1>   0.0800 
 46 H       -1.3810    -5.2200    -2.2140 H     1 <1>   0.0800 
 47 H       -1.9440    -5.5690    -0.5760 H     1 <1>   0.0800 
@<TRIPOS>BOND
  1   1   2  2   
  2   2   3  am  
  3   2   4  1   
  4   3   5  1   
  5   3   6  1   
  6   4   7  ar  
  7   4   8  ar  
  8   5   9  1   
  9   5  10  1   
 10   5  24  1   
 11   6  11  1   
 12   6  25  1   
 13   6  26  1   
 14   7  12  1   
 15   7  13  ar  
 16   8  14  ar  
 17   8  27  1   
 18   9  15  1   
 19   9  28  1   
 20   9  29  1   
 21  10  16  1   
 22  10  30  1   
 23  10  31  1   
 24  11  17  1   
 25  11  18  1   
 26  11  32  1   
 27  12  19  1   
 28  13  20  ar  
 29  14  20  ar  
 30  14  33  1   
 31  15  17  1   
 32  16  18  1   
 33  16  21  1   
 34  16  34  1   
 35  17  35  1   
 36  17  36  1   
 37  18  37  1   
 38  18  38  1   
 39  19  39  1   
 40  19  40  1   
 41  19  41  1   
 42  20  22  1   
 43  21  42  1   
 44  21  43  1   
 45  21  44  1   
 46  22  23  1   
 47  23  45  1   
 48  23  46  1   
 49  23  47  1   
@<TRIPOS>SUBSTRUCTURE
  1 ****   3 GROUP 4 **** **** 0

# MOE 2024.06 (io_trps.svl 2023.06)
