@<TRIPOS>MOLECULE
NONAME
36 38 1 0 0 
SMALL
USER_CHARGES


@<TRIPOS>ATOM
  1 O        0.4250    -0.0160    -0.4970 O.2   1 <1>  -0.5700 
  2 C        1.5550     0.2060    -0.1220 C.2   1 <1>   0.5440 
  3 N        1.8030     1.4730     0.2870 N.am  1 <1>  -0.8000 
  4 C        2.5730    -0.8280    -0.0940 C.ar  1 <1>   0.0860 
  5 C        3.9270    -0.5360    -0.1880 C.ar  1 <1>  -0.1500 
  6 C        2.1980    -2.1830     0.0280 C.ar  1 <1>  -0.1500 
  7 C        4.8850    -1.5520    -0.1510 C.ar  1 <1>   0.0000 
  8 C        3.1230    -3.1980     0.0670 C.ar  1 <1>  -0.1500 
  9 C        4.4780    -2.8760    -0.0220 C.ar  1 <1>  -0.1520 
 10 C        6.2950    -1.5890    -0.2240 C.2   1 <1>  -0.1810 
 11 N        5.5870    -3.6800    -0.0150 N.pl3 1 <1>   0.0330 
 12 C        6.6860    -2.8780    -0.1460 C.2   1 <1>  -0.3320 
 13 C        7.2530    -0.4310    -0.3750 C.3   1 <1>   0.0210 
 14 C        8.1150    -3.3750    -0.1990 C.3   1 <1>   0.0200 
 15 C        8.6760    -0.8970    -0.0050 C.3   1 <1>   0.4230 
 16 C        9.0360    -2.2380    -0.6760 C.3   1 <1>  -0.1600 
 17 N        9.6650     0.1470    -0.3920 N.4   1 <1>  -0.9060 
 18 C       11.0040    -0.0230     0.2520 C.3   1 <1>   0.2630 
 19 H        1.0260     2.1340     0.2860 H     1 <1>   0.3700 
 20 H        2.6280     1.7410     0.8180 H     1 <1>   0.3700 
 21 H        4.2560     0.4780    -0.3020 H     1 <1>   0.1500 
 22 H        1.1470    -2.4130     0.0910 H     1 <1>   0.1500 
 23 H        2.8160    -4.2250     0.1620 H     1 <1>   0.1500 
 24 H        5.5710    -4.7030     0.0590 H     1 <1>   0.2700 
 25 H        6.9450     0.3650     0.2800 H     1 <1>   0.0800 
 26 H        7.2110    -0.0930    -1.3950 H     1 <1>   0.0800 
 27 H        8.4070    -3.7050     0.7840 H     1 <1>   0.0800 
 28 H        8.1920    -4.2120    -0.8720 H     1 <1>   0.0800 
 29 H        8.7040    -1.0380     1.0640 H     1 <1>   0.0800 
 30 H        8.9220    -2.1420    -1.7420 H     1 <1>   0.0800 
 31 H       10.0500    -2.5230    -0.4640 H     1 <1>   0.0800 
 32 H        9.7630     0.1410    -1.4150 H     1 <1>   0.4500 
 33 H        9.2870     1.0690    -0.1380 H     1 <1>   0.4500 
 34 H       11.4540    -0.9550    -0.0490 H     1 <1>   0.0800 
 35 H       10.9080    -0.0180     1.3270 H     1 <1>   0.0800 
 36 H       11.6620     0.7810    -0.0360 H     1 <1>   0.0800 
@<TRIPOS>BOND
  1   1   2  2   
  2   2   3  am  
  3   2   4  1   
  4   3  19  1   
  5   3  20  1   
  6   4   5  ar  
  7   4   6  ar  
  8   5   7  ar  
  9   5  21  1   
 10   6   8  ar  
 11   6  22  1   
 12   7   9  ar  
 13   7  10  1   
 14   8   9  ar  
 15   8  23  1   
 16   9  11  1   
 17  10  12  2   
 18  10  13  1   
 19  11  12  1   
 20  11  24  1   
 21  12  14  1   
 22  13  15  1   
 23  13  25  1   
 24  13  26  1   
 25  14  16  1   
 26  14  27  1   
 27  14  28  1   
 28  15  16  1   
 29  15  17  1   
 30  15  29  1   
 31  16  30  1   
 32  16  31  1   
 33  17  18  1   
 34  17  32  1   
 35  17  33  1   
 36  18  34  1   
 37  18  35  1   
 38  18  36  1   
@<TRIPOS>SUBSTRUCTURE
  1 ****   7 GROUP 4 **** **** 0

# MOE 2024.06 (io_trps.svl 2023.06)
