@<TRIPOS>MOLECULE
NONAME
43 44 1 0 0 
SMALL
USER_CHARGES


@<TRIPOS>ATOM
  1 O       -0.5210     0.1420    -0.2770 O.2   1 <1>  -0.5700 
  2 C       -1.5940     0.6930    -0.2010 C.2   1 <1>   0.5690 
  3 N       -2.7610    -0.0150    -0.2750 N.am  1 <1>  -0.6600 
  4 C       -1.6540     2.2060    -0.0210 C.3   1 <1>  -0.0990 
  5 C       -4.1360     0.5320    -0.1670 C.3   1 <1>   0.1400 
  6 C       -2.7940    -1.4870    -0.4410 C.3   1 <1>   0.1400 
  7 C       -0.2760     2.8910     0.0900 C.3   1 <1>  -0.1600 
  8 C       -5.0580    -0.6820    -0.2930 C.3   1 <1>   0.2000 
  9 C       -4.1920    -1.9030     0.0180 C.3   1 <1>  -0.0800 
 10 C       -0.3590     4.4000     0.3860 C.3   1 <1>  -0.0800 
 11 O       -6.1140    -0.6140     0.6020 O.3   1 <1>  -0.6800 
 12 C       -4.7220    -3.1860    -0.6450 C.3   1 <1>  -0.0170 
 13 C       -1.0310     5.1810    -0.7520 C.3   1 <1>  -0.2400 
 14 C        1.0510     4.9550     0.6190 C.3   1 <1>  -0.2400 
 15 C       -3.8680    -4.3950    -0.2990 C.ar  1 <1>   0.1670 
 16 N       -2.7790    -4.5780    -1.0290 N.ar  1 <1>  -0.6200 
 17 C       -4.2460    -5.2410     0.7420 C.ar  1 <1>   0.1600 
 18 C       -2.0990    -5.6470    -0.6500 C.ar  1 <1>   0.1600 
 19 N       -3.5680    -6.3110     1.1230 N.ar  1 <1>  -0.6200 
 20 C       -2.4810    -6.4850     0.3920 C.ar  1 <1>   0.1600 
 21 H       -2.1850     2.6090    -0.8610 H     1 <1>   0.0800 
 22 H       -2.2160     2.4150     0.8700 H     1 <1>   0.0800 
 23 H       -4.2570     1.0110     0.7890 H     1 <1>   0.0800 
 24 H       -4.3220     1.2310    -0.9630 H     1 <1>   0.0800 
 25 H       -2.6400    -1.7260    -1.4810 H     1 <1>   0.0800 
 26 H       -2.0250    -1.9630     0.1460 H     1 <1>   0.0800 
 27 H        0.2730     2.7280    -0.8220 H     1 <1>   0.0800 
 28 H        0.2740     2.4120     0.8830 H     1 <1>   0.0800 
 29 H       -5.4610    -0.7300    -1.2910 H     1 <1>   0.0800 
 30 H       -4.1430    -2.0450     1.0830 H     1 <1>   0.0800 
 31 H       -0.9280     4.5470     1.2890 H     1 <1>   0.0800 
 32 H       -5.7810    -0.5840     1.5200 H     1 <1>   0.4000 
 33 H       -4.7410    -3.0670    -1.7150 H     1 <1>   0.0800 
 34 H       -5.7330    -3.3580    -0.3230 H     1 <1>   0.0800 
 35 H       -0.5230     5.0030    -1.6830 H     1 <1>   0.0800 
 36 H       -1.0030     6.2360    -0.5450 H     1 <1>   0.0800 
 37 H       -2.0610     4.8960    -0.8580 H     1 <1>   0.0800 
 38 H        1.6570     4.8310    -0.2610 H     1 <1>   0.0800 
 39 H        1.5250     4.4420     1.4370 H     1 <1>   0.0800 
 40 H        1.0070     6.0020     0.8610 H     1 <1>   0.0800 
 41 H       -5.1480    -5.0230     1.2860 H     1 <1>   0.1500 
 42 H       -1.1960    -5.8710    -1.1880 H     1 <1>   0.1500 
 43 H       -1.8610    -7.3310     0.6260 H     1 <1>   0.1500 
@<TRIPOS>BOND
  1   1   2  2   
  2   2   3  am  
  3   2   4  1   
  4   3   5  1   
  5   3   6  1   
  6   4   7  1   
  7   4  21  1   
  8   4  22  1   
  9   5   8  1   
 10   5  23  1   
 11   5  24  1   
 12   6   9  1   
 13   6  25  1   
 14   6  26  1   
 15   7  10  1   
 16   7  27  1   
 17   7  28  1   
 18   8   9  1   
 19   8  11  1   
 20   8  29  1   
 21   9  12  1   
 22   9  30  1   
 23  10  13  1   
 24  10  14  1   
 25  10  31  1   
 26  11  32  1   
 27  12  15  1   
 28  12  33  1   
 29  12  34  1   
 30  13  35  1   
 31  13  36  1   
 32  13  37  1   
 33  14  38  1   
 34  14  39  1   
 35  14  40  1   
 36  15  16  ar  
 37  15  17  ar  
 38  16  18  ar  
 39  17  19  ar  
 40  17  41  1   
 41  18  20  ar  
 42  18  42  1   
 43  19  20  ar  
 44  20  43  1   
@<TRIPOS>SUBSTRUCTURE
  1 ****   6 GROUP 4 **** **** 0

# MOE 2024.06 (io_trps.svl 2023.06)
