@<TRIPOS>MOLECULE
NONAME
50 52 1 0 0 
SMALL
USER_CHARGES


@<TRIPOS>ATOM
  1 F       -1.2970    -0.4130    -1.5410 F     1 <1>  -0.1900 
  2 C       -1.8600     0.4150    -0.7000 C.ar  1 <1>   0.1900 
  3 C       -2.5760    -0.0810     0.3800 C.ar  1 <1>  -0.1440 
  4 C       -1.7030     1.7700    -0.9280 C.ar  1 <1>  -0.1500 
  5 C       -3.1420     0.8340     1.2580 C.ar  1 <1>  -0.1500 
  6 C       -2.7360    -1.5780     0.6060 C.3   1 <1>   0.2540 
  7 C       -2.2790     2.6660    -0.0440 C.ar  1 <1>  -0.1500 
  8 C       -2.9950     2.1970     1.0460 C.ar  1 <1>  -0.1500 
  9 N       -3.7600    -2.1550    -0.2900 N.3   1 <1>  -0.8100 
 10 C       -3.8450    -3.6320    -0.1600 C.3   1 <1>   0.3330 
 11 C       -5.0890    -1.5450    -0.0780 C.3   1 <1>   0.1100 
 12 C       -2.4990    -4.2790    -0.4940 C.ar  1 <1>  -0.1430 
 13 C       -4.9730    -4.2100    -1.0610 C.3   1 <1>   0.2000 
 14 C       -6.1570    -2.1950    -0.9720 C.3   1 <1>   0.1200 
 15 C       -1.9480    -5.2200     0.3650 C.ar  1 <1>  -0.1500 
 16 C       -1.8220    -3.9490    -1.6600 C.ar  1 <1>  -0.1500 
 17 O       -6.1910    -3.5760    -0.7610 O.3   1 <1>  -0.5600 
 18 C       -5.1940    -5.7220    -0.8810 C.3   1 <1>   0.1200 
 19 C       -0.7440    -5.8330     0.0640 C.ar  1 <1>   0.0830 
 20 C       -0.6080    -4.5430    -1.9610 C.ar  1 <1>  -0.1500 
 21 O       -4.1890    -6.4600    -1.5020 O.3   1 <1>  -0.6800 
 22 O       -0.2950    -6.7760     0.9270 O.3   1 <1>  -0.3630 
 23 C       -0.0540    -5.4740    -1.0990 C.ar  1 <1>   0.0830 
 24 C       -0.2340    -8.0960     0.4330 C.3   1 <1>   0.0400 
 25 O        1.1520    -5.9960    -1.4300 O.3   1 <1>  -0.3630 
 26 C        2.2300    -5.6480    -0.5890 C.3   1 <1>   0.0400 
 27 H       -1.1420     2.1090    -1.7790 H     1 <1>   0.1500 
 28 H       -3.7020     0.4900     2.1110 H     1 <1>   0.1500 
 29 H       -3.0010    -1.7680     1.6320 H     1 <1>   0.0800 
 30 H       -1.7820    -2.0430     0.4250 H     1 <1>   0.0800 
 31 H       -2.1690     3.7250    -0.2030 H     1 <1>   0.1500 
 32 H       -3.4390     2.8960     1.7330 H     1 <1>   0.1500 
 33 H       -4.0940    -3.8700     0.8600 H     1 <1>   0.0800 
 34 H       -5.3850    -1.6470     0.9530 H     1 <1>   0.0800 
 35 H       -5.0480    -0.4960    -0.3140 H     1 <1>   0.0800 
 36 H       -4.7530    -4.0150    -2.0960 H     1 <1>   0.0800 
 37 H       -5.9470    -2.0050    -2.0100 H     1 <1>   0.0800 
 38 H       -7.1300    -1.8020    -0.7370 H     1 <1>   0.0800 
 39 H       -2.4490    -5.4970     1.2760 H     1 <1>   0.1500 
 40 H       -2.2370    -3.2150    -2.3310 H     1 <1>   0.1500 
 41 H       -6.1250    -6.0110    -1.3350 H     1 <1>   0.0800 
 42 H       -5.2090    -5.9820     0.1620 H     1 <1>   0.0800 
 43 H       -0.0830    -4.2790    -2.8610 H     1 <1>   0.1500 
 44 H       -3.3010    -6.1140    -1.2610 H     1 <1>   0.4000 
 45 H        0.0210    -8.7490     1.2480 H     1 <1>   0.0800 
 46 H        0.5170    -8.1570    -0.3330 H     1 <1>   0.0800 
 47 H       -1.1970    -8.3630     0.0340 H     1 <1>   0.0800 
 48 H        3.1320    -6.0470    -1.0160 H     1 <1>   0.0800 
 49 H        2.0690    -6.0670     0.3880 H     1 <1>   0.0800 
 50 H        2.2910    -4.5760    -0.5300 H     1 <1>   0.0800 
@<TRIPOS>BOND
  1   1   2  1   
  2   2   3  ar  
  3   2   4  ar  
  4   3   5  ar  
  5   3   6  1   
  6   4   7  ar  
  7   4  27  1   
  8   5   8  ar  
  9   5  28  1   
 10   6   9  1   
 11   6  29  1   
 12   6  30  1   
 13   7   8  ar  
 14   7  31  1   
 15   8  32  1   
 16   9  10  1   
 17   9  11  1   
 18  10  12  1   
 19  10  13  1   
 20  10  33  1   
 21  11  14  1   
 22  11  34  1   
 23  11  35  1   
 24  12  15  ar  
 25  12  16  ar  
 26  13  17  1   
 27  13  18  1   
 28  13  36  1   
 29  14  17  1   
 30  14  37  1   
 31  14  38  1   
 32  15  19  ar  
 33  15  39  1   
 34  16  20  ar  
 35  16  40  1   
 36  18  21  1   
 37  18  41  1   
 38  18  42  1   
 39  19  22  1   
 40  19  23  ar  
 41  20  23  ar  
 42  20  43  1   
 43  21  44  1   
 44  22  24  1   
 45  23  25  1   
 46  24  45  1   
 47  24  46  1   
 48  24  47  1   
 49  25  26  1   
 50  26  48  1   
 51  26  49  1   
 52  26  50  1   
@<TRIPOS>SUBSTRUCTURE
  1 ****  12 GROUP 4 **** **** 0

# MOE 2024.06 (io_trps.svl 2023.06)
