@<TRIPOS>MOLECULE
NONAME
62 66 1 0 0 
SMALL
USER_CHARGES


@<TRIPOS>ATOM
  1 O        0.3690    -0.1740     0.9020 O.3   1 <1>  -0.5600 
  2 C        1.5790    -0.5810     0.3060 C.3   1 <1>   0.4240 
  3 C       -0.8160    -0.5480     0.2710 C.3   1 <1>   0.1200 
  4 C        1.4820    -2.0180    -0.2560 C.ar  1 <1>  -0.1440 
  5 C        1.9370     0.4250    -0.7980 C.3   1 <1>  -0.1600 
  6 C        2.6230    -0.5170     1.4290 C.3   1 <1>  -0.1600 
  7 C       -0.9540    -2.0650     0.3490 C.3   1 <1>  -0.0160 
  8 C        0.2830    -2.7230    -0.2300 C.ar  1 <1>  -0.1440 
  9 C        2.6000    -2.6340    -0.8080 C.ar  1 <1>  -0.1500 
 10 C        2.1230     1.8370    -0.2420 C.3   1 <1>   0.2090 
 11 C        2.7850     0.9020     1.9720 C.3   1 <1>   0.2090 
 12 C        0.2080    -4.0130    -0.7300 C.ar  1 <1>  -0.1500 
 13 C        2.5270    -3.9210    -1.3090 C.ar  1 <1>  -0.1500 
 14 N        3.1290     1.8230     0.8560 N.pl3 1 <1>  -0.8380 
 15 C        1.3350    -4.6220    -1.2730 C.ar  1 <1>   0.0830 
 16 C        4.4490     2.1500     0.6140 C.ar  1 <1>   0.4100 
 17 O        1.3460    -5.8800    -1.7820 O.3   1 <1>  -0.3630 
 18 N        4.9400     1.8760    -0.5890 N.ar  1 <1>  -0.6200 
 19 C        5.2110     2.7460     1.6160 C.ar  1 <1>  -0.1500 
 20 C        0.1890    -6.6860    -1.7720 C.3   1 <1>   0.0400 
 21 C        6.2020     2.1880    -0.7960 C.ar  1 <1>   0.1600 
 22 C        6.5250     3.0790     1.3890 C.ar  1 <1>  -0.1500 
 23 C        7.0310     2.7970     0.1330 C.ar  1 <1>  -0.1430 
 24 C        8.4540     3.1520    -0.2340 C.3   1 <1>   0.4860 
 25 N        8.4440     4.3900    -1.0640 N.4   1 <1>  -0.9590 
 26 C        9.8130     4.7140    -1.5970 C.3   1 <1>   0.3430 
 27 C        7.8730     5.5680    -0.3140 C.3   1 <1>   0.3430 
 28 C        9.8210     6.0530    -2.3590 C.3   1 <1>   0.1200 
 29 C        7.9790     6.8680    -1.1340 C.3   1 <1>   0.1200 
 30 O        9.2980     7.0690    -1.5540 O.3   1 <1>  -0.5600 
 31 H       -0.7960    -0.2110    -0.7500 H     1 <1>   0.0800 
 32 H       -1.6290    -0.0680     0.7860 H     1 <1>   0.0800 
 33 H        1.1840     0.4250    -1.5610 H     1 <1>   0.0800 
 34 H        2.8570     0.1300    -1.2670 H     1 <1>   0.0800 
 35 H        3.5780    -0.8450     1.0650 H     1 <1>   0.0800 
 36 H        2.3300    -1.1810     2.2200 H     1 <1>   0.0800 
 37 H       -1.8280    -2.3680    -0.1980 H     1 <1>   0.0800 
 38 H       -1.0750    -2.3610     1.3750 H     1 <1>   0.0800 
 39 H        3.5420    -2.1160    -0.8530 H     1 <1>   0.1500 
 40 H        1.1880     2.2050     0.1450 H     1 <1>   0.0800 
 41 H        2.4440     2.5010    -1.0270 H     1 <1>   0.0800 
 42 H        3.5580     0.9120     2.7200 H     1 <1>   0.0800 
 43 H        1.8680     1.2300     2.4320 H     1 <1>   0.0800 
 44 H       -0.7300    -4.5310    -0.6910 H     1 <1>   0.1500 
 45 H        3.3960    -4.3900    -1.7330 H     1 <1>   0.1500 
 46 H        4.7460     2.9440     2.5640 H     1 <1>   0.1500 
 47 H        0.4400    -7.6340    -2.2130 H     1 <1>   0.0800 
 48 H       -0.5770    -6.2030    -2.3530 H     1 <1>   0.0800 
 49 H       -0.1280    -6.8280    -0.7540 H     1 <1>   0.0800 
 50 H        6.5860     1.9430    -1.7710 H     1 <1>   0.1500 
 51 H        7.1140     3.5370     2.1660 H     1 <1>   0.1500 
 52 H        8.8940     2.3370    -0.7870 H     1 <1>   0.0800 
 53 H        9.0350     3.3080     0.6610 H     1 <1>   0.0800 
 54 H        7.8200     4.2240    -1.8630 H     1 <1>   0.4500 
 55 H       10.1510     3.9300    -2.2550 H     1 <1>   0.0800 
 56 H       10.5140     4.7890    -0.7820 H     1 <1>   0.0800 
 57 H        8.4090     5.7080     0.6100 H     1 <1>   0.0800 
 58 H        6.8380     5.3860    -0.0710 H     1 <1>   0.0800 
 59 H        9.2410     5.9930    -3.2650 H     1 <1>   0.0800 
 60 H       10.8290     6.3280    -2.6170 H     1 <1>   0.0800 
 61 H        7.6960     7.7120    -0.5290 H     1 <1>   0.0800 
 62 H        7.3380     6.8380    -1.9990 H     1 <1>   0.0800 
@<TRIPOS>BOND
  1   1   2  1   
  2   1   3  1   
  3   2   4  1   
  4   2   5  1   
  5   2   6  1   
  6   3   7  1   
  7   3  31  1   
  8   3  32  1   
  9   4   8  ar  
 10   4   9  ar  
 11   5  10  1   
 12   5  33  1   
 13   5  34  1   
 14   6  11  1   
 15   6  35  1   
 16   6  36  1   
 17   7   8  1   
 18   7  37  1   
 19   7  38  1   
 20   8  12  ar  
 21   9  13  ar  
 22   9  39  1   
 23  10  14  1   
 24  10  40  1   
 25  10  41  1   
 26  11  14  1   
 27  11  42  1   
 28  11  43  1   
 29  12  15  ar  
 30  12  44  1   
 31  13  15  ar  
 32  13  45  1   
 33  14  16  1   
 34  15  17  1   
 35  16  18  ar  
 36  16  19  ar  
 37  17  20  1   
 38  18  21  ar  
 39  19  22  ar  
 40  19  46  1   
 41  20  47  1   
 42  20  48  1   
 43  20  49  1   
 44  21  23  ar  
 45  21  50  1   
 46  22  23  ar  
 47  22  51  1   
 48  23  24  1   
 49  24  25  1   
 50  24  52  1   
 51  24  53  1   
 52  25  26  1   
 53  25  27  1   
 54  25  54  1   
 55  26  28  1   
 56  26  55  1   
 57  26  56  1   
 58  27  29  1   
 59  27  57  1   
 60  27  58  1   
 61  28  30  1   
 62  28  59  1   
 63  28  60  1   
 64  29  30  1   
 65  29  61  1   
 66  29  62  1   
@<TRIPOS>SUBSTRUCTURE
  1 ****  18 GROUP 4 **** **** 0

# MOE 2024.06 (io_trps.svl 2023.06)
