@<TRIPOS>MOLECULE
NONAME
53 55 1 0 0 
SMALL
USER_CHARGES


@<TRIPOS>ATOM
  1 O        0.2720    -1.7540     0.5480 O.2   1 <1>  -0.5700 
  2 C       -0.6630    -2.0890    -0.1360 C.2   1 <1>   0.5690 
  3 N       -1.9600    -1.7710     0.0770 N.am  1 <1>  -0.6600 
  4 C       -0.5150    -2.9600    -1.3510 C.3   1 <1>  -0.0990 
  5 C       -2.8460    -2.4150    -0.9140 C.3   1 <1>   0.1400 
  6 C       -2.4850    -0.9360     1.1790 C.3   1 <1>   0.1400 
  7 C       -1.9420    -3.4700    -1.5730 C.3   1 <1>   0.2200 
  8 C       -3.0190     0.3860     0.6230 C.3   1 <1>  -0.1600 
  9 N       -2.0930    -4.7590    -0.8550 N.am  1 <1>  -0.7300 
 10 C       -3.5330     1.2950     1.7450 C.3   1 <1>  -0.2400 
 11 C       -2.8380    -5.8150    -1.2960 C.2   1 <1>   0.5440 
 12 O       -3.4460    -5.6870    -2.3400 O.2   1 <1>  -0.5700 
 13 C       -2.9130    -7.0430    -0.5240 C.ar  1 <1>   0.0860 
 14 C       -4.0240    -7.8780    -0.6080 C.ar  1 <1>  -0.1500 
 15 C       -1.8840    -7.4410     0.3300 C.ar  1 <1>  -0.1500 
 16 C       -4.1410    -9.0510     0.1200 C.ar  1 <1>   0.1000 
 17 C       -1.9690    -8.6070     1.0700 C.ar  1 <1>  -0.1500 
 18 N       -5.3160    -9.7930    -0.0610 N.pl3 1 <1>  -0.8380 
 19 C       -3.0910    -9.4230     0.9770 C.ar  1 <1>   0.0830 
 20 C       -6.2050    -9.9200     1.1300 C.3   1 <1>   0.2090 
 21 C       -5.1500   -11.1120    -0.7360 C.3   1 <1>   0.2090 
 22 O       -3.2050   -10.5810     1.6910 O.3   1 <1>  -0.3630 
 23 C       -7.5310   -10.6000     0.7450 C.3   1 <1>   0.1200 
 24 C       -6.5220   -11.7410    -1.0390 C.3   1 <1>   0.1200 
 25 C       -2.1780   -11.0480     2.5360 C.3   1 <1>   0.0400 
 26 O       -7.3050   -11.8370     0.1210 O.3   1 <1>  -0.5600 
 27 H        0.1940    -3.7510    -1.1960 H     1 <1>   0.0800 
 28 H       -0.2030    -2.3430    -2.1730 H     1 <1>   0.0800 
 29 H       -3.1590    -1.6840    -1.6390 H     1 <1>   0.0800 
 30 H       -3.7080    -2.8630    -0.4500 H     1 <1>   0.0800 
 31 H       -1.6920    -0.7380     1.8820 H     1 <1>   0.0800 
 32 H       -3.2660    -1.4700     1.6920 H     1 <1>   0.0800 
 33 H       -2.1710    -3.5960    -2.6180 H     1 <1>   0.0800 
 34 H       -3.8220     0.1930    -0.0660 H     1 <1>   0.0800 
 35 H       -2.2260     0.8910     0.0970 H     1 <1>   0.0800 
 36 H       -1.7480    -4.7570     0.1060 H     1 <1>   0.3700 
 37 H       -4.3360     0.8190     2.2790 H     1 <1>   0.0800 
 38 H       -3.8980     2.2190     1.3310 H     1 <1>   0.0800 
 39 H       -2.7410     1.5220     2.4370 H     1 <1>   0.0800 
 40 H       -4.8320    -7.6080    -1.2640 H     1 <1>   0.1500 
 41 H       -0.9980    -6.8370     0.4130 H     1 <1>   0.1500 
 42 H       -1.1460    -8.8610     1.7100 H     1 <1>   0.1500 
 43 H       -6.4030    -8.9410     1.5300 H     1 <1>   0.0800 
 44 H       -5.7190   -10.5030     1.8920 H     1 <1>   0.0800 
 45 H       -4.5870   -11.7780    -0.1070 H     1 <1>   0.0800 
 46 H       -4.6050   -10.9750    -1.6540 H     1 <1>   0.0800 
 47 H       -8.0870    -9.9730     0.0700 H     1 <1>   0.0800 
 48 H       -8.1250   -10.7790     1.6230 H     1 <1>   0.0800 
 49 H       -6.3960   -12.7340    -1.4330 H     1 <1>   0.0800 
 50 H       -7.0510   -11.1450    -1.7620 H     1 <1>   0.0800 
 51 H       -2.4990   -11.9790     2.9660 H     1 <1>   0.0800 
 52 H       -2.0090   -10.3250     3.3140 H     1 <1>   0.0800 
 53 H       -1.2880   -11.2040     1.9510 H     1 <1>   0.0800 
@<TRIPOS>BOND
  1   1   2  2   
  2   2   3  am  
  3   2   4  1   
  4   3   5  1   
  5   3   6  1   
  6   4   7  1   
  7   4  27  1   
  8   4  28  1   
  9   5   7  1   
 10   5  29  1   
 11   5  30  1   
 12   6   8  1   
 13   6  31  1   
 14   6  32  1   
 15   7   9  1   
 16   7  33  1   
 17   8  10  1   
 18   8  34  1   
 19   8  35  1   
 20   9  11  am  
 21   9  36  1   
 22  10  37  1   
 23  10  38  1   
 24  10  39  1   
 25  11  12  2   
 26  11  13  1   
 27  13  14  ar  
 28  13  15  ar  
 29  14  16  ar  
 30  14  40  1   
 31  15  17  ar  
 32  15  41  1   
 33  16  18  1   
 34  16  19  ar  
 35  17  19  ar  
 36  17  42  1   
 37  18  20  1   
 38  18  21  1   
 39  19  22  1   
 40  20  23  1   
 41  20  43  1   
 42  20  44  1   
 43  21  24  1   
 44  21  45  1   
 45  21  46  1   
 46  22  25  1   
 47  23  26  1   
 48  23  47  1   
 49  23  48  1   
 50  24  26  1   
 51  24  49  1   
 52  24  50  1   
 53  25  51  1   
 54  25  52  1   
 55  25  53  1   
@<TRIPOS>SUBSTRUCTURE
  1 ****  13 GROUP 4 **** **** 0

# MOE 2024.06 (io_trps.svl 2023.06)
