@<TRIPOS>MOLECULE
NONAME
52 55 1 0 0 
SMALL
USER_CHARGES


@<TRIPOS>ATOM
  1 O       -0.8440    -2.1950    -0.0150 O.2   1 <1>  -0.5700 
  2 C        0.3770    -2.2510     0.0000 C.2   1 <1>   0.7670 
  3 N        1.0360    -1.7240    -1.0740 N.2   1 <1>  -0.6610 
  4 C        1.0870    -2.8370     1.0960 C.2   1 <1>  -0.1240 
  5 C        2.3130    -1.7640    -1.0640 C.2   1 <1>   0.4390 
  6 C        2.4450    -2.8610     1.0490 C.2   1 <1>  -0.0380 
  7 C        0.2670    -3.4210     2.2530 C.3   1 <1>   0.0390 
  8 N        3.0400    -2.3040    -0.0480 N.pl3 1 <1>  -0.5500 
  9 C        3.0910    -1.1940    -2.2240 C.3   1 <1>  -0.1790 
 10 C        3.4020    -3.4540     2.0730 C.3   1 <1>  -0.1020 
 11 C       -0.0180    -4.9000     2.0260 C.2   1 <1>   0.5690 
 12 O        0.8860    -5.6590     2.2850 O.2   1 <1>  -0.5700 
 13 N       -1.2180    -5.3720     1.5490 N.am  1 <1>  -0.6600 
 14 C       -1.3760    -6.8090     1.1520 C.3   1 <1>   0.1400 
 15 C       -2.4410    -4.5760     1.2000 C.3   1 <1>   0.1400 
 16 C       -1.8220    -6.9250    -0.3180 C.3   1 <1>   0.3430 
 17 C       -2.8410    -4.8000    -0.2730 C.3   1 <1>   0.2950 
 18 O       -2.9850    -6.1680    -0.5320 O.3   1 <1>  -0.5600 
 19 C       -2.0840    -8.3840    -0.6840 C.ar  1 <1>  -0.1430 
 20 C       -4.1810    -4.1340    -0.5980 C.3   1 <1>  -0.1950 
 21 C       -1.0520    -9.1570    -1.1990 C.ar  1 <1>  -0.1500 
 22 C       -3.3320    -8.9650    -0.5020 C.ar  1 <1>  -0.1500 
 23 C       -4.5520    -3.7890    -2.0060 C.3   1 <1>  -0.2000 
 24 C       -4.2430    -2.6990    -1.0200 C.3   1 <1>  -0.2000 
 25 C       -1.2630   -10.4860    -1.5230 C.ar  1 <1>  -0.1500 
 26 C       -3.5450   -10.2930    -0.8250 C.ar  1 <1>  -0.1500 
 27 C       -2.5090   -11.0560    -1.3360 C.ar  1 <1>  -0.1500 
 28 H       -0.6340    -2.8630     2.4070 H     1 <1>   0.0800 
 29 H        0.8150    -3.3290     3.1700 H     1 <1>   0.0800 
 30 H        4.0580    -2.3000    -0.1310 H     1 <1>   0.4000 
 31 H        3.7350    -0.4060    -1.8820 H     1 <1>   0.0800 
 32 H        2.4150    -0.7900    -2.9570 H     1 <1>   0.0800 
 33 H        3.6780    -1.9650    -2.6860 H     1 <1>   0.0800 
 34 H        3.9990    -2.6750     2.5110 H     1 <1>   0.0800 
 35 H        4.0520    -4.1620     1.5930 H     1 <1>   0.0800 
 36 H        2.8900    -3.9720     2.8600 H     1 <1>   0.0800 
 37 H       -0.4540    -7.3470     1.2770 H     1 <1>   0.0800 
 38 H       -2.1130    -7.2750     1.7820 H     1 <1>   0.0800 
 39 H       -3.2530    -4.8940     1.8290 H     1 <1>   0.0800 
 40 H       -2.3030    -3.5280     1.3680 H     1 <1>   0.0800 
 41 H       -1.0520    -6.5330    -0.9600 H     1 <1>   0.0800 
 42 H       -2.0770    -4.4090    -0.9240 H     1 <1>   0.0800 
 43 H       -4.9710    -4.4880     0.0410 H     1 <1>   0.1000 
 44 H       -0.0770    -8.7280    -1.3490 H     1 <1>   0.1500 
 45 H       -4.1450    -8.3780    -0.1090 H     1 <1>   0.1500 
 46 H       -3.8460    -3.9980    -2.7910 H     1 <1>   0.1000 
 47 H       -5.5710    -3.9410    -2.3180 H     1 <1>   0.1000 
 48 H       -5.0490    -2.0840    -0.6580 H     1 <1>   0.1000 
 49 H       -3.3270    -2.1440    -1.1430 H     1 <1>   0.1000 
 50 H       -0.4560   -11.0770    -1.9210 H     1 <1>   0.1500 
 51 H       -4.5160   -10.7320    -0.6810 H     1 <1>   0.1500 
 52 H       -2.6740   -12.0880    -1.5880 H     1 <1>   0.1500 
@<TRIPOS>BOND
  1   1   2  2   
  2   2   3  1   
  3   2   4  1   
  4   3   5  2   
  5   4   6  2   
  6   4   7  1   
  7   5   8  1   
  8   5   9  1   
  9   6   8  1   
 10   6  10  1   
 11   7  11  1   
 12   7  28  1   
 13   7  29  1   
 14   8  30  1   
 15   9  31  1   
 16   9  32  1   
 17   9  33  1   
 18  10  34  1   
 19  10  35  1   
 20  10  36  1   
 21  11  12  2   
 22  11  13  am  
 23  13  14  1   
 24  13  15  1   
 25  14  16  1   
 26  14  37  1   
 27  14  38  1   
 28  15  17  1   
 29  15  39  1   
 30  15  40  1   
 31  16  18  1   
 32  16  19  1   
 33  16  41  1   
 34  17  18  1   
 35  17  20  1   
 36  17  42  1   
 37  19  21  ar  
 38  19  22  ar  
 39  20  23  1   
 40  20  24  1   
 41  20  43  1   
 42  21  25  ar  
 43  21  44  1   
 44  22  26  ar  
 45  22  45  1   
 46  23  24  1   
 47  23  46  1   
 48  23  47  1   
 49  24  48  1   
 50  24  49  1   
 51  25  27  ar  
 52  25  50  1   
 53  26  27  ar  
 54  26  51  1   
 55  27  52  1   
@<TRIPOS>SUBSTRUCTURE
  1 ****  13 GROUP 4 **** **** 0

# MOE 2024.06 (io_trps.svl 2023.06)
