@<TRIPOS>MOLECULE
NONAME
56 59 1 0 0 
SMALL
USER_CHARGES


@<TRIPOS>ATOM
  1 O       -1.7690    -0.1930     0.4690 O.2   1 <1>  -0.5700 
  2 C       -1.6340    -1.0100    -0.4060 C.2   1 <1>   0.5690 
  3 N       -0.8690    -2.1340    -0.2630 N.am  1 <1>  -0.6600 
  4 C       -2.4280    -0.8240    -1.6880 C.3   1 <1>  -0.0990 
  5 C       -0.8760    -3.2240    -1.2700 C.3   1 <1>   0.1400 
  6 C        0.0920    -2.2660     0.8680 C.3   1 <1>   0.2350 
  7 C       -3.5280    -1.8920    -1.9000 C.3   1 <1>  -0.1600 
  8 C       -2.2110    -3.9810    -1.2120 C.3   1 <1>  -0.1600 
  9 C        1.5110    -1.9820     0.3660 C.3   1 <1>  -0.1950 
 10 C       -3.4480    -3.0960    -0.9300 C.3   1 <1>   0.4230 
 11 C        2.5250    -1.3570     1.2710 C.3   1 <1>  -0.2000 
 12 C        1.9690    -0.5810     0.1110 C.3   1 <1>  -0.2000 
 13 N       -4.7330    -3.8710    -1.0080 N.4   1 <1>  -0.9590 
 14 C       -5.8360    -3.1260    -0.3190 C.3   1 <1>   0.3430 
 15 C       -4.6580    -5.2660    -0.4650 C.3   1 <1>   0.3430 
 16 C       -7.1750    -3.8190    -0.5700 C.3   1 <1>  -0.1600 
 17 C       -5.9790    -6.0020    -0.6960 C.3   1 <1>  -0.1600 
 18 C       -7.1890    -5.2750    -0.0690 C.3   1 <1>   0.0000 
 19 C       -7.1360    -5.3110     1.4780 C.3   1 <1>  -0.1600 
 20 C       -8.5050    -5.9460    -0.5140 C.3   1 <1>  -0.1600 
 21 C       -7.4500    -6.7020     2.0450 C.3   1 <1>   0.1200 
 22 C       -8.7300    -7.3020     0.1660 C.3   1 <1>   0.1200 
 23 O       -8.6740    -7.1320     1.5460 O.3   1 <1>  -0.5600 
 24 H       -1.7400    -0.8280    -2.5150 H     1 <1>   0.0800 
 25 H       -2.8760     0.1540    -1.6710 H     1 <1>   0.0800 
 26 H       -0.0620    -3.9060    -1.0870 H     1 <1>   0.0800 
 27 H       -0.7210    -2.8060    -2.2500 H     1 <1>   0.0800 
 28 H        0.0380    -3.2550     1.2860 H     1 <1>   0.0800 
 29 H       -0.1570    -1.5640     1.6460 H     1 <1>   0.0800 
 30 H       -3.4810    -2.2410    -2.9160 H     1 <1>   0.0800 
 31 H       -4.4630    -1.3800    -1.7800 H     1 <1>   0.0800 
 32 H       -2.1050    -4.7010    -0.4210 H     1 <1>   0.0800 
 33 H       -2.3330    -4.5100    -2.1400 H     1 <1>   0.0800 
 34 H        1.8770    -2.7520    -0.2900 H     1 <1>   0.1000 
 35 H       -3.3500    -2.7140     0.0750 H     1 <1>   0.0800 
 36 H        3.5460    -1.6940     1.2210 H     1 <1>   0.1000 
 37 H        2.2410    -1.0520     2.2640 H     1 <1>   0.1000 
 38 H        1.2880     0.2300     0.3090 H     1 <1>   0.1000 
 39 H        2.6040    -0.3890    -0.7370 H     1 <1>   0.1000 
 40 H       -4.9850    -3.9460    -2.0000 H     1 <1>   0.4500 
 41 H       -5.9000    -2.1150    -0.6820 H     1 <1>   0.0800 
 42 H       -5.6440    -3.0860     0.7410 H     1 <1>   0.0800 
 43 H       -4.4370    -5.2350     0.5900 H     1 <1>   0.0800 
 44 H       -3.8720    -5.8150    -0.9570 H     1 <1>   0.0800 
 45 H       -7.3920    -3.7870    -1.6240 H     1 <1>   0.0800 
 46 H       -7.9500    -3.2600    -0.0750 H     1 <1>   0.0800 
 47 H       -5.8890    -6.9950    -0.2950 H     1 <1>   0.0800 
 48 H       -6.1260    -6.1110    -1.7560 H     1 <1>   0.0800 
 49 H       -7.8750    -4.6380     1.8790 H     1 <1>   0.0800 
 50 H       -6.1820    -4.9910     1.8530 H     1 <1>   0.0800 
 51 H       -8.5250    -6.0800    -1.5810 H     1 <1>   0.0800 
 52 H       -9.3400    -5.3180    -0.2570 H     1 <1>   0.0800 
 53 H       -7.5360    -6.6600     3.1180 H     1 <1>   0.0800 
 54 H       -6.7000    -7.4290     1.7880 H     1 <1>   0.0800 
 55 H       -7.9930    -8.0300    -0.1240 H     1 <1>   0.0800 
 56 H       -9.7070    -7.6850    -0.0740 H     1 <1>   0.0800 
@<TRIPOS>BOND
  1   1   2  2   
  2   2   3  am  
  3   2   4  1   
  4   3   5  1   
  5   3   6  1   
  6   4   7  1   
  7   4  24  1   
  8   4  25  1   
  9   5   8  1   
 10   5  26  1   
 11   5  27  1   
 12   6   9  1   
 13   6  28  1   
 14   6  29  1   
 15   7  10  1   
 16   7  30  1   
 17   7  31  1   
 18   8  10  1   
 19   8  32  1   
 20   8  33  1   
 21   9  11  1   
 22   9  12  1   
 23   9  34  1   
 24  10  13  1   
 25  10  35  1   
 26  11  12  1   
 27  11  36  1   
 28  11  37  1   
 29  12  38  1   
 30  12  39  1   
 31  13  14  1   
 32  13  15  1   
 33  13  40  1   
 34  14  16  1   
 35  14  41  1   
 36  14  42  1   
 37  15  17  1   
 38  15  43  1   
 39  15  44  1   
 40  16  18  1   
 41  16  45  1   
 42  16  46  1   
 43  17  18  1   
 44  17  47  1   
 45  17  48  1   
 46  18  19  1   
 47  18  20  1   
 48  19  21  1   
 49  19  49  1   
 50  19  50  1   
 51  20  22  1   
 52  20  51  1   
 53  20  52  1   
 54  21  23  1   
 55  21  53  1   
 56  21  54  1   
 57  22  23  1   
 58  22  55  1   
 59  22  56  1   
@<TRIPOS>SUBSTRUCTURE
  1 ****  10 GROUP 4 **** **** 0

# MOE 2024.06 (io_trps.svl 2023.06)
