@<TRIPOS>MOLECULE
NONAME
49 51 1 0 0 
SMALL
USER_CHARGES


@<TRIPOS>ATOM
  1 O        0.7460     0.5130     0.8870 O.2   1 <1>  -0.5700 
  2 C        0.7220    -0.6960     0.8800 C.2   1 <1>   0.5690 
  3 N       -0.1610    -1.3430     1.6770 N.am  1 <1>  -0.7300 
  4 C        1.6880    -1.4990    -0.0370 C.3   1 <1>   0.2510 
  5 C       -0.2680    -2.8180     1.7410 C.3   1 <1>   0.1400 
  6 N        1.6200    -2.9950     0.1100 N.3   1 <1>  -0.8100 
  7 C        3.1390    -1.0460     0.2070 C.3   1 <1>  -0.0990 
  8 C        0.2520    -3.4540     0.4420 C.3   1 <1>   0.1100 
  9 C        2.1290    -3.6790    -1.0910 C.3   1 <1>   0.1100 
 10 C        3.5390     0.0340    -0.7690 C.2   1 <1>   0.5690 
 11 C        2.6650    -5.0560    -0.7100 C.3   1 <1>  -0.2400 
 12 O        4.3840    -0.2080    -1.5990 O.2   1 <1>  -0.5700 
 13 N        2.9510     1.2470    -0.6810 N.am  1 <1>  -0.7300 
 14 C        3.2440     2.4070    -1.5350 C.3   1 <1>   0.3200 
 15 C        4.5150     3.0610    -1.0400 C.2   1 <1>  -0.3320 
 16 N        5.6950     2.3710    -1.0470 N.pl3 1 <1>   0.0330 
 17 C        4.7270     4.3070    -0.5500 C.2   1 <1>  -0.1500 
 18 C        6.6760     3.1920    -0.5500 C.ar  1 <1>  -0.1520 
 19 C        6.0980     4.4160    -0.2300 C.ar  1 <1>   0.0000 
 20 C        8.0390     2.9660    -0.3470 C.ar  1 <1>  -0.1500 
 21 C        6.8870     5.4390     0.3040 C.ar  1 <1>  -0.1500 
 22 C        8.8050     3.9800     0.1780 C.ar  1 <1>  -0.1500 
 23 C        8.2380     5.2190     0.5060 C.ar  1 <1>   0.0820 
 24 O        9.0930     6.1460     1.0190 O.3   1 <1>  -0.3620 
 25 C        8.6230     7.4250     1.3850 C.3   1 <1>   0.0400 
 26 H       -0.7350    -0.7810     2.3080 H     1 <1>   0.3700 
 27 H        1.4100    -1.2570    -1.0490 H     1 <1>   0.0800 
 28 H       -1.2960    -3.0970     1.8900 H     1 <1>   0.0800 
 29 H        0.3100    -3.1820     2.5740 H     1 <1>   0.0800 
 30 H        3.8230    -1.8660     0.0970 H     1 <1>   0.0800 
 31 H        3.2490    -0.6720     1.2080 H     1 <1>   0.0800 
 32 H       -0.4200    -3.2110    -0.3640 H     1 <1>   0.0800 
 33 H        0.2470    -4.5220     0.5660 H     1 <1>   0.0800 
 34 H        2.9380    -3.1170    -1.5270 H     1 <1>   0.0800 
 35 H        1.3540    -3.7670    -1.8350 H     1 <1>   0.0800 
 36 H        3.4080    -4.9600     0.0620 H     1 <1>   0.0800 
 37 H        3.1230    -5.5130    -1.5680 H     1 <1>   0.0800 
 38 H        1.8770    -5.7010    -0.3680 H     1 <1>   0.0800 
 39 H        2.2260     1.3990     0.0360 H     1 <1>   0.3700 
 40 H        2.4230     3.1020    -1.4930 H     1 <1>   0.0800 
 41 H        3.3710     2.0840    -2.5550 H     1 <1>   0.0800 
 42 H        5.7910     1.3840    -1.3270 H     1 <1>   0.2700 
 43 H        4.0140     5.0990    -0.4100 H     1 <1>   0.1500 
 44 H        8.4690     2.0130    -0.5990 H     1 <1>   0.1500 
 45 H        6.4090     6.3680     0.5390 H     1 <1>   0.1500 
 46 H        9.8570     3.8410     0.3480 H     1 <1>   0.1500 
 47 H        9.4560     7.9910     1.7610 H     1 <1>   0.0800 
 48 H        7.8780     7.3160     2.1520 H     1 <1>   0.0800 
 49 H        8.2160     7.9080     0.5150 H     1 <1>   0.0800 
@<TRIPOS>BOND
  1   1   2  2   
  2   2   3  am  
  3   2   4  1   
  4   3   5  1   
  5   3  26  1   
  6   4   6  1   
  7   4   7  1   
  8   4  27  1   
  9   5   8  1   
 10   5  28  1   
 11   5  29  1   
 12   6   8  1   
 13   6   9  1   
 14   7  10  1   
 15   7  30  1   
 16   7  31  1   
 17   8  32  1   
 18   8  33  1   
 19   9  11  1   
 20   9  34  1   
 21   9  35  1   
 22  10  12  2   
 23  10  13  am  
 24  11  36  1   
 25  11  37  1   
 26  11  38  1   
 27  13  14  1   
 28  13  39  1   
 29  14  15  1   
 30  14  40  1   
 31  14  41  1   
 32  15  16  1   
 33  15  17  2   
 34  16  18  1   
 35  16  42  1   
 36  17  19  1   
 37  17  43  1   
 38  18  19  ar  
 39  18  20  ar  
 40  19  21  ar  
 41  20  22  ar  
 42  20  44  1   
 43  21  23  ar  
 44  21  45  1   
 45  22  23  ar  
 46  22  46  1   
 47  23  24  1   
 48  24  25  1   
 49  25  47  1   
 50  25  48  1   
 51  25  49  1   
@<TRIPOS>SUBSTRUCTURE
  1 ****  13 GROUP 4 **** **** 0

# MOE 2024.06 (io_trps.svl 2023.06)
