@<TRIPOS>MOLECULE
NONAME
52 54 1 0 0 
SMALL
USER_CHARGES


@<TRIPOS>ATOM
  1 O       -1.5420     1.2290    -1.1490 O.2   1 <1>  -0.5700 
  2 C       -1.8430     0.0890    -0.9040 C.2   1 <1>   0.5690 
  3 N       -0.9600    -0.9030    -1.1350 N.am  1 <1>  -0.8000 
  4 C       -3.2250    -0.2090    -0.3300 C.3   1 <1>   0.1810 
  5 O       -3.4700    -1.6090    -0.2390 O.3   1 <1>  -0.3630 
  6 C       -4.6300    -2.0830     0.2780 C.ar  1 <1>   0.0830 
  7 C       -4.7480    -3.4600     0.3730 C.ar  1 <1>  -0.1500 
  8 C       -5.6780    -1.2730     0.7060 C.ar  1 <1>  -0.1500 
  9 C       -5.9000    -4.0380     0.8850 C.ar  1 <1>  -0.1430 
 10 C       -6.8240    -1.8460     1.2250 C.ar  1 <1>  -0.1500 
 11 C       -6.9370    -3.2230     1.3160 C.ar  1 <1>  -0.1500 
 12 C       -6.0320    -5.5450     0.9730 C.3   1 <1>   0.4860 
 13 N       -6.2200    -6.0930    -0.4000 N.4   1 <1>  -0.9590 
 14 C       -7.5280    -5.6400    -0.9790 C.3   1 <1>   0.3430 
 15 C       -6.2690    -7.5880    -0.3620 C.3   1 <1>   0.3430 
 16 C       -8.5190    -6.7650    -0.6820 C.3   1 <1>   0.2000 
 17 C       -7.6500    -8.0040    -0.8800 C.3   1 <1>  -0.0800 
 18 O       -8.8830    -6.6700     0.6670 O.3   1 <1>  -0.5600 
 19 C       -8.1700    -9.3030    -0.2350 C.3   1 <1>   0.0200 
 20 C      -10.2580    -6.6830     0.9110 C.3   1 <1>   0.0400 
 21 C       -7.1140   -10.3890    -0.3150 C.2   1 <1>  -0.0400 
 22 O       -6.4890   -10.6070    -1.4420 O.3   1 <1>  -0.0190 
 23 C       -6.6210   -11.2360     0.6000 C.2   1 <1>  -0.1500 
 24 N       -5.5930   -11.5400    -1.3250 N.2   1 <1>  -0.4100 
 25 C       -5.6560   -11.9480    -0.1080 C.2   1 <1>   0.1080 
 26 C       -4.7940   -13.0520     0.4640 C.3   1 <1>  -0.0590 
 27 H       -0.0390    -0.6920    -1.5200 H     1 <1>   0.3700 
 28 H       -1.1780    -1.8810    -0.9420 H     1 <1>   0.3700 
 29 H       -3.9710     0.2260    -0.9700 H     1 <1>   0.0800 
 30 H       -3.2930     0.2150     0.6550 H     1 <1>   0.0800 
 31 H       -3.9210    -4.0620     0.0440 H     1 <1>   0.1500 
 32 H       -5.6230    -0.2020     0.6480 H     1 <1>   0.1500 
 33 H       -7.6320    -1.2170     1.5610 H     1 <1>   0.1500 
 34 H       -7.8380    -3.6470     1.7290 H     1 <1>   0.1500 
 35 H       -6.8740    -5.8050     1.5950 H     1 <1>   0.0800 
 36 H       -5.1400    -5.9550     1.4170 H     1 <1>   0.0800 
 37 H       -5.4460    -5.7520    -0.9830 H     1 <1>   0.4500 
 38 H       -7.8630    -4.7030    -0.5660 H     1 <1>   0.0800 
 39 H       -7.4280    -5.5350    -2.0470 H     1 <1>   0.0800 
 40 H       -5.4930    -8.0240    -0.9710 H     1 <1>   0.0800 
 41 H       -6.1490    -7.9360     0.6520 H     1 <1>   0.0800 
 42 H       -9.3860    -6.7350    -1.3220 H     1 <1>   0.0800 
 43 H       -7.5520    -8.1760    -1.9380 H     1 <1>   0.0800 
 44 H       -9.0550    -9.6340    -0.7490 H     1 <1>   0.0800 
 45 H       -8.4220    -9.1500     0.8000 H     1 <1>   0.0800 
 46 H      -10.4140    -6.6250     1.9740 H     1 <1>   0.0800 
 47 H      -10.6830    -7.5980     0.5340 H     1 <1>   0.0800 
 48 H      -10.7150    -5.8310     0.4350 H     1 <1>   0.0800 
 49 H       -6.8760   -11.3690     1.6360 H     1 <1>   0.1500 
 50 H       -4.2560   -12.6920     1.3220 H     1 <1>   0.0800 
 51 H       -4.0880   -13.3870    -0.2740 H     1 <1>   0.0800 
 52 H       -5.4110   -13.8820     0.7540 H     1 <1>   0.0800 
@<TRIPOS>BOND
  1   1   2  2   
  2   2   3  am  
  3   2   4  1   
  4   3  27  1   
  5   3  28  1   
  6   4   5  1   
  7   4  29  1   
  8   4  30  1   
  9   5   6  1   
 10   6   7  ar  
 11   6   8  ar  
 12   7   9  ar  
 13   7  31  1   
 14   8  10  ar  
 15   8  32  1   
 16   9  11  ar  
 17   9  12  1   
 18  10  11  ar  
 19  10  33  1   
 20  11  34  1   
 21  12  13  1   
 22  12  35  1   
 23  12  36  1   
 24  13  14  1   
 25  13  15  1   
 26  13  37  1   
 27  14  16  1   
 28  14  38  1   
 29  14  39  1   
 30  15  17  1   
 31  15  40  1   
 32  15  41  1   
 33  16  17  1   
 34  16  18  1   
 35  16  42  1   
 36  17  19  1   
 37  17  43  1   
 38  18  20  1   
 39  19  21  1   
 40  19  44  1   
 41  19  45  1   
 42  20  46  1   
 43  20  47  1   
 44  20  48  1   
 45  21  22  1   
 46  21  23  2   
 47  22  24  1   
 48  23  25  1   
 49  23  49  1   
 50  24  25  2   
 51  25  26  1   
 52  26  50  1   
 53  26  51  1   
 54  26  52  1   
@<TRIPOS>SUBSTRUCTURE
  1 ****  13 GROUP 4 **** **** 0

# MOE 2024.06 (io_trps.svl 2023.06)
