@<TRIPOS>MOLECULE
NONAME
50 52 1 0 0 
SMALL
USER_CHARGES


@<TRIPOS>ATOM
  1 O       -1.6010    -0.2110    -2.7630 O.2   1 <1>  -0.5700 
  2 C       -1.6350     0.5100    -1.7950 C.2   1 <1>   0.5690 
  3 N       -1.8100     0.0200    -0.5470 N.am  1 <1>  -0.7300 
  4 C       -1.5020     2.0140    -1.9600 C.3   1 <1>   0.0440 
  5 C       -1.8380    -1.3980    -0.1410 C.3   1 <1>   0.2200 
  6 C       -0.3620     2.5880    -1.1170 C.ar  1 <1>  -0.1440 
  7 C       -3.2350    -1.8160     0.2920 C.3   1 <1>  -0.0800 
  8 C       -1.0860    -1.5320     1.1770 C.3   1 <1>   0.1200 
  9 C       -0.5090     2.8250     0.2500 C.ar  1 <1>   0.0820 
 10 C        0.8510     2.8670    -1.7290 C.ar  1 <1>  -0.1500 
 11 C       -3.2990    -1.3440     1.7490 C.3   1 <1>   0.1200 
 12 C       -4.3890    -1.3070    -0.5910 C.3   1 <1>  -0.0160 
 13 O       -1.9830    -1.1020     2.1580 O.3   1 <1>  -0.5600 
 14 O       -1.7020     2.5230     0.8300 O.3   1 <1>  -0.3630 
 15 C        0.5560     3.3430     0.9780 C.ar  1 <1>  -0.1500 
 16 C        1.9090     3.3800    -1.0000 C.ar  1 <1>  -0.1500 
 17 C       -5.7230    -1.8580    -0.1110 C.ar  1 <1>  -0.1430 
 18 C       -1.7990     2.3220     2.2250 C.3   1 <1>   0.0400 
 19 C        1.7630     3.6210     0.3620 C.ar  1 <1>   0.0820 
 20 C       -6.1360    -3.1350    -0.4310 C.ar  1 <1>  -0.1500 
 21 C       -6.5870    -1.1160     0.6690 C.ar  1 <1>  -0.1500 
 22 O        2.7480     4.1220     1.1500 O.3   1 <1>  -0.3630 
 23 C       -7.3560    -3.5980     0.0350 C.ar  1 <1>   0.1600 
 24 C       -7.7850    -1.6730     1.0840 C.ar  1 <1>   0.1600 
 25 C        4.0180     4.4390     0.6230 C.3   1 <1>   0.0400 
 26 N       -8.1890    -2.8980     0.7870 N.ar  1 <1>  -0.6200 
 27 H       -1.7960     0.6890     0.2330 H     1 <1>   0.3700 
 28 H       -1.3380     2.2320    -2.9990 H     1 <1>   0.0800 
 29 H       -2.4310     2.4730    -1.6800 H     1 <1>   0.0800 
 30 H       -1.4310    -2.0240    -0.9180 H     1 <1>   0.0800 
 31 H       -3.2670    -2.8920     0.3000 H     1 <1>   0.0800 
 32 H       -0.1930    -0.9320     1.2090 H     1 <1>   0.0800 
 33 H       -0.8450    -2.5620     1.3760 H     1 <1>   0.0800 
 34 H        0.9810     2.6820    -2.7810 H     1 <1>   0.1500 
 35 H       -3.7360    -2.0890     2.3910 H     1 <1>   0.0800 
 36 H       -3.8420    -0.4200     1.8410 H     1 <1>   0.0800 
 37 H       -4.2210    -1.6120    -1.6090 H     1 <1>   0.0800 
 38 H       -4.4240    -0.2310    -0.5800 H     1 <1>   0.0800 
 39 H        0.4750     3.5460     2.0270 H     1 <1>   0.1500 
 40 H        2.8330     3.5830    -1.5070 H     1 <1>   0.1500 
 41 H       -2.7790     1.9390     2.4430 H     1 <1>   0.0800 
 42 H       -1.6560     3.2620     2.7270 H     1 <1>   0.0800 
 43 H       -1.0550     1.6050     2.5300 H     1 <1>   0.0800 
 44 H       -5.5230    -3.7740    -1.0390 H     1 <1>   0.1500 
 45 H       -6.3410    -0.1110     0.9580 H     1 <1>   0.1500 
 46 H       -7.6620    -4.5960    -0.2250 H     1 <1>   0.1500 
 47 H       -8.4470    -1.0800     1.6910 H     1 <1>   0.1500 
 48 H        4.6270     4.8160     1.4240 H     1 <1>   0.0800 
 49 H        3.9030     5.1940    -0.1350 H     1 <1>   0.0800 
 50 H        4.4590     3.5460     0.2160 H     1 <1>   0.0800 
@<TRIPOS>BOND
  1   1   2  2   
  2   2   3  am  
  3   2   4  1   
  4   3   5  1   
  5   3  27  1   
  6   4   6  1   
  7   4  28  1   
  8   4  29  1   
  9   5   7  1   
 10   5   8  1   
 11   5  30  1   
 12   6   9  ar  
 13   6  10  ar  
 14   7  11  1   
 15   7  12  1   
 16   7  31  1   
 17   8  13  1   
 18   8  32  1   
 19   8  33  1   
 20   9  14  1   
 21   9  15  ar  
 22  10  16  ar  
 23  10  34  1   
 24  11  13  1   
 25  11  35  1   
 26  11  36  1   
 27  12  17  1   
 28  12  37  1   
 29  12  38  1   
 30  14  18  1   
 31  15  19  ar  
 32  15  39  1   
 33  16  19  ar  
 34  16  40  1   
 35  17  20  ar  
 36  17  21  ar  
 37  18  41  1   
 38  18  42  1   
 39  18  43  1   
 40  19  22  1   
 41  20  23  ar  
 42  20  44  1   
 43  21  24  ar  
 44  21  45  1   
 45  22  25  1   
 46  23  26  ar  
 47  23  46  1   
 48  24  26  ar  
 49  24  47  1   
 50  25  48  1   
 51  25  49  1   
 52  25  50  1   
@<TRIPOS>SUBSTRUCTURE
  1 ****   3 GROUP 4 **** **** 0

# MOE 2024.06 (io_trps.svl 2023.06)
