@<TRIPOS>MOLECULE
NONAME
54 56 1 0 0 
SMALL
USER_CHARGES


@<TRIPOS>ATOM
  1 O       -0.9680    -1.1230    -0.4110 O.3   1 <1>  -0.5600 
  2 C       -1.9910    -2.0280    -0.1090 C.3   1 <1>   0.1200 
  3 C        0.3010    -1.5440    -0.0100 C.3   1 <1>   0.1200 
  4 C       -1.7450    -3.3740    -0.8120 C.3   1 <1>   0.2090 
  5 C        0.6800    -2.8600    -0.7160 C.3   1 <1>   0.2090 
  6 N       -0.3700    -3.9170    -0.4950 N.pl3 1 <1>  -0.8380 
  7 C       -0.1870    -5.1910    -0.0540 C.ar  1 <1>   0.7710 
  8 N       -1.2430    -5.9410     0.2320 N.ar  1 <1>  -0.6200 
  9 N        1.0660    -5.6680     0.0760 N.ar  1 <1>  -0.1790 
 10 C       -1.0420    -7.1650     0.6560 C.ar  1 <1>   0.4100 
 11 C        1.3190    -6.9240     0.5150 C.ar  1 <1>   0.2180 
 12 N       -2.1640    -7.8500     0.9250 N.pl3 1 <1>  -0.8690 
 13 C        0.2490    -7.6990     0.8170 C.ar  1 <1>  -0.1500 
 14 C        2.7640    -7.3900     0.6410 C.3   1 <1>  -0.0170 
 15 C       -2.3630    -9.2460     1.3590 C.3   1 <1>   0.2090 
 16 C        3.4720    -7.4470    -0.7190 C.3   1 <1>  -0.2400 
 17 C       -3.6510    -9.7610     0.7180 C.3   1 <1>  -0.1600 
 18 C       -3.9190   -11.2200     1.0970 C.3   1 <1>   0.3540 
 19 N       -5.2190   -11.6580     0.5300 N.pl3 1 <1>  -0.4570 
 20 N       -6.3830   -11.3110     1.1380 N.2   1 <1>  -0.2600 
 21 C       -5.4710   -12.3910    -0.5390 C.cat 1 <1>   0.6560 
 22 C       -7.2960   -11.8480     0.4120 C.2   1 <1>   0.4850 
 23 N       -6.7700   -12.5280    -0.6360 N.pl3 1 <1>  -0.7000 
 24 C       -4.4600   -12.9790    -1.4970 C.3   1 <1>  -0.0960 
 25 C       -8.7850   -11.7610     0.6590 C.3   1 <1>  -0.0720 
 26 H       -2.9180    -1.5980    -0.4450 H     1 <1>   0.0800 
 27 H       -2.0380    -2.1580     0.9580 H     1 <1>   0.0800 
 28 H        0.3020    -1.6640     1.0590 H     1 <1>   0.0800 
 29 H        0.9970    -0.7660    -0.2710 H     1 <1>   0.0800 
 30 H       -1.8310    -3.2270    -1.8750 H     1 <1>   0.0800 
 31 H       -2.5270    -4.0540    -0.5210 H     1 <1>   0.0800 
 32 H        1.6400    -3.1710    -0.3510 H     1 <1>   0.0800 
 33 H        0.7710    -2.6650    -1.7720 H     1 <1>   0.0800 
 34 H        1.8090    -5.0430    -0.2010 H     1 <1>   0.4570 
 35 H       -3.0270    -7.3000     0.8470 H     1 <1>   0.4000 
 36 H        0.3610    -8.7030     1.1770 H     1 <1>   0.1500 
 37 H        2.7860    -8.3730     1.0810 H     1 <1>   0.0800 
 38 H        3.3020    -6.7330     1.3040 H     1 <1>   0.0800 
 39 H       -2.4420    -9.2730     2.4340 H     1 <1>   0.0800 
 40 H       -1.5280    -9.8520     1.0530 H     1 <1>   0.0800 
 41 H        2.9460    -8.1030    -1.3910 H     1 <1>   0.0800 
 42 H        4.4700    -7.8320    -0.5930 H     1 <1>   0.0800 
 43 H        3.5460    -6.4740    -1.1700 H     1 <1>   0.0800 
 44 H       -3.5700    -9.6800    -0.3510 H     1 <1>   0.0800 
 45 H       -4.4730    -9.1560     1.0590 H     1 <1>   0.0800 
 46 H       -3.9600   -11.3190     2.1690 H     1 <1>   0.0800 
 47 H       -3.1280   -11.8520     0.7300 H     1 <1>   0.0800 
 48 H       -7.3000   -13.0350    -1.3440 H     1 <1>   0.4500 
 49 H       -3.8080   -12.2070    -1.8610 H     1 <1>   0.0800 
 50 H       -4.9570   -13.4310    -2.3350 H     1 <1>   0.0800 
 51 H       -3.8760   -13.7300    -0.9960 H     1 <1>   0.0800 
 52 H       -8.9780   -11.1760     1.5400 H     1 <1>   0.0800 
 53 H       -9.1930   -12.7440     0.8020 H     1 <1>   0.0800 
 54 H       -9.2710   -11.2930    -0.1780 H     1 <1>   0.0800 
@<TRIPOS>BOND
  1   1   2  1   
  2   1   3  1   
  3   2   4  1   
  4   2  26  1   
  5   2  27  1   
  6   3   5  1   
  7   3  28  1   
  8   3  29  1   
  9   4   6  1   
 10   4  30  1   
 11   4  31  1   
 12   5   6  1   
 13   5  32  1   
 14   5  33  1   
 15   6   7  1   
 16   7   8  ar  
 17   7   9  ar  
 18   8  10  ar  
 19   9  11  ar  
 20   9  34  1   
 21  10  12  1   
 22  10  13  ar  
 23  11  13  ar  
 24  11  14  1   
 25  12  15  1   
 26  12  35  1   
 27  13  36  1   
 28  14  16  1   
 29  14  37  1   
 30  14  38  1   
 31  15  17  1   
 32  15  39  1   
 33  15  40  1   
 34  16  41  1   
 35  16  42  1   
 36  16  43  1   
 37  17  18  1   
 38  17  44  1   
 39  17  45  1   
 40  18  19  1   
 41  18  46  1   
 42  18  47  1   
 43  19  20  1   
 44  19  21  ar  
 45  20  22  2   
 46  21  23  ar  
 47  21  24  1   
 48  22  23  1   
 49  22  25  1   
 50  23  48  1   
 51  24  49  1   
 52  24  50  1   
 53  24  51  1   
 54  25  52  1   
 55  25  53  1   
 56  25  54  1   
@<TRIPOS>SUBSTRUCTURE
  1 ****  12 GROUP 4 **** **** 0

# MOE 2024.06 (io_trps.svl 2023.06)
