@<TRIPOS>MOLECULE
NONAME
35 37 1 0 0 
SMALL
USER_CHARGES


@<TRIPOS>ATOM
  1 F        0.8550    -0.5310     0.0050 F     1 <1>  -0.3400 
  2 C        0.5100    -1.3390     0.9990 C.3   1 <1>   0.8800 
  3 F        1.4360    -1.1800     1.9340 F     1 <1>  -0.3400 
  4 O        0.5760    -2.6700     0.5440 O.3   1 <1>  -0.3630 
  5 C       -0.4760    -3.2200    -0.1110 C.ar  1 <1>   0.0830 
  6 C       -0.5690    -4.6000    -0.0950 C.ar  1 <1>  -0.1500 
  7 C       -1.4420    -2.4730    -0.7810 C.ar  1 <1>  -0.1500 
  8 C       -1.6200    -5.2700    -0.7170 C.ar  1 <1>   0.0860 
  9 C       -2.4900    -3.1190    -1.4130 C.ar  1 <1>  -0.1500 
 10 C       -1.7040    -6.7170    -0.6770 C.2   1 <1>   0.5440 
 11 C       -2.5740    -4.4990    -1.3800 C.ar  1 <1>  -0.1500 
 12 O       -0.7930    -7.3790    -1.1390 O.2   1 <1>  -0.5700 
 13 N       -2.7850    -7.3500    -0.1230 N.am  1 <1>  -0.6600 
 14 C       -3.8540    -6.6950     0.6840 C.3   1 <1>   0.2350 
 15 C       -2.9010    -8.8300    -0.0040 C.3   1 <1>   0.2350 
 16 C       -4.9220    -7.7560     0.8800 C.3   1 <1>  -0.2420 
 17 C       -4.3230    -9.0800     0.4680 C.3   1 <1>  -0.2420 
 18 C       -5.8810    -7.3520     2.0080 C.2   1 <1>   0.9470 
 19 C       -5.4850    -8.5090    -0.3010 C.3   1 <1>  -0.2000 
 20 C       -4.4490   -10.4720     1.0890 C.2   1 <1>   0.9470 
 21 O       -7.1060    -7.4350     1.8410 O.co2 1 <1>  -0.9000 
 22 O       -5.4140    -6.7790     3.0040 O.co2 1 <1>  -0.9000 
 23 O       -3.7350   -10.7670     2.0570 O.co2 1 <1>  -0.9000 
 24 O       -5.1390   -11.3290     0.5180 O.co2 1 <1>  -0.9000 
 25 H       -0.4560    -1.0700     1.3880 H     1 <1>   0.0800 
 26 H        0.1840    -5.1780     0.4110 H     1 <1>   0.1500 
 27 H       -1.3950    -1.4020    -0.8360 H     1 <1>   0.1500 
 28 H       -3.2390    -2.5480    -1.9340 H     1 <1>   0.1500 
 29 H       -3.3890    -5.0010    -1.8750 H     1 <1>   0.1500 
 30 H       -3.4440    -6.3970     1.6340 H     1 <1>   0.0800 
 31 H       -4.2700    -5.8410     0.1840 H     1 <1>   0.0800 
 32 H       -2.7170    -9.3100    -0.9490 H     1 <1>   0.0800 
 33 H       -2.1960    -9.1860     0.7280 H     1 <1>   0.0800 
 34 H       -5.3270    -8.1360    -1.2960 H     1 <1>   0.1000 
 35 H       -6.4400    -8.9930    -0.1870 H     1 <1>   0.1000 
@<TRIPOS>BOND
  1   1   2  1   
  2   2   3  1   
  3   2   4  1   
  4   2  25  1   
  5   4   5  1   
  6   5   6  ar  
  7   5   7  ar  
  8   6   8  ar  
  9   6  26  1   
 10   7   9  ar  
 11   7  27  1   
 12   8  10  1   
 13   8  11  ar  
 14   9  11  ar  
 15   9  28  1   
 16  10  12  2   
 17  10  13  am  
 18  11  29  1   
 19  13  14  1   
 20  13  15  1   
 21  14  16  1   
 22  14  30  1   
 23  14  31  1   
 24  15  17  1   
 25  15  32  1   
 26  15  33  1   
 27  16  17  1   
 28  16  18  1   
 29  16  19  1   
 30  17  19  1   
 31  17  20  1   
 32  18  21  ar  
 33  18  22  ar  
 34  19  34  1   
 35  19  35  1   
 36  20  23  ar  
 37  20  24  ar  
@<TRIPOS>SUBSTRUCTURE
  1 ****  14 GROUP 4 **** **** 0

# MOE 2024.06 (io_trps.svl 2023.06)
