@<TRIPOS>MOLECULE
NONAME
50 52 1 0 0 
SMALL
USER_CHARGES


@<TRIPOS>ATOM
  1 O       -2.2650     0.5340     2.8080 O.2   1 <1>  -0.5700 
  2 C       -2.2660     1.1550     1.7710 C.2   1 <1>   0.5690 
  3 N       -2.3280     0.5130     0.5630 N.am  1 <1>  -0.6600 
  4 C       -2.2130     2.6760     1.8530 C.3   1 <1>   0.0440 
  5 C       -2.2930     1.1400    -0.7840 C.3   1 <1>   0.1400 
  6 C       -2.2890    -0.9660     0.4370 C.3   1 <1>   0.1400 
  7 C       -1.0360     3.2850     1.0950 C.ar  1 <1>  -0.1440 
  8 C       -2.7470     0.0290    -1.7270 C.3   1 <1>   0.2000 
  9 C       -2.1930    -1.2380    -1.0690 C.3   1 <1>  -0.0800 
 10 C       -1.2380     4.3180     0.1910 C.ar  1 <1>  -0.1500 
 11 C        0.2480     2.8020     1.2980 C.ar  1 <1>  -0.1500 
 12 O       -4.1350    -0.0060    -1.7060 O.3   1 <1>  -0.6800 
 13 C       -2.8520    -2.5590    -1.5060 C.3   1 <1>   0.0210 
 14 C       -0.1700     4.8490    -0.5090 C.ar  1 <1>  -0.1500 
 15 C        1.3190     3.3320     0.5990 C.ar  1 <1>  -0.1500 
 16 C       -2.2290    -3.7370    -0.7840 C.2   1 <1>   0.1080 
 17 C        1.1120     4.3610    -0.3160 C.ar  1 <1>   0.0830 
 18 N       -0.9780    -4.0580    -0.9080 N.2   1 <1>  -0.7070 
 19 C       -2.9050    -4.5850     0.0860 C.2   1 <1>  -0.1500 
 20 O        2.0990     4.9320    -1.0480 O.3   1 <1>  -0.3630 
 21 N       -0.8220    -5.1330    -0.1120 N.pl3 1 <1>   0.3000 
 22 C       -1.9760    -5.4710     0.5020 C.2   1 <1>  -0.3320 
 23 C        3.4410     4.5270    -0.9110 C.3   1 <1>   0.1200 
 24 C       -2.1200    -6.6360     1.4630 C.3   1 <1>  -0.0600 
 25 C        4.2870     5.3640    -1.8630 C.3   1 <1>  -0.2400 
 26 H       -3.1410     3.0630     1.4790 H     1 <1>   0.0800 
 27 H       -2.1380     2.9610     2.8860 H     1 <1>   0.0800 
 28 H       -2.9320     2.0040    -0.8490 H     1 <1>   0.0800 
 29 H       -1.2800     1.4210    -1.0140 H     1 <1>   0.0800 
 30 H       -1.4410    -1.3740     0.9620 H     1 <1>   0.0800 
 31 H       -3.1930    -1.3780     0.8500 H     1 <1>   0.0800 
 32 H       -2.4180     0.1680    -2.7420 H     1 <1>   0.0800 
 33 H       -1.1460    -1.2980    -1.3110 H     1 <1>   0.0800 
 34 H       -2.2240     4.7150     0.0250 H     1 <1>   0.1500 
 35 H        0.4190     2.0040     2.0020 H     1 <1>   0.1500 
 36 H       -4.4270    -0.0010    -0.7720 H     1 <1>   0.4000 
 37 H       -2.7190    -2.6940    -2.5640 H     1 <1>   0.0800 
 38 H       -3.9080    -2.5420    -1.3040 H     1 <1>   0.0800 
 39 H       -0.3220     5.6490    -1.2120 H     1 <1>   0.1500 
 40 H        2.2980     2.9320     0.7790 H     1 <1>   0.1500 
 41 H       -3.9450    -4.5250     0.3520 H     1 <1>   0.1500 
 42 H        0.0810    -5.6100    -0.0110 H     1 <1>   0.2700 
 43 H        3.7430     4.6890     0.1100 H     1 <1>   0.0800 
 44 H        3.5080     3.4820    -1.1600 H     1 <1>   0.0800 
 45 H       -3.1330    -6.6980     1.8190 H     1 <1>   0.0800 
 46 H       -1.4680    -6.5040     2.3090 H     1 <1>   0.0800 
 47 H       -1.8740    -7.5590     0.9690 H     1 <1>   0.0800 
 48 H        4.1990     6.4070    -1.6160 H     1 <1>   0.0800 
 49 H        3.9660     5.2080    -2.8780 H     1 <1>   0.0800 
 50 H        5.3200     5.0780    -1.7820 H     1 <1>   0.0800 
@<TRIPOS>BOND
  1   1   2  2   
  2   2   3  am  
  3   2   4  1   
  4   3   5  1   
  5   3   6  1   
  6   4   7  1   
  7   4  26  1   
  8   4  27  1   
  9   5   8  1   
 10   5  28  1   
 11   5  29  1   
 12   6   9  1   
 13   6  30  1   
 14   6  31  1   
 15   7  10  ar  
 16   7  11  ar  
 17   8   9  1   
 18   8  12  1   
 19   8  32  1   
 20   9  13  1   
 21   9  33  1   
 22  10  14  ar  
 23  10  34  1   
 24  11  15  ar  
 25  11  35  1   
 26  12  36  1   
 27  13  16  1   
 28  13  37  1   
 29  13  38  1   
 30  14  17  ar  
 31  14  39  1   
 32  15  17  ar  
 33  15  40  1   
 34  16  18  2   
 35  16  19  1   
 36  17  20  1   
 37  18  21  1   
 38  19  22  2   
 39  19  41  1   
 40  20  23  1   
 41  21  22  1   
 42  21  42  1   
 43  22  24  1   
 44  23  25  1   
 45  23  43  1   
 46  23  44  1   
 47  24  45  1   
 48  24  46  1   
 49  24  47  1   
 50  25  48  1   
 51  25  49  1   
 52  25  50  1   
@<TRIPOS>SUBSTRUCTURE
  1 ****   3 GROUP 4 **** **** 0

# MOE 2024.06 (io_trps.svl 2023.06)
