@<TRIPOS>MOLECULE
NONAME
58 60 1 0 0 
SMALL
USER_CHARGES


@<TRIPOS>ATOM
  1 S       -0.9120    -0.9410     0.6440 S.3   1 <1>  -0.4600 
  2 C       -1.4940     0.6700     0.0780 C.3   1 <1>   0.0700 
  3 C       -2.2180    -1.4650     1.7710 C.3   1 <1>   0.0700 
  4 C       -2.8600     0.4550    -0.5750 C.3   1 <1>  -0.1600 
  5 C       -3.5220    -1.4950     0.9710 C.3   1 <1>  -0.1600 
  6 C       -3.8920    -0.1100     0.4200 C.3   1 <1>   0.4230 
  7 N       -5.2570    -0.1860    -0.1870 N.4   1 <1>  -0.9590 
  8 C       -5.3250    -0.9610    -1.4770 C.3   1 <1>   0.3430 
  9 C       -5.8610     1.1670    -0.3430 C.3   1 <1>   0.3430 
 10 C       -6.5870    -1.8500    -1.5700 C.3   1 <1>   0.1400 
 11 C       -7.3810     1.1010    -0.1950 C.3   1 <1>  -0.1600 
 12 N       -7.7730    -1.2750    -0.8520 N.am  1 <1>  -0.6600 
 13 C       -8.0880     0.1550    -1.1690 C.3   1 <1>   0.1400 
 14 C       -8.6440    -1.9850    -0.0530 C.2   1 <1>   0.5690 
 15 O       -9.3690    -1.4040     0.7180 O.2   1 <1>  -0.5700 
 16 C       -8.7560    -3.5300    -0.1100 C.3   1 <1>   0.4040 
 17 N      -10.1590    -4.0850     0.0480 N.4   1 <1>  -0.9590 
 18 C      -10.6650    -3.9370     1.4410 C.3   1 <1>   0.3430 
 19 C      -10.2710    -5.5010    -0.3930 C.3   1 <1>   0.3430 
 20 C      -12.1010    -3.4140     1.4260 C.3   1 <1>  -0.1600 
 21 C      -11.6920    -5.8190    -0.8680 C.3   1 <1>  -0.1600 
 22 C      -13.0470    -4.0330     0.3810 C.3   1 <1>  -0.1600 
 23 C      -12.8240    -5.5330     0.1350 C.3   1 <1>  -0.1600 
 24 H       -0.7660     1.0390    -0.6250 H     1 <1>   0.0800 
 25 H       -1.5380     1.3210     0.9340 H     1 <1>   0.0800 
 26 H       -2.2460    -0.7650     2.5880 H     1 <1>   0.0800 
 27 H       -1.9470    -2.4420     2.1340 H     1 <1>   0.0800 
 28 H       -2.7230    -0.2110    -1.4070 H     1 <1>   0.0800 
 29 H       -3.1900     1.4060    -0.9510 H     1 <1>   0.0800 
 30 H       -4.2980    -1.8410     1.6290 H     1 <1>   0.0800 
 31 H       -3.4040    -2.2060     0.1730 H     1 <1>   0.0800 
 32 H       -3.9360     0.5650     1.2620 H     1 <1>   0.0800 
 33 H       -5.8700    -0.6710     0.4820 H     1 <1>   0.4500 
 34 H       -4.4570    -1.5910    -1.5810 H     1 <1>   0.0800 
 35 H       -5.3140    -0.2740    -2.3080 H     1 <1>   0.0800 
 36 H       -5.5990     1.5810    -1.3040 H     1 <1>   0.0800 
 37 H       -5.4760     1.8280     0.4170 H     1 <1>   0.0800 
 38 H       -6.3430    -2.8120    -1.1560 H     1 <1>   0.0800 
 39 H       -6.8320    -1.9980    -2.6090 H     1 <1>   0.0800 
 40 H       -7.7640     2.0920    -0.3650 H     1 <1>   0.0800 
 41 H       -7.6450     0.8440     0.8170 H     1 <1>   0.0800 
 42 H       -7.8150     0.3830    -2.1860 H     1 <1>   0.0800 
 43 H       -9.1530     0.3110    -1.0860 H     1 <1>   0.0800 
 44 H       -8.1250    -3.9420     0.6570 H     1 <1>   0.0800 
 45 H       -8.3680    -3.8440    -1.0620 H     1 <1>   0.0800 
 46 H      -10.7970    -3.5190    -0.5300 H     1 <1>   0.4500 
 47 H      -10.0540    -3.2460     1.9990 H     1 <1>   0.0800 
 48 H      -10.6370    -4.8900     1.9450 H     1 <1>   0.0800 
 49 H      -10.0040    -6.1610     0.4180 H     1 <1>   0.0800 
 50 H       -9.5930    -5.6870    -1.2100 H     1 <1>   0.0800 
 51 H      -12.0820    -2.3450     1.2920 H     1 <1>   0.0800 
 52 H      -12.5120    -3.5880     2.4050 H     1 <1>   0.0800 
 53 H      -11.7220    -6.8680    -1.1090 H     1 <1>   0.0800 
 54 H      -11.8830    -5.2930    -1.7870 H     1 <1>   0.0800 
 55 H      -12.9700    -3.4990    -0.5510 H     1 <1>   0.0800 
 56 H      -14.0580    -3.8890     0.7270 H     1 <1>   0.0800 
 57 H      -12.6570    -6.0510     1.0650 H     1 <1>   0.0800 
 58 H      -13.7340    -5.9340    -0.2820 H     1 <1>   0.0800 
@<TRIPOS>BOND
  1   1   2  1   
  2   1   3  1   
  3   2   4  1   
  4   2  24  1   
  5   2  25  1   
  6   3   5  1   
  7   3  26  1   
  8   3  27  1   
  9   4   6  1   
 10   4  28  1   
 11   4  29  1   
 12   5   6  1   
 13   5  30  1   
 14   5  31  1   
 15   6   7  1   
 16   6  32  1   
 17   7   8  1   
 18   7   9  1   
 19   7  33  1   
 20   8  10  1   
 21   8  34  1   
 22   8  35  1   
 23   9  11  1   
 24   9  36  1   
 25   9  37  1   
 26  10  12  1   
 27  10  38  1   
 28  10  39  1   
 29  11  13  1   
 30  11  40  1   
 31  11  41  1   
 32  12  13  1   
 33  12  14  am  
 34  13  42  1   
 35  13  43  1   
 36  14  15  2   
 37  14  16  1   
 38  16  17  1   
 39  16  44  1   
 40  16  45  1   
 41  17  18  1   
 42  17  19  1   
 43  17  46  1   
 44  18  20  1   
 45  18  47  1   
 46  18  48  1   
 47  19  21  1   
 48  19  49  1   
 49  19  50  1   
 50  20  22  1   
 51  20  51  1   
 52  20  52  1   
 53  21  23  1   
 54  21  53  1   
 55  21  54  1   
 56  22  23  1   
 57  22  55  1   
 58  22  56  1   
 59  23  57  1   
 60  23  58  1   
@<TRIPOS>SUBSTRUCTURE
  1 ****  12 GROUP 4 **** **** 0

# MOE 2024.06 (io_trps.svl 2023.06)
