@<TRIPOS>MOLECULE
NONAME
53 55 1 0 0 
SMALL
USER_CHARGES


@<TRIPOS>ATOM
  1 O        0.9550     0.1940    -0.7720 O.2   1 <1>  -0.5700 
  2 C        1.7360    -0.4300    -0.0940 C.2   1 <1>   0.5690 
  3 N        2.7380     0.1920     0.6050 N.am  1 <1>  -0.6600 
  4 C        1.5830    -1.9400    -0.0420 C.3   1 <1>  -0.0990 
  5 C        3.7790    -0.4790     1.4430 C.3   1 <1>   0.1400 
  6 C        2.8420     1.6740     0.6190 C.3   1 <1>   0.1400 
  7 C        0.3970    -2.4360    -0.8820 C.3   1 <1>   0.0960 
  8 C        5.1840    -0.4590     0.8060 C.3   1 <1>   0.1100 
  9 C        3.7170     2.1710    -0.5340 C.3   1 <1>  -0.1600 
 10 N        0.2850    -3.9030    -0.7930 N.pl3 1 <1>   0.0480 
 11 N        5.6540     0.8880     0.3810 N.3   1 <1>  -0.8100 
 12 C        4.9480     1.3140    -0.8500 C.3   1 <1>   0.1100 
 13 C        0.7770    -4.8300    -1.6160 C.2   1 <1>   0.0370 
 14 C       -0.3140    -4.6360     0.1460 C.2   1 <1>   0.0370 
 15 C        7.1340     0.8900     0.1770 C.3   1 <1>   0.2540 
 16 N        0.5050    -6.0220    -1.2130 N.2   1 <1>  -0.3380 
 17 N       -0.1950    -5.8980    -0.0820 N.2   1 <1>  -0.3380 
 18 C        7.7450     2.3030     0.1950 C.cat 1 <1>   0.6560 
 19 N        7.0810     3.3500     0.6490 N.pl3 1 <1>  -0.7000 
 20 N        8.9580     2.6830    -0.2110 N.pl3 1 <1>  -0.7640 
 21 C        7.8730     4.4520     0.5410 C.2   1 <1>   0.1820 
 22 C        9.0470     4.0420     0.0050 C.2   1 <1>   0.1820 
 23 C       10.0440     1.8380    -0.7860 C.3   1 <1>   0.2740 
 24 C        7.3780     5.8140     0.9870 C.3   1 <1>  -0.0720 
 25 C       10.2940     4.8400    -0.3370 C.3   1 <1>  -0.0720 
 26 H        1.4310    -2.2280     0.9820 H     1 <1>   0.0800 
 27 H        2.4890    -2.3860    -0.4070 H     1 <1>   0.0800 
 28 H        3.5070    -1.4990     1.6380 H     1 <1>   0.0800 
 29 H        3.8290     0.0140     2.3990 H     1 <1>   0.0800 
 30 H        3.2670     1.9920     1.5550 H     1 <1>   0.0800 
 31 H        1.8610     2.1130     0.5440 H     1 <1>   0.0800 
 32 H        0.5300    -2.1570    -1.9130 H     1 <1>   0.0800 
 33 H       -0.5180    -1.9950    -0.5290 H     1 <1>   0.0800 
 34 H        5.2010    -1.1370    -0.0310 H     1 <1>   0.0800 
 35 H        5.8620    -0.8530     1.5440 H     1 <1>   0.0800 
 36 H        4.0260     3.1770    -0.3210 H     1 <1>   0.0800 
 37 H        3.1070     2.2180    -1.4190 H     1 <1>   0.0800 
 38 H        5.5970     1.8950    -1.4840 H     1 <1>   0.0800 
 39 H        4.6390     0.4520    -1.4200 H     1 <1>   0.0800 
 40 H        1.3320    -4.5960    -2.5060 H     1 <1>   0.1500 
 41 H       -0.8300    -4.2120     0.9870 H     1 <1>   0.1500 
 42 H        7.3740     0.4040    -0.7520 H     1 <1>   0.0800 
 43 H        7.6040     0.3400     0.9730 H     1 <1>   0.0800 
 44 H        6.1230     3.2590     1.0040 H     1 <1>   0.4500 
 45 H        9.7410     0.8070    -0.8390 H     1 <1>   0.0800 
 46 H       10.9240     1.9060    -0.1690 H     1 <1>   0.0800 
 47 H       10.2850     2.1790    -1.7780 H     1 <1>   0.0800 
 48 H        6.4990     6.0830     0.4300 H     1 <1>   0.0800 
 49 H        8.1270     6.5670     0.8300 H     1 <1>   0.0800 
 50 H        7.1320     5.7890     2.0330 H     1 <1>   0.0800 
 51 H       11.1340     4.4670     0.2200 H     1 <1>   0.0800 
 52 H       10.1620     5.8780    -0.0960 H     1 <1>   0.0800 
 53 H       10.5050     4.7600    -1.3880 H     1 <1>   0.0800 
@<TRIPOS>BOND
  1   1   2  2   
  2   2   3  am  
  3   2   4  1   
  4   3   5  1   
  5   3   6  1   
  6   4   7  1   
  7   4  26  1   
  8   4  27  1   
  9   5   8  1   
 10   5  28  1   
 11   5  29  1   
 12   6   9  1   
 13   6  30  1   
 14   6  31  1   
 15   7  10  1   
 16   7  32  1   
 17   7  33  1   
 18   8  11  1   
 19   8  34  1   
 20   8  35  1   
 21   9  12  1   
 22   9  36  1   
 23   9  37  1   
 24  10  13  1   
 25  10  14  1   
 26  11  12  1   
 27  11  15  1   
 28  12  38  1   
 29  12  39  1   
 30  13  16  2   
 31  13  40  1   
 32  14  17  2   
 33  14  41  1   
 34  15  18  1   
 35  15  42  1   
 36  15  43  1   
 37  16  17  1   
 38  18  19  ar  
 39  18  20  ar  
 40  19  21  1   
 41  19  44  1   
 42  20  22  1   
 43  20  23  1   
 44  21  22  2   
 45  21  24  1   
 46  22  25  1   
 47  23  45  1   
 48  23  46  1   
 49  23  47  1   
 50  24  48  1   
 51  24  49  1   
 52  24  50  1   
 53  25  51  1   
 54  25  52  1   
 55  25  53  1   
@<TRIPOS>SUBSTRUCTURE
  1 ****   8 GROUP 4 **** **** 0

# MOE 2024.06 (io_trps.svl 2023.06)
