@<TRIPOS>MOLECULE
NONAME
51 53 1 0 0 
SMALL
USER_CHARGES


@<TRIPOS>ATOM
  1 CL       0.0780    -0.3430     2.3420 Cl    1 <1>  -0.1770 
  2 C       -0.1530    -1.8100     1.4280 C.ar  1 <1>   0.1770 
  3 C        0.5580    -2.9420     1.7720 C.ar  1 <1>  -0.1500 
  4 C       -1.0430    -1.8180     0.3740 C.ar  1 <1>  -0.1500 
  5 C        0.3820    -4.1180     1.0560 C.ar  1 <1>  -0.1440 
  6 C       -1.2270    -2.9870    -0.3420 C.ar  1 <1>  -0.1500 
  7 C       -0.5290    -4.1410    -0.0010 C.ar  1 <1>  -0.1430 
  8 C        1.2170    -5.3280     1.4610 C.3   1 <1>  -0.0960 
  9 C       -0.7930    -5.4050    -0.8000 C.3   1 <1>   0.4870 
 10 N       -1.6710    -6.2970     0.0150 N.4   1 <1>  -0.9590 
 11 C       -1.7410    -7.6850    -0.5750 C.3   1 <1>   0.3430 
 12 C       -3.0240    -5.6810     0.1740 C.3   1 <1>   0.3430 
 13 C       -2.7060    -8.6510     0.1880 C.3   1 <1>   0.4230 
 14 C       -3.9140    -6.5910     1.0250 C.3   1 <1>  -0.1600 
 15 N       -2.7750   -10.0780    -0.3560 N.4   1 <1>  -0.9590 
 16 C       -4.1060    -8.0170     0.4400 C.3   1 <1>   0.0000 
 17 C       -3.9470   -10.8680     0.1620 C.3   1 <1>   0.3430 
 18 C       -2.7450   -10.1910    -1.8550 C.3   1 <1>   0.2630 
 19 C       -4.8500    -8.8790     1.4990 C.3   1 <1>  -0.1600 
 20 C       -4.9970    -7.9350    -0.8340 C.3   1 <1>   0.1200 
 21 C       -4.4000   -10.3550     1.5300 C.3   1 <1>  -0.1600 
 22 O       -4.3080    -7.3940    -1.9100 O.3   1 <1>  -0.6800 
 23 H        1.2470    -2.8850     2.5960 H     1 <1>   0.1500 
 24 H       -1.5760    -0.9180     0.1220 H     1 <1>   0.1500 
 25 H       -1.9190    -2.9770    -1.1670 H     1 <1>   0.1500 
 26 H        2.0460    -5.0210     2.0760 H     1 <1>   0.0800 
 27 H        1.6280    -5.8210     0.5990 H     1 <1>   0.0800 
 28 H        0.6270    -6.0230     2.0300 H     1 <1>   0.0800 
 29 H        0.1460    -5.8900    -1.0130 H     1 <1>   0.0800 
 30 H       -1.2690    -5.1600    -1.7350 H     1 <1>   0.0800 
 31 H       -1.2360    -6.3050     0.9480 H     1 <1>   0.4500 
 32 H       -2.0730    -7.6050    -1.5960 H     1 <1>   0.0800 
 33 H       -0.7540    -8.1150    -0.5790 H     1 <1>   0.0800 
 34 H       -2.9360    -4.7200     0.6580 H     1 <1>   0.0800 
 35 H       -3.4760    -5.5250    -0.7920 H     1 <1>   0.0800 
 36 H       -2.2730    -8.7400     1.1710 H     1 <1>   0.0800 
 37 H       -3.4840    -6.6410     2.0110 H     1 <1>   0.0800 
 38 H       -4.8740    -6.1160     1.1350 H     1 <1>   0.0800 
 39 H       -1.9430   -10.5750    -0.0020 H     1 <1>   0.4500 
 40 H       -4.7750   -10.7870    -0.5230 H     1 <1>   0.0800 
 41 H       -3.6830   -11.9120     0.2340 H     1 <1>   0.0800 
 42 H       -3.5930    -9.6870    -2.2900 H     1 <1>   0.0800 
 43 H       -2.7800   -11.2280    -2.1520 H     1 <1>   0.0800 
 44 H       -1.8440    -9.7580    -2.2550 H     1 <1>   0.0800 
 45 H       -4.7060    -8.4840     2.4910 H     1 <1>   0.0800 
 46 H       -5.9130    -8.8380     1.3200 H     1 <1>   0.0800 
 47 H       -5.8600    -7.3150    -0.6470 H     1 <1>   0.0800 
 48 H       -5.3520    -8.9060    -1.1310 H     1 <1>   0.0800 
 49 H       -5.2180   -10.9630     1.8800 H     1 <1>   0.0800 
 50 H       -3.5970   -10.4830     2.2350 H     1 <1>   0.0800 
 51 H       -4.9320    -7.2060    -2.6510 H     1 <1>   0.4000 
@<TRIPOS>BOND
  1   1   2  1   
  2   2   3  ar  
  3   2   4  ar  
  4   3   5  ar  
  5   3  23  1   
  6   4   6  ar  
  7   4  24  1   
  8   5   7  ar  
  9   5   8  1   
 10   6   7  ar  
 11   6  25  1   
 12   7   9  1   
 13   8  26  1   
 14   8  27  1   
 15   8  28  1   
 16   9  10  1   
 17   9  29  1   
 18   9  30  1   
 19  10  11  1   
 20  10  12  1   
 21  10  31  1   
 22  11  13  1   
 23  11  32  1   
 24  11  33  1   
 25  12  14  1   
 26  12  34  1   
 27  12  35  1   
 28  13  15  1   
 29  13  16  1   
 30  13  36  1   
 31  14  16  1   
 32  14  37  1   
 33  14  38  1   
 34  15  17  1   
 35  15  18  1   
 36  15  39  1   
 37  16  19  1   
 38  16  20  1   
 39  17  21  1   
 40  17  40  1   
 41  17  41  1   
 42  18  42  1   
 43  18  43  1   
 44  18  44  1   
 45  19  21  1   
 46  19  45  1   
 47  19  46  1   
 48  20  22  1   
 49  20  47  1   
 50  20  48  1   
 51  21  49  1   
 52  21  50  1   
 53  22  51  1   
@<TRIPOS>SUBSTRUCTURE
  1 ****  10 GROUP 4 **** **** 0

# MOE 2024.06 (io_trps.svl 2023.06)
