@<TRIPOS>MOLECULE
NONAME
52 53 1 0 0 
SMALL
USER_CHARGES


@<TRIPOS>ATOM
  1 O       -1.3290     0.4710     0.9160 O.2   1 <1>  -0.5700 
  2 C       -0.9410     1.6160     0.9340 C.2   1 <1>   0.5690 
  3 N       -1.7820     2.6690     1.1740 N.am  1 <1>  -0.6600 
  4 C        0.5400     1.8760     0.6420 C.3   1 <1>   0.1810 
  5 C       -1.2730     4.0800     1.1720 C.3   1 <1>   0.3640 
  6 C       -3.1930     2.4830     1.6200 C.3   1 <1>   0.0600 
  7 O        0.9920     3.1260     1.1030 O.3   1 <1>  -0.5600 
  8 C       -2.1770     5.0130     0.3470 C.ar  1 <1>  -0.1430 
  9 C        0.1930     4.2190     0.6880 C.3   1 <1>   0.2610 
 10 C       -2.6310     4.7520    -0.9520 C.ar  1 <1>  -0.1430 
 11 C       -2.5390     6.2110     0.9520 C.ar  1 <1>  -0.1500 
 12 C        0.8020     5.5580     1.1400 C.2   1 <1>   0.5690 
 13 C       -3.4320     5.6860    -1.5940 C.ar  1 <1>  -0.1500 
 14 C       -2.3100     3.4760    -1.7260 C.3   1 <1>  -0.0960 
 15 C       -3.3340     7.1350     0.3010 C.ar  1 <1>  -0.1500 
 16 O        0.4440     6.0340     2.1970 O.2   1 <1>  -0.5700 
 17 N        1.7100     6.2190     0.3400 N.am  1 <1>  -0.6600 
 18 C       -3.7830     6.8710    -0.9760 C.ar  1 <1>  -0.1500 
 19 C        2.0930     7.6280     0.6310 C.3   1 <1>   0.1400 
 20 C        2.3740     5.6150    -0.8490 C.3   1 <1>   0.0600 
 21 C        1.1960     8.5740    -0.1750 C.3   1 <1>  -0.1600 
 22 C        1.5810    10.0560    -0.0170 C.3   1 <1>  -0.0800 
 23 C        1.3960    10.5490     1.4260 C.3   1 <1>  -0.2400 
 24 C        0.7300    10.9140    -0.9600 C.3   1 <1>  -0.2400 
 25 H        0.7100     1.8210    -0.4180 H     1 <1>   0.0800 
 26 H        1.1310     1.1200     1.1250 H     1 <1>   0.0800 
 27 H       -1.3060     4.4010     2.1980 H     1 <1>   0.0800 
 28 H       -3.8660     2.9530     0.9240 H     1 <1>   0.0800 
 29 H       -3.3290     2.9230     2.5910 H     1 <1>   0.0800 
 30 H       -3.4390     1.4360     1.6790 H     1 <1>   0.0800 
 31 H        0.1880     4.2180    -0.3830 H     1 <1>   0.0800 
 32 H       -2.1960     6.4430     1.9470 H     1 <1>   0.1500 
 33 H       -3.7940     5.4970    -2.5890 H     1 <1>   0.1500 
 34 H       -2.5120     3.6030    -2.7740 H     1 <1>   0.0800 
 35 H       -2.9190     2.6670    -1.3650 H     1 <1>   0.0800 
 36 H       -1.2790     3.2030    -1.6260 H     1 <1>   0.0800 
 37 H       -3.6000     8.0560     0.7890 H     1 <1>   0.1500 
 38 H       -4.4040     7.5850    -1.4890 H     1 <1>   0.1500 
 39 H        1.9820     7.8230     1.6840 H     1 <1>   0.0800 
 40 H        3.1270     7.7860     0.3770 H     1 <1>   0.0800 
 41 H        3.3830     5.9790    -0.9330 H     1 <1>   0.0800 
 42 H        1.8320     5.8770    -1.7410 H     1 <1>   0.0800 
 43 H        2.4160     4.5440    -0.7570 H     1 <1>   0.0800 
 44 H        1.2670     8.3100    -1.2150 H     1 <1>   0.0800 
 45 H        0.1750     8.4330     0.1370 H     1 <1>   0.0800 
 46 H        2.6150    10.1790    -0.2930 H     1 <1>   0.0800 
 47 H        0.3840    10.3870     1.7530 H     1 <1>   0.0800 
 48 H        1.6120    11.6000     1.4910 H     1 <1>   0.0800 
 49 H        2.0600    10.0350     2.0970 H     1 <1>   0.0800 
 50 H       -0.3150    10.8200    -0.7170 H     1 <1>   0.0800 
 51 H        0.8740    10.6050    -1.9800 H     1 <1>   0.0800 
 52 H        1.0090    11.9500    -0.8790 H     1 <1>   0.0800 
@<TRIPOS>BOND
  1   1   2  2   
  2   2   3  am  
  3   2   4  1   
  4   3   5  1   
  5   3   6  1   
  6   4   7  1   
  7   4  25  1   
  8   4  26  1   
  9   5   8  1   
 10   5   9  1   
 11   5  27  1   
 12   6  28  1   
 13   6  29  1   
 14   6  30  1   
 15   7   9  1   
 16   8  10  ar  
 17   8  11  ar  
 18   9  12  1   
 19   9  31  1   
 20  10  13  ar  
 21  10  14  1   
 22  11  15  ar  
 23  11  32  1   
 24  12  16  2   
 25  12  17  am  
 26  13  18  ar  
 27  13  33  1   
 28  14  34  1   
 29  14  35  1   
 30  14  36  1   
 31  15  18  ar  
 32  15  37  1   
 33  17  19  1   
 34  17  20  1   
 35  18  38  1   
 36  19  21  1   
 37  19  39  1   
 38  19  40  1   
 39  20  41  1   
 40  20  42  1   
 41  20  43  1   
 42  21  22  1   
 43  21  44  1   
 44  21  45  1   
 45  22  23  1   
 46  22  24  1   
 47  22  46  1   
 48  23  47  1   
 49  23  48  1   
 50  23  49  1   
 51  24  50  1   
 52  24  51  1   
 53  24  52  1   
@<TRIPOS>SUBSTRUCTURE
  1 ****   9 GROUP 4 **** **** 0

# MOE 2024.06 (io_trps.svl 2023.06)
