@<TRIPOS>MOLECULE
NONAME
50 52 1 0 0 
SMALL
USER_CHARGES


@<TRIPOS>ATOM
  1 O        0.9990     1.5720    -2.4080 O.2   1 <1>  -0.5700 
  2 C        1.2780     1.6280    -1.2350 C.2   1 <1>   0.5690 
  3 N        0.6460     2.3730    -0.3010 N.am  1 <1>  -0.6600 
  4 C        2.4100     0.8520    -0.6230 C.3   1 <1>  -0.0990 
  5 C        1.2410     2.2350     1.0390 C.3   1 <1>   0.1400 
  6 C       -0.5150     3.2540    -0.5540 C.3   1 <1>   0.1400 
  7 C        2.5330     1.4430     0.7930 C.3   1 <1>  -0.1600 
  8 C       -1.7370     2.7590     0.2240 C.3   1 <1>  -0.1600 
  9 C       -2.9990     3.5650    -0.1380 C.3   1 <1>  -0.0990 
 10 C       -4.2420     3.1820     0.6610 C.2   1 <1>   0.5690 
 11 O       -4.1870     2.2210     1.3920 O.2   1 <1>  -0.5700 
 12 N       -5.3850     3.9320     0.5410 N.am  1 <1>  -0.6600 
 13 C       -6.6010     3.6080     1.3440 C.3   1 <1>   0.1400 
 14 C       -5.5530     5.0640    -0.4220 C.3   1 <1>   0.1400 
 15 C       -7.7590     3.1580     0.4240 C.3   1 <1>   0.0000 
 16 C       -7.0320     5.3090    -0.7710 C.3   1 <1>  -0.1600 
 17 C       -9.0870     3.2090     1.2040 C.3   1 <1>   0.2000 
 18 C       -7.7910     3.9800    -0.9050 C.3   1 <1>  -0.1600 
 19 C       -7.6790     1.6590     0.0920 C.3   1 <1>  -0.1600 
 20 O       -9.6460     4.4740     1.2230 O.3   1 <1>  -0.6800 
 21 C      -10.0250     2.2120     0.5220 C.3   1 <1>  -0.1600 
 22 C       -9.1140     1.2450    -0.2500 C.3   1 <1>  -0.1600 
 23 H        2.1390    -0.1870    -0.5890 H     1 <1>   0.0800 
 24 H        3.3110     0.9820    -1.1940 H     1 <1>   0.0800 
 25 H        1.4460     3.2010     1.4690 H     1 <1>   0.0800 
 26 H        0.5690     1.6830     1.6750 H     1 <1>   0.0800 
 27 H       -0.2680     4.2600    -0.2650 H     1 <1>   0.0800 
 28 H       -0.7330     3.2500    -1.6100 H     1 <1>   0.0800 
 29 H        3.3680     2.1210     0.8310 H     1 <1>   0.0800 
 30 H        2.6730     0.6800     1.5380 H     1 <1>   0.0800 
 31 H       -1.9080     1.7210    -0.0060 H     1 <1>   0.0800 
 32 H       -1.5540     2.8500     1.2800 H     1 <1>   0.0800 
 33 H       -3.2140     3.4180    -1.1810 H     1 <1>   0.0800 
 34 H       -2.8040     4.6080     0.0270 H     1 <1>   0.0800 
 35 H       -6.3900     2.8500     2.0780 H     1 <1>   0.0800 
 36 H       -6.8950     4.4930     1.8810 H     1 <1>   0.0800 
 37 H       -5.1260     5.9580    -0.0010 H     1 <1>   0.0800 
 38 H       -5.0270     4.8320    -1.3310 H     1 <1>   0.0800 
 39 H       -7.4840     5.9140    -0.0040 H     1 <1>   0.0800 
 40 H       -7.0900     5.8620    -1.6910 H     1 <1>   0.0800 
 41 H       -8.9270     2.9030     2.2250 H     1 <1>   0.0800 
 42 H       -7.3060     3.4210    -1.6870 H     1 <1>   0.0800 
 43 H       -8.7980     4.1550    -1.2360 H     1 <1>   0.0800 
 44 H       -6.9860     1.4380    -0.7010 H     1 <1>   0.0800 
 45 H       -7.3620     1.1130     0.9650 H     1 <1>   0.0800 
 46 H       -9.7590     4.7900     0.3080 H     1 <1>   0.4000 
 47 H      -10.5990     1.6850     1.2630 H     1 <1>   0.0800 
 48 H      -10.6930     2.7060    -0.1620 H     1 <1>   0.0800 
 49 H       -9.2980     0.2200     0.0240 H     1 <1>   0.0800 
 50 H       -9.2820     1.3580    -1.3070 H     1 <1>   0.0800 
@<TRIPOS>BOND
  1   1   2  2   
  2   2   3  am  
  3   2   4  1   
  4   3   5  1   
  5   3   6  1   
  6   4   7  1   
  7   4  23  1   
  8   4  24  1   
  9   5   7  1   
 10   5  25  1   
 11   5  26  1   
 12   6   8  1   
 13   6  27  1   
 14   6  28  1   
 15   7  29  1   
 16   7  30  1   
 17   8   9  1   
 18   8  31  1   
 19   8  32  1   
 20   9  10  1   
 21   9  33  1   
 22   9  34  1   
 23  10  11  2   
 24  10  12  am  
 25  12  13  1   
 26  12  14  1   
 27  13  15  1   
 28  13  35  1   
 29  13  36  1   
 30  14  16  1   
 31  14  37  1   
 32  14  38  1   
 33  15  17  1   
 34  15  18  1   
 35  15  19  1   
 36  16  18  1   
 37  16  39  1   
 38  16  40  1   
 39  17  20  1   
 40  17  21  1   
 41  17  41  1   
 42  18  42  1   
 43  18  43  1   
 44  19  22  1   
 45  19  44  1   
 46  19  45  1   
 47  20  46  1   
 48  21  22  1   
 49  21  47  1   
 50  21  48  1   
 51  22  49  1   
 52  22  50  1   
@<TRIPOS>SUBSTRUCTURE
  1 ****  10 GROUP 4 **** **** 0

# MOE 2024.06 (io_trps.svl 2023.06)
