@<TRIPOS>MOLECULE
NONAME
53 57 1 0 0 
SMALL
USER_CHARGES


@<TRIPOS>ATOM
  1 O       -1.7780    -1.0150    -0.6660 O.2   1 <1>  -0.5700 
  2 C       -2.6460    -0.2140    -0.3760 C.2   1 <1>   0.5440 
  3 N       -2.5410     1.0730    -0.8620 N.am  1 <1>  -0.6600 
  4 C       -3.7490    -0.6480     0.4480 C.ar  1 <1>   0.0860 
  5 C       -3.6830     2.0190    -1.0400 C.3   1 <1>   0.1400 
  6 C       -1.2750     1.5760    -1.4740 C.3   1 <1>   0.1400 
  7 C       -4.3870    -1.8560     0.1830 C.ar  1 <1>   0.1600 
  8 C       -4.2160     0.0820     1.5380 C.ar  1 <1>  -0.1500 
  9 C       -3.2770     3.4390    -0.6120 C.3   1 <1>   0.1200 
 10 C       -1.0020     3.0260    -1.0370 C.3   1 <1>   0.1200 
 11 N       -5.4130    -2.3590     0.8480 N.ar  1 <1>  -0.6200 
 12 C       -5.2770    -0.4280     2.2470 C.ar  1 <1>  -0.1500 
 13 O       -2.1150     3.8410    -1.2820 O.3   1 <1>  -0.5600 
 14 C       -5.8500    -1.6410     1.8780 C.ar  1 <1>   0.4100 
 15 N       -6.9200    -2.1340     2.5870 N.pl3 1 <1>  -0.8380 
 16 C       -8.2420    -1.4880     2.4300 C.3   1 <1>   0.2090 
 17 C       -6.9660    -3.5710     2.9630 C.3   1 <1>   0.2090 
 18 C       -9.0150    -2.2130     1.3300 C.3   1 <1>  -0.1600 
 19 C       -7.7600    -4.3620     1.9220 C.3   1 <1>  -0.1600 
 20 C       -9.1250    -3.7200     1.6170 C.3   1 <1>   0.1000 
 21 C       -9.8370    -4.4450     0.4820 C.2   1 <1>   0.0070 
 22 N      -10.9730    -5.0440     0.6360 N.2   1 <1>  -0.3380 
 23 N       -9.3840    -4.5430    -0.7790 N.pl3 1 <1>   0.3340 
 24 N      -11.3160    -5.5650    -0.5330 N.2   1 <1>  -0.3380 
 25 C      -10.3650    -5.2640    -1.3780 C.2   1 <1>   0.1410 
 26 C       -8.2690    -4.1150    -1.5030 C.2   1 <1>  -0.1810 
 27 C      -10.2530    -5.5850    -2.7560 C.2   1 <1>  -0.1050 
 28 C       -8.1520    -4.4170    -2.8230 C.2   1 <1>  -0.1500 
 29 C       -9.1680    -5.1710    -3.4680 C.2   1 <1>  -0.1500 
 30 H       -4.5430     1.7030    -0.4790 H     1 <1>   0.0800 
 31 H       -3.9610     2.0380    -2.0800 H     1 <1>   0.0800 
 32 H       -1.3570     1.5350    -2.5450 H     1 <1>   0.0800 
 33 H       -0.4450     0.9580    -1.1800 H     1 <1>   0.0800 
 34 H       -4.0130    -2.4390    -0.6410 H     1 <1>   0.1500 
 35 H       -3.7480     1.0100     1.8140 H     1 <1>   0.1500 
 36 H       -3.0950     3.4810     0.4480 H     1 <1>   0.0800 
 37 H       -4.0550     4.1390    -0.8590 H     1 <1>   0.0800 
 38 H       -0.1720     3.4290    -1.5890 H     1 <1>   0.0800 
 39 H       -0.7710     3.0650     0.0130 H     1 <1>   0.0800 
 40 H       -5.6760     0.0890     3.0990 H     1 <1>   0.1500 
 41 H       -8.1170    -0.4510     2.1670 H     1 <1>   0.0800 
 42 H       -8.7780    -1.5400     3.3630 H     1 <1>   0.0800 
 43 H       -7.4270    -3.6660     3.9310 H     1 <1>   0.0800 
 44 H       -5.9630    -3.9610     3.0300 H     1 <1>   0.0800 
 45 H       -8.5100    -2.0390     0.3990 H     1 <1>   0.0800 
 46 H      -10.0010    -1.7920     1.2520 H     1 <1>   0.0800 
 47 H       -7.9090    -5.3650     2.2800 H     1 <1>   0.0800 
 48 H       -7.1630    -4.4280     1.0340 H     1 <1>   0.0800 
 49 H       -9.7320    -3.8320     2.5000 H     1 <1>   0.0800 
 50 H       -7.5270    -3.5480    -0.9690 H     1 <1>   0.1500 
 51 H      -11.0490    -6.1580    -3.1970 H     1 <1>   0.1500 
 52 H       -7.3020    -4.1000    -3.4040 H     1 <1>   0.1500 
 53 H       -9.0570    -5.4000    -4.5140 H     1 <1>   0.1500 
@<TRIPOS>BOND
  1   1   2  2   
  2   2   3  am  
  3   2   4  1   
  4   3   5  1   
  5   3   6  1   
  6   4   7  ar  
  7   4   8  ar  
  8   5   9  1   
  9   5  30  1   
 10   5  31  1   
 11   6  10  1   
 12   6  32  1   
 13   6  33  1   
 14   7  11  ar  
 15   7  34  1   
 16   8  12  ar  
 17   8  35  1   
 18   9  13  1   
 19   9  36  1   
 20   9  37  1   
 21  10  13  1   
 22  10  38  1   
 23  10  39  1   
 24  11  14  ar  
 25  12  14  ar  
 26  12  40  1   
 27  14  15  1   
 28  15  16  1   
 29  15  17  1   
 30  16  18  1   
 31  16  41  1   
 32  16  42  1   
 33  17  19  1   
 34  17  43  1   
 35  17  44  1   
 36  18  20  1   
 37  18  45  1   
 38  18  46  1   
 39  19  20  1   
 40  19  47  1   
 41  19  48  1   
 42  20  21  1   
 43  20  49  1   
 44  21  22  2   
 45  21  23  1   
 46  22  24  1   
 47  23  25  1   
 48  23  26  1   
 49  24  25  2   
 50  25  27  1   
 51  26  28  2   
 52  26  50  1   
 53  27  29  2   
 54  27  51  1   
 55  28  29  1   
 56  28  52  1   
 57  29  53  1   
@<TRIPOS>SUBSTRUCTURE
  1 ****  11 GROUP 4 **** **** 0

# MOE 2024.06 (io_trps.svl 2023.06)
