@<TRIPOS>MOLECULE
NONAME
49 51 1 0 0 
SMALL
USER_CHARGES


@<TRIPOS>ATOM
  1 S        1.0190     1.2160    -0.3150 S.o2  1 <1>   1.3330 
  2 O        0.3850     1.6840    -1.5260 O.2   1 <1>  -0.6500 
  3 O        2.2040     1.8860     0.1740 O.2   1 <1>  -0.6500 
  4 N        1.4060    -0.4220    -0.5420 N.am  1 <1>  -0.8490 
  5 C       -0.1950     1.1440     1.0100 C.3   1 <1>  -0.0550 
  6 C        2.7690    -0.6080    -1.0510 C.3   1 <1>   0.1160 
  7 C        0.4550    -1.1320    -1.4060 C.3   1 <1>   0.1160 
  8 C       -0.7580     2.4860     1.5290 C.3   1 <1>  -0.0800 
  9 C       -1.3600     3.3680     0.4320 C.3   1 <1>   0.2000 
 10 C        0.3000     3.3730     2.2100 C.3   1 <1>   0.1100 
 11 O       -2.4450     4.0240     0.9820 O.3   1 <1>  -0.6800 
 12 C       -0.2820     4.4150     0.1790 C.3   1 <1>   0.1100 
 13 N        0.3040     4.6620     1.5060 N.3   1 <1>  -0.8100 
 14 C        1.6630     5.2340     1.4080 C.3   1 <1>   0.2900 
 15 C        1.6440     6.6800     0.9310 C.2   1 <1>  -0.0400 
 16 O        2.7920     7.2370     0.5850 O.3   1 <1>  -0.2800 
 17 C        0.6290     7.5640     0.7890 C.2   1 <1>  -0.1500 
 18 C        2.5230     8.4720     0.2130 C.2   1 <1>   0.1960 
 19 C        1.2060     8.7490     0.3130 C.2   1 <1>  -0.1500 
 20 S        3.9390     9.4580    -0.3150 S.3   1 <1>  -0.1120 
 21 C        3.3480    11.0670    -0.8730 C.2   1 <1>   0.2420 
 22 N        2.1180    11.4440    -0.9360 N.2   1 <1>  -0.3380 
 23 N        4.2030    12.0060    -1.2780 N.pl3 1 <1>   0.0480 
 24 N        2.1390    12.6970    -1.4040 N.2   1 <1>  -0.3380 
 25 C        3.3770    13.0060    -1.5980 C.2   1 <1>   0.0360 
 26 C        5.6750    11.9600    -1.3560 C.3   1 <1>   0.0160 
 27 H       -1.0240     0.5530     0.6730 H     1 <1>   0.0800 
 28 H        0.2420     0.6220     1.8400 H     1 <1>   0.0800 
 29 H        2.9830    -1.6550    -1.1720 H     1 <1>   0.0800 
 30 H        3.4820    -0.1980    -0.3540 H     1 <1>   0.0800 
 31 H        2.8860    -0.1090    -1.9990 H     1 <1>   0.0800 
 32 H        0.6980    -2.1810    -1.4390 H     1 <1>   0.0800 
 33 H        0.4850    -0.7340    -2.4070 H     1 <1>   0.0800 
 34 H       -0.5460    -1.0290    -1.0240 H     1 <1>   0.0800 
 35 H       -1.5170     2.2410     2.2520 H     1 <1>   0.0800 
 36 H       -1.6830     2.8440    -0.4520 H     1 <1>   0.0800 
 37 H        1.2730     2.9130     2.1780 H     1 <1>   0.0800 
 38 H        0.0440     3.5390     3.2430 H     1 <1>   0.0800 
 39 H       -2.0800     4.6700     1.6230 H     1 <1>   0.4000 
 40 H       -0.6930     5.3120    -0.2510 H     1 <1>   0.0800 
 41 H        0.4630     4.0230    -0.4910 H     1 <1>   0.0800 
 42 H        2.1310     5.2110     2.3770 H     1 <1>   0.0800 
 43 H        2.2620     4.6430     0.7360 H     1 <1>   0.0800 
 44 H       -0.4160     7.4140     0.9950 H     1 <1>   0.1500 
 45 H        0.6690     9.6530     0.0950 H     1 <1>   0.1500 
 46 H        3.7170    13.9540    -1.9740 H     1 <1>   0.1500 
 47 H        6.0490    12.8980    -1.7240 H     1 <1>   0.0800 
 48 H        5.9720    11.1700    -2.0230 H     1 <1>   0.0800 
 49 H        6.0780    11.7730    -0.3770 H     1 <1>   0.0800 
@<TRIPOS>BOND
  1   1   2  2   
  2   1   3  2   
  3   1   4  am  
  4   1   5  1   
  5   4   6  1   
  6   4   7  1   
  7   5   8  1   
  8   5  27  1   
  9   5  28  1   
 10   6  29  1   
 11   6  30  1   
 12   6  31  1   
 13   7  32  1   
 14   7  33  1   
 15   7  34  1   
 16   8   9  1   
 17   8  10  1   
 18   8  35  1   
 19   9  11  1   
 20   9  12  1   
 21   9  36  1   
 22  10  13  1   
 23  10  37  1   
 24  10  38  1   
 25  11  39  1   
 26  12  13  1   
 27  12  40  1   
 28  12  41  1   
 29  13  14  1   
 30  14  15  1   
 31  14  42  1   
 32  14  43  1   
 33  15  16  1   
 34  15  17  2   
 35  16  18  1   
 36  17  19  1   
 37  17  44  1   
 38  18  19  2   
 39  18  20  1   
 40  19  45  1   
 41  20  21  1   
 42  21  22  2   
 43  21  23  1   
 44  22  24  1   
 45  23  25  1   
 46  23  26  1   
 47  24  25  2   
 48  25  46  1   
 49  26  47  1   
 50  26  48  1   
 51  26  49  1   
@<TRIPOS>SUBSTRUCTURE
  1 ****  15 GROUP 4 **** **** 0

# MOE 2024.06 (io_trps.svl 2023.06)
