@<TRIPOS>MOLECULE
NONAME
49 51 1 0 0 
SMALL
USER_CHARGES


@<TRIPOS>ATOM
  1 O       -1.8400    -1.2030     0.2760 O.3   1 <1>  -0.5600 
  2 C       -1.7200    -0.0620     1.0800 C.3   1 <1>   0.1200 
  3 C       -2.0840    -1.1020    -1.0920 C.3   1 <1>   0.1200 
  4 C       -2.8290     1.0110     0.9230 C.3   1 <1>   0.4230 
  5 C       -3.4840    -0.5390    -1.4260 C.3   1 <1>  -0.0800 
  6 N       -2.7400     1.6590    -0.4350 N.4   1 <1>  -0.9590 
  7 C       -4.2550     0.5230     1.3050 C.3   1 <1>   0.1100 
  8 C       -4.6560    -1.1030    -0.6020 C.3   1 <1>   0.1100 
  9 C       -3.5550     0.9840    -1.4830 C.3   1 <1>   0.3430 
 10 C       -3.0650     3.1160    -0.3770 C.3   1 <1>   0.2630 
 11 N       -4.6100    -0.8350     0.8490 N.3   1 <1>  -0.8100 
 12 C       -5.8170    -1.3480     1.5340 C.3   1 <1>   0.2530 
 13 C       -6.0090    -2.8420     1.2950 C.ar  1 <1>  -0.1430 
 14 C       -7.2010    -3.3520     0.7840 C.ar  1 <1>   0.0820 
 15 C       -4.9690    -3.7090     1.5990 C.ar  1 <1>  -0.1500 
 16 O       -8.1960    -2.4720     0.4910 O.3   1 <1>  -0.3630 
 17 C       -7.3330    -4.7260     0.5910 C.ar  1 <1>  -0.1500 
 18 C       -5.1060    -5.0710     1.4040 C.ar  1 <1>  -0.1500 
 19 C       -9.4740    -2.9120     0.0850 C.3   1 <1>   0.1200 
 20 C       -6.2890    -5.5800     0.9010 C.ar  1 <1>  -0.1500 
 21 C      -10.3740    -1.6900    -0.0820 C.3   1 <1>   0.1200 
 22 O      -11.6230    -2.0940    -0.5330 O.3   1 <1>  -0.6800 
 23 H       -1.7260    -0.4140     2.0970 H     1 <1>   0.0800 
 24 H       -0.7540     0.3710     0.8930 H     1 <1>   0.0800 
 25 H       -1.2970    -0.5260    -1.5450 H     1 <1>   0.0800 
 26 H       -2.0180    -2.1070    -1.4750 H     1 <1>   0.0800 
 27 H       -2.5850     1.7750     1.6410 H     1 <1>   0.0800 
 28 H       -3.6840    -0.8570    -2.4340 H     1 <1>   0.0800 
 29 H       -1.7580     1.5500    -0.7190 H     1 <1>   0.4500 
 30 H       -4.9950     1.2290     0.9700 H     1 <1>   0.0800 
 31 H       -4.2900     0.5150     2.3810 H     1 <1>   0.0800 
 32 H       -4.6630    -2.1710    -0.7500 H     1 <1>   0.0800 
 33 H       -5.5840    -0.7250    -0.9980 H     1 <1>   0.0800 
 34 H       -4.5870     1.2800    -1.3870 H     1 <1>   0.0800 
 35 H       -3.2120     1.3100    -2.4520 H     1 <1>   0.0800 
 36 H       -4.0910     3.2600    -0.0760 H     1 <1>   0.0800 
 37 H       -2.9230     3.5710    -1.3440 H     1 <1>   0.0800 
 38 H       -2.4250     3.6160     0.3320 H     1 <1>   0.0800 
 39 H       -5.7170    -1.1990     2.5950 H     1 <1>   0.0800 
 40 H       -6.6760    -0.7890     1.2060 H     1 <1>   0.0800 
 41 H       -4.0430    -3.3160     1.9830 H     1 <1>   0.1500 
 42 H       -8.2350    -5.1540     0.2000 H     1 <1>   0.1500 
 43 H       -4.2910    -5.7320     1.6430 H     1 <1>   0.1500 
 44 H       -9.3670    -3.4350    -0.8480 H     1 <1>   0.0800 
 45 H       -9.8670    -3.5610     0.8490 H     1 <1>   0.0800 
 46 H       -6.3950    -6.6400     0.7500 H     1 <1>   0.1500 
 47 H       -9.9620    -1.0000    -0.7980 H     1 <1>   0.0800 
 48 H      -10.5110    -1.1970     0.8650 H     1 <1>   0.0800 
 49 H      -11.5810    -2.4030    -1.4590 H     1 <1>   0.4000 
@<TRIPOS>BOND
  1   1   2  1   
  2   1   3  1   
  3   2   4  1   
  4   2  23  1   
  5   2  24  1   
  6   3   5  1   
  7   3  25  1   
  8   3  26  1   
  9   4   6  1   
 10   4   7  1   
 11   4  27  1   
 12   5   8  1   
 13   5   9  1   
 14   5  28  1   
 15   6   9  1   
 16   6  10  1   
 17   6  29  1   
 18   7  11  1   
 19   7  30  1   
 20   7  31  1   
 21   8  11  1   
 22   8  32  1   
 23   8  33  1   
 24   9  34  1   
 25   9  35  1   
 26  10  36  1   
 27  10  37  1   
 28  10  38  1   
 29  11  12  1   
 30  12  13  1   
 31  12  39  1   
 32  12  40  1   
 33  13  14  ar  
 34  13  15  ar  
 35  14  16  1   
 36  14  17  ar  
 37  15  18  ar  
 38  15  41  1   
 39  16  19  1   
 40  17  20  ar  
 41  17  42  1   
 42  18  20  ar  
 43  18  43  1   
 44  19  21  1   
 45  19  44  1   
 46  19  45  1   
 47  20  46  1   
 48  21  22  1   
 49  21  47  1   
 50  21  48  1   
 51  22  49  1   
@<TRIPOS>SUBSTRUCTURE
  1 ****  11 GROUP 4 **** **** 0

# MOE 2024.06 (io_trps.svl 2023.06)
