@<TRIPOS>MOLECULE
NONAME
53 55 1 0 0 
SMALL
USER_CHARGES


@<TRIPOS>ATOM
  1 S       -0.1090     0.9090    -1.0410 S.o2  1 <1>   1.3330 
  2 O       -0.8520    -0.2130    -1.5550 O.2   1 <1>  -0.6500 
  3 O        0.0510     2.1150    -1.8220 O.2   1 <1>  -0.6500 
  4 N        1.4450     0.3690    -0.6230 N.am  1 <1>  -0.8490 
  5 C       -0.8050     1.4090     0.5430 C.3   1 <1>  -0.0550 
  6 C        1.4470    -0.9960    -0.0700 C.3   1 <1>   0.1160 
  7 C        2.3490     0.3900    -1.7830 C.3   1 <1>   0.1160 
  8 C       -0.3750     2.7980     1.0790 C.3   1 <1>  -0.0800 
  9 C       -0.9550     3.9700     0.2650 C.3   1 <1>   0.2000 
 10 C        1.1480     3.0330     1.1110 C.3   1 <1>   0.3430 
 11 O       -1.6010     4.8300     1.1480 O.3   1 <1>  -0.6800 
 12 C        0.2650     4.6940    -0.3170 C.3   1 <1>   0.3430 
 13 N        1.3820     4.4220     0.6370 N.4   1 <1>  -0.9590 
 14 C        1.3880     5.4080     1.7560 C.3   1 <1>   0.4860 
 15 C        1.7580     6.7710     1.2060 C.ar  1 <1>  -0.1440 
 16 C        3.0580     7.0970     0.9170 C.ar  1 <1>  -0.1500 
 17 C        0.7460     7.7190     0.9900 C.ar  1 <1>  -0.1500 
 18 C        3.4040     8.3580     0.3940 C.ar  1 <1>   0.0000 
 19 C        1.0540     8.9510     0.4850 C.ar  1 <1>  -0.1500 
 20 C        2.3820     9.3040     0.1710 C.ar  1 <1>   0.0000 
 21 C        4.7330     8.7150     0.0840 C.ar  1 <1>  -0.1500 
 22 C        2.7260    10.5640    -0.3530 C.ar  1 <1>  -0.1500 
 23 C        5.0410     9.9460    -0.4250 C.ar  1 <1>  -0.1500 
 24 C        4.0220    10.8910    -0.6500 C.ar  1 <1>   0.0820 
 25 O        4.2560    12.1280    -1.1520 O.3   1 <1>  -0.3620 
 26 C        5.5580    12.5680    -1.4720 C.3   1 <1>   0.0400 
 27 H       -1.8740     1.4090     0.4510 H     1 <1>   0.0800 
 28 H       -0.5650     0.6630     1.2760 H     1 <1>   0.0800 
 29 H        2.4430    -1.2740     0.2320 H     1 <1>   0.0800 
 30 H        1.1000    -1.7050    -0.8060 H     1 <1>   0.0800 
 31 H        0.8060    -1.0590     0.7920 H     1 <1>   0.0800 
 32 H        3.3310     0.0480    -1.5020 H     1 <1>   0.0800 
 33 H        2.4410     1.3920    -2.1690 H     1 <1>   0.0800 
 34 H        1.9680    -0.2440    -2.5680 H     1 <1>   0.0800 
 35 H       -0.7320     2.8610     2.0930 H     1 <1>   0.0800 
 36 H       -1.6500     3.6840    -0.5070 H     1 <1>   0.0800 
 37 H        1.6450     2.3570     0.4390 H     1 <1>   0.0800 
 38 H        1.5470     2.8820     2.1010 H     1 <1>   0.0800 
 39 H       -2.5240     4.5410     1.3140 H     1 <1>   0.4000 
 40 H        0.0760     5.7460    -0.4460 H     1 <1>   0.0800 
 41 H        0.5050     4.2650    -1.2760 H     1 <1>   0.0800 
 42 H        2.2750     4.5110     0.1370 H     1 <1>   0.4500 
 43 H        0.4200     5.4530     2.2280 H     1 <1>   0.0800 
 44 H        2.1150     5.1190     2.4970 H     1 <1>   0.0800 
 45 H        3.8580     6.3970     1.0830 H     1 <1>   0.1500 
 46 H       -0.2770     7.4760     1.2250 H     1 <1>   0.1500 
 47 H        0.2830     9.6830     0.3190 H     1 <1>   0.1500 
 48 H        5.5110     7.9940     0.2560 H     1 <1>   0.1500 
 49 H        1.9510    11.2870    -0.5240 H     1 <1>   0.1500 
 50 H        6.0630    10.1850    -0.6500 H     1 <1>   0.1500 
 51 H        5.4880    13.5740    -1.8420 H     1 <1>   0.0800 
 52 H        5.9660    11.9260    -2.2330 H     1 <1>   0.0800 
 53 H        6.1620    12.5470    -0.5820 H     1 <1>   0.0800 
@<TRIPOS>BOND
  1   1   2  2   
  2   1   3  2   
  3   1   4  am  
  4   1   5  1   
  5   4   6  1   
  6   4   7  1   
  7   5   8  1   
  8   5  27  1   
  9   5  28  1   
 10   6  29  1   
 11   6  30  1   
 12   6  31  1   
 13   7  32  1   
 14   7  33  1   
 15   7  34  1   
 16   8   9  1   
 17   8  10  1   
 18   8  35  1   
 19   9  11  1   
 20   9  12  1   
 21   9  36  1   
 22  10  13  1   
 23  10  37  1   
 24  10  38  1   
 25  11  39  1   
 26  12  13  1   
 27  12  40  1   
 28  12  41  1   
 29  13  14  1   
 30  13  42  1   
 31  14  15  1   
 32  14  43  1   
 33  14  44  1   
 34  15  16  ar  
 35  15  17  ar  
 36  16  18  ar  
 37  16  45  1   
 38  17  19  ar  
 39  17  46  1   
 40  18  20  ar  
 41  18  21  ar  
 42  19  20  ar  
 43  19  47  1   
 44  20  22  ar  
 45  21  23  ar  
 46  21  48  1   
 47  22  24  ar  
 48  22  49  1   
 49  23  24  ar  
 50  23  50  1   
 51  24  25  1   
 52  25  26  1   
 53  26  51  1   
 54  26  52  1   
 55  26  53  1   
@<TRIPOS>SUBSTRUCTURE
  1 ****  13 GROUP 4 **** **** 0

# MOE 2024.06 (io_trps.svl 2023.06)
