@<TRIPOS>MOLECULE
NONAME
57 59 1 0 0 
SMALL
USER_CHARGES


@<TRIPOS>ATOM
  1 O        0.6400    -0.0010     1.7650 O.2   1 <1>  -0.5700 
  2 C        0.9670    -1.0280     1.2190 C.2   1 <1>   0.5690 
  3 N        2.2080    -1.1460     0.6480 N.am  1 <1>  -0.6600 
  4 C       -0.0900    -2.1220     1.2080 C.3   1 <1>  -0.0990 
  5 C        2.6460    -2.2960    -0.1990 C.3   1 <1>   0.1400 
  6 C        3.2350    -0.0520     0.7990 C.3   1 <1>   0.2010 
  7 C        0.2730    -3.4950     0.6410 C.3   1 <1>   0.1200 
  8 C        2.6670    -3.6660     0.5370 C.3   1 <1>   0.2800 
  9 C        3.6610     0.5850    -0.5290 C.2   1 <1>   0.5690 
 10 O        1.4670    -3.9340     1.2110 O.3   1 <1>  -0.5600 
 11 C        3.7400    -3.6730     1.6450 C.3   1 <1>  -0.1600 
 12 C        2.8940    -4.8050    -0.4860 C.3   1 <1>  -0.1600 
 13 O        4.7200     0.2220    -0.9930 O.2   1 <1>  -0.5700 
 14 N        2.8670     1.5100    -1.1670 N.am  1 <1>  -0.6600 
 15 C        5.1440    -3.9330     1.0960 C.3   1 <1>   0.1400 
 16 C        3.8860    -5.8560     0.0070 C.3   1 <1>   0.1400 
 17 C        1.5360     1.9400    -0.6530 C.3   1 <1>   0.0600 
 18 C        3.2550     2.1120    -2.4730 C.3   1 <1>   0.0600 
 19 N        5.1940    -5.1900     0.2900 N.am  1 <1>  -0.6600 
 20 C        6.3660    -5.7280    -0.1800 C.2   1 <1>   0.5690 
 21 O        6.3850    -6.7660    -0.8000 O.2   1 <1>  -0.5700 
 22 C        7.6880    -5.0190     0.0830 C.3   1 <1>  -0.0990 
 23 C        8.8450    -5.5430    -0.7770 C.3   1 <1>   0.0210 
 24 C       10.1120    -4.7660    -0.4760 C.2   1 <1>  -0.1810 
 25 C       11.0410    -5.0420     0.5240 C.2   1 <1>   0.1390 
 26 C       10.5920    -3.6660    -1.0940 C.2   1 <1>  -0.3020 
 27 N       12.0200    -4.1900     0.5350 N.2   1 <1>  -0.7070 
 28 N       11.7400    -3.3380    -0.4700 N.pl3 1 <1>   0.3000 
 29 H       -0.9410    -1.7480     0.6700 H     1 <1>   0.0800 
 30 H       -0.4060    -2.2640     2.2250 H     1 <1>   0.0800 
 31 H        3.6380    -2.1100    -0.5720 H     1 <1>   0.0800 
 32 H        2.0140    -2.3480    -1.0660 H     1 <1>   0.0800 
 33 H        4.1100    -0.4710     1.2610 H     1 <1>   0.0800 
 34 H        2.8810     0.7190     1.4570 H     1 <1>   0.0800 
 35 H        0.3450    -3.4910    -0.4320 H     1 <1>   0.0800 
 36 H       -0.4880    -4.2040     0.9180 H     1 <1>   0.0800 
 37 H        3.5150    -4.4450     2.3600 H     1 <1>   0.0800 
 38 H        3.7310    -2.7410     2.1780 H     1 <1>   0.0800 
 39 H        3.2950    -4.4080    -1.4010 H     1 <1>   0.0800 
 40 H        1.9640    -5.2840    -0.7290 H     1 <1>   0.0800 
 41 H        5.8350    -4.0080     1.9190 H     1 <1>   0.0800 
 42 H        5.4450    -3.1060     0.4750 H     1 <1>   0.0800 
 43 H        4.0020    -6.6180    -0.7450 H     1 <1>   0.0800 
 44 H        3.5200    -6.3270     0.9040 H     1 <1>   0.0800 
 45 H        1.5820     2.1320     0.4050 H     1 <1>   0.0800 
 46 H        0.8100     1.1670    -0.8350 H     1 <1>   0.0800 
 47 H        1.2160     2.8420    -1.1440 H     1 <1>   0.0800 
 48 H        4.2080     1.7350    -2.8030 H     1 <1>   0.0800 
 49 H        3.3270     3.1800    -2.3740 H     1 <1>   0.0800 
 50 H        2.5160     1.8730    -3.2170 H     1 <1>   0.0800 
 51 H        7.9370    -5.1390     1.1200 H     1 <1>   0.0800 
 52 H        7.5720    -3.9720    -0.1210 H     1 <1>   0.0800 
 53 H        8.5980    -5.4340    -1.8190 H     1 <1>   0.0800 
 54 H        9.0090    -6.5890    -0.5830 H     1 <1>   0.0800 
 55 H       10.9670    -5.8660     1.2140 H     1 <1>   0.1500 
 56 H       10.1910    -3.1110    -1.9230 H     1 <1>   0.1500 
 57 H       12.3520    -2.5460    -0.7020 H     1 <1>   0.2700 
@<TRIPOS>BOND
  1   1   2  2   
  2   2   3  am  
  3   2   4  1   
  4   3   5  1   
  5   3   6  1   
  6   4   7  1   
  7   4  29  1   
  8   4  30  1   
  9   5   8  1   
 10   5  31  1   
 11   5  32  1   
 12   6   9  1   
 13   6  33  1   
 14   6  34  1   
 15   7  10  1   
 16   7  35  1   
 17   7  36  1   
 18   8  10  1   
 19   8  11  1   
 20   8  12  1   
 21   9  13  2   
 22   9  14  am  
 23  11  15  1   
 24  11  37  1   
 25  11  38  1   
 26  12  16  1   
 27  12  39  1   
 28  12  40  1   
 29  14  17  1   
 30  14  18  1   
 31  15  19  1   
 32  15  41  1   
 33  15  42  1   
 34  16  19  1   
 35  16  43  1   
 36  16  44  1   
 37  17  45  1   
 38  17  46  1   
 39  17  47  1   
 40  18  48  1   
 41  18  49  1   
 42  18  50  1   
 43  19  20  am  
 44  20  21  2   
 45  20  22  1   
 46  22  23  1   
 47  22  51  1   
 48  22  52  1   
 49  23  24  1   
 50  23  53  1   
 51  23  54  1   
 52  24  25  1   
 53  24  26  2   
 54  25  27  2   
 55  25  55  1   
 56  26  28  1   
 57  26  56  1   
 58  27  28  1   
 59  28  57  1   
@<TRIPOS>SUBSTRUCTURE
  1 ****  15 GROUP 4 **** **** 0

# MOE 2024.06 (io_trps.svl 2023.06)
