@<TRIPOS>MOLECULE
NONAME
51 54 1 0 0 
SMALL
USER_CHARGES


@<TRIPOS>ATOM
  1 O       -1.9900     0.0840    -1.8060 O.2   1 <1>  -0.5700 
  2 C       -1.8770     0.1870    -0.5950 C.2   1 <1>   0.7160 
  3 N       -1.8440    -0.9640     0.1370 N.am  1 <1>  -0.7300 
  4 C       -1.8070     1.4670     0.1010 C.2   1 <1>   0.2030 
  5 C       -1.9290    -2.3500    -0.3760 C.3   1 <1>   0.2200 
  6 N       -1.7400     1.5760     1.4190 N.2   1 <1>  -0.7070 
  7 C       -1.8060     2.7480    -0.4860 C.2   1 <1>  -0.1810 
  8 C       -3.3220    -2.9350    -0.1790 C.3   1 <1>  -0.0800 
  9 C       -1.1060    -3.2670     0.5190 C.3   1 <1>   0.1200 
 10 N       -1.6940     2.8900     1.6660 N.pl3 1 <1>   0.3000 
 11 C       -1.7360     3.6250     0.5380 C.2   1 <1>  -0.3320 
 12 C       -1.8650     3.0490    -1.9750 C.3   1 <1>  -0.0590 
 13 C       -3.2750    -3.4000     1.2810 C.3   1 <1>   0.1200 
 14 C       -4.4890    -1.9780    -0.5050 C.3   1 <1>  -0.0170 
 15 O       -1.9270    -3.5820     1.6040 O.3   1 <1>  -0.5600 
 16 C       -1.7040     5.1440     0.5540 C.3   1 <1>   0.0200 
 17 C       -5.9030    -2.5700    -0.4530 C.ar  1 <1>  -0.1430 
 18 C       -0.3110     5.6430     0.9370 C.3   1 <1>  -0.2400 
 19 C       -7.0230    -1.7100    -0.5690 C.ar  1 <1>   0.0000 
 20 C       -6.1610    -3.9050    -0.3100 C.ar  1 <1>  -0.1500 
 21 C       -8.3160    -2.2870    -0.5020 C.ar  1 <1>   0.3100 
 22 C       -6.9380    -0.3090    -0.7530 C.ar  1 <1>  -0.1500 
 23 C       -7.4800    -4.3730    -0.2620 C.ar  1 <1>   0.1600 
 24 N       -8.5270    -3.6170    -0.3480 N.ar  1 <1>  -0.6200 
 25 C       -9.4410    -1.4530    -0.6030 C.ar  1 <1>  -0.1500 
 26 C       -8.0550     0.4750    -0.8500 C.ar  1 <1>  -0.1500 
 27 C       -9.3250    -0.1010    -0.7720 C.ar  1 <1>  -0.1500 
 28 H       -1.7850    -0.8500     1.1540 H     1 <1>   0.3700 
 29 H       -1.6060    -2.3900    -1.4030 H     1 <1>   0.0800 
 30 H       -3.3930    -3.8010    -0.8110 H     1 <1>   0.0800 
 31 H       -0.2010    -2.8040     0.8710 H     1 <1>   0.0800 
 32 H       -0.8740    -4.1850     0.0090 H     1 <1>   0.0800 
 33 H       -1.6310     3.2690     2.6180 H     1 <1>   0.2700 
 34 H       -1.0480     2.5630    -2.4780 H     1 <1>   0.0800 
 35 H       -1.8000     4.1030    -2.1650 H     1 <1>   0.0800 
 36 H       -2.7880     2.6810    -2.3860 H     1 <1>   0.0800 
 37 H       -3.7990    -4.3260     1.4350 H     1 <1>   0.0800 
 38 H       -3.6670    -2.6470     1.9430 H     1 <1>   0.0800 
 39 H       -4.3320    -1.5770    -1.4920 H     1 <1>   0.0800 
 40 H       -4.4510    -1.1570     0.1890 H     1 <1>   0.0800 
 41 H       -1.9630     5.5310    -0.4150 H     1 <1>   0.0800 
 42 H       -2.4320     5.5160     1.2550 H     1 <1>   0.0800 
 43 H        0.4170     5.2670     0.2390 H     1 <1>   0.0800 
 44 H       -0.0450     5.3110     1.9250 H     1 <1>   0.0800 
 45 H       -0.2850     6.7180     0.9170 H     1 <1>   0.0800 
 46 H       -5.3880    -4.6430    -0.2310 H     1 <1>   0.1500 
 47 H       -5.9740     0.1600    -0.8230 H     1 <1>   0.1500 
 48 H       -7.6330    -5.4330    -0.1450 H     1 <1>   0.1500 
 49 H      -10.4070    -1.9200    -0.5430 H     1 <1>   0.1500 
 50 H       -7.9710     1.5390    -0.9880 H     1 <1>   0.1500 
 51 H      -10.1960     0.5260    -0.8490 H     1 <1>   0.1500 
@<TRIPOS>BOND
  1   1   2  2   
  2   2   3  am  
  3   2   4  1   
  4   3   5  1   
  5   3  28  1   
  6   4   6  2   
  7   4   7  1   
  8   5   8  1   
  9   5   9  1   
 10   5  29  1   
 11   6  10  1   
 12   7  11  2   
 13   7  12  1   
 14   8  13  1   
 15   8  14  1   
 16   8  30  1   
 17   9  15  1   
 18   9  31  1   
 19   9  32  1   
 20  10  11  1   
 21  10  33  1   
 22  11  16  1   
 23  12  34  1   
 24  12  35  1   
 25  12  36  1   
 26  13  15  1   
 27  13  37  1   
 28  13  38  1   
 29  14  17  1   
 30  14  39  1   
 31  14  40  1   
 32  16  18  1   
 33  16  41  1   
 34  16  42  1   
 35  17  19  ar  
 36  17  20  ar  
 37  18  43  1   
 38  18  44  1   
 39  18  45  1   
 40  19  21  ar  
 41  19  22  ar  
 42  20  23  ar  
 43  20  46  1   
 44  21  24  ar  
 45  21  25  ar  
 46  22  26  ar  
 47  22  47  1   
 48  23  24  ar  
 49  23  48  1   
 50  25  27  ar  
 51  25  49  1   
 52  26  27  ar  
 53  26  50  1   
 54  27  51  1   
@<TRIPOS>SUBSTRUCTURE
  1 ****  14 GROUP 4 **** **** 0

# MOE 2024.06 (io_trps.svl 2023.06)
