@<TRIPOS>MOLECULE
NONAME
54 57 1 0 0 
SMALL
USER_CHARGES


@<TRIPOS>ATOM
  1 O        3.3980     2.7910    -0.2420 O.3   1 <1>  -0.0190 
  2 N        4.1040     1.7470     0.0690 N.2   1 <1>  -0.4100 
  3 C        2.2510     2.4640    -0.7740 C.2   1 <1>  -0.0400 
  4 C        3.4090     0.7260    -0.2870 C.2   1 <1>   0.1080 
  5 C        2.1960     1.1260    -0.8420 C.2   1 <1>  -0.1500 
  6 C        1.2780     3.5490    -1.1890 C.3   1 <1>   0.0200 
  7 C        3.8580    -0.7090    -0.1210 C.3   1 <1>  -0.0590 
  8 C        0.5480     4.1560     0.0290 C.3   1 <1>  -0.0800 
  9 C       -0.3380     5.3300    -0.3810 C.3   1 <1>   0.2000 
 10 C        1.5050     4.7880     1.0510 C.3   1 <1>   0.3430 
 11 O       -1.2620     5.5510     0.6370 O.3   1 <1>  -0.6800 
 12 C        0.6400     6.5080    -0.4020 C.3   1 <1>   0.3430 
 13 N        1.6120     6.2350     0.7000 N.4   1 <1>  -0.9590 
 14 C        1.3370     7.1110     1.8710 C.3   1 <1>   0.5240 
 15 C        1.7580     8.5240     1.5030 C.2   1 <1>   0.0460 
 16 N        2.9330     8.7440     0.8800 N.2   1 <1>  -0.5650 
 17 C        1.1170     9.6890     1.6780 C.2   1 <1>  -0.0400 
 18 C        2.9600    10.0340     0.7140 C.2   1 <1>   0.4250 
 19 O        1.8730    10.6230     1.1830 O.3   1 <1>  -0.2800 
 20 C       -0.2120    10.0780     2.2940 C.3   1 <1>  -0.0600 
 21 C        4.0050    10.8220     0.0940 C.ar  1 <1>   0.0530 
 22 C        5.2040    10.2360    -0.3170 C.ar  1 <1>  -0.1500 
 23 C        3.8600    12.1950    -0.1220 C.ar  1 <1>  -0.1500 
 24 C        6.2040    10.9800    -0.9140 C.ar  1 <1>  -0.1500 
 25 C        4.8560    12.9460    -0.7190 C.ar  1 <1>  -0.1500 
 26 C        6.0410    12.3400    -1.1220 C.ar  1 <1>   0.0820 
 27 O        7.0650    12.9980    -1.7130 O.3   1 <1>  -0.3620 
 28 C        7.0020    14.3830    -1.9700 C.3   1 <1>   0.0400 
 29 H        1.4270     0.4780    -1.2220 H     1 <1>   0.1500 
 30 H        1.8210     4.3000    -1.7370 H     1 <1>   0.0800 
 31 H        0.5530     3.1170    -1.8570 H     1 <1>   0.0800 
 32 H        3.9240    -1.1840    -1.0830 H     1 <1>   0.0800 
 33 H        3.1570    -1.2450     0.4920 H     1 <1>   0.0800 
 34 H        4.8250    -0.7400     0.3480 H     1 <1>   0.0800 
 35 H       -0.0270     3.3740     0.4960 H     1 <1>   0.0800 
 36 H       -0.8630     5.1990    -1.3130 H     1 <1>   0.0800 
 37 H        2.4720     4.3160     1.0590 H     1 <1>   0.0800 
 38 H        1.0710     4.6870     2.0320 H     1 <1>   0.0800 
 39 H       -2.0130     4.9210     0.5780 H     1 <1>   0.4000 
 40 H        0.1260     7.4470    -0.2760 H     1 <1>   0.0800 
 41 H        1.1640     6.5200    -1.3440 H     1 <1>   0.0800 
 42 H        2.5620     6.5040     0.3950 H     1 <1>   0.4500 
 43 H        0.2920     7.0800     2.1330 H     1 <1>   0.0800 
 44 H        1.9220     6.7870     2.7160 H     1 <1>   0.0800 
 45 H       -0.7380     9.2150     2.6580 H     1 <1>   0.0800 
 46 H       -0.8220    10.5740     1.5600 H     1 <1>   0.0800 
 47 H       -0.0470    10.7550     3.1140 H     1 <1>   0.0800 
 48 H        5.3570     9.1830    -0.1650 H     1 <1>   0.1500 
 49 H        2.9520    12.6850     0.1830 H     1 <1>   0.1500 
 50 H        7.1220    10.5150    -1.2250 H     1 <1>   0.1500 
 51 H        4.6940    13.9980    -0.8620 H     1 <1>   0.1500 
 52 H        7.9220    14.6770    -2.4410 H     1 <1>   0.0800 
 53 H        6.8840    14.9050    -1.0370 H     1 <1>   0.0800 
 54 H        6.1750    14.5780    -2.6300 H     1 <1>   0.0800 
@<TRIPOS>BOND
  1   1   2  1   
  2   1   3  1   
  3   2   4  2   
  4   3   5  2   
  5   3   6  1   
  6   4   5  1   
  7   4   7  1   
  8   5  29  1   
  9   6   8  1   
 10   6  30  1   
 11   6  31  1   
 12   7  32  1   
 13   7  33  1   
 14   7  34  1   
 15   8   9  1   
 16   8  10  1   
 17   8  35  1   
 18   9  11  1   
 19   9  12  1   
 20   9  36  1   
 21  10  13  1   
 22  10  37  1   
 23  10  38  1   
 24  11  39  1   
 25  12  13  1   
 26  12  40  1   
 27  12  41  1   
 28  13  14  1   
 29  13  42  1   
 30  14  15  1   
 31  14  43  1   
 32  14  44  1   
 33  15  16  1   
 34  15  17  2   
 35  16  18  2   
 36  17  19  1   
 37  17  20  1   
 38  18  19  1   
 39  18  21  1   
 40  20  45  1   
 41  20  46  1   
 42  20  47  1   
 43  21  22  ar  
 44  21  23  ar  
 45  22  24  ar  
 46  22  48  1   
 47  23  25  ar  
 48  23  49  1   
 49  24  26  ar  
 50  24  50  1   
 51  25  26  ar  
 52  25  51  1   
 53  26  27  1   
 54  27  28  1   
 55  28  52  1   
 56  28  53  1   
 57  28  54  1   
@<TRIPOS>SUBSTRUCTURE
  1 ****  16 GROUP 4 **** **** 0

# MOE 2024.06 (io_trps.svl 2023.06)
