@<TRIPOS>MOLECULE
NONAME
54 56 1 0 0 
SMALL
USER_CHARGES


@<TRIPOS>ATOM
  1 O       -0.3630     0.3030    -0.3180 O.2   1 <1>  -0.5700 
  2 C       -1.4290     0.8540    -0.1560 C.2   1 <1>   0.5690 
  3 N       -2.5810     0.1230    -0.0400 N.am  1 <1>  -0.6600 
  4 C       -1.5000     2.3960    -0.0760 C.3   1 <1>   0.1710 
  5 C       -3.9670     0.6510     0.0310 C.3   1 <1>   0.1400 
  6 C       -2.5920    -1.3610    -0.1150 C.3   1 <1>   0.1400 
  7 N       -0.1990     3.1320    -0.0220 N.3   1 <1>  -0.8100 
  8 C       -4.8570    -0.5510    -0.2780 C.3   1 <1>   0.2000 
  9 C       -4.0430    -1.7710     0.1440 C.3   1 <1>  -0.0800 
 10 C       -0.3420     4.5930    -0.2010 C.3   1 <1>   0.1100 
 11 C        0.5840     2.8290     1.2030 C.3   1 <1>   0.1100 
 12 O       -6.0480    -0.4950     0.4270 O.3   1 <1>  -0.6800 
 13 C       -4.4600    -3.0560    -0.5870 C.3   1 <1>   0.0210 
 14 C        1.0320     5.3120    -0.1950 C.3   1 <1>   0.3430 
 15 C        1.9840     3.4900     1.1680 C.3   1 <1>   0.3430 
 16 C       -3.5960    -4.2250    -0.1580 C.2   1 <1>   0.1080 
 17 N        2.1580     4.3260    -0.0660 N.4   1 <1>  -0.9590 
 18 N       -3.6530    -4.7400     1.0310 N.2   1 <1>  -0.7070 
 19 C       -2.6570    -4.8610    -0.9630 C.2   1 <1>  -0.1500 
 20 C        3.5210     4.8940    -0.1920 C.3   1 <1>   0.3430 
 21 N       -2.7430    -5.7320     1.0150 N.pl3 1 <1>   0.3000 
 22 C       -2.1250    -5.8240    -0.1810 C.2   1 <1>  -0.3320 
 23 C        3.7470     5.3840    -1.6170 C.3   1 <1>  -0.2400 
 24 C       -1.0470    -6.8410    -0.5080 C.3   1 <1>  -0.0600 
 25 H       -2.0860     2.6580     0.7860 H     1 <1>   0.0800 
 26 H       -2.0350     2.7220    -0.9490 H     1 <1>   0.0800 
 27 H       -4.1570     1.0150     1.0260 H     1 <1>   0.0800 
 28 H       -4.1220     1.4310    -0.6940 H     1 <1>   0.0800 
 29 H       -2.2720    -1.6620    -1.0990 H     1 <1>   0.0800 
 30 H       -1.9270    -1.7880     0.6170 H     1 <1>   0.0800 
 31 H       -5.0850    -0.5720    -1.3300 H     1 <1>   0.0800 
 32 H       -4.1420    -1.9240     1.2050 H     1 <1>   0.0800 
 33 H       -0.8300     4.7890    -1.1410 H     1 <1>   0.0800 
 34 H       -0.9620     5.0020     0.5790 H     1 <1>   0.0800 
 35 H        0.0500     3.1690     2.0740 H     1 <1>   0.0800 
 36 H        0.7200     1.7660     1.3050 H     1 <1>   0.0800 
 37 H       -5.9020    -0.7380     1.3620 H     1 <1>   0.4000 
 38 H       -4.3810    -2.9240    -1.6500 H     1 <1>   0.0800 
 39 H       -5.4840    -3.2850    -0.3540 H     1 <1>   0.0800 
 40 H        1.0630     6.0140     0.6210 H     1 <1>   0.0800 
 41 H        1.1320     5.8700    -1.1110 H     1 <1>   0.0800 
 42 H        2.7300     2.7120     1.1890 H     1 <1>   0.0800 
 43 H        2.1140     4.0950     2.0490 H     1 <1>   0.0800 
 44 H        1.9830     3.6500    -0.8300 H     1 <1>   0.4500 
 45 H       -2.4230    -4.6170    -1.9840 H     1 <1>   0.1500 
 46 H        3.6520     5.7050     0.5060 H     1 <1>   0.0800 
 47 H        4.2510     4.1320     0.0330 H     1 <1>   0.0800 
 48 H       -2.5690    -6.3260     1.8340 H     1 <1>   0.2700 
 49 H        3.1090     6.2150    -1.8540 H     1 <1>   0.0800 
 50 H        3.5870     4.5890    -2.3230 H     1 <1>   0.0800 
 51 H        4.7660     5.7160    -1.7170 H     1 <1>   0.0800 
 52 H       -0.7120    -6.7120    -1.5220 H     1 <1>   0.0800 
 53 H       -1.4320    -7.8400    -0.4000 H     1 <1>   0.0800 
 54 H       -0.2050    -6.7150     0.1490 H     1 <1>   0.0800 
@<TRIPOS>BOND
  1   1   2  2   
  2   2   3  am  
  3   2   4  1   
  4   3   5  1   
  5   3   6  1   
  6   4   7  1   
  7   4  25  1   
  8   4  26  1   
  9   5   8  1   
 10   5  27  1   
 11   5  28  1   
 12   6   9  1   
 13   6  29  1   
 14   6  30  1   
 15   7  10  1   
 16   7  11  1   
 17   8   9  1   
 18   8  12  1   
 19   8  31  1   
 20   9  13  1   
 21   9  32  1   
 22  10  14  1   
 23  10  33  1   
 24  10  34  1   
 25  11  15  1   
 26  11  35  1   
 27  11  36  1   
 28  12  37  1   
 29  13  16  1   
 30  13  38  1   
 31  13  39  1   
 32  14  17  1   
 33  14  40  1   
 34  14  41  1   
 35  15  17  1   
 36  15  42  1   
 37  15  43  1   
 38  16  18  2   
 39  16  19  1   
 40  17  20  1   
 41  17  44  1   
 42  18  21  1   
 43  19  22  2   
 44  19  45  1   
 45  20  23  1   
 46  20  46  1   
 47  20  47  1   
 48  21  22  1   
 49  21  48  1   
 50  22  24  1   
 51  23  49  1   
 52  23  50  1   
 53  23  51  1   
 54  24  52  1   
 55  24  53  1   
 56  24  54  1   
@<TRIPOS>SUBSTRUCTURE
  1 ****   2 GROUP 4 **** **** 0

# MOE 2024.06 (io_trps.svl 2023.06)
