@<TRIPOS>MOLECULE
NONAME
39 40 1 0 0 
SMALL
USER_CHARGES


@<TRIPOS>ATOM
  1 S        1.1320    -0.0880     1.0860 S.3   1 <1>  -0.0800 
  2 C        1.7260    -0.5360    -0.4980 C.2   1 <1>   0.1980 
  3 C       -0.3810    -0.8650     0.7150 C.2   1 <1>  -0.1400 
  4 N        0.8860    -1.1840    -1.2050 N.2   1 <1>  -0.5650 
  5 C        3.1410    -0.1050    -0.8530 C.3   1 <1>   0.3890 
  6 C       -0.3060    -1.3750    -0.5270 C.2   1 <1>   0.0460 
  7 C       -1.4450    -0.8290     1.7950 C.3   1 <1>  -0.0600 
  8 N        3.1930     1.3670    -1.0700 N.pl3 1 <1>  -0.8690 
  9 C       -1.3770    -2.1380    -1.2760 C.3   1 <1>  -0.0590 
 10 C        3.9700     2.2140    -0.3240 C.ar  1 <1>   0.4100 
 11 N        5.0580     1.7070     0.2130 N.ar  1 <1>  -0.6200 
 12 C        3.6230     3.5490    -0.1480 C.ar  1 <1>  -0.1430 
 13 C        5.7970     2.5370     0.9170 C.ar  1 <1>   0.4770 
 14 C        4.4820     4.3060     0.6120 C.ar  1 <1>   0.1600 
 15 C        2.3420     4.1020    -0.7840 C.3   1 <1>  -0.0160 
 16 N        5.5770     3.8150     1.1550 N.ar  1 <1>  -0.6200 
 17 C        7.0480     1.9610     1.5350 C.3   1 <1>  -0.0970 
 18 C        2.0470     5.5810    -0.4910 C.3   1 <1>  -0.1600 
 19 C        0.7430     6.0310    -1.1570 C.3   1 <1>  -0.2400 
 20 H        3.4430    -0.6010    -1.7580 H     1 <1>   0.0800 
 21 H        3.8070    -0.4070    -0.0650 H     1 <1>   0.0800 
 22 H       -1.0780    -1.3100     2.6830 H     1 <1>   0.0800 
 23 H       -2.3360    -1.3330     1.4710 H     1 <1>   0.0800 
 24 H       -1.6910     0.1910     2.0290 H     1 <1>   0.0800 
 25 H        2.3120     1.7320    -1.4310 H     1 <1>   0.4000 
 26 H       -2.2650    -2.2400    -0.6830 H     1 <1>   0.0800 
 27 H       -1.0100    -3.1160    -1.5260 H     1 <1>   0.0800 
 28 H       -1.6210    -1.6170    -2.1830 H     1 <1>   0.0800 
 29 H        4.2880     5.3470     0.7960 H     1 <1>   0.1500 
 30 H        1.5120     3.5140    -0.4330 H     1 <1>   0.0800 
 31 H        2.4110     3.9700    -1.8500 H     1 <1>   0.0800 
 32 H        7.2860     1.0130     1.0870 H     1 <1>   0.0800 
 33 H        6.8920     1.8250     2.5880 H     1 <1>   0.0800 
 34 H        7.8700     2.6350     1.3830 H     1 <1>   0.0800 
 35 H        2.8540     6.1910    -0.8590 H     1 <1>   0.0800 
 36 H        1.9630     5.7290     0.5730 H     1 <1>   0.0800 
 37 H        0.8040     5.9140    -2.2250 H     1 <1>   0.0800 
 38 H        0.5570     7.0680    -0.9390 H     1 <1>   0.0800 
 39 H       -0.0880     5.4520    -0.7920 H     1 <1>   0.0800 
@<TRIPOS>BOND
  1   1   2  1   
  2   1   3  1   
  3   2   4  2   
  4   2   5  1   
  5   3   6  2   
  6   3   7  1   
  7   4   6  1   
  8   5   8  1   
  9   5  20  1   
 10   5  21  1   
 11   6   9  1   
 12   7  22  1   
 13   7  23  1   
 14   7  24  1   
 15   8  10  1   
 16   8  25  1   
 17   9  26  1   
 18   9  27  1   
 19   9  28  1   
 20  10  11  ar  
 21  10  12  ar  
 22  11  13  ar  
 23  12  14  ar  
 24  12  15  1   
 25  13  16  ar  
 26  13  17  1   
 27  14  16  ar  
 28  14  29  1   
 29  15  18  1   
 30  15  30  1   
 31  15  31  1   
 32  17  32  1   
 33  17  33  1   
 34  17  34  1   
 35  18  19  1   
 36  18  35  1   
 37  18  36  1   
 38  19  37  1   
 39  19  38  1   
 40  19  39  1   
@<TRIPOS>SUBSTRUCTURE
  1 ****   8 GROUP 4 **** **** 0

# MOE 2024.06 (io_trps.svl 2023.06)
