@<TRIPOS>MOLECULE
NONAME
57 59 1 0 0 
SMALL
USER_CHARGES


@<TRIPOS>ATOM
  1 S        0.3410     0.2850     0.9750 S.o2  1 <1>   1.4470 
  2 O       -0.1040    -0.5100     2.1030 O.2   1 <1>  -0.6500 
  3 O        0.7530     1.6470     1.2470 O.2   1 <1>  -0.6500 
  4 N       -0.9780     0.3610    -0.0900 N.am  1 <1>  -0.8490 
  5 C        1.5790    -0.6860     0.0710 C.ar  1 <1>  -0.0090 
  6 C       -2.2530     0.5250     0.6360 C.3   1 <1>   0.1960 
  7 C       -0.7840     1.2840    -1.2220 C.3   1 <1>   0.1960 
  8 C        2.5650    -0.1070    -0.7240 C.ar  1 <1>   0.0830 
  9 C        1.5490    -2.0750     0.1420 C.ar  1 <1>  -0.1500 
 10 C       -3.4360     0.9290    -0.2760 C.3   1 <1>   0.0000 
 11 C       -1.6000     2.5700    -1.0680 C.3   1 <1>  -0.1600 
 12 O        2.6480     1.2290    -0.8700 O.3   1 <1>  -0.3630 
 13 C        3.4790    -0.8900    -1.4130 C.ar  1 <1>  -0.1500 
 14 C        2.4590    -2.8740    -0.5350 C.ar  1 <1>  -0.1430 
 15 C       -4.7290     0.9780     0.5660 C.3   1 <1>   0.2000 
 16 C       -3.1090     2.2880    -0.9540 C.3   1 <1>  -0.1600 
 17 C       -3.7520    -0.1950    -1.2850 C.3   1 <1>  -0.1600 
 18 C        3.6290     1.8880    -0.1000 C.3   1 <1>   0.0400 
 19 C        3.4290    -2.2660    -1.3170 C.ar  1 <1>  -0.1500 
 20 C        2.3780    -4.3950    -0.4120 C.3   1 <1>   0.0630 
 21 O       -5.7130     1.6900    -0.1300 O.3   1 <1>  -0.5600 
 22 C       -5.1860    -0.4810     0.6860 C.3   1 <1>  -0.1600 
 23 C       -4.6060    -1.2180    -0.5270 C.3   1 <1>  -0.1600 
 24 C        3.6600    -4.9630     0.2060 C.3   1 <1>  -0.2400 
 25 C        2.0970    -5.0390    -1.7730 C.3   1 <1>  -0.2400 
 26 C       -6.7070     2.2560     0.6640 C.3   1 <1>   0.0400 
 27 H       -2.4750    -0.3970     1.1460 H     1 <1>   0.0800 
 28 H       -2.1300     1.2870     1.3880 H     1 <1>   0.0800 
 29 H        0.2550     1.5330    -1.3410 H     1 <1>   0.0800 
 30 H       -1.0950     0.7860    -2.1250 H     1 <1>   0.0800 
 31 H        0.7880    -2.5390     0.7480 H     1 <1>   0.1500 
 32 H       -1.2540     3.0850    -0.1880 H     1 <1>   0.0800 
 33 H       -1.4170     3.2150    -1.9090 H     1 <1>   0.0800 
 34 H        4.2240    -0.4180    -2.0280 H     1 <1>   0.1500 
 35 H       -4.5630     1.4460     1.5230 H     1 <1>   0.0800 
 36 H       -3.5590     2.3210    -1.9310 H     1 <1>   0.0800 
 37 H       -3.5460     3.0920    -0.3860 H     1 <1>   0.0800 
 38 H       -4.3450     0.2030    -2.0890 H     1 <1>   0.0800 
 39 H       -2.8730    -0.6510    -1.7030 H     1 <1>   0.0800 
 40 H        3.5530     2.9430    -0.2920 H     1 <1>   0.0800 
 41 H        4.6010     1.5270    -0.3830 H     1 <1>   0.0800 
 42 H        3.4430     1.6930     0.9420 H     1 <1>   0.0800 
 43 H        4.1450    -2.8610    -1.8560 H     1 <1>   0.1500 
 44 H        1.5610    -4.6460     0.2440 H     1 <1>   0.0800 
 45 H       -4.7770    -0.9070     1.5850 H     1 <1>   0.0800 
 46 H       -6.2580    -0.5660     0.7240 H     1 <1>   0.0800 
 47 H       -3.9940    -2.0420    -0.1990 H     1 <1>   0.0800 
 48 H       -5.3880    -1.5970    -1.1620 H     1 <1>   0.0800 
 49 H        4.5060    -4.7860    -0.4330 H     1 <1>   0.0800 
 50 H        3.5610    -6.0220     0.3590 H     1 <1>   0.0800 
 51 H        3.8450    -4.4960     1.1570 H     1 <1>   0.0800 
 52 H        2.9080    -4.8610    -2.4560 H     1 <1>   0.0800 
 53 H        1.1980    -4.6250    -2.1940 H     1 <1>   0.0800 
 54 H        1.9670    -6.1000    -1.6630 H     1 <1>   0.0800 
 55 H       -7.4130     2.7440     0.0160 H     1 <1>   0.0800 
 56 H       -6.2620     2.9800     1.3250 H     1 <1>   0.0800 
 57 H       -7.2040     1.4850     1.2260 H     1 <1>   0.0800 
@<TRIPOS>BOND
  1   1   2  2   
  2   1   3  2   
  3   1   4  am  
  4   1   5  1   
  5   4   6  1   
  6   4   7  1   
  7   5   8  ar  
  8   5   9  ar  
  9   6  10  1   
 10   6  27  1   
 11   6  28  1   
 12   7  11  1   
 13   7  29  1   
 14   7  30  1   
 15   8  12  1   
 16   8  13  ar  
 17   9  14  ar  
 18   9  31  1   
 19  10  15  1   
 20  10  16  1   
 21  10  17  1   
 22  11  16  1   
 23  11  32  1   
 24  11  33  1   
 25  12  18  1   
 26  13  19  ar  
 27  13  34  1   
 28  14  19  ar  
 29  14  20  1   
 30  15  21  1   
 31  15  22  1   
 32  15  35  1   
 33  16  36  1   
 34  16  37  1   
 35  17  23  1   
 36  17  38  1   
 37  17  39  1   
 38  18  40  1   
 39  18  41  1   
 40  18  42  1   
 41  19  43  1   
 42  20  24  1   
 43  20  25  1   
 44  20  44  1   
 45  21  26  1   
 46  22  23  1   
 47  22  45  1   
 48  22  46  1   
 49  23  47  1   
 50  23  48  1   
 51  24  49  1   
 52  24  50  1   
 53  24  51  1   
 54  25  52  1   
 55  25  53  1   
 56  25  54  1   
 57  26  55  1   
 58  26  56  1   
 59  26  57  1   
@<TRIPOS>SUBSTRUCTURE
  1 ****   4 GROUP 4 **** **** 0

# MOE 2024.06 (io_trps.svl 2023.06)
