@<TRIPOS>MOLECULE
NONAME
47 49 1 0 0 
SMALL
USER_CHARGES


@<TRIPOS>ATOM
  1 S       -0.1830    -0.6120     1.7620 S.3   1 <1>  -0.0800 
  2 C       -1.7660    -0.5990     1.0200 C.2   1 <1>   0.2280 
  3 C        0.1710    -2.0910     0.9170 C.2   1 <1>  -0.1100 
  4 N       -1.9910    -1.5840     0.2420 N.2   1 <1>  -0.5650 
  5 C       -0.8930    -2.4370     0.1740 C.2   1 <1>   0.0460 
  6 C       -0.9920    -3.6730    -0.7150 C.3   1 <1>   0.5240 
  7 N       -2.2270    -4.4370    -0.3760 N.4   1 <1>  -0.9590 
  8 C       -2.0450    -5.9090    -0.4620 C.3   1 <1>   0.3430 
  9 C       -3.3920    -3.9670    -1.1750 C.3   1 <1>   0.3430 
 10 C       -3.2860    -6.6090     0.0870 C.3   1 <1>  -0.1600 
 11 C       -4.6650    -4.6140    -0.6350 C.3   1 <1>  -0.1600 
 12 C       -4.5830    -6.1550    -0.6200 C.3   1 <1>  -0.0800 
 13 C       -5.8640    -6.7640     0.0010 C.3   1 <1>   0.2000 
 14 O       -5.9350    -6.3900     1.3300 O.3   1 <1>  -0.6800 
 15 C       -5.9200    -8.2970    -0.0790 C.3   1 <1>  -0.1600 
 16 C       -7.2610    -8.8810     0.3860 C.3   1 <1>  -0.0170 
 17 C       -7.2650   -10.3870     0.1860 C.ar  1 <1>  -0.1430 
 18 C       -6.7810   -11.2250     1.1780 C.ar  1 <1>  -0.1500 
 19 C       -7.7460   -10.9360    -0.9930 C.ar  1 <1>  -0.1500 
 20 C       -6.7770   -12.5970     0.9950 C.ar  1 <1>  -0.1500 
 21 C       -7.7430   -12.3080    -1.1780 C.ar  1 <1>  -0.1500 
 22 C       -7.2580   -13.1400    -0.1840 C.ar  1 <1>  -0.1500 
 23 H       -2.4160     0.2220     1.2730 H     1 <1>   0.1500 
 24 H        1.1410    -2.5290     1.0760 H     1 <1>   0.1500 
 25 H       -0.1200    -4.2840    -0.5520 H     1 <1>   0.0800 
 26 H       -1.0120    -3.3730    -1.7500 H     1 <1>   0.0800 
 27 H       -2.4450    -4.1870     0.6000 H     1 <1>   0.4500 
 28 H       -1.1830    -6.2110     0.1120 H     1 <1>   0.0800 
 29 H       -1.8920    -6.2000    -1.4890 H     1 <1>   0.0800 
 30 H       -3.2600    -4.2320    -2.2110 H     1 <1>   0.0800 
 31 H       -3.4830    -2.8940    -1.1060 H     1 <1>   0.0800 
 32 H       -3.3510    -6.4170     1.1440 H     1 <1>   0.0800 
 33 H       -3.1540    -7.6690    -0.0370 H     1 <1>   0.0800 
 34 H       -5.4960    -4.3040    -1.2440 H     1 <1>   0.0800 
 35 H       -4.8430    -4.2390     0.3590 H     1 <1>   0.0800 
 36 H       -4.5360    -6.4860    -1.6430 H     1 <1>   0.0800 
 37 H       -6.7260    -6.3530    -0.4980 H     1 <1>   0.0800 
 38 H       -6.7470    -6.7460     1.7410 H     1 <1>   0.4000 
 39 H       -5.1280    -8.7280     0.5080 H     1 <1>   0.0800 
 40 H       -5.7630    -8.5940    -1.1010 H     1 <1>   0.0800 
 41 H       -8.0700    -8.4440    -0.1730 H     1 <1>   0.0800 
 42 H       -7.4250    -8.6650     1.4270 H     1 <1>   0.0800 
 43 H       -6.4030   -10.8150     2.0980 H     1 <1>   0.1500 
 44 H       -8.1250   -10.3000    -1.7730 H     1 <1>   0.1500 
 45 H       -6.4000   -13.2430     1.7690 H     1 <1>   0.1500 
 46 H       -8.1180   -12.7290    -2.0940 H     1 <1>   0.1500 
 47 H       -7.2560   -14.2060    -0.3270 H     1 <1>   0.1500 
@<TRIPOS>BOND
  1   1   2  1   
  2   1   3  1   
  3   2   4  2   
  4   2  23  1   
  5   3   5  2   
  6   3  24  1   
  7   4   5  1   
  8   5   6  1   
  9   6   7  1   
 10   6  25  1   
 11   6  26  1   
 12   7   8  1   
 13   7   9  1   
 14   7  27  1   
 15   8  10  1   
 16   8  28  1   
 17   8  29  1   
 18   9  11  1   
 19   9  30  1   
 20   9  31  1   
 21  10  12  1   
 22  10  32  1   
 23  10  33  1   
 24  11  12  1   
 25  11  34  1   
 26  11  35  1   
 27  12  13  1   
 28  12  36  1   
 29  13  14  1   
 30  13  15  1   
 31  13  37  1   
 32  14  38  1   
 33  15  16  1   
 34  15  39  1   
 35  15  40  1   
 36  16  17  1   
 37  16  41  1   
 38  16  42  1   
 39  17  18  ar  
 40  17  19  ar  
 41  18  20  ar  
 42  18  43  1   
 43  19  21  ar  
 44  19  44  1   
 45  20  22  ar  
 46  20  45  1   
 47  21  22  ar  
 48  21  46  1   
 49  22  47  1   
@<TRIPOS>SUBSTRUCTURE
  1 ****  12 GROUP 4 **** **** 0

# MOE 2024.06 (io_trps.svl 2023.06)
