@<TRIPOS>MOLECULE
NONAME
53 56 1 0 0 
SMALL
USER_CHARGES


@<TRIPOS>ATOM
  1 O       -3.5030     0.7210    -2.4170 O.2   1 <1>  -0.5700 
  2 C       -3.4490     0.9070    -1.2150 C.2   1 <1>   0.5440 
  3 N       -2.6790     1.9490    -0.7330 N.am  1 <1>  -0.6600 
  4 C       -4.1860     0.0240    -0.3450 C.ar  1 <1>   0.0860 
  5 C       -2.1570     3.0140    -1.6370 C.3   1 <1>   0.1400 
  6 C       -2.1300     2.0010     0.6520 C.3   1 <1>   0.1400 
  7 C       -4.1220    -1.3550    -0.5250 C.ar  1 <1>   0.1600 
  8 C       -4.9960     0.4840     0.6900 C.ar  1 <1>  -0.1500 
  9 C       -0.6280     2.9390    -1.7000 C.3   1 <1>  -0.1600 
 10 C       -0.6000     1.9280     0.6080 C.3   1 <1>  -0.1600 
 11 N       -4.7370    -2.2660     0.2100 N.ar  1 <1>  -0.6200 
 12 C       -5.6480    -0.4470     1.4610 C.ar  1 <1>  -0.1500 
 13 C       -0.0020     3.0110    -0.3000 C.3   1 <1>  -0.1600 
 14 C       -5.4940    -1.8050     1.1980 C.ar  1 <1>   0.4100 
 15 N       -6.1520    -2.7230     1.9680 N.pl3 1 <1>  -0.8690 
 16 C       -6.0360    -4.1980     1.8400 C.3   1 <1>   0.2890 
 17 C       -7.2400    -4.7870     1.1190 C.3   1 <1>  -0.0800 
 18 C       -6.2060    -4.8240     3.2180 C.3   1 <1>   0.1200 
 19 C       -8.2790    -4.9170     2.2370 C.3   1 <1>   0.1200 
 20 C       -7.7320    -4.0120    -0.1170 C.3   1 <1>  -0.0170 
 21 O       -7.5830    -4.8580     3.4500 O.3   1 <1>  -0.5600 
 22 C       -8.8940    -4.7320    -0.7840 C.ar  1 <1>  -0.1430 
 23 C       -8.6940    -5.8030    -1.6320 C.ar  1 <1>  -0.1500 
 24 C      -10.2050    -4.3570    -0.5760 C.ar  1 <1>  -0.1500 
 25 C       -9.7840    -6.4320    -2.2100 C.ar  1 <1>   0.1600 
 26 C      -11.2250    -5.0530    -1.2040 C.ar  1 <1>   0.1600 
 27 N      -11.0460    -6.0840    -2.0150 N.ar  1 <1>  -0.6200 
 28 H       -2.5660     2.9090    -2.6270 H     1 <1>   0.0800 
 29 H       -2.4600     3.9730    -1.2550 H     1 <1>   0.0800 
 30 H       -2.4390     2.9220     1.1160 H     1 <1>   0.0800 
 31 H       -2.5000     1.1840     1.2460 H     1 <1>   0.0800 
 32 H       -3.5140    -1.7160    -1.3380 H     1 <1>   0.1500 
 33 H       -5.1040     1.5400     0.8670 H     1 <1>   0.1500 
 34 H       -0.3490     2.0160    -2.1780 H     1 <1>   0.0800 
 35 H       -0.2570     3.7470    -2.3060 H     1 <1>   0.0800 
 36 H       -0.2100     2.0370     1.6040 H     1 <1>   0.0800 
 37 H       -0.3100     0.9560     0.2480 H     1 <1>   0.0800 
 38 H       -6.2830    -0.1420     2.2710 H     1 <1>   0.1500 
 39 H       -0.1910     3.9820     0.1260 H     1 <1>   0.0800 
 40 H        1.0640     2.8800    -0.3720 H     1 <1>   0.0800 
 41 H       -6.8160    -2.4200     2.6840 H     1 <1>   0.4000 
 42 H       -5.1000    -4.4750     1.3860 H     1 <1>   0.0800 
 43 H       -6.9780    -5.7830     0.8070 H     1 <1>   0.0800 
 44 H       -5.7190    -4.2590     3.9920 H     1 <1>   0.0800 
 45 H       -5.8470    -5.8380     3.2200 H     1 <1>   0.0800 
 46 H       -8.8140    -5.8490     2.1810 H     1 <1>   0.0800 
 47 H       -8.9750    -4.0960     2.2240 H     1 <1>   0.0800 
 48 H       -6.9230    -3.9110    -0.8200 H     1 <1>   0.0800 
 49 H       -8.0390    -3.0190     0.1600 H     1 <1>   0.0800 
 50 H       -7.7010    -6.1520    -1.8480 H     1 <1>   0.1500 
 51 H      -10.4450    -3.5290     0.0660 H     1 <1>   0.1500 
 52 H       -9.6080    -7.2650    -2.8680 H     1 <1>   0.1500 
 53 H      -12.2420    -4.7460    -1.0300 H     1 <1>   0.1500 
@<TRIPOS>BOND
  1   1   2  2   
  2   2   3  am  
  3   2   4  1   
  4   3   5  1   
  5   3   6  1   
  6   4   7  ar  
  7   4   8  ar  
  8   5   9  1   
  9   5  28  1   
 10   5  29  1   
 11   6  10  1   
 12   6  30  1   
 13   6  31  1   
 14   7  11  ar  
 15   7  32  1   
 16   8  12  ar  
 17   8  33  1   
 18   9  13  1   
 19   9  34  1   
 20   9  35  1   
 21  10  13  1   
 22  10  36  1   
 23  10  37  1   
 24  11  14  ar  
 25  12  14  ar  
 26  12  38  1   
 27  13  39  1   
 28  13  40  1   
 29  14  15  1   
 30  15  16  1   
 31  15  41  1   
 32  16  17  1   
 33  16  18  1   
 34  16  42  1   
 35  17  19  1   
 36  17  20  1   
 37  17  43  1   
 38  18  21  1   
 39  18  44  1   
 40  18  45  1   
 41  19  21  1   
 42  19  46  1   
 43  19  47  1   
 44  20  22  1   
 45  20  48  1   
 46  20  49  1   
 47  22  23  ar  
 48  22  24  ar  
 49  23  25  ar  
 50  23  50  1   
 51  24  26  ar  
 52  24  51  1   
 53  25  27  ar  
 54  25  52  1   
 55  26  27  ar  
 56  26  53  1   
@<TRIPOS>SUBSTRUCTURE
  1 ****  11 GROUP 4 **** **** 0

# MOE 2024.06 (io_trps.svl 2023.06)
