@<TRIPOS>MOLECULE
NONAME
44 45 1 0 0 
SMALL
USER_CHARGES


@<TRIPOS>ATOM
  1 O        2.2390    -0.3970     2.6450 O.2   1 <1>  -0.5700 
  2 C        1.9310    -0.8990     1.5910 C.2   1 <1>   0.5690 
  3 N        1.6430    -0.1880     0.4640 N.am  1 <1>  -0.4930 
  4 C        1.8700    -2.4140     1.5100 C.3   1 <1>  -0.0990 
  5 C        1.6320     1.2170     0.2680 C.2   1 <1>   0.0630 
  6 C        0.5100    -2.9370     1.0130 C.3   1 <1>  -0.1600 
  7 C        1.2130     1.9020    -0.8760 C.2   1 <1>   0.1080 
  8 C        2.0140     2.1910     1.1170 C.2   1 <1>  -0.3020 
  9 C        0.4480    -4.4690     1.0360 C.3   1 <1>  -0.0160 
 10 N        1.3280     3.1880    -0.7500 N.2   1 <1>  -0.7070 
 11 C        0.6790     1.2630    -2.1380 C.3   1 <1>  -0.0590 
 12 N        1.8230     3.3660     0.4870 N.pl3 1 <1>   0.3140 
 13 C       -0.8740    -4.9460     0.4590 C.ar  1 <1>  -0.1430 
 14 C        2.1030     4.6990     1.0290 C.3   1 <1>   0.0160 
 15 C       -2.0070    -4.9910     1.2550 C.ar  1 <1>  -0.1500 
 16 C       -0.9630    -5.3350    -0.8680 C.ar  1 <1>  -0.1500 
 17 C       -3.2140    -5.4200     0.7310 C.ar  1 <1>  -0.1500 
 18 C       -2.1700    -5.7650    -1.3910 C.ar  1 <1>  -0.1500 
 19 C       -3.3040    -5.8090    -0.5960 C.ar  1 <1>  -0.1430 
 20 C       -4.6290    -6.2820    -1.1710 C.3   1 <1>  -0.0170 
 21 C       -4.7770    -7.7950    -1.0040 C.3   1 <1>  -0.2400 
 22 H        1.3730    -0.7320    -0.3510 H     1 <1>   0.3700 
 23 H        2.0650    -2.8090     2.4920 H     1 <1>   0.0800 
 24 H        2.6570    -2.7520     0.8600 H     1 <1>   0.0800 
 25 H        0.3280    -2.5990     0.0080 H     1 <1>   0.0800 
 26 H       -0.2730    -2.5450     1.6410 H     1 <1>   0.0800 
 27 H        2.4030     2.1050     2.1150 H     1 <1>   0.1500 
 28 H        0.5480    -4.8260     2.0460 H     1 <1>   0.0800 
 29 H        1.2600    -4.8790     0.4610 H     1 <1>   0.0800 
 30 H       -0.1660     0.6420    -1.9040 H     1 <1>   0.0800 
 31 H        1.4470     0.6720    -2.6010 H     1 <1>   0.0800 
 32 H        0.3670     2.0270    -2.8270 H     1 <1>   0.0800 
 33 H        1.6640     4.7820     2.0050 H     1 <1>   0.0800 
 34 H        1.6780     5.4400     0.3770 H     1 <1>   0.0800 
 35 H        3.1650     4.8360     1.0900 H     1 <1>   0.0800 
 36 H       -1.9550    -4.6930     2.2870 H     1 <1>   0.1500 
 37 H       -0.0950    -5.3080    -1.5010 H     1 <1>   0.1500 
 38 H       -4.0840    -5.4530     1.3620 H     1 <1>   0.1500 
 39 H       -2.2240    -6.0680    -2.4220 H     1 <1>   0.1500 
 40 H       -4.6840    -6.0260    -2.2150 H     1 <1>   0.0800 
 41 H       -5.4410    -5.7820    -0.6710 H     1 <1>   0.0800 
 42 H       -3.9790    -8.3040    -1.5150 H     1 <1>   0.0800 
 43 H       -5.7160    -8.1240    -1.4120 H     1 <1>   0.0800 
 44 H       -4.7400    -8.0580     0.0380 H     1 <1>   0.0800 
@<TRIPOS>BOND
  1   1   2  2   
  2   2   3  am  
  3   2   4  1   
  4   3   5  1   
  5   3  22  1   
  6   4   6  1   
  7   4  23  1   
  8   4  24  1   
  9   5   7  1   
 10   5   8  2   
 11   6   9  1   
 12   6  25  1   
 13   6  26  1   
 14   7  10  2   
 15   7  11  1   
 16   8  12  1   
 17   8  27  1   
 18   9  13  1   
 19   9  28  1   
 20   9  29  1   
 21  10  12  1   
 22  11  30  1   
 23  11  31  1   
 24  11  32  1   
 25  12  14  1   
 26  13  15  ar  
 27  13  16  ar  
 28  14  33  1   
 29  14  34  1   
 30  14  35  1   
 31  15  17  ar  
 32  15  36  1   
 33  16  18  ar  
 34  16  37  1   
 35  17  19  ar  
 36  17  38  1   
 37  18  19  ar  
 38  18  39  1   
 39  19  20  1   
 40  20  21  1   
 41  20  40  1   
 42  20  41  1   
 43  21  42  1   
 44  21  43  1   
 45  21  44  1   
@<TRIPOS>SUBSTRUCTURE
  1 ****   6 GROUP 4 **** **** 0

# MOE 2024.06 (io_trps.svl 2023.06)
