@<TRIPOS>MOLECULE
NONAME
56 58 1 0 0 
SMALL
USER_CHARGES


@<TRIPOS>ATOM
  1 O       -0.6020     0.9290    -0.1410 O.2   1 <1>  -0.5700 
  2 C       -0.7320     2.1200    -0.2990 C.2   1 <1>   0.5690 
  3 N       -1.7090     2.8700     0.3070 N.am  1 <1>  -0.6600 
  4 C        0.2500     2.8180    -1.2350 C.3   1 <1>   0.1810 
  5 C       -1.8120     4.3450     0.0420 C.3   1 <1>   0.3640 
  6 C       -2.6820     2.3480     1.3070 C.3   1 <1>   0.2200 
  7 O        0.5200     4.1310    -0.8150 O.3   1 <1>  -0.5600 
  8 C       -3.1270     4.6360    -0.6870 C.ar  1 <1>  -0.1440 
  9 C       -0.6300     4.9650    -0.7580 C.3   1 <1>   0.2610 
 10 C       -1.9460     1.8900     2.5650 C.3   1 <1>  -0.2400 
 11 C       -3.5520     1.2380     0.7160 C.3   1 <1>  -0.2400 
 12 C       -3.5340     3.8720    -1.7740 C.ar  1 <1>  -0.1500 
 13 C       -3.9300     5.6880    -0.2700 C.ar  1 <1>  -0.1500 
 14 C       -0.2490     6.3250    -0.1590 C.2   1 <1>   0.5690 
 15 C       -4.7220     4.1510    -2.4260 C.ar  1 <1>  -0.1500 
 16 C       -5.1180     5.9690    -0.9210 C.ar  1 <1>  -0.1500 
 17 O       -1.0980     7.1570     0.0600 O.2   1 <1>  -0.5700 
 18 N        1.0590     6.5790     0.1210 N.am  1 <1>  -0.7300 
 19 C       -5.5160     5.2000    -2.0000 C.ar  1 <1>  -0.1500 
 20 C        1.5760     7.8240     0.6970 C.3   1 <1>   0.2200 
 21 C        2.1590     8.6860    -0.4190 C.3   1 <1>  -0.1600 
 22 C        2.6370     7.4970     1.7450 C.3   1 <1>  -0.1600 
 23 C        2.7790     9.9550     0.1580 C.3   1 <1>   0.3430 
 24 C        3.2550     8.7820     2.2920 C.3   1 <1>   0.3430 
 25 N        3.8170     9.5960     1.1710 N.4   1 <1>  -0.9590 
 26 C        4.4880    10.8240     1.6960 C.3   1 <1>   0.2630 
 27 H       -0.1480     2.8440    -2.2330 H     1 <1>   0.0800 
 28 H        1.1790     2.2780    -1.2420 H     1 <1>   0.0800 
 29 H       -1.8470     4.8330     1.0010 H     1 <1>   0.0800 
 30 H       -3.3450     3.1490     1.5930 H     1 <1>   0.0800 
 31 H       -0.9440     5.1370    -1.7720 H     1 <1>   0.0800 
 32 H       -1.3190     1.0420     2.3540 H     1 <1>   0.0800 
 33 H       -2.6560     1.6030     3.3180 H     1 <1>   0.0800 
 34 H       -1.3420     2.6890     2.9540 H     1 <1>   0.0800 
 35 H       -2.9700     0.3650     0.4860 H     1 <1>   0.0800 
 36 H       -4.0430     1.5840    -0.1750 H     1 <1>   0.0800 
 37 H       -4.3070     0.9550     1.4260 H     1 <1>   0.0800 
 38 H       -2.9330     3.0480    -2.1160 H     1 <1>   0.1500 
 39 H       -3.6340     6.3040     0.5630 H     1 <1>   0.1500 
 40 H       -5.0300     3.5510    -3.2650 H     1 <1>   0.1500 
 41 H       -5.7320     6.7880    -0.5890 H     1 <1>   0.1500 
 42 H        1.7200     5.8230    -0.0900 H     1 <1>   0.3700 
 43 H       -6.4400     5.4190    -2.5060 H     1 <1>   0.1500 
 44 H        0.7650     8.3580     1.1690 H     1 <1>   0.0800 
 45 H        2.9010     8.1390    -0.9730 H     1 <1>   0.0800 
 46 H        1.3690     8.9620    -1.0970 H     1 <1>   0.0800 
 47 H        2.1790     6.9590     2.5560 H     1 <1>   0.0800 
 48 H        3.4090     6.8790     1.3230 H     1 <1>   0.0800 
 49 H        2.0090    10.5520     0.6190 H     1 <1>   0.0800 
 50 H        3.2220    10.5310    -0.6390 H     1 <1>   0.0800 
 51 H        4.0350     8.5340     2.9960 H     1 <1>   0.0800 
 52 H        2.5000     9.3500     2.8120 H     1 <1>   0.0800 
 53 H        4.5280     9.0200     0.6950 H     1 <1>   0.4500 
 54 H        3.7740    11.4550     2.2010 H     1 <1>   0.0800 
 55 H        4.9300    11.3840     0.8870 H     1 <1>   0.0800 
 56 H        5.2670    10.5580     2.3920 H     1 <1>   0.0800 
@<TRIPOS>BOND
  1   1   2  2   
  2   2   3  am  
  3   2   4  1   
  4   3   5  1   
  5   3   6  1   
  6   4   7  1   
  7   4  27  1   
  8   4  28  1   
  9   5   8  1   
 10   5   9  1   
 11   5  29  1   
 12   6  10  1   
 13   6  11  1   
 14   6  30  1   
 15   7   9  1   
 16   8  12  ar  
 17   8  13  ar  
 18   9  14  1   
 19   9  31  1   
 20  10  32  1   
 21  10  33  1   
 22  10  34  1   
 23  11  35  1   
 24  11  36  1   
 25  11  37  1   
 26  12  15  ar  
 27  12  38  1   
 28  13  16  ar  
 29  13  39  1   
 30  14  17  2   
 31  14  18  am  
 32  15  19  ar  
 33  15  40  1   
 34  16  19  ar  
 35  16  41  1   
 36  18  20  1   
 37  18  42  1   
 38  19  43  1   
 39  20  21  1   
 40  20  22  1   
 41  20  44  1   
 42  21  23  1   
 43  21  45  1   
 44  21  46  1   
 45  22  24  1   
 46  22  47  1   
 47  22  48  1   
 48  23  25  1   
 49  23  49  1   
 50  23  50  1   
 51  24  25  1   
 52  24  51  1   
 53  24  52  1   
 54  25  26  1   
 55  25  53  1   
 56  26  54  1   
 57  26  55  1   
 58  26  56  1   
@<TRIPOS>SUBSTRUCTURE
  1 ****   9 GROUP 4 **** **** 0

# MOE 2024.06 (io_trps.svl 2023.06)
