@<TRIPOS>MOLECULE
NONAME
43 45 1 0 0 
SMALL
USER_CHARGES


@<TRIPOS>ATOM
  1 O       -3.5100    -1.5490    -2.5990 O.2   1 <1>  -0.5700 
  2 C       -3.0720    -1.5740    -1.4710 C.2   1 <1>   0.5690 
  3 N       -3.3220    -0.5690    -0.5720 N.am  1 <1>  -0.6600 
  4 C       -2.1700    -2.7360    -1.0920 C.3   1 <1>  -0.0190 
  5 C       -2.7110    -0.5710     0.7970 C.3   1 <1>   0.2200 
  6 C       -4.4200     0.4100    -0.7900 C.3   1 <1>   0.0600 
  7 C       -0.7380    -2.2390    -0.8420 C.3   1 <1>   0.1200 
  8 C       -2.7230    -3.6170     0.0480 C.3   1 <1>   0.2090 
  9 C       -1.1740    -0.4860     0.6990 C.3   1 <1>   0.1200 
 10 C       -3.1690    -1.7580     1.6870 C.3   1 <1>   0.2090 
 11 O       -0.5710    -1.7240     0.4440 O.3   1 <1>  -0.5600 
 12 N       -3.7250    -2.9220     0.9180 N.pl3 1 <1>  -0.8380 
 13 C       -5.0890    -3.0600     0.7130 C.ar  1 <1>   0.7200 
 14 N       -5.4820    -3.9870    -0.1560 N.ar  1 <1>  -0.6200 
 15 N       -5.8980    -2.2510     1.3960 N.ar  1 <1>  -0.6200 
 16 C       -6.7690    -4.1030    -0.3760 C.ar  1 <1>   0.1670 
 17 C       -7.1790    -2.3900     1.1700 C.ar  1 <1>   0.1600 
 18 C       -7.6880    -3.3080     0.2810 C.ar  1 <1>  -0.1440 
 19 C       -7.1710    -5.1620    -1.3950 C.3   1 <1>  -0.0170 
 20 C       -9.1940    -3.4100     0.0660 C.3   1 <1>  -0.0970 
 21 C       -7.3080    -6.5440    -0.7440 C.3   1 <1>  -0.2400 
 22 H       -2.1100    -3.3660    -1.9600 H     1 <1>   0.0800 
 23 H       -3.0230     0.3300     1.2940 H     1 <1>   0.0800 
 24 H       -4.0480     1.4110    -0.6710 H     1 <1>   0.0800 
 25 H       -5.2060     0.2300    -0.0770 H     1 <1>   0.0800 
 26 H       -4.8300     0.3080    -1.7800 H     1 <1>   0.0800 
 27 H       -0.4570    -1.4900    -1.5620 H     1 <1>   0.0800 
 28 H       -0.0560    -3.0660    -0.9320 H     1 <1>   0.0800 
 29 H       -1.9110    -3.9590     0.6660 H     1 <1>   0.0800 
 30 H       -3.1580    -4.5000    -0.3850 H     1 <1>   0.0800 
 31 H       -0.7840    -0.1490     1.6420 H     1 <1>   0.0800 
 32 H       -0.8760     0.2190    -0.0590 H     1 <1>   0.0800 
 33 H       -3.8940    -1.3920     2.3910 H     1 <1>   0.0800 
 34 H       -2.3410    -2.1040     2.2810 H     1 <1>   0.0800 
 35 H       -7.8470    -1.7450     1.7140 H     1 <1>   0.1500 
 36 H       -8.0920    -4.8930    -1.8770 H     1 <1>   0.0800 
 37 H       -6.4160    -5.2060    -2.1610 H     1 <1>   0.0800 
 38 H       -9.7250    -2.8000     0.7750 H     1 <1>   0.0800 
 39 H       -9.5190    -4.4270     0.1900 H     1 <1>   0.0800 
 40 H       -9.4460    -3.0780    -0.9250 H     1 <1>   0.0800 
 41 H       -8.0630    -6.5250     0.0210 H     1 <1>   0.0800 
 42 H       -6.3720    -6.8290    -0.2960 H     1 <1>   0.0800 
 43 H       -7.5760    -7.2780    -1.4830 H     1 <1>   0.0800 
@<TRIPOS>BOND
  1   1   2  2   
  2   2   3  am  
  3   2   4  1   
  4   3   5  1   
  5   3   6  1   
  6   4   7  1   
  7   4   8  1   
  8   4  22  1   
  9   5   9  1   
 10   5  10  1   
 11   5  23  1   
 12   6  24  1   
 13   6  25  1   
 14   6  26  1   
 15   7  11  1   
 16   7  27  1   
 17   7  28  1   
 18   8  12  1   
 19   8  29  1   
 20   8  30  1   
 21   9  11  1   
 22   9  31  1   
 23   9  32  1   
 24  10  12  1   
 25  10  33  1   
 26  10  34  1   
 27  12  13  1   
 28  13  14  ar  
 29  13  15  ar  
 30  14  16  ar  
 31  15  17  ar  
 32  16  18  ar  
 33  16  19  1   
 34  17  18  ar  
 35  17  35  1   
 36  18  20  1   
 37  19  21  1   
 38  19  36  1   
 39  19  37  1   
 40  20  38  1   
 41  20  39  1   
 42  20  40  1   
 43  21  41  1   
 44  21  42  1   
 45  21  43  1   
@<TRIPOS>SUBSTRUCTURE
  1 ****  13 GROUP 4 **** **** 0

# MOE 2024.06 (io_trps.svl 2023.06)
