@<TRIPOS>MOLECULE
NONAME
46 49 1 0 0 
SMALL
USER_CHARGES


@<TRIPOS>ATOM
  1 S       -0.3200     1.1360     1.1970 S.3   1 <1>  -0.0800 
  2 C        0.4900     1.8650    -0.1830 C.2   1 <1>  -0.0450 
  3 C       -1.8080     0.9490     0.2860 C.2   1 <1>  -0.1100 
  4 C       -0.3510     1.9350    -1.2330 C.2   1 <1>  -0.1500 
  5 C        1.9450     2.2810     0.0000 C.3   1 <1>   0.0850 
  6 C       -1.6580     1.4150    -0.9670 C.2   1 <1>  -0.1500 
  7 C        2.0860     3.3940     1.0570 C.2   1 <1>   0.6300 
  8 C        3.0360     1.2570    -0.2060 C.3   1 <1>  -0.1900 
  9 C        2.8360     2.3270    -1.2250 C.3   1 <1>  -0.2000 
 10 O        2.3880     3.0780     2.1880 O.2   1 <1>  -0.5700 
 11 N        1.8900     4.7140     0.7230 N.am  1 <1>  -0.6600 
 12 C        4.3280     1.3010     0.6230 C.3   1 <1>  -0.1450 
 13 C        2.6710    -0.1860    -0.5840 C.3   1 <1>  -0.1450 
 14 C        2.2540     5.7920     1.6810 C.3   1 <1>   0.2840 
 15 C        1.4620     5.2000    -0.6190 C.3   1 <1>   0.0600 
 16 C        3.5660     6.4210     1.2430 C.ar  1 <1>  -0.1430 
 17 C        3.5690     7.5850     0.4940 C.ar  1 <1>  -0.1500 
 18 C        4.7710     5.8230     1.5760 C.ar  1 <1>  -0.1500 
 19 C        4.7510     8.1810     0.0510 C.ar  1 <1>   0.0410 
 20 C        5.9610     6.3940     1.1630 C.ar  1 <1>  -0.1500 
 21 C        4.7280     9.3860    -0.7570 C.2   1 <1>   0.6960 
 22 C        5.9480     7.5550     0.4110 C.ar  1 <1>  -0.1500 
 23 N        5.7820    10.0320    -1.1560 N.2   1 <1>  -0.6190 
 24 N        3.6400     9.9610    -1.1880 N.2   1 <1>  -0.6190 
 25 N        5.3510    11.0250    -1.8460 N.2   1 <1>  -0.2500 
 26 N        4.0490    10.9820    -1.8660 N.2   1 <1>  -0.2500 
 27 H       -2.6450     0.5040     0.7940 H     1 <1>   0.1500 
 28 H       -0.1070     2.3330    -2.2010 H     1 <1>   0.1500 
 29 H       -2.4200     1.4160    -1.7280 H     1 <1>   0.1500 
 30 H        3.5630     3.1170    -1.2980 H     1 <1>   0.1000 
 31 H        2.4260     2.0580    -2.1820 H     1 <1>   0.1000 
 32 H        4.6410     2.3140     0.8050 H     1 <1>   0.0800 
 33 H        5.1230     0.7920     0.1070 H     1 <1>   0.0800 
 34 H        4.1680     0.8230     1.5730 H     1 <1>   0.0800 
 35 H        1.8250    -0.2180    -1.2460 H     1 <1>   0.0800 
 36 H        2.4280    -0.7450     0.3030 H     1 <1>   0.0800 
 37 H        3.4990    -0.6630    -1.0770 H     1 <1>   0.0800 
 38 H        2.3550     5.4030     2.6790 H     1 <1>   0.0800 
 39 H        1.4740     6.5330     1.7000 H     1 <1>   0.0800 
 40 H        0.9440     4.4320    -1.1630 H     1 <1>   0.0800 
 41 H        2.3250     5.5110    -1.1840 H     1 <1>   0.0800 
 42 H        0.7980     6.0400    -0.5110 H     1 <1>   0.0800 
 43 H        2.6370     8.0560     0.2310 H     1 <1>   0.1500 
 44 H        4.7780     4.9130     2.1520 H     1 <1>   0.1500 
 45 H        6.8980     5.9340     1.4230 H     1 <1>   0.1500 
 46 H        6.8750     7.9970     0.0870 H     1 <1>   0.1500 
@<TRIPOS>BOND
  1   1   2  1   
  2   1   3  1   
  3   2   4  2   
  4   2   5  1   
  5   3   6  2   
  6   3  27  1   
  7   4   6  1   
  8   4  28  1   
  9   5   7  1   
 10   5   8  1   
 11   5   9  1   
 12   6  29  1   
 13   7  10  2   
 14   7  11  am  
 15   8   9  1   
 16   8  12  1   
 17   8  13  1   
 18   9  30  1   
 19   9  31  1   
 20  11  14  1   
 21  11  15  1   
 22  12  32  1   
 23  12  33  1   
 24  12  34  1   
 25  13  35  1   
 26  13  36  1   
 27  13  37  1   
 28  14  16  1   
 29  14  38  1   
 30  14  39  1   
 31  15  40  1   
 32  15  41  1   
 33  15  42  1   
 34  16  17  ar  
 35  16  18  ar  
 36  17  19  ar  
 37  17  43  1   
 38  18  20  ar  
 39  18  44  1   
 40  19  21  1   
 41  19  22  ar  
 42  20  22  ar  
 43  20  45  1   
 44  21  23  1   
 45  21  24  2   
 46  22  46  1   
 47  23  25  1   
 48  24  26  1   
 49  25  26  2   
@<TRIPOS>SUBSTRUCTURE
  1 ****  11 GROUP 4 **** **** 0

# MOE 2024.06 (io_trps.svl 2023.06)
