@<TRIPOS>MOLECULE
NONAME
47 49 1 0 0 
SMALL
USER_CHARGES


@<TRIPOS>ATOM
  1 S        0.7360    -0.3230    -0.0700 S.3   1 <1>  -0.4600 
  2 C        0.9230     1.3190    -0.8140 C.3   1 <1>   0.0700 
  3 C       -0.0790    -1.2840    -1.3740 C.3   1 <1>  -0.0100 
  4 C        1.5890     2.2460     0.2150 C.3   1 <1>  -0.0800 
  5 C        1.5710     3.7020    -0.2780 C.3   1 <1>  -0.1600 
  6 C        3.0390     1.8230     0.5170 C.3   1 <1>  -0.1600 
  7 C        2.2690     4.6390     0.7080 C.3   1 <1>   0.3430 
  8 C        3.7200     2.7830     1.4890 C.3   1 <1>   0.3430 
  9 N        3.6630     4.1660     0.9440 N.4   1 <1>  -0.9590 
 10 C        4.4720     5.1170     1.7530 C.3   1 <1>   0.4810 
 11 C        4.6050     6.4410     1.0260 C.2   1 <1>  -0.1240 
 12 C        5.2130     6.4030    -0.2670 C.2   1 <1>   0.6160 
 13 C        4.1830     7.6090     1.5630 C.2   1 <1>  -0.1780 
 14 O        5.5080     5.3250    -0.7670 O.2   1 <1>  -0.5700 
 15 N        5.4130     7.5890    -0.9500 N.am  1 <1>  -0.4770 
 16 C        4.3340     8.8330     0.8440 C.ar  1 <1>   0.0280 
 17 C        4.9510     8.8150    -0.4230 C.ar  1 <1>   0.1170 
 18 C        6.1480     7.5700    -2.2530 C.3   1 <1>   0.0600 
 19 C        3.8810    10.0430     1.3730 C.ar  1 <1>  -0.1500 
 20 C        5.0760    10.0260    -1.1130 C.ar  1 <1>  -0.1500 
 21 C        4.0200    11.2200     0.6740 C.ar  1 <1>  -0.1500 
 22 C        4.6200    11.2100    -0.5760 C.ar  1 <1>  -0.1500 
 23 H       -0.0650     1.6580    -1.0700 H     1 <1>   0.0800 
 24 H        1.5180     1.2080    -1.7050 H     1 <1>   0.0800 
 25 H       -0.2250    -2.2820    -1.0000 H     1 <1>   0.0800 
 26 H        0.5620    -1.2890    -2.2360 H     1 <1>   0.0800 
 27 H       -1.0230    -0.8170    -1.5930 H     1 <1>   0.0800 
 28 H        1.0140     2.1900     1.1250 H     1 <1>   0.0800 
 29 H        0.5520     4.0280    -0.4000 H     1 <1>   0.0800 
 30 H        2.0520     3.7780    -1.2380 H     1 <1>   0.0800 
 31 H        3.6110     1.7720    -0.3930 H     1 <1>   0.0800 
 32 H        3.0500     0.8400     0.9560 H     1 <1>   0.0800 
 33 H        1.7250     4.6540     1.6390 H     1 <1>   0.0800 
 34 H        2.2790     5.6390     0.3030 H     1 <1>   0.0800 
 35 H        4.7460     2.4810     1.6290 H     1 <1>   0.0800 
 36 H        3.2180     2.7430     2.4430 H     1 <1>   0.0800 
 37 H        4.1440     4.1540     0.0220 H     1 <1>   0.4500 
 38 H        5.4580     4.7100     1.9070 H     1 <1>   0.0800 
 39 H        4.0120     5.2690     2.7150 H     1 <1>   0.0800 
 40 H        3.7270     7.6710     2.5370 H     1 <1>   0.1500 
 41 H        6.5380     6.5920    -2.4750 H     1 <1>   0.0800 
 42 H        6.9760     8.2560    -2.2110 H     1 <1>   0.0800 
 43 H        5.4830     7.8600    -3.0470 H     1 <1>   0.0800 
 44 H        3.4140    10.0590     2.3420 H     1 <1>   0.1500 
 45 H        5.5330    10.0590    -2.0840 H     1 <1>   0.1500 
 46 H        3.6680    12.1490     1.0900 H     1 <1>   0.1500 
 47 H        4.7270    12.1320    -1.1220 H     1 <1>   0.1500 
@<TRIPOS>BOND
  1   1   2  1   
  2   1   3  1   
  3   2   4  1   
  4   2  23  1   
  5   2  24  1   
  6   3  25  1   
  7   3  26  1   
  8   3  27  1   
  9   4   5  1   
 10   4   6  1   
 11   4  28  1   
 12   5   7  1   
 13   5  29  1   
 14   5  30  1   
 15   6   8  1   
 16   6  31  1   
 17   6  32  1   
 18   7   9  1   
 19   7  33  1   
 20   7  34  1   
 21   8   9  1   
 22   8  35  1   
 23   8  36  1   
 24   9  10  1   
 25   9  37  1   
 26  10  11  1   
 27  10  38  1   
 28  10  39  1   
 29  11  12  1   
 30  11  13  2   
 31  12  14  2   
 32  12  15  am  
 33  13  16  1   
 34  13  40  1   
 35  15  17  1   
 36  15  18  1   
 37  16  17  ar  
 38  16  19  ar  
 39  17  20  ar  
 40  18  41  1   
 41  18  42  1   
 42  18  43  1   
 43  19  21  ar  
 44  19  44  1   
 45  20  22  ar  
 46  20  45  1   
 47  21  22  ar  
 48  21  46  1   
 49  22  47  1   
@<TRIPOS>SUBSTRUCTURE
  1 ****  11 GROUP 4 **** **** 0

# MOE 2024.06 (io_trps.svl 2023.06)
