@<TRIPOS>MOLECULE
NONAME
34 34 1 0 0 
SMALL
USER_CHARGES


@<TRIPOS>ATOM
  1 CL      -0.2610    -0.8360     1.9370 Cl    1 <1>  -0.1770 
  2 C        1.1960    -1.2860     1.0680 C.ar  1 <1>   0.1770 
  3 C        1.3500    -2.5630     0.5420 C.ar  1 <1>   0.4100 
  4 C        2.2070    -0.3830     0.8880 C.ar  1 <1>   0.1600 
  5 N        2.4490    -2.8840    -0.1150 N.ar  1 <1>  -0.6200 
  6 N        0.3820    -3.5310     0.6870 N.pl3 1 <1>  -0.8690 
  7 N        3.3120    -0.6970     0.2330 N.ar  1 <1>  -0.6200 
  8 C        3.3630    -1.9360    -0.2300 C.ar  1 <1>   0.4770 
  9 C        0.2810    -4.7260    -0.2150 C.3   1 <1>   0.3500 
 10 C        4.6210    -2.3060    -0.9780 C.3   1 <1>  -0.0960 
 11 C       -1.2000    -5.0820    -0.4820 C.2   1 <1>   0.5690 
 12 C        1.0780    -5.8760     0.4380 C.3   1 <1>  -0.1600 
 13 O       -1.6380    -5.0790    -1.6060 O.2   1 <1>  -0.5700 
 14 N       -2.0330    -5.3620     0.5480 N.am  1 <1>  -0.8000 
 15 C        1.5770    -6.9630    -0.5360 C.3   1 <1>  -0.0800 
 16 C        0.4400    -7.7720    -1.1740 C.3   1 <1>  -0.2400 
 17 C        2.5160    -7.9200     0.2080 C.3   1 <1>  -0.2400 
 18 H        2.1150     0.6130     1.2840 H     1 <1>   0.1500 
 19 H       -0.5330    -3.1920     0.9990 H     1 <1>   0.4000 
 20 H        0.7330    -4.4820    -1.1610 H     1 <1>   0.0800 
 21 H        4.7990    -1.5900    -1.7580 H     1 <1>   0.0800 
 22 H        4.5280    -3.2830    -1.4150 H     1 <1>   0.0800 
 23 H        5.4520    -2.3020    -0.2990 H     1 <1>   0.0800 
 24 H        1.9480    -5.4430     0.9000 H     1 <1>   0.0800 
 25 H        0.4930    -6.3260     1.2180 H     1 <1>   0.0800 
 26 H       -3.0090    -5.5910     0.3550 H     1 <1>   0.3700 
 27 H       -1.7300    -5.3990     1.5210 H     1 <1>   0.3700 
 28 H        2.1440    -6.4890    -1.3220 H     1 <1>   0.0800 
 29 H       -0.2240    -8.1590    -0.4220 H     1 <1>   0.0800 
 30 H        0.8410    -8.6000    -1.7320 H     1 <1>   0.0800 
 31 H       -0.1230    -7.1690    -1.8610 H     1 <1>   0.0800 
 32 H        1.9940    -8.4240     1.0030 H     1 <1>   0.0800 
 33 H        3.3450    -7.3790     0.6310 H     1 <1>   0.0800 
 34 H        2.9100    -8.6590    -0.4660 H     1 <1>   0.0800 
@<TRIPOS>BOND
  1   1   2  1   
  2   2   3  ar  
  3   2   4  ar  
  4   3   5  ar  
  5   3   6  1   
  6   4   7  ar  
  7   4  18  1   
  8   5   8  ar  
  9   6   9  1   
 10   6  19  1   
 11   7   8  ar  
 12   8  10  1   
 13   9  11  1   
 14   9  12  1   
 15   9  20  1   
 16  10  21  1   
 17  10  22  1   
 18  10  23  1   
 19  11  13  2   
 20  11  14  am  
 21  12  15  1   
 22  12  24  1   
 23  12  25  1   
 24  14  26  1   
 25  14  27  1   
 26  15  16  1   
 27  15  17  1   
 28  15  28  1   
 29  16  29  1   
 30  16  30  1   
 31  16  31  1   
 32  17  32  1   
 33  17  33  1   
 34  17  34  1   
@<TRIPOS>SUBSTRUCTURE
  1 ****   6 GROUP 4 **** **** 0

# MOE 2024.06 (io_trps.svl 2023.06)
