@<TRIPOS>MOLECULE
NONAME
54 57 1 0 0 
SMALL
USER_CHARGES


@<TRIPOS>ATOM
  1 O        0.8850    -0.0450     1.6830 O.2   1 <1>  -0.5700 
  2 C        1.4750    -0.7060     0.8430 C.2   1 <1>   0.5440 
  3 N        0.9020    -1.8560     0.3480 N.am  1 <1>  -0.4200 
  4 C        2.7590    -0.3170     0.3330 C.ar  1 <1>   0.0860 
  5 C        1.5660    -2.5840    -0.6110 C.2   1 <1>   0.4500 
  6 C       -0.4160    -2.3310     0.8470 C.3   1 <1>   0.1400 
  7 C        3.3390    -1.1350    -0.6450 C.ar  1 <1>   0.1790 
  8 C        3.4500     0.8230     0.7550 C.ar  1 <1>  -0.1500 
  9 N        2.7050    -2.2750    -1.1000 N.2   1 <1>  -0.6290 
 10 C       -1.5540    -1.5520     0.1770 C.3   1 <1>  -0.0990 
 11 C        4.5800    -0.7960    -1.1720 C.ar  1 <1>  -0.1500 
 12 C        4.6810     1.1460     0.2240 C.ar  1 <1>  -0.1500 
 13 C       -2.9240    -2.0780     0.5670 C.2   1 <1>   0.5690 
 14 C        5.2490     0.3320    -0.7450 C.ar  1 <1>  -0.1500 
 15 O       -2.9790    -3.1450     1.1330 O.2   1 <1>  -0.5700 
 16 N       -4.0530    -1.3630     0.2570 N.am  1 <1>  -0.6600 
 17 C       -5.4110    -1.8410     0.6700 C.3   1 <1>   0.1400 
 18 C       -4.0980    -0.1060    -0.5410 C.3   1 <1>   0.1400 
 19 C       -6.3030    -2.1110    -0.5670 C.3   1 <1>   0.0000 
 20 C       -4.9520    -0.3240    -1.7950 C.3   1 <1>  -0.1600 
 21 C       -7.7110    -2.5700    -0.1510 C.3   1 <1>   0.2000 
 22 C       -6.3580    -0.8430    -1.4470 C.3   1 <1>  -0.1600 
 23 C       -5.7930    -3.3400    -1.3400 C.3   1 <1>  -0.1600 
 24 O       -8.1810    -1.8480     0.9490 O.3   1 <1>  -0.5600 
 25 C       -7.5820    -4.0630     0.1720 C.3   1 <1>  -0.1600 
 26 C       -6.3420    -4.5550    -0.5870 C.3   1 <1>  -0.1600 
 27 C       -9.5430    -1.9860     1.2040 C.3   1 <1>   0.0400 
 28 H        1.0700    -3.4730    -0.9610 H     1 <1>   0.0600 
 29 H       -0.5200    -3.3830     0.6400 H     1 <1>   0.0800 
 30 H       -0.4660    -2.2000     1.9150 H     1 <1>   0.0800 
 31 H        3.0050     1.4520     1.5080 H     1 <1>   0.1500 
 32 H       -1.4600    -1.6210    -0.8900 H     1 <1>   0.0800 
 33 H       -1.4830    -0.5240     0.4780 H     1 <1>   0.0800 
 34 H        5.0120    -1.4350    -1.9220 H     1 <1>   0.1500 
 35 H        5.2040     2.0270     0.5570 H     1 <1>   0.1500 
 36 H        6.2100     0.5830    -1.1620 H     1 <1>   0.1500 
 37 H       -5.3340    -2.7290     1.2720 H     1 <1>   0.0800 
 38 H       -5.8630    -1.0810     1.2830 H     1 <1>   0.0800 
 39 H       -4.5350     0.6710     0.0640 H     1 <1>   0.0800 
 40 H       -3.1150     0.2140    -0.8330 H     1 <1>   0.0800 
 41 H       -5.0370     0.6060    -2.3290 H     1 <1>   0.0800 
 42 H       -4.4520    -1.0250    -2.4400 H     1 <1>   0.0800 
 43 H       -8.3870    -2.4310    -0.9780 H     1 <1>   0.0800 
 44 H       -6.9060    -1.0390    -2.3520 H     1 <1>   0.0800 
 45 H       -6.8870    -0.0750    -0.9080 H     1 <1>   0.0800 
 46 H       -6.2000    -3.3370    -2.3360 H     1 <1>   0.0800 
 47 H       -4.7190    -3.3740    -1.4120 H     1 <1>   0.0800 
 48 H       -7.4350    -4.2040     1.2280 H     1 <1>   0.0800 
 49 H       -8.4610    -4.5940    -0.1460 H     1 <1>   0.0800 
 50 H       -5.6050    -4.9050     0.1170 H     1 <1>   0.0800 
 51 H       -6.5810    -5.3560    -1.2650 H     1 <1>   0.0800 
 52 H       -9.7870    -1.3710     2.0520 H     1 <1>   0.0800 
 53 H       -9.7640    -3.0150     1.4290 H     1 <1>   0.0800 
 54 H      -10.1010    -1.6560     0.3450 H     1 <1>   0.0800 
@<TRIPOS>BOND
  1   1   2  2   
  2   2   3  am  
  3   2   4  1   
  4   3   5  1   
  5   3   6  1   
  6   4   7  ar  
  7   4   8  ar  
  8   5   9  2   
  9   5  28  1   
 10   6  10  1   
 11   6  29  1   
 12   6  30  1   
 13   7   9  1   
 14   7  11  ar  
 15   8  12  ar  
 16   8  31  1   
 17  10  13  1   
 18  10  32  1   
 19  10  33  1   
 20  11  14  ar  
 21  11  34  1   
 22  12  14  ar  
 23  12  35  1   
 24  13  15  2   
 25  13  16  am  
 26  14  36  1   
 27  16  17  1   
 28  16  18  1   
 29  17  19  1   
 30  17  37  1   
 31  17  38  1   
 32  18  20  1   
 33  18  39  1   
 34  18  40  1   
 35  19  21  1   
 36  19  22  1   
 37  19  23  1   
 38  20  22  1   
 39  20  41  1   
 40  20  42  1   
 41  21  24  1   
 42  21  25  1   
 43  21  43  1   
 44  22  44  1   
 45  22  45  1   
 46  23  26  1   
 47  23  46  1   
 48  23  47  1   
 49  24  27  1   
 50  25  26  1   
 51  25  48  1   
 52  25  49  1   
 53  26  50  1   
 54  26  51  1   
 55  27  52  1   
 56  27  53  1   
 57  27  54  1   
@<TRIPOS>SUBSTRUCTURE
  1 ****  10 GROUP 4 **** **** 0

# MOE 2024.06 (io_trps.svl 2023.06)
