@<TRIPOS>MOLECULE
NONAME
47 49 1 0 0 
SMALL
USER_CHARGES


@<TRIPOS>ATOM
  1 O       -0.4820     0.3200     1.6720 O.2   1 <1>  -0.5700 
  2 C       -1.4440     0.9250     1.2280 C.2   1 <1>   0.5440 
  3 N       -2.6660     0.2720     1.2280 N.am  1 <1>  -0.6600 
  4 C       -1.2580     2.2940     0.7380 C.ar  1 <1>   0.3960 
  5 C       -2.7640    -1.2190     1.2450 C.3   1 <1>   0.1400 
  6 C       -3.9680     0.9080     0.8670 C.3   1 <1>   0.1400 
  7 N       -1.8000     2.6670    -0.4360 N.ar  1 <1>  -0.6200 
  8 C       -0.5060     3.1790     1.5110 C.ar  1 <1>  -0.1500 
  9 C       -3.3710    -1.7310    -0.0760 C.3   1 <1>   0.3440 
 10 C       -4.4800     0.3260    -0.4670 C.3   1 <1>   0.2000 
 11 C       -1.6070     3.9120    -0.8070 C.ar  1 <1>   0.4100 
 12 C       -0.3070     4.4830     1.1080 C.ar  1 <1>  -0.1500 
 13 O       -4.5820    -1.0700    -0.3490 O.3   1 <1>  -0.5600 
 14 C       -3.6140    -3.2370    -0.0100 C.ar  1 <1>  -0.1440 
 15 C       -5.8600     0.8830    -0.8910 C.3   1 <1>  -0.0800 
 16 N       -2.1780     4.2320    -1.9950 N.pl3 1 <1>  -0.9000 
 17 C       -0.8810     4.8490    -0.0840 C.ar  1 <1>  -0.1500 
 18 C       -4.8060    -3.7570     0.4770 C.ar  1 <1>  -0.1500 
 19 C       -2.6210    -4.1110    -0.4290 C.ar  1 <1>  -0.1500 
 20 C       -6.3550     0.2300    -2.1930 C.3   1 <1>  -0.2400 
 21 C       -5.8310     2.4090    -1.0870 C.3   1 <1>  -0.2400 
 22 C       -5.0030    -5.1260     0.5430 C.ar  1 <1>  -0.1500 
 23 C       -2.8150    -5.4800    -0.3640 C.ar  1 <1>  -0.1500 
 24 C       -4.0060    -5.9890     0.1230 C.ar  1 <1>  -0.1500 
 25 H       -1.7950    -1.6660     1.3820 H     1 <1>   0.0800 
 26 H       -3.3870    -1.5280     2.0660 H     1 <1>   0.0800 
 27 H       -4.6880     0.7030     1.6400 H     1 <1>   0.0800 
 28 H       -3.8640     1.9730     0.8000 H     1 <1>   0.0800 
 29 H       -0.0790     2.8290     2.4340 H     1 <1>   0.1500 
 30 H       -2.6940    -1.5180    -0.8850 H     1 <1>   0.0800 
 31 H       -3.7660     0.5450    -1.2440 H     1 <1>   0.0800 
 32 H        0.2680     5.1750     1.7000 H     1 <1>   0.1500 
 33 H       -6.5660     0.6580    -0.1090 H     1 <1>   0.0800 
 34 H       -2.4980     3.4120    -2.5120 H     1 <1>   0.4000 
 35 H       -1.6870     4.9060    -2.5810 H     1 <1>   0.4000 
 36 H       -0.7780     5.8480    -0.4630 H     1 <1>   0.1500 
 37 H       -5.5880    -3.0920     0.8020 H     1 <1>   0.1500 
 38 H       -1.6890    -3.7300    -0.8090 H     1 <1>   0.1500 
 39 H       -5.6620     0.4120    -2.9950 H     1 <1>   0.0800 
 40 H       -7.3170     0.6220    -2.4700 H     1 <1>   0.0800 
 41 H       -6.4550    -0.8340    -2.0650 H     1 <1>   0.0800 
 42 H       -5.0730     2.6850    -1.7990 H     1 <1>   0.0800 
 43 H       -5.6320     2.9170    -0.1610 H     1 <1>   0.0800 
 44 H       -6.7820     2.7570    -1.4500 H     1 <1>   0.0800 
 45 H       -5.9310    -5.5170     0.9200 H     1 <1>   0.1500 
 46 H       -2.0400    -6.1500    -0.6920 H     1 <1>   0.1500 
 47 H       -4.1580    -7.0530     0.1740 H     1 <1>   0.1500 
@<TRIPOS>BOND
  1   1   2  2   
  2   2   3  am  
  3   2   4  1   
  4   3   5  1   
  5   3   6  1   
  6   4   7  ar  
  7   4   8  ar  
  8   5   9  1   
  9   5  25  1   
 10   5  26  1   
 11   6  10  1   
 12   6  27  1   
 13   6  28  1   
 14   7  11  ar  
 15   8  12  ar  
 16   8  29  1   
 17   9  13  1   
 18   9  14  1   
 19   9  30  1   
 20  10  13  1   
 21  10  15  1   
 22  10  31  1   
 23  11  16  1   
 24  11  17  ar  
 25  12  17  ar  
 26  12  32  1   
 27  14  18  ar  
 28  14  19  ar  
 29  15  20  1   
 30  15  21  1   
 31  15  33  1   
 32  16  34  1   
 33  16  35  1   
 34  17  36  1   
 35  18  22  ar  
 36  18  37  1   
 37  19  23  ar  
 38  19  38  1   
 39  20  39  1   
 40  20  40  1   
 41  20  41  1   
 42  21  42  1   
 43  21  43  1   
 44  21  44  1   
 45  22  24  ar  
 46  22  45  1   
 47  23  24  ar  
 48  23  46  1   
 49  24  47  1   
@<TRIPOS>SUBSTRUCTURE
  1 ****   3 GROUP 4 **** **** 0

# MOE 2024.06 (io_trps.svl 2023.06)
