@<TRIPOS>MOLECULE
NONAME
35 37 1 0 0 
SMALL
USER_CHARGES


@<TRIPOS>ATOM
  1 F       -1.6040     3.1340     0.8700 F     1 <1>  -0.1900 
  2 C       -0.5100     3.4210     0.2190 C.ar  1 <1>   0.1900 
  3 C       -0.5920     3.6820    -1.1350 C.ar  1 <1>  -0.1500 
  4 C        0.6880     3.4510     0.9120 C.ar  1 <1>  -0.1500 
  5 C        0.5890     3.9820    -1.7830 C.ar  1 <1>   0.1900 
  6 C        1.8610     3.7530     0.2330 C.ar  1 <1>  -0.0320 
  7 F        0.5540     4.2360    -3.0630 F     1 <1>  -0.1900 
  8 C        1.8070     4.0220    -1.1280 C.ar  1 <1>  -0.1500 
  9 C        3.1930     3.8000     0.9680 C.3   1 <1>   0.2010 
 10 N        3.5020     5.1270     1.5050 N.pl3 1 <1>  -0.6690 
 11 C        4.3320     2.9330     0.5370 C.3   1 <1>  -0.2000 
 12 C        3.6140     2.6410     1.8140 C.3   1 <1>  -0.2000 
 13 C        3.8200     6.2020     0.7440 C.ar  1 <1>   0.7200 
 14 N        4.4310     6.0120    -0.4220 N.ar  1 <1>  -0.6200 
 15 N        3.4620     7.3620     1.2790 N.ar  1 <1>  -0.6200 
 16 C        4.7010     7.0920    -1.1100 C.ar  1 <1>   0.1660 
 17 C        3.7430     8.4290     0.5740 C.ar  1 <1>   0.1670 
 18 C        4.3720     8.3440    -0.6460 C.ar  1 <1>  -0.1500 
 19 C        5.3940     6.9010    -2.4420 C.3   1 <1>  -0.0970 
 20 C        3.3450     9.7660     1.1620 C.3   1 <1>  -0.0970 
 21 H       -1.5300     3.6540    -1.6570 H     1 <1>   0.1500 
 22 H        0.7000     3.2440     1.9670 H     1 <1>   0.1500 
 23 H        2.7030     4.2670    -1.6710 H     1 <1>   0.1500 
 24 H        2.9210     5.4040     2.2890 H     1 <1>   0.4000 
 25 H        5.3180     3.3640     0.5620 H     1 <1>   0.1000 
 26 H        4.1890     2.2720    -0.2970 H     1 <1>   0.1000 
 27 H        3.0010     1.7580     1.8480 H     1 <1>   0.1000 
 28 H        4.1230     2.8320     2.7420 H     1 <1>   0.1000 
 29 H        4.5980     9.2240    -1.2170 H     1 <1>   0.1500 
 30 H        4.7760     6.3000    -3.0840 H     1 <1>   0.0800 
 31 H        6.3290     6.3950    -2.2900 H     1 <1>   0.0800 
 32 H        5.5810     7.8440    -2.9200 H     1 <1>   0.0800 
 33 H        2.2810     9.7890     1.3120 H     1 <1>   0.0800 
 34 H        3.6230    10.5740     0.5110 H     1 <1>   0.0800 
 35 H        3.8310     9.8990     2.1110 H     1 <1>   0.0800 
@<TRIPOS>BOND
  1   1   2  1   
  2   2   3  ar  
  3   2   4  ar  
  4   3   5  ar  
  5   3  21  1   
  6   4   6  ar  
  7   4  22  1   
  8   5   7  1   
  9   5   8  ar  
 10   6   8  ar  
 11   6   9  1   
 12   8  23  1   
 13   9  10  1   
 14   9  11  1   
 15   9  12  1   
 16  10  13  1   
 17  10  24  1   
 18  11  12  1   
 19  11  25  1   
 20  11  26  1   
 21  12  27  1   
 22  12  28  1   
 23  13  14  ar  
 24  13  15  ar  
 25  14  16  ar  
 26  15  17  ar  
 27  16  18  ar  
 28  16  19  1   
 29  17  18  ar  
 30  17  20  1   
 31  18  29  1   
 32  19  30  1   
 33  19  31  1   
 34  19  32  1   
 35  20  33  1   
 36  20  34  1   
 37  20  35  1   
@<TRIPOS>SUBSTRUCTURE
  1 ****   6 GROUP 4 **** **** 0

# MOE 2024.06 (io_trps.svl 2023.06)
