@<TRIPOS>MOLECULE
NONAME
50 53 1 0 0 
SMALL
USER_CHARGES


@<TRIPOS>ATOM
  1 O        2.7400     0.1980     3.6990 O.3   1 <1>  -0.6800 
  2 C        2.0530    -0.4370     2.6720 C.3   1 <1>   0.2000 
  3 C        2.6660    -1.8240     2.4890 C.3   1 <1>  -0.0800 
  4 C        2.3870     0.2910     1.3610 C.3   1 <1>   0.3430 
  5 C        3.9520    -1.5020     1.7210 C.3   1 <1>   0.3430 
  6 C        1.7140    -2.7770     1.7280 C.3   1 <1>  -0.0160 
  7 N        3.5810    -0.4090     0.7900 N.4   1 <1>  -0.9590 
  8 C        2.4850    -3.9410     1.1140 C.ar  1 <1>  -0.1430 
  9 C        4.6730     0.5180     0.4180 C.3   1 <1>   0.5230 
 10 C        2.9680    -3.9320    -0.2190 C.ar  1 <1>   0.0000 
 11 C        2.7690    -5.0330     1.8820 C.ar  1 <1>  -0.1500 
 12 C        4.3230     1.0910    -0.9510 C.2   1 <1>   0.0070 
 13 C        3.7830    -5.0170    -0.6250 C.ar  1 <1>   0.3100 
 14 C        2.7110    -2.9130    -1.1680 C.ar  1 <1>  -0.1500 
 15 C        3.5450    -6.0760     1.3650 C.ar  1 <1>   0.1600 
 16 N        3.3880     0.5960    -1.7090 N.2   1 <1>  -0.5650 
 17 N        4.9620     2.1560    -1.4980 N.pl3 1 <1>   0.0480 
 18 N        4.0520    -6.0790     0.1740 N.ar  1 <1>  -0.6200 
 19 C        4.3530    -5.0000    -1.9070 C.ar  1 <1>  -0.1500 
 20 C        3.2820    -2.9260    -2.4110 C.ar  1 <1>  -0.1500 
 21 C        3.4180     1.3760    -2.8050 C.2   1 <1>   0.0770 
 22 C        4.3680     2.3280    -2.6920 C.2   1 <1>  -0.3020 
 23 C        6.0700     2.9830    -0.9650 C.3   1 <1>   0.0960 
 24 C        4.1200    -3.9770    -2.7860 C.ar  1 <1>  -0.1500 
 25 C        7.4180     2.2880    -1.1830 C.3   1 <1>  -0.2400 
 26 H        2.4260    -0.1040     4.5780 H     1 <1>   0.4000 
 27 H        1.0000    -0.4330     2.9000 H     1 <1>   0.0800 
 28 H        2.9120    -2.2780     3.4340 H     1 <1>   0.0800 
 29 H        2.5820     1.3330     1.5510 H     1 <1>   0.0800 
 30 H        1.5640     0.2070     0.6710 H     1 <1>   0.0800 
 31 H        4.3510    -2.3580     1.2000 H     1 <1>   0.0800 
 32 H        4.6880    -1.1420     2.4220 H     1 <1>   0.0800 
 33 H        1.1500    -2.2600     0.9760 H     1 <1>   0.0800 
 34 H        0.9890    -3.1670     2.4230 H     1 <1>   0.0800 
 35 H        3.3020    -0.7920    -0.1310 H     1 <1>   0.4500 
 36 H        4.7700     1.3010     1.1520 H     1 <1>   0.0800 
 37 H        5.6040    -0.0180     0.3430 H     1 <1>   0.0800 
 38 H        2.4200    -5.1230     2.8950 H     1 <1>   0.1500 
 39 H        2.0440    -2.1080    -0.9360 H     1 <1>   0.1500 
 40 H        3.7410    -6.9240     1.9990 H     1 <1>   0.1500 
 41 H        4.9830    -5.8270    -2.1800 H     1 <1>   0.1500 
 42 H        3.0890    -2.1360    -3.1190 H     1 <1>   0.1500 
 43 H        2.7470     1.2140    -3.6340 H     1 <1>   0.1500 
 44 H        4.6440     3.1000    -3.3890 H     1 <1>   0.1500 
 45 H        6.0660     3.9310    -1.4750 H     1 <1>   0.0800 
 46 H        5.9060     3.1670     0.0810 H     1 <1>   0.0800 
 47 H        4.5660    -3.9760    -3.7660 H     1 <1>   0.1500 
 48 H        7.5850     2.1220    -2.2340 H     1 <1>   0.0800 
 49 H        7.4590     1.3470    -0.6650 H     1 <1>   0.0800 
 50 H        8.2110     2.9130    -0.8140 H     1 <1>   0.0800 
@<TRIPOS>BOND
  1   1   2  1   
  2   1  26  1   
  3   2   3  1   
  4   2   4  1   
  5   2  27  1   
  6   3   5  1   
  7   3   6  1   
  8   3  28  1   
  9   4   7  1   
 10   4  29  1   
 11   4  30  1   
 12   5   7  1   
 13   5  31  1   
 14   5  32  1   
 15   6   8  1   
 16   6  33  1   
 17   6  34  1   
 18   7   9  1   
 19   7  35  1   
 20   8  10  ar  
 21   8  11  ar  
 22   9  12  1   
 23   9  36  1   
 24   9  37  1   
 25  10  13  ar  
 26  10  14  ar  
 27  11  15  ar  
 28  11  38  1   
 29  12  16  2   
 30  12  17  1   
 31  13  18  ar  
 32  13  19  ar  
 33  14  20  ar  
 34  14  39  1   
 35  15  18  ar  
 36  15  40  1   
 37  16  21  1   
 38  17  22  1   
 39  17  23  1   
 40  19  24  ar  
 41  19  41  1   
 42  20  24  ar  
 43  20  42  1   
 44  21  22  2   
 45  21  43  1   
 46  22  44  1   
 47  23  25  1   
 48  23  45  1   
 49  23  46  1   
 50  24  47  1   
 51  25  48  1   
 52  25  49  1   
 53  25  50  1   
@<TRIPOS>SUBSTRUCTURE
  1 ****   7 GROUP 4 **** **** 0

# MOE 2024.06 (io_trps.svl 2023.06)
