@<TRIPOS>MOLECULE
NONAME
59 63 1 0 0 
SMALL
USER_CHARGES


@<TRIPOS>ATOM
  1 O       -0.6050    -0.6950     2.1600 O.2   1 <1>  -0.5700 
  2 C       -1.5910     0.0080     2.1460 C.2   1 <1>   0.5690 
  3 N       -2.8530    -0.5240     2.1670 N.am  1 <1>  -0.6600 
  4 C       -1.3890     1.5270     2.0860 C.3   1 <1>   0.1710 
  5 C       -4.1170     0.2440     2.1440 C.3   1 <1>   0.1400 
  6 C       -3.0970    -1.9180     1.7380 C.3   1 <1>   0.1400 
  7 N       -1.6870     2.1370     0.7540 N.3   1 <1>  -0.8100 
  8 C       -4.9890    -0.4630     1.1100 C.3   1 <1>  -0.0800 
  9 C       -4.4890    -1.9250     1.0920 C.3   1 <1>  -0.0800 
 10 C       -1.6910     3.6080     0.8810 C.3   1 <1>   0.2530 
 11 C       -0.6720     1.7120    -0.2300 C.3   1 <1>   0.1100 
 12 C       -4.9830     0.2460    -0.2710 C.3   1 <1>   0.4240 
 13 C       -4.4980    -2.5710    -0.3090 C.3   1 <1>  -0.1600 
 14 C       -1.7440     4.3300    -0.4620 C.ar  1 <1>  -0.1440 
 15 C       -1.0170     2.2160    -1.6350 C.3   1 <1>  -0.0160 
 16 O       -3.6700     0.3110    -0.7150 O.3   1 <1>  -0.6800 
 17 C       -5.5580     1.6790    -0.1950 C.ar  1 <1>  -0.1440 
 18 C       -5.7610    -0.5860    -1.3160 C.3   1 <1>  -0.1600 
 19 C       -5.7250    -2.1170    -1.1080 C.3   1 <1>  -0.1600 
 20 C       -1.4130     3.6850    -1.6460 C.ar  1 <1>  -0.1440 
 21 C       -2.1190     5.6650    -0.4950 C.ar  1 <1>  -0.1500 
 22 C       -4.8830     2.7810    -0.7150 C.ar  1 <1>  -0.1500 
 23 C       -6.7990     1.9050     0.3970 C.ar  1 <1>  -0.1500 
 24 C       -1.4650     4.3750    -2.8470 C.ar  1 <1>  -0.1500 
 25 C       -2.1680     6.3520    -1.6950 C.ar  1 <1>  -0.1500 
 26 C       -5.4120     4.0560    -0.6280 C.ar  1 <1>  -0.1500 
 27 C       -7.3310     3.1800     0.4880 C.ar  1 <1>  -0.1500 
 28 C       -1.8400     5.7060    -2.8730 C.ar  1 <1>  -0.1500 
 29 C       -6.6370     4.2600    -0.0220 C.ar  1 <1>  -0.1500 
 30 H       -0.3700     1.7400     2.3590 H     1 <1>   0.0800 
 31 H       -2.0210     1.9700     2.8330 H     1 <1>   0.0800 
 32 H       -4.5750     0.1780     3.1160 H     1 <1>   0.0800 
 33 H       -3.9690     1.2800     1.8980 H     1 <1>   0.0800 
 34 H       -2.3370    -2.2190     1.0360 H     1 <1>   0.0800 
 35 H       -3.0640    -2.5710     2.5920 H     1 <1>   0.0800 
 36 H       -5.9990    -0.4700     1.4690 H     1 <1>   0.0800 
 37 H       -5.1360    -2.5030     1.7270 H     1 <1>   0.0800 
 38 H       -2.5450     3.9010     1.4670 H     1 <1>   0.0800 
 39 H       -0.8010     3.9290     1.3960 H     1 <1>   0.0800 
 40 H        0.2930     2.0960     0.0570 H     1 <1>   0.0800 
 41 H       -0.6100     0.6370    -0.2580 H     1 <1>   0.0800 
 42 H       -3.6130    -2.2900    -0.8540 H     1 <1>   0.0800 
 43 H       -4.4940    -3.6420    -0.2140 H     1 <1>   0.0800 
 44 H       -0.1670     2.0660    -2.2750 H     1 <1>   0.0800 
 45 H       -1.8270     1.6320    -2.0320 H     1 <1>   0.0800 
 46 H       -3.1520     0.8990    -0.1150 H     1 <1>   0.4000 
 47 H       -6.7920    -0.2850    -1.3070 H     1 <1>   0.0800 
 48 H       -5.3810    -0.3420    -2.2930 H     1 <1>   0.0800 
 49 H       -6.6100    -2.4230    -0.5780 H     1 <1>   0.0800 
 50 H       -5.7360    -2.6070    -2.0670 H     1 <1>   0.0800 
 51 H       -2.3750     6.1760     0.4160 H     1 <1>   0.1500 
 52 H       -3.9330     2.6700    -1.2030 H     1 <1>   0.1500 
 53 H       -7.3760     1.0890     0.7900 H     1 <1>   0.1500 
 54 H       -1.2160     3.8750    -3.7660 H     1 <1>   0.1500 
 55 H       -2.4590     7.3870    -1.7120 H     1 <1>   0.1500 
 56 H       -4.8620     4.8860    -1.0390 H     1 <1>   0.1500 
 57 H       -8.2900     3.3310     0.9520 H     1 <1>   0.1500 
 58 H       -1.8780     6.2360    -3.8080 H     1 <1>   0.1500 
 59 H       -7.0470     5.2520     0.0450 H     1 <1>   0.1500 
@<TRIPOS>BOND
  1   1   2  2   
  2   2   3  am  
  3   2   4  1   
  4   3   5  1   
  5   3   6  1   
  6   4   7  1   
  7   4  30  1   
  8   4  31  1   
  9   5   8  1   
 10   5  32  1   
 11   5  33  1   
 12   6   9  1   
 13   6  34  1   
 14   6  35  1   
 15   7  10  1   
 16   7  11  1   
 17   8   9  1   
 18   8  12  1   
 19   8  36  1   
 20   9  13  1   
 21   9  37  1   
 22  10  14  1   
 23  10  38  1   
 24  10  39  1   
 25  11  15  1   
 26  11  40  1   
 27  11  41  1   
 28  12  16  1   
 29  12  17  1   
 30  12  18  1   
 31  13  19  1   
 32  13  42  1   
 33  13  43  1   
 34  14  20  ar  
 35  14  21  ar  
 36  15  20  1   
 37  15  44  1   
 38  15  45  1   
 39  16  46  1   
 40  17  22  ar  
 41  17  23  ar  
 42  18  19  1   
 43  18  47  1   
 44  18  48  1   
 45  19  49  1   
 46  19  50  1   
 47  20  24  ar  
 48  21  25  ar  
 49  21  51  1   
 50  22  26  ar  
 51  22  52  1   
 52  23  27  ar  
 53  23  53  1   
 54  24  28  ar  
 55  24  54  1   
 56  25  28  ar  
 57  25  55  1   
 58  26  29  ar  
 59  26  56  1   
 60  27  29  ar  
 61  27  57  1   
 62  28  58  1   
 63  29  59  1   
@<TRIPOS>SUBSTRUCTURE
  1 ****  16 GROUP 4 **** **** 0

# MOE 2024.06 (io_trps.svl 2023.06)
