@<TRIPOS>MOLECULE
NONAME
54 56 1 0 0 
SMALL
USER_CHARGES


@<TRIPOS>ATOM
  1 S       -0.0140     0.2090    -0.0650 S.o2  1 <1>   1.3330 
  2 O       -0.6440     1.4140    -0.5540 O.2   1 <1>  -0.6500 
  3 O       -0.2560    -0.2180     1.2950 O.2   1 <1>  -0.6500 
  4 N       -0.4430    -1.0720    -1.0930 N.am  1 <1>  -0.8490 
  5 C        1.7490     0.3660    -0.3510 C.3   1 <1>  -0.0550 
  6 C       -0.2220    -2.3940    -0.4980 C.3   1 <1>   0.1160 
  7 C       -1.8250    -0.9630    -1.5690 C.3   1 <1>   0.1160 
  8 C        2.3990     1.5320     0.4230 C.3   1 <1>  -0.0800 
  9 C        3.8260     1.7690    -0.0400 C.3   1 <1>   0.2200 
 10 C        2.6080     1.1900     1.9010 C.3   1 <1>   0.1200 
 11 N        4.2200     3.1570     0.2900 N.am  1 <1>  -0.7300 
 12 C        4.6120     0.7880     0.8250 C.3   1 <1>   0.1200 
 13 O        3.8710     0.6020     1.9960 O.3   1 <1>  -0.5600 
 14 C        4.5780     4.0960    -0.6170 C.2   1 <1>   0.5690 
 15 O        4.6210     3.8640    -1.7990 O.2   1 <1>  -0.5700 
 16 C        4.9500     5.4710    -0.1200 C.3   1 <1>  -0.0990 
 17 C        6.4590     5.5750     0.1090 C.3   1 <1>   0.0210 
 18 C        6.8030     6.9260     0.6990 C.2   1 <1>   0.1080 
 19 N        6.6740     7.1830     1.9650 N.2   1 <1>  -0.7070 
 20 C        7.2710     8.0260    -0.0130 C.2   1 <1>  -0.1810 
 21 N        7.0690     8.4660     2.0950 N.pl3 1 <1>   0.3000 
 22 C        7.4350     8.9910     0.9090 C.2   1 <1>  -0.3320 
 23 C        7.5660     8.2090    -1.4900 C.3   1 <1>   0.0210 
 24 C        7.9280    10.3980     0.6320 C.3   1 <1>   0.0200 
 25 C        7.6880     9.7080    -1.8220 C.3   1 <1>  -0.1600 
 26 C        8.5410    10.4640    -0.7800 C.3   1 <1>  -0.1600 
 27 H        2.2380    -0.5530    -0.0940 H     1 <1>   0.0800 
 28 H        1.8950     0.5320    -1.4010 H     1 <1>   0.0800 
 29 H       -0.4210    -3.1640    -1.2240 H     1 <1>   0.0800 
 30 H       -0.8700    -2.5380     0.3520 H     1 <1>   0.0800 
 31 H        0.7990    -2.4900    -0.1720 H     1 <1>   0.0800 
 32 H       -2.0590    -1.7810    -2.2290 H     1 <1>   0.0800 
 33 H       -1.9570    -0.0440    -2.1150 H     1 <1>   0.0800 
 34 H       -2.5100    -0.9720    -0.7360 H     1 <1>   0.0800 
 35 H        1.7960     2.4160     0.3000 H     1 <1>   0.0800 
 36 H        3.9680     1.5810    -1.0910 H     1 <1>   0.0800 
 37 H        1.8760     0.5110     2.3010 H     1 <1>   0.0800 
 38 H        2.6220     2.0850     2.4990 H     1 <1>   0.0800 
 39 H        4.2460     3.3740     1.2890 H     1 <1>   0.3700 
 40 H        5.5940     1.1520     1.0730 H     1 <1>   0.0800 
 41 H        4.6910    -0.1670     0.3380 H     1 <1>   0.0800 
 42 H        4.6450     6.2010    -0.8470 H     1 <1>   0.0800 
 43 H        4.4300     5.6780     0.7970 H     1 <1>   0.0800 
 44 H        6.9840     5.4360    -0.8190 H     1 <1>   0.0800 
 45 H        6.7810     4.8110     0.7940 H     1 <1>   0.0800 
 46 H        7.0760     8.9490     3.0000 H     1 <1>   0.2700 
 47 H        8.4910     7.7090    -1.7190 H     1 <1>   0.0800 
 48 H        6.7840     7.7660    -2.0800 H     1 <1>   0.0800 
 49 H        7.0960    11.0770     0.6970 H     1 <1>   0.0800 
 50 H        8.6660    10.6870     1.3600 H     1 <1>   0.0800 
 51 H        8.1190     9.8230    -2.8010 H     1 <1>   0.0800 
 52 H        6.7020    10.1400    -1.8420 H     1 <1>   0.0800 
 53 H        8.6510    11.4930    -1.0740 H     1 <1>   0.0800 
 54 H        9.5210    10.0210    -0.7520 H     1 <1>   0.0800 
@<TRIPOS>BOND
  1   1   2  2   
  2   1   3  2   
  3   1   4  am  
  4   1   5  1   
  5   4   6  1   
  6   4   7  1   
  7   5   8  1   
  8   5  27  1   
  9   5  28  1   
 10   6  29  1   
 11   6  30  1   
 12   6  31  1   
 13   7  32  1   
 14   7  33  1   
 15   7  34  1   
 16   8   9  1   
 17   8  10  1   
 18   8  35  1   
 19   9  11  1   
 20   9  12  1   
 21   9  36  1   
 22  10  13  1   
 23  10  37  1   
 24  10  38  1   
 25  11  14  am  
 26  11  39  1   
 27  12  13  1   
 28  12  40  1   
 29  12  41  1   
 30  14  15  2   
 31  14  16  1   
 32  16  17  1   
 33  16  42  1   
 34  16  43  1   
 35  17  18  1   
 36  17  44  1   
 37  17  45  1   
 38  18  19  2   
 39  18  20  1   
 40  19  21  1   
 41  20  22  2   
 42  20  23  1   
 43  21  22  1   
 44  21  46  1   
 45  22  24  1   
 46  23  25  1   
 47  23  47  1   
 48  23  48  1   
 49  24  26  1   
 50  24  49  1   
 51  24  50  1   
 52  25  26  1   
 53  25  51  1   
 54  25  52  1   
 55  26  53  1   
 56  26  54  1   
@<TRIPOS>SUBSTRUCTURE
  1 ****  14 GROUP 4 **** **** 0

# MOE 2024.06 (io_trps.svl 2023.06)
