@<TRIPOS>MOLECULE
NONAME
54 56 1 0 0 
SMALL
USER_CHARGES


@<TRIPOS>ATOM
  1 O       -0.0040     3.7640     0.8120 O.co2 1 <1>  -0.9000 
  2 C        0.8390     4.5610     0.3700 C.2   1 <1>   0.9790 
  3 O        0.4640     5.6650    -0.0610 O.co2 1 <1>  -0.9000 
  4 C        2.2460     4.2230     0.4140 C.ar  1 <1>  -0.1790 
  5 C        3.1380     4.5230    -0.6180 C.ar  1 <1>   0.1660 
  6 C        2.7620     3.5790     1.5310 C.ar  1 <1>  -0.1500 
  7 N        4.4380     4.3000    -0.5730 N.ar  1 <1>  -0.6200 
  8 C        2.6480     5.1450    -1.9150 C.3   1 <1>  -0.0960 
  9 C        4.1140     3.3220     1.5960 C.ar  1 <1>   0.0730 
 10 C        4.9190     3.7300     0.5260 C.ar  1 <1>   0.4100 
 11 C        4.6860     2.6750     2.7350 C.1   1 <1>   0.4840 
 12 N        6.2980     3.6080     0.5490 N.pl3 1 <1>  -0.8380 
 13 N        5.1670     2.1790     3.6450 N.1   1 <1>  -0.5570 
 14 C        7.1320     4.5910     1.2930 C.3   1 <1>   0.2090 
 15 C        6.9140     2.2930     0.2370 C.3   1 <1>   0.1290 
 16 C        6.8160     6.0240     0.8220 C.3   1 <1>  -0.0800 
 17 C        7.1680     6.2380    -0.6600 C.3   1 <1>  -0.1600 
 18 C        7.5250     7.0960     1.6600 C.3   1 <1>  -0.1600 
 19 C        6.7350     7.6280    -1.1100 C.3   1 <1>   0.3430 
 20 C        7.1240     8.4960     1.1850 C.3   1 <1>   0.3430 
 21 N        7.4210     8.6560    -0.2730 N.4   1 <1>  -0.9590 
 22 C        7.1020    10.0290    -0.7500 C.3   1 <1>   0.4860 
 23 C        7.9680    11.0210     0.0020 C.ar  1 <1>  -0.1440 
 24 C        7.4150    11.8100     1.0010 C.ar  1 <1>  -0.1500 
 25 C        9.3180    11.1430    -0.2970 C.ar  1 <1>  -0.1500 
 26 C        8.2070    12.7020     1.7020 C.ar  1 <1>  -0.1500 
 27 C       10.1080    12.0350     0.4060 C.ar  1 <1>  -0.1500 
 28 C        9.5540    12.8120     1.4070 C.ar  1 <1>  -0.1500 
 29 H        2.0930     3.2970     2.3280 H     1 <1>   0.1500 
 30 H        1.7330     4.6770    -2.2280 H     1 <1>   0.0800 
 31 H        3.3750     5.0220    -2.6950 H     1 <1>   0.0800 
 32 H        2.4630     6.1920    -1.7640 H     1 <1>   0.0800 
 33 H        8.1740     4.3770     1.1300 H     1 <1>   0.0800 
 34 H        6.9300     4.4950     2.3460 H     1 <1>   0.0800 
 35 H        6.1890     1.6510    -0.2340 H     1 <1>   0.0800 
 36 H        7.2620     1.8240     1.1420 H     1 <1>   0.0800 
 37 H        7.7410     2.4290    -0.4370 H     1 <1>   0.0800 
 38 H        5.7570     6.1780     0.9500 H     1 <1>   0.0800 
 39 H        6.6550     5.5160    -1.2700 H     1 <1>   0.0800 
 40 H        8.2220     6.1030    -0.8260 H     1 <1>   0.0800 
 41 H        8.5930     6.9830     1.5990 H     1 <1>   0.0800 
 42 H        7.2420     6.9900     2.6930 H     1 <1>   0.0800 
 43 H        5.6650     7.7140    -1.0020 H     1 <1>   0.0800 
 44 H        6.9860     7.7610    -2.1500 H     1 <1>   0.0800 
 45 H        7.6640     9.2350     1.7570 H     1 <1>   0.0800 
 46 H        6.0690     8.6400     1.3570 H     1 <1>   0.0800 
 47 H        8.4350     8.5350    -0.3810 H     1 <1>   0.4500 
 48 H        6.0600    10.2490    -0.5820 H     1 <1>   0.0800 
 49 H        7.3030    10.1120    -1.8050 H     1 <1>   0.0800 
 50 H        6.3680    11.7450     1.2450 H     1 <1>   0.1500 
 51 H        9.7710    10.5550    -1.0770 H     1 <1>   0.1500 
 52 H        7.7800    13.3150     2.4780 H     1 <1>   0.1500 
 53 H       11.1560    12.1310     0.1750 H     1 <1>   0.1500 
 54 H       10.1700    13.5070     1.9520 H     1 <1>   0.1500 
@<TRIPOS>BOND
  1   1   2  ar  
  2   2   3  ar  
  3   2   4  1   
  4   4   5  ar  
  5   4   6  ar  
  6   5   7  ar  
  7   5   8  1   
  8   6   9  ar  
  9   6  29  1   
 10   7  10  ar  
 11   8  30  1   
 12   8  31  1   
 13   8  32  1   
 14   9  10  ar  
 15   9  11  1   
 16  10  12  1   
 17  11  13  3   
 18  12  14  1   
 19  12  15  1   
 20  14  16  1   
 21  14  33  1   
 22  14  34  1   
 23  15  35  1   
 24  15  36  1   
 25  15  37  1   
 26  16  17  1   
 27  16  18  1   
 28  16  38  1   
 29  17  19  1   
 30  17  39  1   
 31  17  40  1   
 32  18  20  1   
 33  18  41  1   
 34  18  42  1   
 35  19  21  1   
 36  19  43  1   
 37  19  44  1   
 38  20  21  1   
 39  20  45  1   
 40  20  46  1   
 41  21  22  1   
 42  21  47  1   
 43  22  23  1   
 44  22  48  1   
 45  22  49  1   
 46  23  24  ar  
 47  23  25  ar  
 48  24  26  ar  
 49  24  50  1   
 50  25  27  ar  
 51  25  51  1   
 52  26  28  ar  
 53  26  52  1   
 54  27  28  ar  
 55  27  53  1   
 56  28  54  1   
@<TRIPOS>SUBSTRUCTURE
  1 ****  16 GROUP 4 **** **** 0

# MOE 2024.06 (io_trps.svl 2023.06)
