@<TRIPOS>MOLECULE
NONAME
48 50 1 0 0 
SMALL
USER_CHARGES


@<TRIPOS>ATOM
  1 CL       2.8510     1.3170    -2.1950 Cl    1 <1>  -0.1770 
  2 C        1.5850     2.3210    -1.5250 C.ar  1 <1>   0.1770 
  3 C        1.6310     2.7750    -0.2090 C.ar  1 <1>  -0.1440 
  4 C        0.5360     2.6470    -2.3650 C.ar  1 <1>  -0.1500 
  5 C        0.5840     3.5700     0.2430 C.ar  1 <1>  -0.1500 
  6 C        2.7690     2.4430     0.7550 C.3   1 <1>   0.3640 
  7 C       -0.4970     3.4400    -1.8980 C.ar  1 <1>  -0.1500 
  8 C       -0.4700     3.8990    -0.5940 C.ar  1 <1>  -0.1500 
  9 N        2.8040     0.9780     0.9630 N.am  1 <1>  -0.7300 
 10 C        4.1410     3.0240     0.3050 C.3   1 <1>   0.2610 
 11 C        3.9330     0.2380     0.9050 C.2   1 <1>   0.5690 
 12 O        5.2320     2.3140     0.8800 O.3   1 <1>  -0.5600 
 13 C        4.2350     4.5080     0.6810 C.2   1 <1>   0.5690 
 14 O        3.9030    -0.9500     1.1000 O.2   1 <1>  -0.5700 
 15 C        5.2540     0.9330     0.5720 C.3   1 <1>   0.1810 
 16 O        3.4000     5.2890     0.2920 O.2   1 <1>  -0.5700 
 17 N        5.2860     4.9360     1.4360 N.am  1 <1>  -0.7300 
 18 C        5.4060     6.2360     2.1630 C.3   1 <1>   0.1400 
 19 C        4.9700     7.4930     1.3700 C.3   1 <1>   0.3430 
 20 N        5.8340     7.8130     0.1840 N.4   1 <1>  -0.9590 
 21 C        5.6590     9.2310    -0.2740 C.3   1 <1>   0.3430 
 22 C        5.6240     6.8810    -0.9780 C.3   1 <1>   0.3430 
 23 C        6.5880     9.5580    -1.4680 C.3   1 <1>   0.1200 
 24 C        6.3860     7.3450    -2.2400 C.3   1 <1>   0.1200 
 25 O        7.2450     8.4130    -1.9410 O.3   1 <1>  -0.5600 
 26 H        0.5280     2.2800    -3.3760 H     1 <1>   0.1500 
 27 H        0.5760     3.9450     1.2520 H     1 <1>   0.1500 
 28 H        2.5390     2.8840     1.7100 H     1 <1>   0.0800 
 29 H       -1.3180     3.6970    -2.5460 H     1 <1>   0.1500 
 30 H       -1.2740     4.5160    -0.2280 H     1 <1>   0.1500 
 31 H        1.9190     0.4980     1.1330 H     1 <1>   0.3700 
 32 H        4.2420     2.9560    -0.7600 H     1 <1>   0.0800 
 33 H        5.4660     0.8170    -0.4760 H     1 <1>   0.0800 
 34 H        6.0470     0.4810     1.1400 H     1 <1>   0.0800 
 35 H        5.9170     4.1840     1.7540 H     1 <1>   0.3700 
 36 H        4.7970     6.1740     3.0490 H     1 <1>   0.0800 
 37 H        6.4240     6.3640     2.4870 H     1 <1>   0.0800 
 38 H        5.0010     8.3270     2.0510 H     1 <1>   0.0800 
 39 H        3.9450     7.3770     1.0570 H     1 <1>   0.0800 
 40 H        6.8310     7.7180     0.4260 H     1 <1>   0.4500 
 41 H        4.6370     9.3900    -0.5760 H     1 <1>   0.0800 
 42 H        5.8700     9.9140     0.5320 H     1 <1>   0.0800 
 43 H        5.9640     5.8940    -0.7170 H     1 <1>   0.0800 
 44 H        4.5730     6.8060    -1.2080 H     1 <1>   0.0800 
 45 H        7.3430    10.2630    -1.1670 H     1 <1>   0.0800 
 46 H        6.0270     9.9930    -2.2770 H     1 <1>   0.0800 
 47 H        5.6990     7.6600    -3.0070 H     1 <1>   0.0800 
 48 H        6.9820     6.5390    -2.6310 H     1 <1>   0.0800 
@<TRIPOS>BOND
  1   1   2  1   
  2   2   3  ar  
  3   2   4  ar  
  4   3   5  ar  
  5   3   6  1   
  6   4   7  ar  
  7   4  26  1   
  8   5   8  ar  
  9   5  27  1   
 10   6   9  1   
 11   6  10  1   
 12   6  28  1   
 13   7   8  ar  
 14   7  29  1   
 15   8  30  1   
 16   9  11  am  
 17   9  31  1   
 18  10  12  1   
 19  10  13  1   
 20  10  32  1   
 21  11  14  2   
 22  11  15  1   
 23  12  15  1   
 24  13  16  2   
 25  13  17  am  
 26  15  33  1   
 27  15  34  1   
 28  17  18  1   
 29  17  35  1   
 30  18  19  1   
 31  18  36  1   
 32  18  37  1   
 33  19  20  1   
 34  19  38  1   
 35  19  39  1   
 36  20  21  1   
 37  20  22  1   
 38  20  40  1   
 39  21  23  1   
 40  21  41  1   
 41  21  42  1   
 42  22  24  1   
 43  22  43  1   
 44  22  44  1   
 45  23  25  1   
 46  23  45  1   
 47  23  46  1   
 48  24  25  1   
 49  24  47  1   
 50  24  48  1   
@<TRIPOS>SUBSTRUCTURE
  1 ****  13 GROUP 4 **** **** 0

# MOE 2024.06 (io_trps.svl 2023.06)
