@<TRIPOS>MOLECULE
NONAME
50 52 1 0 0 
SMALL
USER_CHARGES


@<TRIPOS>ATOM
  1 CL      -0.8190    -0.7680     2.3780 Cl    1 <1>  -0.1770 
  2 C       -1.7290     0.5180     1.6280 C.ar  1 <1>   0.1770 
  3 C       -1.1950     1.7870     1.5820 C.ar  1 <1>  -0.1500 
  4 C       -2.9700     0.2430     1.0910 C.ar  1 <1>  -0.1500 
  5 C       -1.8900     2.8390     0.9810 C.ar  1 <1>   0.0860 
  6 C       -3.6860     1.2680     0.5030 C.ar  1 <1>  -0.1500 
  7 C       -3.1630     2.5610     0.4490 C.ar  1 <1>   0.0830 
  8 C       -1.2620     4.1490     0.9420 C.2   1 <1>   0.5440 
  9 O       -3.8690     3.5810    -0.1010 O.3   1 <1>  -0.3630 
 10 O       -0.5390     4.5240     1.8500 O.2   1 <1>  -0.5700 
 11 N       -1.3430     4.9940    -0.1350 N.am  1 <1>  -0.6600 
 12 C       -5.1760     3.4240    -0.6130 C.3   1 <1>   0.0400 
 13 C       -0.2910     4.9700    -1.1940 C.3   1 <1>   0.1400 
 14 C       -2.1730     6.2240    -0.0630 C.3   1 <1>   0.1400 
 15 C        1.0450     5.5690    -0.7030 C.3   1 <1>   0.3430 
 16 C       -1.4440     7.3680     0.6580 C.3   1 <1>  -0.1600 
 17 N        0.8550     6.5160     0.4420 N.4   1 <1>  -0.9590 
 18 C       -0.0340     7.6670     0.1450 C.3   1 <1>   0.3430 
 19 C        2.0970     6.8880     1.1900 C.3   1 <1>   0.3430 
 20 C        3.3220     7.2070     0.3100 C.3   1 <1>  -0.0800 
 21 C        4.4190     7.6990     1.2400 C.3   1 <1>   0.1200 
 22 C        3.1680     8.4310    -0.5930 C.3   1 <1>  -0.1600 
 23 O        4.0610     9.0160     1.4750 O.3   1 <1>  -0.5600 
 24 C        3.6080     9.5970     0.2940 C.3   1 <1>   0.1200 
 25 H       -0.2280     1.9590     2.0180 H     1 <1>   0.1500 
 26 H       -3.3630    -0.7570     1.1380 H     1 <1>   0.1500 
 27 H       -4.6520     1.0350     0.0950 H     1 <1>   0.1500 
 28 H       -5.5150     4.3810    -0.9680 H     1 <1>   0.0800 
 29 H       -5.8230     3.0790     0.1740 H     1 <1>   0.0800 
 30 H       -5.1510     2.7220    -1.4290 H     1 <1>   0.0800 
 31 H       -0.6360     5.5190    -2.0530 H     1 <1>   0.0800 
 32 H       -0.1280     3.9540    -1.5130 H     1 <1>   0.0800 
 33 H       -3.0840     6.0010     0.4680 H     1 <1>   0.0800 
 34 H       -2.4480     6.5260    -1.0590 H     1 <1>   0.0800 
 35 H        1.5470     6.0590    -1.5200 H     1 <1>   0.0800 
 36 H        1.6710     4.7550    -0.3760 H     1 <1>   0.0800 
 37 H       -1.4060     7.1580     1.7130 H     1 <1>   0.0800 
 38 H       -2.0380     8.2570     0.5450 H     1 <1>   0.0800 
 39 H        0.2880     5.9390     1.1070 H     1 <1>   0.4500 
 40 H        0.3380     8.5480     0.6430 H     1 <1>   0.0800 
 41 H       -0.0550     7.8620    -0.9150 H     1 <1>   0.0800 
 42 H        2.3600     6.0700     1.8410 H     1 <1>   0.0800 
 43 H        1.8920     7.7380     1.8210 H     1 <1>   0.0800 
 44 H        3.6540     6.3340    -0.2220 H     1 <1>   0.0800 
 45 H        5.3830     7.6930     0.7600 H     1 <1>   0.0800 
 46 H        4.4710     7.1700     2.1770 H     1 <1>   0.0800 
 47 H        2.1830     8.5800    -0.9880 H     1 <1>   0.0800 
 48 H        3.8510     8.3630    -1.4230 H     1 <1>   0.0800 
 49 H        2.7970    10.2630     0.5350 H     1 <1>   0.0800 
 50 H        4.4200    10.1510    -0.1480 H     1 <1>   0.0800 
@<TRIPOS>BOND
  1   1   2  1   
  2   2   3  ar  
  3   2   4  ar  
  4   3   5  ar  
  5   3  25  1   
  6   4   6  ar  
  7   4  26  1   
  8   5   7  ar  
  9   5   8  1   
 10   6   7  ar  
 11   6  27  1   
 12   7   9  1   
 13   8  10  2   
 14   8  11  am  
 15   9  12  1   
 16  11  13  1   
 17  11  14  1   
 18  12  28  1   
 19  12  29  1   
 20  12  30  1   
 21  13  15  1   
 22  13  31  1   
 23  13  32  1   
 24  14  16  1   
 25  14  33  1   
 26  14  34  1   
 27  15  17  1   
 28  15  35  1   
 29  15  36  1   
 30  16  18  1   
 31  16  37  1   
 32  16  38  1   
 33  17  18  1   
 34  17  19  1   
 35  17  39  1   
 36  18  40  1   
 37  18  41  1   
 38  19  20  1   
 39  19  42  1   
 40  19  43  1   
 41  20  21  1   
 42  20  22  1   
 43  20  44  1   
 44  21  23  1   
 45  21  45  1   
 46  21  46  1   
 47  22  24  1   
 48  22  47  1   
 49  22  48  1   
 50  23  24  1   
 51  24  49  1   
 52  24  50  1   
@<TRIPOS>SUBSTRUCTURE
  1 ****   8 GROUP 4 **** **** 0

# MOE 2024.06 (io_trps.svl 2023.06)
