@<TRIPOS>MOLECULE
NONAME
45 47 1 0 0 
SMALL
USER_CHARGES


@<TRIPOS>ATOM
  1 CL       0.3760    -0.7230     1.5790 Cl    1 <1>  -0.1770 
  2 C       -0.6130    -2.0800     1.1080 C.ar  1 <1>   0.1770 
  3 C       -0.1220    -2.9980     0.2000 C.ar  1 <1>  -0.1500 
  4 C       -1.8760    -2.2250     1.6490 C.ar  1 <1>  -0.1500 
  5 C       -0.9120    -4.0720    -0.1700 C.ar  1 <1>  -0.1500 
  6 C       -2.6540    -3.3050     1.2720 C.ar  1 <1>  -0.1500 
  7 C       -2.1960    -4.2530     0.3540 C.ar  1 <1>   0.0530 
  8 C       -2.9970    -5.3850    -0.0500 C.2   1 <1>   0.0870 
  9 O       -2.4110    -6.4810    -0.4710 O.3   1 <1>  -0.0190 
 10 C       -4.3350    -5.6090    -0.1190 C.2   1 <1>  -0.2330 
 11 N       -3.2600    -7.4120    -0.8130 N.2   1 <1>  -0.4100 
 12 C       -4.4310    -6.9120    -0.6110 C.2   1 <1>   0.3720 
 13 C       -5.4230    -4.7460     0.2080 C.2   1 <1>   1.0330 
 14 N       -5.6250    -7.6090    -0.8670 N.pl3 1 <1>  -0.8210 
 15 O       -6.0280    -4.1250    -0.6850 O.co2 1 <1>  -0.9000 
 16 O       -5.7470    -4.5500     1.3930 O.co2 1 <1>  -0.9000 
 17 C       -5.5710    -9.0810    -1.0500 C.3   1 <1>   0.2090 
 18 C       -6.6200    -6.8910    -1.7140 C.3   1 <1>   0.1290 
 19 C       -6.7390    -9.7120    -0.2910 C.3   1 <1>  -0.1600 
 20 C       -6.7440   -11.2420    -0.4310 C.3   1 <1>  -0.1600 
 21 C       -7.8610   -11.8930     0.3900 C.3   1 <1>   0.2000 
 22 O       -7.7970   -13.2650     0.2120 O.3   1 <1>  -0.5600 
 23 C       -9.2750   -11.5280    -0.0400 C.3   1 <1>  -0.1600 
 24 C       -9.0220   -13.8510     0.5140 C.3   1 <1>   0.1200 
 25 C      -10.0770   -12.7580     0.3500 C.3   1 <1>  -0.1600 
 26 H        0.8630    -2.8690    -0.2100 H     1 <1>   0.1500 
 27 H       -2.2490    -1.5040     2.3540 H     1 <1>   0.1500 
 28 H       -0.5330    -4.7850    -0.8800 H     1 <1>   0.1500 
 29 H       -3.6340    -3.4130     1.7040 H     1 <1>   0.1500 
 30 H       -4.6490    -9.4720    -0.6550 H     1 <1>   0.0800 
 31 H       -5.6190    -9.3200    -2.0980 H     1 <1>   0.0800 
 32 H       -6.1310    -6.1340    -2.3050 H     1 <1>   0.0800 
 33 H       -7.3460    -6.4090    -1.0810 H     1 <1>   0.0800 
 34 H       -7.1270    -7.5700    -2.3760 H     1 <1>   0.0800 
 35 H       -7.6620    -9.3090    -0.6680 H     1 <1>   0.0800 
 36 H       -6.6500    -9.4440     0.7480 H     1 <1>   0.0800 
 37 H       -5.8020   -11.6300    -0.0840 H     1 <1>   0.0800 
 38 H       -6.8620   -11.5100    -1.4660 H     1 <1>   0.0800 
 39 H       -7.7250   -11.6960     1.4400 H     1 <1>   0.0800 
 40 H       -9.3070   -11.3890    -1.1070 H     1 <1>   0.0800 
 41 H       -9.6220   -10.6340     0.4470 H     1 <1>   0.0800 
 42 H       -8.9830   -14.2100     1.5290 H     1 <1>   0.0800 
 43 H       -9.1810   -14.6730    -0.1630 H     1 <1>   0.0800 
 44 H      -10.7970   -13.0210    -0.4040 H     1 <1>   0.0800 
 45 H      -10.5860   -12.6070     1.2860 H     1 <1>   0.0800 
@<TRIPOS>BOND
  1   1   2  1   
  2   2   3  ar  
  3   2   4  ar  
  4   3   5  ar  
  5   3  26  1   
  6   4   6  ar  
  7   4  27  1   
  8   5   7  ar  
  9   5  28  1   
 10   6   7  ar  
 11   6  29  1   
 12   7   8  1   
 13   8   9  1   
 14   8  10  2   
 15   9  11  1   
 16  10  12  1   
 17  10  13  1   
 18  11  12  2   
 19  12  14  1   
 20  13  15  ar  
 21  13  16  ar  
 22  14  17  1   
 23  14  18  1   
 24  17  19  1   
 25  17  30  1   
 26  17  31  1   
 27  18  32  1   
 28  18  33  1   
 29  18  34  1   
 30  19  20  1   
 31  19  35  1   
 32  19  36  1   
 33  20  21  1   
 34  20  37  1   
 35  20  38  1   
 36  21  22  1   
 37  21  23  1   
 38  21  39  1   
 39  22  24  1   
 40  23  25  1   
 41  23  40  1   
 42  23  41  1   
 43  24  25  1   
 44  24  42  1   
 45  24  43  1   
 46  25  44  1   
 47  25  45  1   
@<TRIPOS>SUBSTRUCTURE
  1 ****  12 GROUP 4 **** **** 0

# MOE 2024.06 (io_trps.svl 2023.06)
