@<TRIPOS>MOLECULE
NONAME
43 44 1 0 0 
SMALL
USER_CHARGES


@<TRIPOS>ATOM
  1 F        1.8440     0.6660    -2.0540 F     1 <1>  -0.1900 
  2 C        2.1300    -0.0440    -0.9940 C.ar  1 <1>   0.1900 
  3 C        2.6520     0.5860     0.1280 C.ar  1 <1>  -0.1440 
  4 C        1.9020    -1.4060    -1.0450 C.ar  1 <1>  -0.1500 
  5 C        2.9540    -0.2020     1.2300 C.ar  1 <1>  -0.1500 
  6 C        2.8970     2.0880     0.1680 C.3   1 <1>  -0.0160 
  7 C        2.2080    -2.1750     0.0650 C.ar  1 <1>  -0.1500 
  8 C        2.7330    -1.5710     1.1970 C.ar  1 <1>  -0.1500 
  9 C        4.2490     2.4220    -0.4610 C.3   1 <1>   0.1400 
 10 N        4.4700     3.8860    -0.4340 N.am  1 <1>  -0.7300 
 11 C        5.1470     4.5480     0.5400 C.2   1 <1>   0.5690 
 12 O        5.6040     3.9750     1.4990 O.2   1 <1>  -0.5700 
 13 C        5.3200     6.0610     0.4330 C.3   1 <1>  -0.0190 
 14 C        3.9660     6.7960     0.3990 C.3   1 <1>  -0.1600 
 15 C        6.2110     6.4610    -0.7690 C.3   1 <1>  -0.1600 
 16 C        4.1370     8.3290     0.4570 C.3   1 <1>   0.2000 
 17 C        5.9940     7.9100    -1.2460 C.3   1 <1>  -0.1600 
 18 O        3.0940     8.9070    -0.2880 O.3   1 <1>  -0.5600 
 19 C        5.4990     8.8090    -0.1110 C.3   1 <1>   0.2000 
 20 C        1.8840     9.0390     0.3920 C.3   1 <1>   0.0400 
 21 O        5.3580    10.0880    -0.6090 O.3   1 <1>  -0.6800 
 22 H        1.4960    -1.8510    -1.9350 H     1 <1>   0.1500 
 23 H        3.3650     0.2460     2.1190 H     1 <1>   0.1500 
 24 H        2.8910     2.4280     1.1890 H     1 <1>   0.0800 
 25 H        2.1120     2.5980    -0.3600 H     1 <1>   0.0800 
 26 H        2.0390    -3.2380     0.0490 H     1 <1>   0.1500 
 27 H        2.9720    -2.1700     2.0600 H     1 <1>   0.1500 
 28 H        4.2800     2.0730    -1.4800 H     1 <1>   0.0800 
 29 H        5.0330     1.9270     0.0890 H     1 <1>   0.0800 
 30 H        4.0760     4.4130    -1.2150 H     1 <1>   0.3700 
 31 H        5.8270     6.3730     1.3310 H     1 <1>   0.0800 
 32 H        3.3670     6.4760     1.2330 H     1 <1>   0.0800 
 33 H        3.4530     6.5310    -0.5090 H     1 <1>   0.0800 
 34 H        7.2410     6.3310    -0.4800 H     1 <1>   0.0800 
 35 H        6.0340     5.8040    -1.6030 H     1 <1>   0.0800 
 36 H        4.0700     8.6720     1.4760 H     1 <1>   0.0800 
 37 H        5.2550     7.9150    -2.0290 H     1 <1>   0.0800 
 38 H        6.9140     8.3000    -1.6470 H     1 <1>   0.0800 
 39 H        6.2400     8.8390     0.6690 H     1 <1>   0.0800 
 40 H        1.1720     9.4900    -0.2780 H     1 <1>   0.0800 
 41 H        2.0250     9.6750     1.2490 H     1 <1>   0.0800 
 42 H        1.5310     8.0680     0.6930 H     1 <1>   0.0800 
 43 H        4.4250    10.1530    -0.9160 H     1 <1>   0.4000 
@<TRIPOS>BOND
  1   1   2  1   
  2   2   3  ar  
  3   2   4  ar  
  4   3   5  ar  
  5   3   6  1   
  6   4   7  ar  
  7   4  22  1   
  8   5   8  ar  
  9   5  23  1   
 10   6   9  1   
 11   6  24  1   
 12   6  25  1   
 13   7   8  ar  
 14   7  26  1   
 15   8  27  1   
 16   9  10  1   
 17   9  28  1   
 18   9  29  1   
 19  10  11  am  
 20  10  30  1   
 21  11  12  2   
 22  11  13  1   
 23  13  14  1   
 24  13  15  1   
 25  13  31  1   
 26  14  16  1   
 27  14  32  1   
 28  14  33  1   
 29  15  17  1   
 30  15  34  1   
 31  15  35  1   
 32  16  18  1   
 33  16  19  1   
 34  16  36  1   
 35  17  19  1   
 36  17  37  1   
 37  17  38  1   
 38  18  20  1   
 39  19  21  1   
 40  19  39  1   
 41  20  40  1   
 42  20  41  1   
 43  20  42  1   
 44  21  43  1   
@<TRIPOS>SUBSTRUCTURE
  1 ****  10 GROUP 4 **** **** 0

# MOE 2024.06 (io_trps.svl 2023.06)
