@<TRIPOS>MOLECULE
NONAME
44 46 1 0 0 
SMALL
USER_CHARGES


@<TRIPOS>ATOM
  1 O       -1.2470     0.6260     2.7970 O.2   1 <1>  -0.5700 
  2 C       -1.8130     1.2110     1.9030 C.2   1 <1>   0.5690 
  3 N       -2.5220     0.5290     0.9520 N.am  1 <1>  -0.6600 
  4 C       -1.7260     2.7290     1.8930 C.3   1 <1>   0.0810 
  5 C       -3.1580     1.0830    -0.2720 C.3   1 <1>   0.1400 
  6 C       -2.7290    -0.9350     1.0060 C.3   1 <1>   0.1400 
  7 C       -0.8470     3.2540     0.7730 C.2   1 <1>  -0.0400 
  8 C       -3.9460    -0.0770    -0.8920 C.3   1 <1>   0.2000 
  9 C       -3.2020    -1.3220    -0.3970 C.3   1 <1>  -0.0800 
 10 O       -1.3760     3.6010    -0.3690 O.3   1 <1>  -0.0190 
 11 C        0.4760     3.4630     0.6950 C.2   1 <1>  -0.1500 
 12 O       -5.2500    -0.0960    -0.3820 O.3   1 <1>  -0.5600 
 13 C       -4.0320    -2.6180    -0.4330 C.3   1 <1>   0.0200 
 14 N       -0.4800     4.0200    -1.2130 N.2   1 <1>  -0.4100 
 15 C        0.6470     3.9510    -0.5980 C.2   1 <1>   0.1080 
 16 C       -6.1610     0.7160    -1.0540 C.3   1 <1>   0.0400 
 17 C       -3.2180    -3.8600    -0.1060 C.2   1 <1>  -0.0400 
 18 C        1.9750     4.3450    -1.2060 C.3   1 <1>  -0.0590 
 19 O       -3.8320    -5.0100    -0.0260 O.3   1 <1>  -0.0190 
 20 C       -1.9140    -4.0780     0.1360 C.2   1 <1>  -0.1500 
 21 N       -3.0150    -5.9820     0.2570 N.2   1 <1>  -0.4100 
 22 C       -1.8510    -5.4490     0.3620 C.2   1 <1>   0.1080 
 23 C       -0.5900    -6.2170     0.6880 C.3   1 <1>  -0.0590 
 24 H       -2.7110     3.1470     1.8160 H     1 <1>   0.0800 
 25 H       -1.3100     3.0470     2.8320 H     1 <1>   0.0800 
 26 H       -3.7890     1.9230    -0.0440 H     1 <1>   0.0800 
 27 H       -2.3840     1.3820    -0.9560 H     1 <1>   0.0800 
 28 H       -1.8200    -1.4400     1.2830 H     1 <1>   0.0800 
 29 H       -3.4930    -1.1480     1.7350 H     1 <1>   0.0800 
 30 H       -3.9830    -0.0290    -1.9670 H     1 <1>   0.0800 
 31 H       -2.3320    -1.4490    -1.0160 H     1 <1>   0.0800 
 32 H        1.2430     3.3000     1.4290 H     1 <1>   0.1500 
 33 H       -4.4560    -2.7420    -1.4130 H     1 <1>   0.0800 
 34 H       -4.8460    -2.5490     0.2670 H     1 <1>   0.0800 
 35 H       -7.1140     0.6240    -0.5630 H     1 <1>   0.0800 
 36 H       -6.2480     0.3850    -2.0740 H     1 <1>   0.0800 
 37 H       -5.8330     1.7400    -1.0140 H     1 <1>   0.0800 
 38 H        2.4250     5.1270    -0.6240 H     1 <1>   0.0800 
 39 H        1.8280     4.6990    -2.2110 H     1 <1>   0.0800 
 40 H        2.6320     3.4950    -1.2280 H     1 <1>   0.0800 
 41 H       -1.0850    -3.3960     0.1590 H     1 <1>   0.1500 
 42 H        0.1230    -6.1010    -0.1060 H     1 <1>   0.0800 
 43 H       -0.8160    -7.2610     0.8050 H     1 <1>   0.0800 
 44 H       -0.1660    -5.8480     1.6040 H     1 <1>   0.0800 
@<TRIPOS>BOND
  1   1   2  2   
  2   2   3  am  
  3   2   4  1   
  4   3   5  1   
  5   3   6  1   
  6   4   7  1   
  7   4  24  1   
  8   4  25  1   
  9   5   8  1   
 10   5  26  1   
 11   5  27  1   
 12   6   9  1   
 13   6  28  1   
 14   6  29  1   
 15   7  10  1   
 16   7  11  2   
 17   8   9  1   
 18   8  12  1   
 19   8  30  1   
 20   9  13  1   
 21   9  31  1   
 22  10  14  1   
 23  11  15  1   
 24  11  32  1   
 25  12  16  1   
 26  13  17  1   
 27  13  33  1   
 28  13  34  1   
 29  14  15  2   
 30  15  18  1   
 31  16  35  1   
 32  16  36  1   
 33  16  37  1   
 34  17  19  1   
 35  17  20  2   
 36  18  38  1   
 37  18  39  1   
 38  18  40  1   
 39  19  21  1   
 40  20  22  1   
 41  20  41  1   
 42  21  22  2   
 43  22  23  1   
 44  23  42  1   
 45  23  43  1   
 46  23  44  1   
@<TRIPOS>SUBSTRUCTURE
  1 ****   3 GROUP 4 **** **** 0

# MOE 2024.06 (io_trps.svl 2023.06)
