@<TRIPOS>MOLECULE
NONAME
59 61 1 0 0 
SMALL
USER_CHARGES


@<TRIPOS>ATOM
  1 O       -1.3060     1.1040     1.8500 O.2   1 <1>  -0.5700 
  2 C       -0.9070     2.2070     1.5770 C.2   1 <1>   0.5690 
  3 N       -1.7690     3.2290     1.3930 N.am  1 <1>  -0.7300 
  4 C        0.5880     2.4640     1.3940 C.3   1 <1>   0.1810 
  5 C       -1.3640     4.5890     0.9590 C.3   1 <1>   0.3640 
  6 O        0.9200     3.8250     1.5550 O.3   1 <1>  -0.5600 
  7 C       -2.1350     4.9210    -0.3170 C.ar  1 <1>  -0.1440 
  8 C        0.1700     4.7250     0.7410 C.3   1 <1>   0.2610 
  9 C       -2.7690     6.1490    -0.4440 C.ar  1 <1>  -0.1500 
 10 C       -2.2150     4.0140    -1.3680 C.ar  1 <1>  -0.1500 
 11 C        0.6120     6.1680     1.0220 C.2   1 <1>   0.5690 
 12 C       -3.4690     6.4660    -1.5950 C.ar  1 <1>  -0.1500 
 13 C       -2.9130     4.3300    -2.5200 C.ar  1 <1>  -0.1500 
 14 O        0.0900     7.0890     0.4390 O.2   1 <1>  -0.5700 
 15 N        1.6040     6.3900     1.9280 N.am  1 <1>  -0.7300 
 16 C       -3.5410     5.5570    -2.6340 C.ar  1 <1>  -0.1500 
 17 C        2.0550     7.7130     2.4130 C.3   1 <1>   0.1400 
 18 C        3.3070     8.1840     1.6490 C.3   1 <1>  -0.0800 
 19 C        3.7920     9.5310     2.2130 C.3   1 <1>  -0.1600 
 20 C        3.0410     8.3220     0.1370 C.3   1 <1>  -0.1600 
 21 C        4.9670    10.1010     1.4170 C.3   1 <1>   0.3430 
 22 C        4.2260     8.9250    -0.6130 C.3   1 <1>   0.3430 
 23 N        4.5790    10.2430    -0.0170 N.4   1 <1>  -0.9590 
 24 C        5.6320    10.9120    -0.8280 C.3   1 <1>   0.3430 
 25 C        5.7130    12.4000    -0.4810 C.3   1 <1>  -0.1600 
 26 C        6.7140    13.1170    -1.3970 C.3   1 <1>  -0.1600 
 27 C        6.7970    14.6070    -1.0570 C.3   1 <1>  -0.2400 
 28 H       -2.7710     3.0410     1.4490 H     1 <1>   0.3700 
 29 H        0.8930     2.1490     0.4130 H     1 <1>   0.0800 
 30 H        1.1380     1.9020     2.1280 H     1 <1>   0.0800 
 31 H       -1.6590     5.2780     1.7320 H     1 <1>   0.0800 
 32 H        0.4040     4.5030    -0.2840 H     1 <1>   0.0800 
 33 H       -2.7160     6.8750     0.3500 H     1 <1>   0.1500 
 34 H       -1.7370     3.0520    -1.2990 H     1 <1>   0.1500 
 35 H       -3.9550     7.4230    -1.6820 H     1 <1>   0.1500 
 36 H       -2.9700     3.6210    -3.3280 H     1 <1>   0.1500 
 37 H        1.9920     5.5590     2.3900 H     1 <1>   0.3700 
 38 H       -4.0850     5.8040    -3.5300 H     1 <1>   0.1500 
 39 H        1.2580     8.4270     2.2830 H     1 <1>   0.0800 
 40 H        2.2670     7.6420     3.4660 H     1 <1>   0.0800 
 41 H        4.0840     7.4540     1.8010 H     1 <1>   0.0800 
 42 H        4.1000     9.4000     3.2360 H     1 <1>   0.0800 
 43 H        2.9870    10.2460     2.2090 H     1 <1>   0.0800 
 44 H        2.1670     8.9270    -0.0330 H     1 <1>   0.0800 
 45 H        2.8400     7.3530    -0.2850 H     1 <1>   0.0800 
 46 H        5.8160     9.4420     1.5020 H     1 <1>   0.0800 
 47 H        5.2390    11.0600     1.8270 H     1 <1>   0.0800 
 48 H        3.9640     9.0450    -1.6520 H     1 <1>   0.0800 
 49 H        5.0700     8.2560    -0.5500 H     1 <1>   0.0800 
 50 H        3.7310    10.8250    -0.0550 H     1 <1>   0.4500 
 51 H        6.5880    10.4420    -0.6590 H     1 <1>   0.0800 
 52 H        5.3930    10.8180    -1.8760 H     1 <1>   0.0800 
 53 H        4.7450    12.8530    -0.6060 H     1 <1>   0.0800 
 54 H        6.0310    12.5300     0.5380 H     1 <1>   0.0800 
 55 H        7.6930    12.6800    -1.2880 H     1 <1>   0.0800 
 56 H        6.4140    13.0110    -2.4270 H     1 <1>   0.0800 
 57 H        7.1230    14.7510    -0.0420 H     1 <1>   0.0800 
 58 H        5.8390    15.0820    -1.1830 H     1 <1>   0.0800 
 59 H        7.5020    15.0940    -1.7090 H     1 <1>   0.0800 
@<TRIPOS>BOND
  1   1   2  2   
  2   2   3  am  
  3   2   4  1   
  4   3   5  1   
  5   3  28  1   
  6   4   6  1   
  7   4  29  1   
  8   4  30  1   
  9   5   7  1   
 10   5   8  1   
 11   5  31  1   
 12   6   8  1   
 13   7   9  ar  
 14   7  10  ar  
 15   8  11  1   
 16   8  32  1   
 17   9  12  ar  
 18   9  33  1   
 19  10  13  ar  
 20  10  34  1   
 21  11  14  2   
 22  11  15  am  
 23  12  16  ar  
 24  12  35  1   
 25  13  16  ar  
 26  13  36  1   
 27  15  17  1   
 28  15  37  1   
 29  16  38  1   
 30  17  18  1   
 31  17  39  1   
 32  17  40  1   
 33  18  19  1   
 34  18  20  1   
 35  18  41  1   
 36  19  21  1   
 37  19  42  1   
 38  19  43  1   
 39  20  22  1   
 40  20  44  1   
 41  20  45  1   
 42  21  23  1   
 43  21  46  1   
 44  21  47  1   
 45  22  23  1   
 46  22  48  1   
 47  22  49  1   
 48  23  24  1   
 49  23  50  1   
 50  24  25  1   
 51  24  51  1   
 52  24  52  1   
 53  25  26  1   
 54  25  53  1   
 55  25  54  1   
 56  26  27  1   
 57  26  55  1   
 58  26  56  1   
 59  27  57  1   
 60  27  58  1   
 61  27  59  1   
@<TRIPOS>SUBSTRUCTURE
  1 ****  14 GROUP 4 **** **** 0

# MOE 2024.06 (io_trps.svl 2023.06)
