@<TRIPOS>MOLECULE
NONAME
36 37 1 0 0 
SMALL
USER_CHARGES


@<TRIPOS>ATOM
  1 S        0.5880    -0.2170    -0.2980 S.o2  1 <1>   1.3330 
  2 O        0.8280    -0.7140    -1.6320 O.2   1 <1>  -0.6500 
  3 O        1.5160    -0.5040     0.7670 O.2   1 <1>  -0.6500 
  4 N       -0.8710    -0.8530     0.2230 N.am  1 <1>  -0.9140 
  5 C        0.2700     1.5520    -0.3790 C.3   1 <1>  -0.0550 
  6 C       -1.0920    -2.2350    -0.1840 C.3   1 <1>   0.2760 
  7 C       -0.1630     2.2000     0.9500 C.3   1 <1>  -0.2400 
  8 C       -2.5260    -2.6070     0.1580 C.3   1 <1>  -0.0800 
  9 C       -0.3160    -3.2030     0.7110 C.3   1 <1>   0.1200 
 10 C       -2.4200    -3.0240     1.6300 C.3   1 <1>   0.1200 
 11 C       -3.0450    -3.7500    -0.7370 C.3   1 <1>  -0.0160 
 12 O       -1.0770    -3.3300     1.8750 O.3   1 <1>  -0.5600 
 13 C       -4.4850    -4.1100    -0.4030 C.ar  1 <1>  -0.1440 
 14 C       -4.8120    -5.2610     0.2860 C.ar  1 <1>  -0.1500 
 15 C       -5.5410    -3.3020    -0.7750 C.ar  1 <1>  -0.1500 
 16 C       -6.1400    -5.5370     0.5670 C.ar  1 <1>   0.1600 
 17 C       -6.8340    -3.6710    -0.4450 C.ar  1 <1>   0.1600 
 18 N       -7.1590    -4.7680     0.2190 N.ar  1 <1>  -0.6200 
 19 H       -0.7680    -0.9020     1.2390 H     1 <1>   0.4200 
 20 H        1.1610     2.0420    -0.7210 H     1 <1>   0.0800 
 21 H       -0.4930     1.7310    -1.1120 H     1 <1>   0.0800 
 22 H       -0.8780    -2.3730    -1.2320 H     1 <1>   0.0800 
 23 H        0.5900     2.0420     1.7030 H     1 <1>   0.0800 
 24 H       -1.0900     1.7730     1.2920 H     1 <1>   0.0800 
 25 H       -0.3010     3.2580     0.8180 H     1 <1>   0.0800 
 26 H       -3.1830    -1.7610     0.0470 H     1 <1>   0.0800 
 27 H        0.6740    -2.8660     0.9620 H     1 <1>   0.0800 
 28 H       -0.2540    -4.1750     0.2550 H     1 <1>   0.0800 
 29 H       -3.0210    -3.8820     1.8720 H     1 <1>   0.0800 
 30 H       -2.6890    -2.2070     2.2780 H     1 <1>   0.0800 
 31 H       -2.4230    -4.6220    -0.6290 H     1 <1>   0.0800 
 32 H       -2.9990    -3.4460    -1.7680 H     1 <1>   0.0800 
 33 H       -4.0500    -5.9460     0.6090 H     1 <1>   0.1500 
 34 H       -5.3710    -2.3910    -1.3180 H     1 <1>   0.1500 
 35 H       -6.3760    -6.4390     1.1060 H     1 <1>   0.1500 
 36 H       -7.6460    -3.0290    -0.7430 H     1 <1>   0.1500 
@<TRIPOS>BOND
  1   1   2  2   
  2   1   3  2   
  3   1   4  am  
  4   1   5  1   
  5   4   6  1   
  6   4  19  1   
  7   5   7  1   
  8   5  20  1   
  9   5  21  1   
 10   6   8  1   
 11   6   9  1   
 12   6  22  1   
 13   7  23  1   
 14   7  24  1   
 15   7  25  1   
 16   8  10  1   
 17   8  11  1   
 18   8  26  1   
 19   9  12  1   
 20   9  27  1   
 21   9  28  1   
 22  10  12  1   
 23  10  29  1   
 24  10  30  1   
 25  11  13  1   
 26  11  31  1   
 27  11  32  1   
 28  13  14  ar  
 29  13  15  ar  
 30  14  16  ar  
 31  14  33  1   
 32  15  17  ar  
 33  15  34  1   
 34  16  18  ar  
 35  16  35  1   
 36  17  18  ar  
 37  17  36  1   
@<TRIPOS>SUBSTRUCTURE
  1 ****   8 GROUP 4 **** **** 0

# MOE 2024.06 (io_trps.svl 2023.06)
