@<TRIPOS>MOLECULE
NONAME
47 49 1 0 0 
SMALL
USER_CHARGES


@<TRIPOS>ATOM
  1 F        0.4540     0.0550     1.1300 F     1 <1>  -0.1900 
  2 C        1.3850    -0.7830     0.7640 C.ar  1 <1>   0.1900 
  3 C        1.1750    -2.1330     0.9580 C.ar  1 <1>  -0.1500 
  4 C        2.5410    -0.2940     0.1940 C.ar  1 <1>  -0.1500 
  5 C        2.1520    -3.0350     0.5590 C.ar  1 <1>  -0.1440 
  6 C        3.5190    -1.1950    -0.1890 C.ar  1 <1>  -0.1500 
  7 C        3.3380    -2.5620    -0.0070 C.ar  1 <1>  -0.1430 
  8 C        1.8790    -4.5160     0.7600 C.3   1 <1>   0.4870 
  9 C        4.4670    -3.4930    -0.4340 C.3   1 <1>  -0.0960 
 10 N        1.5450    -5.1340    -0.5540 N.4   1 <1>  -0.9590 
 11 C        0.2680    -4.5770    -1.1110 C.3   1 <1>   0.3430 
 12 C        1.3300    -6.6060    -0.3910 C.3   1 <1>   0.3430 
 13 C       -0.8260    -5.5500    -0.6690 C.3   1 <1>   0.2000 
 14 C       -0.1170    -6.8930    -0.8040 C.3   1 <1>  -0.0800 
 15 O       -1.1030    -5.3240     0.6850 O.3   1 <1>  -0.5600 
 16 C       -0.7490    -8.0660    -0.0290 C.3   1 <1>   0.0200 
 17 C       -2.2080    -4.5070     0.9310 C.3   1 <1>   0.0400 
 18 C        0.1740    -9.2690    -0.0510 C.2   1 <1>  -0.0400 
 19 O        0.7250    -9.6470    -1.1740 O.3   1 <1>  -0.0190 
 20 C        0.6060   -10.0910     0.9170 C.2   1 <1>  -0.1500 
 21 N        1.5150   -10.6640    -1.0070 N.2   1 <1>  -0.4100 
 22 C        1.4560   -10.9630     0.2410 C.2   1 <1>   0.1080 
 23 C        2.2110   -12.1080     0.8780 C.3   1 <1>  -0.0590 
 24 H        0.2560    -2.4540     1.4160 H     1 <1>   0.1500 
 25 H        2.6720     0.7650     0.0580 H     1 <1>   0.1500 
 26 H        4.4270    -0.8180    -0.6290 H     1 <1>   0.1500 
 27 H        1.0590    -4.6470     1.4470 H     1 <1>   0.0800 
 28 H        2.7520    -4.9870     1.1820 H     1 <1>   0.0800 
 29 H        5.3880    -2.9440    -0.5320 H     1 <1>   0.0800 
 30 H        4.2470    -3.9400    -1.3860 H     1 <1>   0.0800 
 31 H        4.6320    -4.2630     0.2970 H     1 <1>   0.0800 
 32 H        2.3200    -4.9290    -1.1960 H     1 <1>   0.4500 
 33 H        0.0670    -3.5750    -0.7710 H     1 <1>   0.0800 
 34 H        0.3190    -4.5760    -2.1870 H     1 <1>   0.0800 
 35 H        2.0150    -7.1760    -1.0000 H     1 <1>   0.0800 
 36 H        1.4680    -6.8880     0.6400 H     1 <1>   0.0800 
 37 H       -1.7270    -5.4890    -1.2560 H     1 <1>   0.0800 
 38 H       -0.1010    -7.1590    -1.8480 H     1 <1>   0.0800 
 39 H       -1.6890    -8.3330    -0.4810 H     1 <1>   0.0800 
 40 H       -0.9370    -7.7990     0.9960 H     1 <1>   0.0800 
 41 H       -2.3060    -4.3830     1.9970 H     1 <1>   0.0800 
 42 H       -3.0960    -4.9800     0.5460 H     1 <1>   0.0800 
 43 H       -2.0630    -3.5450     0.4690 H     1 <1>   0.0800 
 44 H        0.3790   -10.1090     1.9670 H     1 <1>   0.1500 
 45 H        2.8550   -11.7380     1.6540 H     1 <1>   0.0800 
 46 H        2.8100   -12.6100     0.1390 H     1 <1>   0.0800 
 47 H        1.5180   -12.8130     1.2980 H     1 <1>   0.0800 
@<TRIPOS>BOND
  1   1   2  1   
  2   2   3  ar  
  3   2   4  ar  
  4   3   5  ar  
  5   3  24  1   
  6   4   6  ar  
  7   4  25  1   
  8   5   7  ar  
  9   5   8  1   
 10   6   7  ar  
 11   6  26  1   
 12   7   9  1   
 13   8  10  1   
 14   8  27  1   
 15   8  28  1   
 16   9  29  1   
 17   9  30  1   
 18   9  31  1   
 19  10  11  1   
 20  10  12  1   
 21  10  32  1   
 22  11  13  1   
 23  11  33  1   
 24  11  34  1   
 25  12  14  1   
 26  12  35  1   
 27  12  36  1   
 28  13  14  1   
 29  13  15  1   
 30  13  37  1   
 31  14  16  1   
 32  14  38  1   
 33  15  17  1   
 34  16  18  1   
 35  16  39  1   
 36  16  40  1   
 37  17  41  1   
 38  17  42  1   
 39  17  43  1   
 40  18  19  1   
 41  18  20  2   
 42  19  21  1   
 43  20  22  1   
 44  20  44  1   
 45  21  22  2   
 46  22  23  1   
 47  23  45  1   
 48  23  46  1   
 49  23  47  1   
@<TRIPOS>SUBSTRUCTURE
  1 ****  10 GROUP 4 **** **** 0

# MOE 2024.06 (io_trps.svl 2023.06)
