@<TRIPOS>MOLECULE
NONAME
59 64 1 0 0 
SMALL
USER_CHARGES


@<TRIPOS>ATOM
  1 O       -0.7750     0.2980     1.3250 O.2   1 <1>  -0.5700 
  2 C       -1.4560     0.8440     0.4850 C.2   1 <1>   0.5690 
  3 N       -2.3570     0.0720    -0.2200 N.am  1 <1>  -0.6600 
  4 C       -1.2720     2.3780     0.2840 C.3   1 <1>   0.0610 
  5 C       -3.3300     0.4470    -1.2810 C.3   1 <1>   0.1400 
  6 C       -2.4980    -1.3810     0.0760 C.3   1 <1>   0.1400 
  7 C       -0.0340     2.8860     1.0820 C.3   1 <1>  -0.1600 
  8 C       -1.0290     2.7660    -1.2020 C.3   1 <1>  -0.1600 
  9 C       -2.5000     3.1570     0.8250 C.3   1 <1>  -0.1600 
 10 C       -4.3920    -0.6460    -1.2260 C.3   1 <1>   0.2000 
 11 C       -3.5900    -1.9010    -0.8680 C.3   1 <1>  -0.0800 
 12 C        0.1690     4.4050     0.9330 C.3   1 <1>  -0.0800 
 13 C       -0.8480     4.2860    -1.3640 C.3   1 <1>  -0.0800 
 14 C       -2.3190     4.6770     0.6530 C.3   1 <1>  -0.0800 
 15 O       -5.2680    -0.3380    -0.1960 O.3   1 <1>  -0.6800 
 16 C       -4.4350    -3.0540    -0.2850 C.3   1 <1>  -0.0170 
 17 C        0.3760     4.7420    -0.5520 C.3   1 <1>  -0.1600 
 18 C       -1.0840     5.1320     1.4510 C.3   1 <1>  -0.1600 
 19 C       -2.1060     5.0030    -0.8370 C.3   1 <1>  -0.1600 
 20 C       -3.7200    -4.3920    -0.0590 C.ar  1 <1>  -0.1440 
 21 C       -4.3940    -5.4390     0.6180 C.ar  1 <1>   0.0000 
 22 C       -2.4480    -4.6540    -0.4870 C.ar  1 <1>  -0.1500 
 23 C       -3.7010    -6.6590     0.8190 C.ar  1 <1>   0.3100 
 24 C       -5.7210    -5.3510     1.1040 C.ar  1 <1>  -0.1500 
 25 C       -1.8550    -5.8980    -0.2390 C.ar  1 <1>   0.1600 
 26 N       -2.4340    -6.8710     0.3860 N.ar  1 <1>  -0.6200 
 27 C       -4.3460    -7.7090     1.4930 C.ar  1 <1>  -0.1500 
 28 C       -6.3220    -6.3940     1.7560 C.ar  1 <1>  -0.1500 
 29 C       -5.6280    -7.5890     1.9560 C.ar  1 <1>  -0.1500 
 30 H       -3.7670     1.4160    -1.1360 H     1 <1>   0.0800 
 31 H       -2.8330     0.4150    -2.2350 H     1 <1>   0.0800 
 32 H       -1.5590    -1.8840    -0.0780 H     1 <1>   0.0800 
 33 H       -2.7910    -1.5000     1.1060 H     1 <1>   0.0800 
 34 H       -0.1540     2.6530     2.1260 H     1 <1>   0.0800 
 35 H        0.8500     2.3730     0.7420 H     1 <1>   0.0800 
 36 H       -0.1540     2.2560    -1.5660 H     1 <1>   0.0800 
 37 H       -1.8520     2.4730    -1.8200 H     1 <1>   0.0800 
 38 H       -3.3970     2.8590     0.3200 H     1 <1>   0.0800 
 39 H       -2.6340     2.9280     1.8680 H     1 <1>   0.0800 
 40 H       -4.9540    -0.7400    -2.1400 H     1 <1>   0.0800 
 41 H       -3.1200    -2.2390    -1.7740 H     1 <1>   0.0800 
 42 H        1.0300     4.7140     1.5000 H     1 <1>   0.0800 
 43 H       -0.7010     4.5270    -2.4030 H     1 <1>   0.0800 
 44 H       -3.1920     5.1910     1.0170 H     1 <1>   0.0800 
 45 H       -4.7430    -0.1110     0.6000 H     1 <1>   0.4000 
 46 H       -5.2660    -3.2310    -0.9460 H     1 <1>   0.0800 
 47 H       -4.8380    -2.7290     0.6580 H     1 <1>   0.0800 
 48 H        1.2610     4.2500    -0.9180 H     1 <1>   0.0800 
 49 H        0.5190     5.8020    -0.6700 H     1 <1>   0.0800 
 50 H       -0.9560     6.1950     1.3520 H     1 <1>   0.0800 
 51 H       -1.2240     4.9160     2.4960 H     1 <1>   0.0800 
 52 H       -2.9670     4.6970    -1.4040 H     1 <1>   0.0800 
 53 H       -1.9960     6.0660    -0.9630 H     1 <1>   0.0800 
 54 H       -1.8540    -3.9400    -1.0230 H     1 <1>   0.1500 
 55 H       -6.2800    -4.4460     0.9610 H     1 <1>   0.1500 
 56 H       -0.8500    -6.0540    -0.5920 H     1 <1>   0.1500 
 57 H       -3.7930    -8.6190     1.6320 H     1 <1>   0.1500 
 58 H       -7.3310    -6.3080     2.1210 H     1 <1>   0.1500 
 59 H       -6.1100    -8.4020     2.4700 H     1 <1>   0.1500 
@<TRIPOS>BOND
  1   1   2  2   
  2   2   3  am  
  3   2   4  1   
  4   3   5  1   
  5   3   6  1   
  6   4   7  1   
  7   4   8  1   
  8   4   9  1   
  9   5  10  1   
 10   5  30  1   
 11   5  31  1   
 12   6  11  1   
 13   6  32  1   
 14   6  33  1   
 15   7  12  1   
 16   7  34  1   
 17   7  35  1   
 18   8  13  1   
 19   8  36  1   
 20   8  37  1   
 21   9  14  1   
 22   9  38  1   
 23   9  39  1   
 24  10  11  1   
 25  10  15  1   
 26  10  40  1   
 27  11  16  1   
 28  11  41  1   
 29  12  17  1   
 30  12  18  1   
 31  12  42  1   
 32  13  17  1   
 33  13  19  1   
 34  13  43  1   
 35  14  18  1   
 36  14  19  1   
 37  14  44  1   
 38  15  45  1   
 39  16  20  1   
 40  16  46  1   
 41  16  47  1   
 42  17  48  1   
 43  17  49  1   
 44  18  50  1   
 45  18  51  1   
 46  19  52  1   
 47  19  53  1   
 48  20  21  ar  
 49  20  22  ar  
 50  21  23  ar  
 51  21  24  ar  
 52  22  25  ar  
 53  22  54  1   
 54  23  26  ar  
 55  23  27  ar  
 56  24  28  ar  
 57  24  55  1   
 58  25  26  ar  
 59  25  56  1   
 60  27  29  ar  
 61  27  57  1   
 62  28  29  ar  
 63  28  58  1   
 64  29  59  1   
@<TRIPOS>SUBSTRUCTURE
  1 ****   6 GROUP 4 **** **** 0

# MOE 2024.06 (io_trps.svl 2023.06)
