@<TRIPOS>MOLECULE
NONAME
45 48 1 0 0 
SMALL
USER_CHARGES


@<TRIPOS>ATOM
  1 O       -0.6390     0.3920     1.6240 O.2   1 <1>  -0.5700 
  2 C       -1.5540     1.0130     1.1170 C.2   1 <1>   0.5440 
  3 N       -2.6580     0.3150     0.6820 N.am  1 <1>  -0.6600 
  4 C       -1.4500     2.4510     0.9650 C.ar  1 <1>   0.0860 
  5 C       -3.6250     0.8120    -0.3330 C.3   1 <1>   0.1400 
  6 C       -2.7620    -1.1630     0.8040 C.3   1 <1>   0.1400 
  7 C       -0.3320     3.0200     0.3650 C.ar  1 <1>  -0.1500 
  8 C       -2.4700     3.3070     1.4250 C.ar  1 <1>  -0.1500 
  9 C       -4.6010    -0.3460    -0.5340 C.3   1 <1>   0.2000 
 10 C       -3.7400    -1.5910    -0.2970 C.3   1 <1>  -0.0800 
 11 C       -0.2420     4.4000     0.2050 C.ar  1 <1>   0.0000 
 12 C       -2.3940     4.6750     1.2730 C.ar  1 <1>  -0.1500 
 13 O       -5.5750    -0.2620     0.4510 O.3   1 <1>  -0.6800 
 14 C       -4.5280    -2.8740     0.0300 C.3   1 <1>   0.0200 
 15 C       -1.2710     5.2070     0.6550 C.ar  1 <1>   0.1400 
 16 C        0.6990     5.2970    -0.3420 C.2   1 <1>  -0.1500 
 17 C       -3.6480    -4.1100     0.1190 C.2   1 <1>  -0.0400 
 18 O       -1.0020     6.4870     0.4090 O.3   1 <1>  -0.2800 
 19 C        0.1830     6.5310    -0.1890 C.2   1 <1>  -0.0400 
 20 O       -4.1850    -5.2330     0.5170 O.3   1 <1>  -0.0190 
 21 C       -2.3500    -4.3470    -0.1330 C.2   1 <1>  -0.1500 
 22 C        0.7300     7.8860    -0.5780 C.3   1 <1>  -0.0600 
 23 N       -3.3190    -6.2040     0.5470 N.2   1 <1>  -0.4100 
 24 C       -2.2040    -5.7000     0.1610 C.2   1 <1>   0.1080 
 25 C       -0.9130    -6.4780     0.0450 C.3   1 <1>  -0.0590 
 26 H       -4.1360     1.7020    -0.0110 H     1 <1>   0.0800 
 27 H       -3.0980     1.0110    -1.2510 H     1 <1>   0.0800 
 28 H       -1.7990    -1.6280     0.6800 H     1 <1>   0.0800 
 29 H       -3.1470    -1.4060     1.7790 H     1 <1>   0.0800 
 30 H        0.4730     2.3930     0.0230 H     1 <1>   0.1500 
 31 H       -3.3250     2.8710     1.9130 H     1 <1>   0.1500 
 32 H       -5.0840    -0.3330    -1.4960 H     1 <1>   0.0800 
 33 H       -3.1690    -1.7620    -1.1930 H     1 <1>   0.0800 
 34 H       -3.1690     5.3350     1.6200 H     1 <1>   0.1500 
 35 H       -5.1370    -0.1370     1.3170 H     1 <1>   0.4000 
 36 H       -5.2700    -3.0410    -0.7310 H     1 <1>   0.0800 
 37 H       -5.0460    -2.7600     0.9660 H     1 <1>   0.0800 
 38 H        1.6330     5.0010    -0.7840 H     1 <1>   0.1500 
 39 H       -1.5730    -3.6920    -0.4800 H     1 <1>   0.1500 
 40 H        1.6900     7.7800    -1.0490 H     1 <1>   0.0800 
 41 H        0.8360     8.4990     0.2990 H     1 <1>   0.0800 
 42 H        0.0540     8.3680    -1.2610 H     1 <1>   0.0800 
 43 H       -0.5590    -6.4500    -0.9690 H     1 <1>   0.0800 
 44 H       -1.0750    -7.5020     0.3300 H     1 <1>   0.0800 
 45 H       -0.1700    -6.0510     0.6940 H     1 <1>   0.0800 
@<TRIPOS>BOND
  1   1   2  2   
  2   2   3  am  
  3   2   4  1   
  4   3   5  1   
  5   3   6  1   
  6   4   7  ar  
  7   4   8  ar  
  8   5   9  1   
  9   5  26  1   
 10   5  27  1   
 11   6  10  1   
 12   6  28  1   
 13   6  29  1   
 14   7  11  ar  
 15   7  30  1   
 16   8  12  ar  
 17   8  31  1   
 18   9  10  1   
 19   9  13  1   
 20   9  32  1   
 21  10  14  1   
 22  10  33  1   
 23  11  15  ar  
 24  11  16  1   
 25  12  15  ar  
 26  12  34  1   
 27  13  35  1   
 28  14  17  1   
 29  14  36  1   
 30  14  37  1   
 31  15  18  1   
 32  16  19  2   
 33  16  38  1   
 34  17  20  1   
 35  17  21  2   
 36  18  19  1   
 37  19  22  1   
 38  20  23  1   
 39  21  24  1   
 40  21  39  1   
 41  22  40  1   
 42  22  41  1   
 43  22  42  1   
 44  23  24  2   
 45  24  25  1   
 46  25  43  1   
 47  25  44  1   
 48  25  45  1   
@<TRIPOS>SUBSTRUCTURE
  1 ****   3 GROUP 4 **** **** 0

# MOE 2024.06 (io_trps.svl 2023.06)
