@<TRIPOS>MOLECULE
NONAME
31 32 1 0 0 
SMALL
USER_CHARGES


@<TRIPOS>ATOM
  1 O       -0.8140     0.0380     0.9020 O.2   1 <1>  -0.5700 
  2 C       -1.5720     0.7400     0.2600 C.2   1 <1>   0.7160 
  3 N       -2.5870     0.1380    -0.4560 N.am  1 <1>  -0.6600 
  4 C       -1.3950     2.1720     0.2740 C.2   1 <1>  -0.0860 
  5 C       -2.5230    -1.3110    -0.8170 C.3   1 <1>   0.1400 
  6 C       -3.9240     0.7620    -0.6410 C.3   1 <1>   0.1400 
  7 C       -1.6460     3.0550    -0.7810 C.2   1 <1>   0.1390 
  8 C       -0.9370     2.9940     1.2590 C.2   1 <1>  -0.3020 
  9 C       -3.5740    -2.1080    -0.0310 C.3   1 <1>   0.2000 
 10 C       -4.9700    -0.0120     0.1700 C.3   1 <1>  -0.1600 
 11 N       -1.3940     4.2910    -0.4830 N.2   1 <1>  -0.7070 
 12 N       -0.9470     4.2480     0.7850 N.pl3 1 <1>   0.3000 
 13 O       -3.5800    -3.4200    -0.4820 O.3   1 <1>  -0.6800 
 14 C       -4.9900    -1.5160    -0.1820 C.3   1 <1>  -0.0800 
 15 C       -5.9920    -2.3030     0.6810 C.3   1 <1>   0.1200 
 16 O       -7.2670    -1.7890     0.5090 O.3   1 <1>  -0.6800 
 17 H       -2.7060    -1.4080    -1.8720 H     1 <1>   0.0800 
 18 H       -1.5450    -1.7080    -0.6040 H     1 <1>   0.0800 
 19 H       -3.9190     1.7870    -0.3130 H     1 <1>   0.0800 
 20 H       -4.1810     0.7450    -1.6870 H     1 <1>   0.0800 
 21 H       -2.0070     2.7440    -1.7470 H     1 <1>   0.1500 
 22 H       -0.6100     2.7300     2.2490 H     1 <1>   0.1500 
 23 H       -3.2850    -2.1280     1.0070 H     1 <1>   0.0800 
 24 H       -4.7590     0.1170     1.2170 H     1 <1>   0.0800 
 25 H       -5.9340     0.4230    -0.0270 H     1 <1>   0.0800 
 26 H       -0.6510     5.0950     1.2890 H     1 <1>   0.2700 
 27 H       -3.9080    -3.4690    -1.3990 H     1 <1>   0.4000 
 28 H       -5.2830    -1.6150    -1.2130 H     1 <1>   0.0800 
 29 H       -5.7390    -2.2460     1.7260 H     1 <1>   0.0800 
 30 H       -6.0180    -3.3390     0.3850 H     1 <1>   0.0800 
 31 H       -7.3380    -0.9030     0.9120 H     1 <1>   0.4000 
@<TRIPOS>BOND
  1   1   2  2   
  2   2   3  am  
  3   2   4  1   
  4   3   5  1   
  5   3   6  1   
  6   4   7  1   
  7   4   8  2   
  8   5   9  1   
  9   5  17  1   
 10   5  18  1   
 11   6  10  1   
 12   6  19  1   
 13   6  20  1   
 14   7  11  2   
 15   7  21  1   
 16   8  12  1   
 17   8  22  1   
 18   9  13  1   
 19   9  14  1   
 20   9  23  1   
 21  10  14  1   
 22  10  24  1   
 23  10  25  1   
 24  11  12  1   
 25  12  26  1   
 26  13  27  1   
 27  14  15  1   
 28  14  28  1   
 29  15  16  1   
 30  15  29  1   
 31  15  30  1   
 32  16  31  1   
@<TRIPOS>SUBSTRUCTURE
  1 ****   3 GROUP 4 **** **** 0

# MOE 2024.06 (io_trps.svl 2023.06)
