@<TRIPOS>MOLECULE
NONAME
49 51 1 0 0 
SMALL
USER_CHARGES


@<TRIPOS>ATOM
  1 F       -1.2930    -0.0220    -0.9380 F     1 <1>  -0.1900 
  2 C       -1.0030    -1.2920    -0.8590 C.ar  1 <1>   0.1900 
  3 C       -1.9970    -2.1980    -0.6280 C.ar  1 <1>  -0.1500 
  4 C        0.3290    -1.6700    -1.0170 C.ar  1 <1>  -0.1500 
  5 C       -1.6940    -3.5650    -0.5420 C.ar  1 <1>   0.3100 
  6 C        0.6470    -2.9990    -0.9360 C.ar  1 <1>  -0.1500 
  7 N       -2.7190    -4.4180    -0.3150 N.ar  1 <1>  -0.6200 
  8 C       -0.3450    -3.9790    -0.6980 C.ar  1 <1>   0.0000 
  9 C       -2.4380    -5.6880    -0.2350 C.ar  1 <1>   0.4100 
 10 C       -0.0750    -5.3620    -0.6000 C.ar  1 <1>  -0.1440 
 11 N       -3.4750    -6.5710    -0.0190 N.pl3 1 <1>  -0.8380 
 12 C       -1.1290    -6.1900    -0.3680 C.ar  1 <1>  -0.1500 
 13 C        1.3350    -5.9180    -0.7390 C.3   1 <1>  -0.0970 
 14 C       -3.7590    -7.6010    -1.0530 C.3   1 <1>   0.2090 
 15 C       -4.6680    -6.1220     0.7380 C.3   1 <1>   0.2090 
 16 C       -4.3970    -8.8820    -0.4640 C.3   1 <1>   0.0000 
 17 C       -5.2820    -7.3210     1.4540 C.3   1 <1>  -0.1600 
 18 C       -5.5700    -8.4620     0.4700 C.3   1 <1>   0.2000 
 19 C       -5.0400    -9.6720    -1.6330 C.3   1 <1>   0.1200 
 20 C       -3.3190    -9.8120     0.1880 C.3   1 <1>  -0.1600 
 21 O       -6.0270    -9.5490     1.1900 O.3   1 <1>  -0.6800 
 22 O       -4.1110   -10.0060    -2.6150 O.3   1 <1>  -0.6800 
 23 C       -2.6730    -9.3830     1.5160 C.3   1 <1>  -0.1600 
 24 C       -1.5010   -10.3020     1.8740 C.3   1 <1>  -0.2400 
 25 H       -3.0170    -1.8880    -0.5090 H     1 <1>   0.1500 
 26 H        1.0720    -0.9130    -1.1980 H     1 <1>   0.1500 
 27 H        1.6700    -3.3040    -1.0560 H     1 <1>   0.1500 
 28 H       -0.9990    -7.2500    -0.2700 H     1 <1>   0.1500 
 29 H        1.3370    -6.9870    -0.6300 H     1 <1>   0.0800 
 30 H        1.9730    -5.5000     0.0190 H     1 <1>   0.0800 
 31 H        1.7330    -5.6760    -1.7090 H     1 <1>   0.0800 
 32 H       -4.4320    -7.1630    -1.7700 H     1 <1>   0.0800 
 33 H       -2.8530    -7.8550    -1.5760 H     1 <1>   0.0800 
 34 H       -4.3840    -5.3740     1.4600 H     1 <1>   0.0800 
 35 H       -5.3770    -5.6820     0.0570 H     1 <1>   0.0800 
 36 H       -6.2030    -7.0110     1.9120 H     1 <1>   0.0800 
 37 H       -4.6140    -7.6240     2.2340 H     1 <1>   0.0800 
 38 H       -6.3930    -8.1380    -0.1440 H     1 <1>   0.0800 
 39 H       -5.8250    -9.1050    -2.1040 H     1 <1>   0.0800 
 40 H       -5.4660   -10.5910    -1.2660 H     1 <1>   0.0800 
 41 H       -3.7520   -10.7860     0.3390 H     1 <1>   0.0800 
 42 H       -2.5280    -9.9480    -0.5290 H     1 <1>   0.0800 
 43 H       -5.2890    -9.9170     1.7140 H     1 <1>   0.4000 
 44 H       -3.8760    -9.2340    -3.1640 H     1 <1>   0.4000 
 45 H       -2.3100    -8.3730     1.4540 H     1 <1>   0.0800 
 46 H       -3.3920    -9.4360     2.3120 H     1 <1>   0.0800 
 47 H       -0.7380   -10.2510     1.1180 H     1 <1>   0.0800 
 48 H       -1.8340   -11.3220     1.9630 H     1 <1>   0.0800 
 49 H       -1.0710    -9.9990     2.8130 H     1 <1>   0.0800 
@<TRIPOS>BOND
  1   1   2  1   
  2   2   3  ar  
  3   2   4  ar  
  4   3   5  ar  
  5   3  25  1   
  6   4   6  ar  
  7   4  26  1   
  8   5   7  ar  
  9   5   8  ar  
 10   6   8  ar  
 11   6  27  1   
 12   7   9  ar  
 13   8  10  ar  
 14   9  11  1   
 15   9  12  ar  
 16  10  12  ar  
 17  10  13  1   
 18  11  14  1   
 19  11  15  1   
 20  12  28  1   
 21  13  29  1   
 22  13  30  1   
 23  13  31  1   
 24  14  16  1   
 25  14  32  1   
 26  14  33  1   
 27  15  17  1   
 28  15  34  1   
 29  15  35  1   
 30  16  18  1   
 31  16  19  1   
 32  16  20  1   
 33  17  18  1   
 34  17  36  1   
 35  17  37  1   
 36  18  21  1   
 37  18  38  1   
 38  19  22  1   
 39  19  39  1   
 40  19  40  1   
 41  20  23  1   
 42  20  41  1   
 43  20  42  1   
 44  21  43  1   
 45  22  44  1   
 46  23  24  1   
 47  23  45  1   
 48  23  46  1   
 49  24  47  1   
 50  24  48  1   
 51  24  49  1   
@<TRIPOS>SUBSTRUCTURE
  1 ****   9 GROUP 4 **** **** 0

# MOE 2024.06 (io_trps.svl 2023.06)
