@<TRIPOS>MOLECULE
NONAME
52 55 1 0 0 
SMALL
USER_CHARGES


@<TRIPOS>ATOM
  1 O       -1.6820     0.3290     1.4450 O.2   1 <1>  -0.5700 
  2 C       -2.5950     0.7170     0.7580 C.2   1 <1>   0.6900 
  3 N       -2.6520     1.9450     0.2020 N.am  1 <1>  -0.4900 
  4 N       -3.7180     0.0190     0.4940 N.am  1 <1>  -0.7300 
  5 C       -3.8500     2.1510    -0.3870 C.2   1 <1>   0.5690 
  6 C       -4.6840     0.8810    -0.2290 C.3   1 <1>   0.2810 
  7 O       -4.2060     3.1650    -0.9310 O.2   1 <1>  -0.5700 
  8 C       -5.9500     1.1000     0.5990 C.3   1 <1>  -0.0990 
  9 C       -6.6990    -0.2070     0.7280 C.2   1 <1>   0.5690 
 10 O       -6.3600    -0.9350     1.6300 O.2   1 <1>  -0.5700 
 11 N       -7.6930    -0.5570    -0.1480 N.am  1 <1>  -0.6600 
 12 C       -8.3760    -1.8880    -0.0310 C.3   1 <1>   0.1400 
 13 C       -8.2350     0.2980    -1.2430 C.3   1 <1>   0.1400 
 14 C       -9.7590    -1.7860     0.6340 C.3   1 <1>   0.1400 
 15 C       -9.3400     1.2380    -0.7390 C.3   1 <1>  -0.1600 
 16 N      -10.6370    -0.7690    -0.0300 N.am  1 <1>  -0.6600 
 17 C      -10.2890     0.6370     0.3060 C.3   1 <1>   0.1400 
 18 C      -11.7030    -1.0500    -0.8540 C.2   1 <1>   0.5690 
 19 O      -12.3470    -0.1630    -1.3650 O.2   1 <1>  -0.5700 
 20 C      -12.0870    -2.4840    -1.2020 C.3   1 <1>   0.0820 
 21 C      -12.6580    -3.2800    -0.0340 C.2   1 <1>  -0.1810 
 22 C      -12.7980    -4.6860    -0.0350 C.ar  1 <1>   0.0000 
 23 C      -13.1140    -2.8250     1.1580 C.2   1 <1>  -0.3020 
 24 C      -13.3450    -5.0280     1.1980 C.ar  1 <1>  -0.1520 
 25 C      -12.5130    -5.6940    -0.9630 C.ar  1 <1>  -0.1500 
 26 N      -13.5360    -3.8770     1.9190 N.pl3 1 <1>   0.0330 
 27 C      -13.6100    -6.3600     1.5240 C.ar  1 <1>  -0.1500 
 28 C      -12.7740    -7.0060    -0.6420 C.ar  1 <1>  -0.1500 
 29 C      -13.3220    -7.3400     0.6030 C.ar  1 <1>  -0.1500 
 30 H       -1.9100     2.6290     0.2950 H     1 <1>   0.3700 
 31 H       -4.0430    -0.7260     1.1220 H     1 <1>   0.3700 
 32 H       -4.9100     0.4630    -1.1940 H     1 <1>   0.0800 
 33 H       -6.5610     1.8520     0.1410 H     1 <1>   0.0800 
 34 H       -5.6870     1.4560     1.5790 H     1 <1>   0.0800 
 35 H       -7.7690    -2.5640     0.5450 H     1 <1>   0.0800 
 36 H       -8.4850    -2.3220    -1.0090 H     1 <1>   0.0800 
 37 H       -8.6510    -0.3360    -2.0080 H     1 <1>   0.0800 
 38 H       -7.4480     0.8690    -1.7040 H     1 <1>   0.0800 
 39 H       -9.6270    -1.5220     1.6690 H     1 <1>   0.0800 
 40 H      -10.2190    -2.7570     0.6210 H     1 <1>   0.0800 
 41 H       -9.9260     1.5540    -1.5840 H     1 <1>   0.0800 
 42 H       -8.8980     2.1250    -0.3240 H     1 <1>   0.0800 
 43 H      -11.1860     1.2310     0.3640 H     1 <1>   0.0800 
 44 H       -9.8200     0.6650     1.2750 H     1 <1>   0.0800 
 45 H      -11.2180    -2.9830    -1.5840 H     1 <1>   0.0800 
 46 H      -12.8190    -2.4630    -1.9880 H     1 <1>   0.0800 
 47 H      -13.1670    -1.8100     1.5120 H     1 <1>   0.1500 
 48 H      -12.0960    -5.4300    -1.9170 H     1 <1>   0.1500 
 49 H      -13.9400    -3.8280     2.8590 H     1 <1>   0.2700 
 50 H      -14.0340    -6.6070     2.4820 H     1 <1>   0.1500 
 51 H      -12.5600    -7.7910    -1.3460 H     1 <1>   0.1500 
 52 H      -13.5170    -8.3730     0.8290 H     1 <1>   0.1500 
@<TRIPOS>BOND
  1   1   2  2   
  2   2   3  am  
  3   2   4  am  
  4   3   5  am  
  5   3  30  1   
  6   4   6  1   
  7   4  31  1   
  8   5   6  1   
  9   5   7  2   
 10   6   8  1   
 11   6  32  1   
 12   8   9  1   
 13   8  33  1   
 14   8  34  1   
 15   9  10  2   
 16   9  11  am  
 17  11  12  1   
 18  11  13  1   
 19  12  14  1   
 20  12  35  1   
 21  12  36  1   
 22  13  15  1   
 23  13  37  1   
 24  13  38  1   
 25  14  16  1   
 26  14  39  1   
 27  14  40  1   
 28  15  17  1   
 29  15  41  1   
 30  15  42  1   
 31  16  17  1   
 32  16  18  am  
 33  17  43  1   
 34  17  44  1   
 35  18  19  2   
 36  18  20  1   
 37  20  21  1   
 38  20  45  1   
 39  20  46  1   
 40  21  22  1   
 41  21  23  2   
 42  22  24  ar  
 43  22  25  ar  
 44  23  26  1   
 45  23  47  1   
 46  24  26  1   
 47  24  27  ar  
 48  25  28  ar  
 49  25  48  1   
 50  26  49  1   
 51  27  29  ar  
 52  27  50  1   
 53  28  29  ar  
 54  28  51  1   
 55  29  52  1   
@<TRIPOS>SUBSTRUCTURE
  1 ****  12 GROUP 4 **** **** 0

# MOE 2024.06 (io_trps.svl 2023.06)
