@<TRIPOS>MOLECULE
NONAME
47 49 1 0 0 
SMALL
USER_CHARGES


@<TRIPOS>ATOM
  1 O        1.8510    -0.1950    -1.6150 O.2   1 <1>  -0.5700 
  2 C        2.0660    -0.6280    -0.4970 C.2   1 <1>   0.5440 
  3 N        2.4180     0.2990     0.4790 N.am  1 <1>  -0.6600 
  4 C        1.9720    -2.0730    -0.2660 C.ar  1 <1>   0.3960 
  5 C        3.3020    -0.0380     1.6280 C.3   1 <1>   0.1400 
  6 C        2.2020     1.7570     0.2690 C.3   1 <1>   0.1400 
  7 N        2.9900    -2.7400     0.3180 N.ar  1 <1>  -0.6200 
  8 C        0.8180    -2.7290    -0.6820 C.ar  1 <1>  -0.1500 
  9 C        4.7450    -0.2760     1.1360 C.3   1 <1>   0.3430 
 10 C        3.5240     2.4830    -0.0080 C.3   1 <1>  -0.1600 
 11 C        2.8310    -4.0440     0.4790 C.ar  1 <1>   0.1600 
 12 C        0.6660    -4.0840    -0.5030 C.ar  1 <1>   0.0830 
 13 N        5.3960     0.9170     0.4840 N.4   1 <1>  -0.9590 
 14 C        4.6130     1.5880    -0.6050 C.3   1 <1>   0.3430 
 15 C        1.7120    -4.7580     0.0980 C.ar  1 <1>  -0.1500 
 16 O       -0.4810    -4.6580    -0.9230 O.3   1 <1>  -0.3630 
 17 C        6.7670     0.5920     0.0050 C.3   1 <1>   0.5230 
 18 C       -0.7020    -6.0460    -0.8050 C.3   1 <1>   0.0400 
 19 C        7.5980     1.8660     0.0260 C.2   1 <1>   0.0060 
 20 N        8.7540     2.0490    -0.6210 N.pl3 1 <1>   0.0330 
 21 N        7.2620     2.9220     0.6870 N.2   1 <1>  -0.3380 
 22 C        9.0860     3.2990    -0.3010 C.2   1 <1>   0.0060 
 23 N        8.2080     3.8330     0.4750 N.2   1 <1>  -0.3380 
 24 C       10.3390     3.9970    -0.7900 C.3   1 <1>  -0.0600 
 25 H        2.9350    -0.9230     2.1160 H     1 <1>   0.0800 
 26 H        3.2870     0.7550     2.3560 H     1 <1>   0.0800 
 27 H        1.7220     2.1790     1.1370 H     1 <1>   0.0800 
 28 H        1.5330     1.9090    -0.5620 H     1 <1>   0.0800 
 29 H        0.0310    -2.1710    -1.1560 H     1 <1>   0.1500 
 30 H        4.7270    -1.0960     0.4380 H     1 <1>   0.0800 
 31 H        5.3390    -0.5850     1.9800 H     1 <1>   0.0800 
 32 H        3.8820     2.9660     0.8840 H     1 <1>   0.0800 
 33 H        3.3110     3.2670    -0.7130 H     1 <1>   0.0800 
 34 H        3.6400    -4.5830     0.9440 H     1 <1>   0.1500 
 35 H        5.5610     1.6540     1.1910 H     1 <1>   0.4500 
 36 H        5.2760     2.2180    -1.1770 H     1 <1>   0.0800 
 37 H        4.1770     0.8620    -1.2740 H     1 <1>   0.0800 
 38 H        1.6750    -5.8160     0.2730 H     1 <1>   0.1500 
 39 H        6.7260     0.1790    -0.9890 H     1 <1>   0.0800 
 40 H        7.2260    -0.1270     0.6630 H     1 <1>   0.0800 
 41 H       -1.6720    -6.2650    -1.2140 H     1 <1>   0.0800 
 42 H       -0.6760    -6.3180     0.2350 H     1 <1>   0.0800 
 43 H        0.0550    -6.5700    -1.3610 H     1 <1>   0.0800 
 44 H        9.2870     1.4130    -1.2210 H     1 <1>   0.2700 
 45 H       11.2140     3.4660    -0.4620 H     1 <1>   0.0800 
 46 H       10.3780     4.9960    -0.3930 H     1 <1>   0.0800 
 47 H       10.3390     4.0560    -1.8640 H     1 <1>   0.0800 
@<TRIPOS>BOND
  1   1   2  2   
  2   2   3  am  
  3   2   4  1   
  4   3   5  1   
  5   3   6  1   
  6   4   7  ar  
  7   4   8  ar  
  8   5   9  1   
  9   5  25  1   
 10   5  26  1   
 11   6  10  1   
 12   6  27  1   
 13   6  28  1   
 14   7  11  ar  
 15   8  12  ar  
 16   8  29  1   
 17   9  13  1   
 18   9  30  1   
 19   9  31  1   
 20  10  14  1   
 21  10  32  1   
 22  10  33  1   
 23  11  15  ar  
 24  11  34  1   
 25  12  15  ar  
 26  12  16  1   
 27  13  14  1   
 28  13  17  1   
 29  13  35  1   
 30  14  36  1   
 31  14  37  1   
 32  15  38  1   
 33  16  18  1   
 34  17  19  1   
 35  17  39  1   
 36  17  40  1   
 37  18  41  1   
 38  18  42  1   
 39  18  43  1   
 40  19  20  1   
 41  19  21  2   
 42  20  22  1   
 43  20  44  1   
 44  21  23  1   
 45  22  23  2   
 46  22  24  1   
 47  24  45  1   
 48  24  46  1   
 49  24  47  1   
@<TRIPOS>SUBSTRUCTURE
  1 ****   9 GROUP 4 **** **** 0

# MOE 2024.06 (io_trps.svl 2023.06)
