@<TRIPOS>MOLECULE
NONAME
54 57 1 0 0 
SMALL
USER_CHARGES


@<TRIPOS>ATOM
  1 F       -0.5220    -2.5010    -2.2300 F     1 <1>  -0.1900 
  2 C       -1.6960    -2.6830    -1.6900 C.ar  1 <1>   0.1900 
  3 C       -2.6240    -3.4610    -2.3550 C.ar  1 <1>  -0.1500 
  4 C       -1.9710    -2.0910    -0.4720 C.ar  1 <1>  -0.1500 
  5 C       -3.8670    -3.6470    -1.7760 C.ar  1 <1>  -0.1500 
  6 C       -3.2190    -2.2900     0.0930 C.ar  1 <1>  -0.1500 
  7 C       -4.1840    -3.0670    -0.5470 C.ar  1 <1>   0.0000 
  8 C       -5.4850    -3.2680     0.0500 C.ar  1 <1>   0.0000 
  9 C       -5.9520    -4.5460     0.3340 C.ar  1 <1>  -0.1500 
 10 C       -6.3060    -2.1890     0.3570 C.ar  1 <1>  -0.1500 
 11 C       -7.2020    -4.7790     0.9020 C.ar  1 <1>   0.0860 
 12 C       -7.5470    -2.3840     0.9320 C.ar  1 <1>  -0.1500 
 13 C       -7.6600    -6.1310     1.1760 C.2   1 <1>   0.5440 
 14 C       -7.9870    -3.6660     1.2030 C.ar  1 <1>  -0.1500 
 15 O       -6.8700    -6.9850     1.5360 O.2   1 <1>  -0.5700 
 16 N       -8.9760    -6.5020     1.0150 N.am  1 <1>  -0.6600 
 17 C       -9.4770    -7.7690     1.6200 C.3   1 <1>   0.1400 
 18 C       -9.7900    -6.0470    -0.1490 C.3   1 <1>   0.1400 
 19 C       -9.3830    -8.8790     0.5510 C.3   1 <1>   0.4230 
 20 C       -9.8040    -7.1560    -1.2170 C.3   1 <1>  -0.1600 
 21 N       -9.7040   -10.2640     1.0380 N.4   1 <1>  -0.9590 
 22 C      -10.2830    -8.5290    -0.6580 C.3   1 <1>  -0.1060 
 23 C       -9.5180   -11.3270     0.0060 C.3   1 <1>   0.3430 
 24 C       -9.1190   -10.6310     2.3540 C.3   1 <1>   0.2630 
 25 C      -11.7360    -8.4480    -0.1530 C.2   1 <1>   0.9060 
 26 C      -10.1790    -9.6150    -1.7690 C.3   1 <1>  -0.1600 
 27 C       -9.2260   -10.7610    -1.3910 C.3   1 <1>  -0.1600 
 28 O      -12.1260    -9.3080     0.6540 O.co2 1 <1>  -0.9000 
 29 O      -12.4730    -7.5400    -0.5330 O.co2 1 <1>  -0.9000 
 30 H       -2.3760    -3.9050    -3.3010 H     1 <1>   0.1500 
 31 H       -1.2230    -1.4940     0.0170 H     1 <1>   0.1500 
 32 H       -4.6050    -4.2470    -2.2800 H     1 <1>   0.1500 
 33 H       -3.4500    -1.8420     1.0440 H     1 <1>   0.1500 
 34 H       -5.3220    -5.3910     0.1130 H     1 <1>   0.1500 
 35 H       -5.9660    -1.1900     0.1420 H     1 <1>   0.1500 
 36 H       -8.1710    -1.5390     1.1690 H     1 <1>   0.1500 
 37 H       -8.9530    -3.8110     1.6570 H     1 <1>   0.1500 
 38 H       -8.8700    -8.0110     2.4730 H     1 <1>   0.0800 
 39 H      -10.4910    -7.6300     1.9530 H     1 <1>   0.0800 
 40 H      -10.7930    -5.8290     0.1800 H     1 <1>   0.0800 
 41 H       -9.3820    -5.1480    -0.5760 H     1 <1>   0.0800 
 42 H       -8.3600    -8.8810     0.2170 H     1 <1>   0.0800 
 43 H      -10.4580    -6.8470    -2.0160 H     1 <1>   0.0800 
 44 H       -8.8140    -7.2470    -1.6270 H     1 <1>   0.0800 
 45 H      -10.7510   -10.1770     1.1440 H     1 <1>   0.4500 
 46 H       -8.7090   -11.9780     0.2920 H     1 <1>   0.0800 
 47 H      -10.4200   -11.9160    -0.0400 H     1 <1>   0.0800 
 48 H       -8.0430   -10.6070     2.3030 H     1 <1>   0.0800 
 49 H       -9.4370   -11.6210     2.6370 H     1 <1>   0.0800 
 50 H       -9.4480    -9.9400     3.1130 H     1 <1>   0.0800 
 51 H      -11.1580   -10.0300    -1.9470 H     1 <1>   0.0800 
 52 H       -9.8590    -9.1810    -2.7010 H     1 <1>   0.0800 
 53 H       -8.2080   -10.4130    -1.4250 H     1 <1>   0.0800 
 54 H       -9.3140   -11.5520    -2.1150 H     1 <1>   0.0800 
@<TRIPOS>BOND
  1   1   2  1   
  2   2   3  ar  
  3   2   4  ar  
  4   3   5  ar  
  5   3  30  1   
  6   4   6  ar  
  7   4  31  1   
  8   5   7  ar  
  9   5  32  1   
 10   6   7  ar  
 11   6  33  1   
 12   7   8  1   
 13   8   9  ar  
 14   8  10  ar  
 15   9  11  ar  
 16   9  34  1   
 17  10  12  ar  
 18  10  35  1   
 19  11  13  1   
 20  11  14  ar  
 21  12  14  ar  
 22  12  36  1   
 23  13  15  2   
 24  13  16  am  
 25  14  37  1   
 26  16  17  1   
 27  16  18  1   
 28  17  19  1   
 29  17  38  1   
 30  17  39  1   
 31  18  20  1   
 32  18  40  1   
 33  18  41  1   
 34  19  21  1   
 35  19  22  1   
 36  19  42  1   
 37  20  22  1   
 38  20  43  1   
 39  20  44  1   
 40  21  23  1   
 41  21  24  1   
 42  21  45  1   
 43  22  25  1   
 44  22  26  1   
 45  23  27  1   
 46  23  46  1   
 47  23  47  1   
 48  24  48  1   
 49  24  49  1   
 50  24  50  1   
 51  25  28  ar  
 52  25  29  ar  
 53  26  27  1   
 54  26  51  1   
 55  26  52  1   
 56  27  53  1   
 57  27  54  1   
@<TRIPOS>SUBSTRUCTURE
  1 ****  13 GROUP 4 **** **** 0

# MOE 2024.06 (io_trps.svl 2023.06)
