@<TRIPOS>MOLECULE
NONAME
48 49 1 0 0 
SMALL
USER_CHARGES


@<TRIPOS>ATOM
  1 CL      -0.9500    -1.0740     2.9970 Cl    1 <1>  -0.1770 
  2 C       -0.8880    -2.6210     2.1790 C.ar  1 <1>   0.1770 
  3 C        0.0940    -2.8760     1.2330 C.ar  1 <1>  -0.1440 
  4 C       -1.8380    -3.5710     2.5030 C.ar  1 <1>  -0.1500 
  5 C        0.1060    -4.1150     0.6100 C.ar  1 <1>  -0.1500 
  6 C        1.1390    -1.8290     0.8790 C.3   1 <1>  -0.0960 
  7 C       -1.8110    -4.8010     1.8710 C.ar  1 <1>  -0.1500 
  8 C       -0.8420    -5.0900     0.9160 C.ar  1 <1>   0.1170 
  9 N       -0.8640    -6.3540     0.3100 N.am  1 <1>  -0.5470 
 10 C       -0.2070    -6.9020    -0.7540 C.2   1 <1>   0.5690 
 11 O        0.6060    -6.3250    -1.4340 O.2   1 <1>  -0.5700 
 12 C       -0.5590    -8.3550    -1.0800 C.3   1 <1>   0.1710 
 13 N       -1.8720    -8.7880    -0.5100 N.3   1 <1>  -0.8100 
 14 C       -1.9540   -10.2510    -0.4090 C.3   1 <1>   0.1100 
 15 C       -2.9960    -8.2420    -1.2920 C.3   1 <1>   0.1100 
 16 C       -3.2390   -10.6470     0.3220 C.3   1 <1>  -0.1600 
 17 C       -4.3120    -8.5600    -0.5850 C.3   1 <1>  -0.1600 
 18 C       -4.4680   -10.0670    -0.3860 C.3   1 <1>   0.2000 
 19 O       -5.5990   -10.2630     0.4010 O.3   1 <1>  -0.5600 
 20 C       -6.1990   -11.5180     0.2810 C.3   1 <1>   0.1200 
 21 C       -7.4220   -11.5550     1.1900 C.3   1 <1>   0.1200 
 22 O       -8.0220   -12.8080     1.0710 O.3   1 <1>  -0.5600 
 23 C       -9.1550   -12.9630     1.8630 C.3   1 <1>   0.0400 
 24 H       -2.5870    -3.3450     3.2400 H     1 <1>   0.1500 
 25 H        0.8630    -4.3270    -0.1210 H     1 <1>   0.1500 
 26 H        0.6580    -0.9430     0.5040 H     1 <1>   0.0800 
 27 H        1.8130    -2.1960     0.1260 H     1 <1>   0.0800 
 28 H        1.7110    -1.5720     1.7520 H     1 <1>   0.0800 
 29 H       -2.5500    -5.5420     2.1200 H     1 <1>   0.1500 
 30 H       -1.5530    -7.0200     0.6790 H     1 <1>   0.3700 
 31 H        0.2280    -8.9630    -0.6700 H     1 <1>   0.0800 
 32 H       -0.5550    -8.4870    -2.1480 H     1 <1>   0.0800 
 33 H       -1.1090   -10.6230     0.1470 H     1 <1>   0.0800 
 34 H       -1.9350   -10.6910    -1.3930 H     1 <1>   0.0800 
 35 H       -2.9970    -8.6670    -2.2820 H     1 <1>   0.0800 
 36 H       -2.8990    -7.1730    -1.3850 H     1 <1>   0.0800 
 37 H       -3.1930   -10.2750     1.3290 H     1 <1>   0.0800 
 38 H       -3.3020   -11.7190     0.3540 H     1 <1>   0.0800 
 39 H       -5.1330    -8.1910    -1.1720 H     1 <1>   0.0800 
 40 H       -4.3240    -8.0650     0.3700 H     1 <1>   0.0800 
 41 H       -4.6140   -10.5390    -1.3440 H     1 <1>   0.0800 
 42 H       -5.4970   -12.2750     0.5840 H     1 <1>   0.0800 
 43 H       -6.4960   -11.6650    -0.7420 H     1 <1>   0.0800 
 44 H       -8.1300   -10.8030     0.8890 H     1 <1>   0.0800 
 45 H       -7.1270   -11.4080     2.2140 H     1 <1>   0.0800 
 46 H       -9.5410   -13.9540     1.7030 H     1 <1>   0.0800 
 47 H       -9.8920   -12.2350     1.5740 H     1 <1>   0.0800 
 48 H       -8.8850   -12.8420     2.8970 H     1 <1>   0.0800 
@<TRIPOS>BOND
  1   1   2  1   
  2   2   3  ar  
  3   2   4  ar  
  4   3   5  ar  
  5   3   6  1   
  6   4   7  ar  
  7   4  24  1   
  8   5   8  ar  
  9   5  25  1   
 10   6  26  1   
 11   6  27  1   
 12   6  28  1   
 13   7   8  ar  
 14   7  29  1   
 15   8   9  1   
 16   9  10  am  
 17   9  30  1   
 18  10  11  2   
 19  10  12  1   
 20  12  13  1   
 21  12  31  1   
 22  12  32  1   
 23  13  14  1   
 24  13  15  1   
 25  14  16  1   
 26  14  33  1   
 27  14  34  1   
 28  15  17  1   
 29  15  35  1   
 30  15  36  1   
 31  16  18  1   
 32  16  37  1   
 33  16  38  1   
 34  17  18  1   
 35  17  39  1   
 36  17  40  1   
 37  18  19  1   
 38  18  41  1   
 39  19  20  1   
 40  20  21  1   
 41  20  42  1   
 42  20  43  1   
 43  21  22  1   
 44  21  44  1   
 45  21  45  1   
 46  22  23  1   
 47  23  46  1   
 48  23  47  1   
 49  23  48  1   
@<TRIPOS>SUBSTRUCTURE
  1 ****  13 GROUP 4 **** **** 0

# MOE 2024.06 (io_trps.svl 2023.06)
