@<TRIPOS>MOLECULE
NONAME
39 40 1 0 0 
SMALL
USER_CHARGES


@<TRIPOS>ATOM
  1 O       -0.7840    -0.0130     0.0500 O.2   1 <1>  -0.5700 
  2 C       -1.7100     0.6130     0.5370 C.2   1 <1>   0.5440 
  3 N       -2.7390    -0.1190     1.1200 N.am  1 <1>  -0.6600 
  4 C       -1.6830     2.0770     0.4420 C.ar  1 <1>   0.3960 
  5 C       -2.5240    -1.5580     1.4530 C.3   1 <1>   0.3200 
  6 C       -3.9700     0.4930     1.7240 C.3   1 <1>   0.1400 
  7 N       -2.0460     2.8410     1.4920 N.ar  1 <1>  -0.6200 
  8 C       -1.2690     2.6530    -0.7560 C.ar  1 <1>  -0.1500 
  9 C       -3.1680    -2.4670     0.4230 C.2   1 <1>  -0.3320 
 10 C       -4.8520     1.2210     0.6950 C.3   1 <1>   0.1200 
 11 C       -1.9840     4.1520     1.3340 C.ar  1 <1>   0.1600 
 12 C       -1.2190     4.0190    -0.9120 C.ar  1 <1>   0.0830 
 13 N       -4.4100    -2.3240    -0.0720 N.pl3 1 <1>   0.0330 
 14 C       -2.6540    -3.5630    -0.1790 C.2   1 <1>   0.0770 
 15 O       -5.0390     0.4200    -0.4200 O.3   1 <1>  -0.6800 
 16 C       -1.5880     4.7880     0.1750 C.ar  1 <1>  -0.1500 
 17 O       -0.8160     4.5110    -2.1020 O.3   1 <1>  -0.3630 
 18 C       -4.5740    -3.3440    -0.9390 C.2   1 <1>   0.0060 
 19 N       -3.5430    -4.1160    -1.0260 N.2   1 <1>  -0.5650 
 20 C       -0.7070     5.8980    -2.3320 C.3   1 <1>   0.0400 
 21 C       -5.8440    -3.5370    -1.7360 C.3   1 <1>  -0.0600 
 22 H       -2.9380    -1.7690     2.4230 H     1 <1>   0.0800 
 23 H       -1.4700    -1.7760     1.5070 H     1 <1>   0.0800 
 24 H       -3.6880     1.1750     2.5060 H     1 <1>   0.0800 
 25 H       -4.5670    -0.2760     2.1830 H     1 <1>   0.0800 
 26 H       -0.9780     2.0210    -1.5750 H     1 <1>   0.1500 
 27 H       -4.3970     2.1430     0.3760 H     1 <1>   0.0800 
 28 H       -5.8170     1.4450     1.1150 H     1 <1>   0.0800 
 29 H       -2.2660     4.7570     2.1800 H     1 <1>   0.1500 
 30 H       -5.0670    -1.5520     0.1060 H     1 <1>   0.2700 
 31 H       -1.6740    -3.9910    -0.0450 H     1 <1>   0.1500 
 32 H       -4.1570     0.1580    -0.7700 H     1 <1>   0.4000 
 33 H       -1.5740     5.8600     0.1410 H     1 <1>   0.1500 
 34 H       -0.3600     6.0430    -3.3400 H     1 <1>   0.0800 
 35 H        0.0040     6.3130    -1.6390 H     1 <1>   0.0800 
 36 H       -1.6750     6.3510    -2.2110 H     1 <1>   0.0800 
 37 H       -6.0350    -2.6680    -2.3390 H     1 <1>   0.0800 
 38 H       -6.6730    -3.7020    -1.0740 H     1 <1>   0.0800 
 39 H       -5.7410    -4.3900    -2.3820 H     1 <1>   0.0800 
@<TRIPOS>BOND
  1   1   2  2   
  2   2   3  am  
  3   2   4  1   
  4   3   5  1   
  5   3   6  1   
  6   4   7  ar  
  7   4   8  ar  
  8   5   9  1   
  9   5  22  1   
 10   5  23  1   
 11   6  10  1   
 12   6  24  1   
 13   6  25  1   
 14   7  11  ar  
 15   8  12  ar  
 16   8  26  1   
 17   9  13  1   
 18   9  14  2   
 19  10  15  1   
 20  10  27  1   
 21  10  28  1   
 22  11  16  ar  
 23  11  29  1   
 24  12  16  ar  
 25  12  17  1   
 26  13  18  1   
 27  13  30  1   
 28  14  19  1   
 29  14  31  1   
 30  15  32  1   
 31  16  33  1   
 32  17  20  1   
 33  18  19  2   
 34  18  21  1   
 35  20  34  1   
 36  20  35  1   
 37  20  36  1   
 38  21  37  1   
 39  21  38  1   
 40  21  39  1   
@<TRIPOS>SUBSTRUCTURE
  1 ****   2 GROUP 4 **** **** 0

# MOE 2024.06 (io_trps.svl 2023.06)
