@<TRIPOS>MOLECULE
NONAME
46 48 1 0 0 
SMALL
USER_CHARGES


@<TRIPOS>ATOM
  1 S       -2.5320    -1.2270     1.5020 S.3   1 <1>  -0.3310 
  2 C       -1.4410    -2.5880     1.0550 C.ar  1 <1>   0.1020 
  3 C       -1.6250     0.3400     1.1370 C.3   1 <1>  -0.0100 
  4 C       -1.9010    -3.8610     1.2420 C.ar  1 <1>  -0.1500 
  5 C       -0.1630    -2.3610     0.5330 C.ar  1 <1>  -0.1500 
  6 C       -1.1130    -4.9750     0.9160 C.ar  1 <1>   0.3100 
  7 C        0.6280    -3.4310     0.2090 C.ar  1 <1>  -0.1500 
  8 N       -1.6450    -6.2040     1.1200 N.ar  1 <1>  -0.6200 
  9 C        0.1850    -4.7600     0.3890 C.ar  1 <1>   0.0000 
 10 C       -0.9030    -7.2210     0.8130 C.ar  1 <1>   0.4100 
 11 C        0.9620    -5.8990     0.0760 C.ar  1 <1>  -0.1430 
 12 N       -1.4800    -8.4360     1.0090 N.pl3 1 <1>  -0.8690 
 13 C        0.4010    -7.1180     0.2980 C.ar  1 <1>  -0.1500 
 14 C        2.3750    -5.7800    -0.4790 C.3   1 <1>  -0.0970 
 15 C       -1.8030    -9.2780    -0.1620 C.3   1 <1>   0.2890 
 16 C       -3.1460    -8.8260    -0.7650 C.3   1 <1>   0.1400 
 17 C       -2.0430   -10.7100     0.3190 C.3   1 <1>  -0.0990 
 18 N       -4.1390    -9.7280    -0.1500 N.am  1 <1>  -0.6600 
 19 C       -3.5370   -10.7780     0.4640 C.2   1 <1>   0.5690 
 20 C       -5.5760    -9.3870    -0.1990 C.3   1 <1>   0.2200 
 21 O       -4.0810   -11.6790     1.0540 O.2   1 <1>  -0.5700 
 22 C       -6.0930    -9.1300     1.2140 C.3   1 <1>  -0.2400 
 23 C       -6.3530   -10.5010    -0.8970 C.3   1 <1>  -0.2400 
 24 H       -2.2710     1.1580     1.4030 H     1 <1>   0.0800 
 25 H       -1.4020     0.3580     0.0860 H     1 <1>   0.0800 
 26 H       -0.7300     0.3530     1.7330 H     1 <1>   0.0800 
 27 H       -2.8810    -4.0340     1.6440 H     1 <1>   0.1500 
 28 H        0.1970    -1.3620     0.3860 H     1 <1>   0.1500 
 29 H        1.6090    -3.2550    -0.1910 H     1 <1>   0.1500 
 30 H       -2.3040    -8.3320     1.6100 H     1 <1>   0.4000 
 31 H        0.9270    -8.0310     0.1010 H     1 <1>   0.1500 
 32 H        2.3610    -5.2510    -1.4150 H     1 <1>   0.0800 
 33 H        2.8040    -6.7510    -0.6450 H     1 <1>   0.0800 
 34 H        3.0000    -5.2500     0.2170 H     1 <1>   0.0800 
 35 H       -1.0080    -9.2240    -0.8850 H     1 <1>   0.0800 
 36 H       -3.1500    -8.9740    -1.8310 H     1 <1>   0.0800 
 37 H       -3.3560    -7.7940    -0.5370 H     1 <1>   0.0800 
 38 H       -1.5460   -10.9230     1.2480 H     1 <1>   0.0800 
 39 H       -1.7430   -11.4170    -0.4300 H     1 <1>   0.0800 
 40 H       -5.6940    -8.4820    -0.7730 H     1 <1>   0.0800 
 41 H       -6.0270   -10.0230     1.8100 H     1 <1>   0.0800 
 42 H       -7.1210    -8.8220     1.1780 H     1 <1>   0.0800 
 43 H       -5.5190    -8.3490     1.6800 H     1 <1>   0.0800 
 44 H       -6.3010   -11.4130    -0.3300 H     1 <1>   0.0800 
 45 H       -5.9530   -10.6720    -1.8790 H     1 <1>   0.0800 
 46 H       -7.3860   -10.2220    -0.9920 H     1 <1>   0.0800 
@<TRIPOS>BOND
  1   1   2  1   
  2   1   3  1   
  3   2   4  ar  
  4   2   5  ar  
  5   3  24  1   
  6   3  25  1   
  7   3  26  1   
  8   4   6  ar  
  9   4  27  1   
 10   5   7  ar  
 11   5  28  1   
 12   6   8  ar  
 13   6   9  ar  
 14   7   9  ar  
 15   7  29  1   
 16   8  10  ar  
 17   9  11  ar  
 18  10  12  1   
 19  10  13  ar  
 20  11  13  ar  
 21  11  14  1   
 22  12  15  1   
 23  12  30  1   
 24  13  31  1   
 25  14  32  1   
 26  14  33  1   
 27  14  34  1   
 28  15  16  1   
 29  15  17  1   
 30  15  35  1   
 31  16  18  1   
 32  16  36  1   
 33  16  37  1   
 34  17  19  1   
 35  17  38  1   
 36  17  39  1   
 37  18  19  am  
 38  18  20  1   
 39  19  21  2   
 40  20  22  1   
 41  20  23  1   
 42  20  40  1   
 43  22  41  1   
 44  22  42  1   
 45  22  43  1   
 46  23  44  1   
 47  23  45  1   
 48  23  46  1   
@<TRIPOS>SUBSTRUCTURE
  1 ****   8 GROUP 4 **** **** 0

# MOE 2024.06 (io_trps.svl 2023.06)
