@<TRIPOS>MOLECULE
NONAME
36 36 1 0 0 
SMALL
USER_CHARGES


@<TRIPOS>ATOM
  1 O       -1.4910    -0.4720     0.5230 O.2   1 <1>  -0.5700 
  2 C       -2.3480     0.3780     0.4260 C.2   1 <1>   0.5690 
  3 N       -3.6520     0.1020     0.7340 N.am  1 <1>  -0.6600 
  4 C       -1.9530     1.7580    -0.0710 C.3   1 <1>  -0.0990 
  5 C       -4.0230    -1.2300     1.2990 C.3   1 <1>   0.3200 
  6 C       -4.8160     0.9580     0.3550 C.3   1 <1>   0.1400 
  7 C       -0.4540     2.0200     0.0580 C.3   1 <1>   0.1200 
  8 C       -4.1800    -2.2510     0.1860 C.2   1 <1>   0.0060 
  9 C       -5.2750     1.7980     1.5520 C.3   1 <1>   0.1200 
 10 O       -0.2180     3.3240    -0.3580 O.3   1 <1>  -0.5600 
 11 N       -5.2790    -2.8670    -0.1160 N.2   1 <1>  -0.5650 
 12 N       -3.1350    -2.5970    -0.5940 N.pl3 1 <1>   0.0330 
 13 O       -6.2980     2.6480     1.1560 O.3   1 <1>  -0.6800 
 14 C        1.1180     3.6950    -0.3110 C.3   1 <1>   0.1200 
 15 C       -4.9290    -3.6580    -1.1490 C.2   1 <1>   0.0770 
 16 C       -3.6220    -3.5070    -1.4560 C.2   1 <1>  -0.3020 
 17 C        1.2110     5.1380    -0.7910 C.3   1 <1>  -0.2400 
 18 H       -2.4730     2.5010     0.5020 H     1 <1>   0.0800 
 19 H       -2.2330     1.8440    -1.1040 H     1 <1>   0.0800 
 20 H       -4.9460    -1.1560     1.8470 H     1 <1>   0.0800 
 21 H       -3.2600    -1.5630     1.9800 H     1 <1>   0.0800 
 22 H       -5.6270     0.3290     0.0260 H     1 <1>   0.0800 
 23 H       -4.5460     1.6030    -0.4610 H     1 <1>   0.0800 
 24 H        0.1050     1.3440    -0.5680 H     1 <1>   0.0800 
 25 H       -0.1380     1.9170     1.0830 H     1 <1>   0.0800 
 26 H       -4.4710     2.3990     1.9390 H     1 <1>   0.0800 
 27 H       -5.6620     1.1640     2.3300 H     1 <1>   0.0800 
 28 H       -2.1880    -2.2000    -0.5150 H     1 <1>   0.2700 
 29 H       -5.9680     3.3490     0.5610 H     1 <1>   0.4000 
 30 H        1.6840     3.0430    -0.9560 H     1 <1>   0.0800 
 31 H        1.4700     3.6080     0.7030 H     1 <1>   0.0800 
 32 H       -5.6480    -4.3050    -1.6240 H     1 <1>   0.1500 
 33 H       -3.0300    -3.9800    -2.2170 H     1 <1>   0.1500 
 34 H        0.8440     5.2150    -1.7980 H     1 <1>   0.0800 
 35 H        2.2350     5.4630    -0.7710 H     1 <1>   0.0800 
 36 H        0.6330     5.7780    -0.1480 H     1 <1>   0.0800 
@<TRIPOS>BOND
  1   1   2  2   
  2   2   3  am  
  3   2   4  1   
  4   3   5  1   
  5   3   6  1   
  6   4   7  1   
  7   4  18  1   
  8   4  19  1   
  9   5   8  1   
 10   5  20  1   
 11   5  21  1   
 12   6   9  1   
 13   6  22  1   
 14   6  23  1   
 15   7  10  1   
 16   7  24  1   
 17   7  25  1   
 18   8  11  2   
 19   8  12  1   
 20   9  13  1   
 21   9  26  1   
 22   9  27  1   
 23  10  14  1   
 24  11  15  1   
 25  12  16  1   
 26  12  28  1   
 27  13  29  1   
 28  14  17  1   
 29  14  30  1   
 30  14  31  1   
 31  15  16  2   
 32  15  32  1   
 33  16  33  1   
 34  17  34  1   
 35  17  35  1   
 36  17  36  1   
@<TRIPOS>SUBSTRUCTURE
  1 ****   2 GROUP 4 **** **** 0

# MOE 2024.06 (io_trps.svl 2023.06)
