@<TRIPOS>MOLECULE
NONAME
53 55 1 0 0 
SMALL
USER_CHARGES


@<TRIPOS>ATOM
  1 S        0.6220     1.3780     0.0900 S.o2  1 <1>   1.3330 
  2 O       -0.6960     0.9260    -0.2920 O.2   1 <1>  -0.6500 
  3 O        0.7590     2.1770     1.2850 O.2   1 <1>  -0.6500 
  4 N        1.6590     0.0270     0.1730 N.am  1 <1>  -0.8490 
  5 C        1.2370     2.3240    -1.2920 C.3   1 <1>  -0.1350 
  6 C        3.1260     0.2540     0.1920 C.3   1 <1>   0.2760 
  7 C        1.2470    -1.0290    -0.7700 C.3   1 <1>   0.1960 
  8 C        3.8520    -1.0790     0.4780 C.3   1 <1>  -0.1600 
  9 C        3.5500     1.3160     1.2310 C.3   1 <1>  -0.1600 
 10 C        1.9430    -2.3550    -0.4700 C.3   1 <1>  -0.1600 
 11 C        3.4590    -2.1940    -0.4920 C.3   1 <1>  -0.1600 
 12 C        5.0630     1.4630     1.3970 C.3   1 <1>   0.2090 
 13 N        5.3440     2.7240     2.1040 N.pl3 1 <1>  -0.8690 
 14 C        6.1040     3.6960     1.5310 C.ar  1 <1>   0.4100 
 15 N        5.5470     4.8640     1.4640 N.ar  1 <1>  -0.6200 
 16 C        7.3970     3.4160     1.0510 C.ar  1 <1>  -0.1500 
 17 C        6.2660     5.8570     0.8890 C.ar  1 <1>   0.3100 
 18 C        8.1430     4.3880     0.4610 C.ar  1 <1>  -0.1440 
 19 C        7.5700     5.6760     0.3620 C.ar  1 <1>   0.0000 
 20 C        5.6790     7.1280     0.8120 C.ar  1 <1>  -0.1500 
 21 C        9.5420     4.0890    -0.0590 C.3   1 <1>  -0.0970 
 22 C        8.2200     6.7850    -0.2240 C.ar  1 <1>  -0.1500 
 23 C        6.3380     8.1800     0.2400 C.ar  1 <1>   0.1020 
 24 C        7.6230     8.0150    -0.2870 C.ar  1 <1>  -0.1500 
 25 S        5.4980     9.7730     0.1900 S.3   1 <1>  -0.3320 
 26 C        6.6410    10.9670    -0.6350 C.3   1 <1>  -0.0100 
 27 H        0.6060     3.1760    -1.4510 H     1 <1>   0.0800 
 28 H        1.2330     1.7280    -2.1830 H     1 <1>   0.0800 
 29 H        2.2320     2.6750    -1.1070 H     1 <1>   0.0800 
 30 H        3.4330     0.5950    -0.7830 H     1 <1>   0.0800 
 31 H        1.4610    -0.7210    -1.7800 H     1 <1>   0.0800 
 32 H        0.1880    -1.2060    -0.6910 H     1 <1>   0.0800 
 33 H        3.6270    -1.3870     1.4850 H     1 <1>   0.0800 
 34 H        4.9160    -0.9540     0.4050 H     1 <1>   0.0800 
 35 H        3.1170     1.0730     2.1860 H     1 <1>   0.0800 
 36 H        3.1880     2.2760     0.9170 H     1 <1>   0.0800 
 37 H        1.6440    -3.0880    -1.1980 H     1 <1>   0.0800 
 38 H        1.6230    -2.7020     0.4970 H     1 <1>   0.0800 
 39 H        3.9300    -3.1170    -0.2020 H     1 <1>   0.0800 
 40 H        3.7850    -1.9450    -1.4870 H     1 <1>   0.0800 
 41 H        5.5380     1.4800     0.4300 H     1 <1>   0.0800 
 42 H        5.4640     0.6440     1.9700 H     1 <1>   0.0800 
 43 H        4.5030     3.1360     2.5210 H     1 <1>   0.4000 
 44 H        7.7660     2.4180     1.1800 H     1 <1>   0.1500 
 45 H        4.6930     7.2550     1.2160 H     1 <1>   0.1500 
 46 H        9.8020     3.0600     0.1110 H     1 <1>   0.0800 
 47 H       10.2630     4.7070     0.4460 H     1 <1>   0.0800 
 48 H        9.5920     4.2800    -1.1160 H     1 <1>   0.0800 
 49 H        9.2080     6.6600    -0.6280 H     1 <1>   0.1500 
 50 H        8.1390     8.8400    -0.7370 H     1 <1>   0.1500 
 51 H        6.1450    11.9200    -0.6670 H     1 <1>   0.0800 
 52 H        6.8380    10.6060    -1.6280 H     1 <1>   0.0800 
 53 H        7.5400    11.0250    -0.0480 H     1 <1>   0.0800 
@<TRIPOS>BOND
  1   1   2  2   
  2   1   3  2   
  3   1   4  am  
  4   1   5  1   
  5   4   6  1   
  6   4   7  1   
  7   5  27  1   
  8   5  28  1   
  9   5  29  1   
 10   6   8  1   
 11   6   9  1   
 12   6  30  1   
 13   7  10  1   
 14   7  31  1   
 15   7  32  1   
 16   8  11  1   
 17   8  33  1   
 18   8  34  1   
 19   9  12  1   
 20   9  35  1   
 21   9  36  1   
 22  10  11  1   
 23  10  37  1   
 24  10  38  1   
 25  11  39  1   
 26  11  40  1   
 27  12  13  1   
 28  12  41  1   
 29  12  42  1   
 30  13  14  1   
 31  13  43  1   
 32  14  15  ar  
 33  14  16  ar  
 34  15  17  ar  
 35  16  18  ar  
 36  16  44  1   
 37  17  19  ar  
 38  17  20  ar  
 39  18  19  ar  
 40  18  21  1   
 41  19  22  ar  
 42  20  23  ar  
 43  20  45  1   
 44  21  46  1   
 45  21  47  1   
 46  21  48  1   
 47  22  24  ar  
 48  22  49  1   
 49  23  24  ar  
 50  23  25  1   
 51  24  50  1   
 52  25  26  1   
 53  26  51  1   
 54  26  52  1   
 55  26  53  1   
@<TRIPOS>SUBSTRUCTURE
  1 ****  14 GROUP 4 **** **** 0

# MOE 2024.06 (io_trps.svl 2023.06)
