@<TRIPOS>MOLECULE
NONAME
51 53 1 0 0 
SMALL
USER_CHARGES


@<TRIPOS>ATOM
  1 O        0.1950     0.1710    -0.7210 O.2   1 <1>  -0.5700 
  2 C       -0.7990     0.8570    -0.6980 C.2   1 <1>   0.5690 
  3 N       -2.0460     0.3060    -0.5930 N.am  1 <1>  -0.6600 
  4 C       -0.6230     2.3590    -0.7700 C.3   1 <1>  -0.0990 
  5 C       -3.3440     1.0260    -0.5790 C.3   1 <1>   0.1400 
  6 C       -2.2520    -1.1540    -0.4500 C.3   1 <1>   0.1400 
  7 C       -0.5190     2.9600     0.6330 C.3   1 <1>   0.0210 
  8 C       -4.4050    -0.0740    -0.5420 C.3   1 <1>   0.2000 
  9 C       -3.6990    -1.3070     0.0200 C.3   1 <1>  -0.0800 
 10 C       -0.4270     4.4720     0.5440 C.2   1 <1>  -0.1810 
 11 O       -5.4730     0.2760     0.2680 O.3   1 <1>  -0.6800 
 12 C       -4.3520    -2.6270    -0.4160 C.3   1 <1>   0.0200 
 13 C       -1.4860     5.3760     0.5760 C.2   1 <1>   0.1080 
 14 C        0.6760     5.2420     0.4090 C.2   1 <1>  -0.3320 
 15 C       -3.5720    -3.8150     0.1130 C.2   1 <1>  -0.0400 
 16 N       -1.0870     6.6020     0.4730 N.2   1 <1>  -0.7070 
 17 C       -2.9500     5.0240     0.7140 C.3   1 <1>  -0.0590 
 18 N        0.2480     6.5240     0.3710 N.pl3 1 <1>   0.3140 
 19 C        2.1360     4.8290     0.3070 C.3   1 <1>  -0.0600 
 20 O       -3.4590    -4.0010     1.4010 O.3   1 <1>  -0.0190 
 21 C       -2.9070    -4.8020    -0.5070 C.2   1 <1>  -0.1500 
 22 C        1.0680     7.7330     0.2360 C.3   1 <1>   0.0160 
 23 N       -2.7500    -5.0560     1.6770 N.2   1 <1>  -0.4100 
 24 C       -2.4050    -5.5600     0.5470 C.2   1 <1>   0.1080 
 25 C       -1.5630    -6.8070     0.3940 C.3   1 <1>  -0.0590 
 26 H        0.2800     2.5750    -1.3120 H     1 <1>   0.0800 
 27 H       -1.4350     2.8080    -1.3090 H     1 <1>   0.0800 
 28 H       -3.4010     1.6420     0.3010 H     1 <1>   0.0800 
 29 H       -3.4540     1.6250    -1.4660 H     1 <1>   0.0800 
 30 H       -2.1020    -1.6220    -1.4080 H     1 <1>   0.0800 
 31 H       -1.5590    -1.5740     0.2620 H     1 <1>   0.0800 
 32 H        0.3540     2.5710     1.1260 H     1 <1>   0.0800 
 33 H       -1.3730     2.6840     1.2230 H     1 <1>   0.0800 
 34 H       -4.7770    -0.2510    -1.5370 H     1 <1>   0.0800 
 35 H       -3.6870    -1.2540     1.0950 H     1 <1>   0.0800 
 36 H       -5.1930     0.3200     1.2030 H     1 <1>   0.4000 
 37 H       -4.3940    -2.6810    -1.4890 H     1 <1>   0.0800 
 38 H       -5.3590    -2.6740    -0.0390 H     1 <1>   0.0800 
 39 H       -3.2430     4.3640    -0.0790 H     1 <1>   0.0800 
 40 H       -3.5440     5.9180     0.6600 H     1 <1>   0.0800 
 41 H       -3.1210     4.5510     1.6620 H     1 <1>   0.0800 
 42 H        2.2320     3.7590     0.3200 H     1 <1>   0.0800 
 43 H        2.6930     5.2310     1.1340 H     1 <1>   0.0800 
 44 H        2.5600     5.1940    -0.6120 H     1 <1>   0.0800 
 45 H       -2.7700    -4.9940    -1.5540 H     1 <1>   0.1500 
 46 H        1.7670     7.7770     1.0490 H     1 <1>   0.0800 
 47 H        0.4280     8.5950     0.2620 H     1 <1>   0.0800 
 48 H        1.5910     7.7000    -0.7010 H     1 <1>   0.0800 
 49 H       -2.1010    -7.5440    -0.1720 H     1 <1>   0.0800 
 50 H       -1.3300    -7.2130     1.3620 H     1 <1>   0.0800 
 51 H       -0.6460    -6.5670    -0.1120 H     1 <1>   0.0800 
@<TRIPOS>BOND
  1   1   2  2   
  2   2   3  am  
  3   2   4  1   
  4   3   5  1   
  5   3   6  1   
  6   4   7  1   
  7   4  26  1   
  8   4  27  1   
  9   5   8  1   
 10   5  28  1   
 11   5  29  1   
 12   6   9  1   
 13   6  30  1   
 14   6  31  1   
 15   7  10  1   
 16   7  32  1   
 17   7  33  1   
 18   8   9  1   
 19   8  11  1   
 20   8  34  1   
 21   9  12  1   
 22   9  35  1   
 23  10  13  1   
 24  10  14  2   
 25  11  36  1   
 26  12  15  1   
 27  12  37  1   
 28  12  38  1   
 29  13  16  2   
 30  13  17  1   
 31  14  18  1   
 32  14  19  1   
 33  15  20  1   
 34  15  21  2   
 35  16  18  1   
 36  17  39  1   
 37  17  40  1   
 38  17  41  1   
 39  18  22  1   
 40  19  42  1   
 41  19  43  1   
 42  19  44  1   
 43  20  23  1   
 44  21  24  1   
 45  21  45  1   
 46  22  46  1   
 47  22  47  1   
 48  22  48  1   
 49  23  24  2   
 50  24  25  1   
 51  25  49  1   
 52  25  50  1   
 53  25  51  1   
@<TRIPOS>SUBSTRUCTURE
  1 ****   3 GROUP 4 **** **** 0

# MOE 2024.06 (io_trps.svl 2023.06)
