@<TRIPOS>MOLECULE
Untitled Document
62 64 1 0 0 
SMALL
USER_CHARGES


@<TRIPOS>ATOM
  1 CL       3.8200    -0.0220    -4.1860 Cl    1 <1>  -0.1770 
  2 C        3.5750     0.7410    -2.6260 C.ar  1 <1>   0.1770 
  3 C        3.9070     0.0350    -1.4650 C.ar  1 <1>   0.1000 
  4 C        3.0540     2.0190    -2.5910 C.ar  1 <1>  -0.1500 
  5 N        4.4300    -1.2480    -1.4920 N.pl3 1 <1>  -0.9000 
  6 C        3.6840     0.6920    -0.2650 C.ar  1 <1>  -0.1440 
  7 C        2.8280     2.6820    -1.3780 C.ar  1 <1>   0.0860 
  8 C        3.1670     1.9620    -0.2230 C.ar  1 <1>   0.0830 
  9 C        3.9390     0.2190     1.1370 C.3   1 <1>  -0.0170 
 10 C        2.2770     4.0220    -1.3530 C.2   1 <1>   0.5440 
 11 O        3.0390     2.4050     1.0430 O.3   1 <1>  -0.3630 
 12 C        3.4970     1.4390     1.9750 C.3   1 <1>   0.2800 
 13 O        1.8980     4.5700    -2.3730 O.2   1 <1>  -0.5700 
 14 N        2.1260     4.7180    -0.1910 N.am  1 <1>  -0.7300 
 15 C        2.3270     1.1170     2.9070 C.3   1 <1>  -0.2400 
 16 C        4.6580     2.0720     2.7440 C.3   1 <1>  -0.2400 
 17 C        1.8200     6.1590    -0.0570 C.3   1 <1>   0.1400 
 18 C        0.3280     6.3930     0.2500 C.3   1 <1>  -0.0800 
 19 C       -0.5680     6.3310    -1.0070 C.3   1 <1>   0.2000 
 20 C        0.1540     7.7650     0.9330 C.3   1 <1>  -0.1600 
 21 O       -0.6200     5.0430    -1.4870 O.3   1 <1>  -0.6800 
 22 C       -2.0180     6.7460    -0.7090 C.3   1 <1>   0.3430 
 23 C       -1.3110     8.0840     1.2400 C.3   1 <1>   0.3430 
 24 N       -2.1080     8.0810    -0.0230 N.4   1 <1>  -0.9590 
 25 C       -3.5350     8.4420     0.2050 C.3   1 <1>   0.3430 
 26 C       -3.6580     9.9190     0.5670 C.3   1 <1>  -0.1600 
 27 C       -5.1220    10.3320     0.6940 C.3   1 <1>   0.1200 
 28 O       -5.1200    11.6710     1.0410 O.3   1 <1>  -0.5600 
 29 C       -6.3880    12.2260     1.1980 C.3   1 <1>   0.0400 
 30 H        2.8160     2.5120    -3.5170 H     1 <1>   0.1500 
 31 H        4.4130    -1.7330    -2.3980 H     1 <1>   0.4000 
 32 H        4.2450    -1.8690    -0.7010 H     1 <1>   0.4000 
 33 H        4.9800    -0.0100     1.2790 H     1 <1>   0.0800 
 34 H        3.3510    -0.6520     1.3600 H     1 <1>   0.0800 
 35 H        2.3980     4.2200     0.6680 H     1 <1>   0.3700 
 36 H        2.6220     0.3770     3.6290 H     1 <1>   0.0800 
 37 H        1.4970     0.7310     2.3420 H     1 <1>   0.0800 
 38 H        2.0140     2.0000     3.4330 H     1 <1>   0.0800 
 39 H        5.0460     1.3770     3.4670 H     1 <1>   0.0800 
 40 H        4.3280     2.9530     3.2640 H     1 <1>   0.0800 
 41 H        5.4510     2.3390     2.0680 H     1 <1>   0.0800 
 42 H        2.4280     6.5470     0.7420 H     1 <1>   0.0800 
 43 H        2.1030     6.6760    -0.9600 H     1 <1>   0.0800 
 44 H       -0.0010     5.6420     0.9490 H     1 <1>   0.0800 
 45 H       -0.1670     6.9490    -1.7920 H     1 <1>   0.0800 
 46 H        0.5660     8.5460     0.3170 H     1 <1>   0.0800 
 47 H        0.7000     7.7700     1.8620 H     1 <1>   0.0800 
 48 H        0.2820     4.7800    -1.8200 H     1 <1>   0.4000 
 49 H       -2.4570     5.9910    -0.0780 H     1 <1>   0.0800 
 50 H       -2.5630     6.7720    -1.6380 H     1 <1>   0.0800 
 51 H       -1.3710     9.0500     1.7150 H     1 <1>   0.0800 
 52 H       -1.7040     7.3470     1.9220 H     1 <1>   0.0800 
 53 H       -1.7040     8.7850    -0.6550 H     1 <1>   0.4500 
 54 H       -4.1000     8.2590    -0.6960 H     1 <1>   0.0800 
 55 H       -3.9520     7.8330     0.9920 H     1 <1>   0.0800 
 56 H       -3.2040    10.5220    -0.2000 H     1 <1>   0.0800 
 57 H       -3.1780    10.1160     1.5090 H     1 <1>   0.0800 
 58 H       -5.6220     9.7770     1.4710 H     1 <1>   0.0800 
 59 H       -5.6450    10.2200    -0.2420 H     1 <1>   0.0800 
 60 H       -6.2690    13.2610     1.4660 H     1 <1>   0.0800 
 61 H       -6.9110    11.7080     1.9830 H     1 <1>   0.0800 
 62 H       -6.9280    12.1540     0.2690 H     1 <1>   0.0800 
@<TRIPOS>BOND
  1   1   2  1   
  2   2   3  ar  
  3   2   4  ar  
  4   3   5  1   
  5   3   6  ar  
  6   4   7  ar  
  7   4  30  1   
  8   5  31  1   
  9   5  32  1   
 10   6   8  ar  
 11   6   9  1   
 12   7   8  ar  
 13   7  10  1   
 14   8  11  1   
 15   9  12  1   
 16   9  33  1   
 17   9  34  1   
 18  10  13  2   
 19  10  14  am  
 20  11  12  1   
 21  12  15  1   
 22  12  16  1   
 23  14  17  1   
 24  14  35  1   
 25  15  36  1   
 26  15  37  1   
 27  15  38  1   
 28  16  39  1   
 29  16  40  1   
 30  16  41  1   
 31  17  18  1   
 32  17  42  1   
 33  17  43  1   
 34  18  19  1   
 35  18  20  1   
 36  18  44  1   
 37  19  21  1   
 38  19  22  1   
 39  19  45  1   
 40  20  23  1   
 41  20  46  1   
 42  20  47  1   
 43  21  48  1   
 44  22  24  1   
 45  22  49  1   
 46  22  50  1   
 47  23  24  1   
 48  23  51  1   
 49  23  52  1   
 50  24  25  1   
 51  24  53  1   
 52  25  26  1   
 53  25  54  1   
 54  25  55  1   
 55  26  27  1   
 56  26  56  1   
 57  26  57  1   
 58  27  28  1   
 59  27  58  1   
 60  27  59  1   
 61  28  29  1   
 62  29  60  1   
 63  29  61  1   
 64  29  62  1   
@<TRIPOS>SUBSTRUCTURE
  1 ****  14 GROUP 4 **** **** 0

# MOE 2024.06 (io_trps.svl 2023.06)
