@<TRIPOS>MOLECULE
NONAME
50 53 1 0 0 
SMALL
USER_CHARGES


@<TRIPOS>ATOM
  1 O        3.1820     2.1850     1.4880 O.co2 1 <1>  -0.9000 
  2 C        3.2530     1.0140     1.1370 C.2   1 <1>   0.9060 
  3 O        4.1280     0.3210     1.6860 O.co2 1 <1>  -0.9000 
  4 C        2.5410     0.5040    -0.1280 C.3   1 <1>  -0.1060 
  5 C        3.4340    -0.5960    -0.7430 C.3   1 <1>   0.4230 
  6 C        2.3930     1.6390    -1.1930 C.3   1 <1>  -0.1600 
  7 C        1.1410    -0.0480     0.2260 C.3   1 <1>  -0.1600 
  8 N        3.4890    -1.7940     0.1730 N.4   1 <1>  -0.9590 
  9 C        4.8510    -0.0210    -1.0800 C.3   1 <1>   0.2090 
 10 C        3.6790     2.0130    -1.9660 C.3   1 <1>   0.2090 
 11 C        1.2440    -1.3030     1.1010 C.3   1 <1>  -0.1600 
 12 C        2.1440    -2.3640     0.4690 C.3   1 <1>   0.3430 
 13 C        4.4430    -2.8660    -0.2360 C.3   1 <1>   0.2630 
 14 N        4.8820     1.4770    -1.2700 N.pl3 1 <1>  -0.8380 
 15 C        5.6910     2.3270    -0.5880 C.ar  1 <1>   0.4610 
 16 N        5.8200     2.2560     0.7460 N.ar  1 <1>  -0.1790 
 17 C        6.3940     3.3870    -1.1880 C.ar  1 <1>   0.0000 
 18 C        6.5190     3.1660     1.4870 C.ar  1 <1>   0.5270 
 19 C        7.1240     4.2400    -0.4000 C.ar  1 <1>   0.1050 
 20 C        6.6030     3.8650    -2.4870 C.2   1 <1>   0.1390 
 21 N        7.1940     4.1360     0.9640 N.ar  1 <1>  -0.5670 
 22 C        6.4540     3.0020     2.9900 C.3   1 <1>  -0.0970 
 23 N        7.6970     5.1430    -1.2270 N.pl3 1 <1>   0.3140 
 24 N        7.3720     4.9050    -2.5200 N.2   1 <1>  -0.7070 
 25 C        8.5660     6.2690    -0.8560 C.3   1 <1>   0.0160 
 26 H        2.9800    -0.9030    -1.6700 H     1 <1>   0.0800 
 27 H        2.0140     2.5260    -0.7130 H     1 <1>   0.0800 
 28 H        1.6530     1.3650    -1.9240 H     1 <1>   0.0800 
 29 H        0.5780     0.7090     0.7480 H     1 <1>   0.0800 
 30 H        0.6020    -0.2950    -0.6730 H     1 <1>   0.0800 
 31 H        3.8240    -1.3530     1.0670 H     1 <1>   0.4500 
 32 H        5.2010    -0.4830    -1.9870 H     1 <1>   0.0800 
 33 H        5.5410    -0.2790    -0.2960 H     1 <1>   0.0800 
 34 H        3.7390     3.0870    -2.0540 H     1 <1>   0.0800 
 35 H        3.6400     1.6060    -2.9630 H     1 <1>   0.0800 
 36 H        0.2610    -1.7170     1.2460 H     1 <1>   0.0800 
 37 H        1.6260    -1.0470     2.0760 H     1 <1>   0.0800 
 38 H        1.6920    -2.7230    -0.4410 H     1 <1>   0.0800 
 39 H        2.2400    -3.1940     1.1500 H     1 <1>   0.0800 
 40 H        4.1500    -3.2870    -1.1840 H     1 <1>   0.0800 
 41 H        4.4540    -3.6510     0.5020 H     1 <1>   0.0800 
 42 H        5.4420    -2.4710    -0.3220 H     1 <1>   0.0800 
 43 H        5.1610     1.6440     1.2660 H     1 <1>   0.4570 
 44 H        6.1730     3.4150    -3.3660 H     1 <1>   0.1500 
 45 H        6.9950     3.7940     3.4750 H     1 <1>   0.0800 
 46 H        6.8820     2.0600     3.2790 H     1 <1>   0.0800 
 47 H        5.4280     3.0360     3.3130 H     1 <1>   0.0800 
 48 H        8.7250     6.2720     0.2060 H     1 <1>   0.0800 
 49 H        8.0940     7.1860    -1.1550 H     1 <1>   0.0800 
 50 H        9.5060     6.1670    -1.3650 H     1 <1>   0.0800 
@<TRIPOS>BOND
  1   1   2  ar  
  2   2   3  ar  
  3   2   4  1   
  4   4   5  1   
  5   4   6  1   
  6   4   7  1   
  7   5   8  1   
  8   5   9  1   
  9   5  26  1   
 10   6  10  1   
 11   6  27  1   
 12   6  28  1   
 13   7  11  1   
 14   7  29  1   
 15   7  30  1   
 16   8  12  1   
 17   8  13  1   
 18   8  31  1   
 19   9  14  1   
 20   9  32  1   
 21   9  33  1   
 22  10  14  1   
 23  10  34  1   
 24  10  35  1   
 25  11  12  1   
 26  11  36  1   
 27  11  37  1   
 28  12  38  1   
 29  12  39  1   
 30  13  40  1   
 31  13  41  1   
 32  13  42  1   
 33  14  15  1   
 34  15  16  ar  
 35  15  17  ar  
 36  16  18  ar  
 37  16  43  1   
 38  17  19  ar  
 39  17  20  1   
 40  18  21  ar  
 41  18  22  1   
 42  19  21  ar  
 43  19  23  1   
 44  20  24  2   
 45  20  44  1   
 46  22  45  1   
 47  22  46  1   
 48  22  47  1   
 49  23  24  1   
 50  23  25  1   
 51  25  48  1   
 52  25  49  1   
 53  25  50  1   
@<TRIPOS>SUBSTRUCTURE
  1 ****  14 GROUP 4 **** **** 0

# MOE 2024.06 (io_trps.svl 2023.06)
