@<TRIPOS>MOLECULE
NONAME
53 56 1 0 0 
SMALL
USER_CHARGES


@<TRIPOS>ATOM
  1 O        3.5410    -0.8800     0.7790 O.2   1 <1>  -0.5700 
  2 C        2.6250    -1.2930     0.0940 C.2   1 <1>   0.5440 
  3 N        2.1570    -0.5710    -0.9820 N.am  1 <1>  -0.4940 
  4 C        2.0230    -2.5660     0.3860 C.ar  1 <1>   0.0860 
  5 C        2.3160     0.7750    -1.4060 C.2   1 <1>  -0.0880 
  6 C        0.6690    -2.6900     0.7360 C.ar  1 <1>   0.0000 
  7 C        2.7260    -3.7520     0.3230 C.ar  1 <1>  -0.1500 
  8 N        3.3900     1.6140    -1.2900 N.pl3 1 <1>   0.3140 
  9 C        1.3580     1.4860    -2.0480 C.2   1 <1>  -0.1500 
 10 C        0.1470    -3.9540     0.9180 C.ar  1 <1>   0.1050 
 11 C       -0.4230    -1.8340     0.9890 C.2   1 <1>   0.1080 
 12 C        2.0970    -4.9810     0.5500 C.ar  1 <1>   0.1660 
 13 N        3.1180     2.8330    -1.8190 N.2   1 <1>  -0.7070 
 14 C        4.7300     1.3430    -0.7110 C.3   1 <1>   0.1760 
 15 C        1.9070     2.7400    -2.2700 C.2   1 <1>   0.1390 
 16 N        0.8260    -5.1100     0.8310 N.ar  1 <1>  -0.5670 
 17 N       -1.1710    -3.7810     1.2150 N.pl3 1 <1>   0.3140 
 18 N       -1.5110    -2.4730     1.2540 N.2   1 <1>  -0.7070 
 19 C       -0.3910    -0.3200     0.9950 C.3   1 <1>  -0.0590 
 20 C        2.9010    -6.2620     0.4670 C.3   1 <1>  -0.0970 
 21 C        4.8080     1.9310     0.7050 C.3   1 <1>  -0.1600 
 22 C        5.8710     1.9100    -1.5710 C.3   1 <1>  -0.1600 
 23 C       -2.1360    -4.8500     1.5000 C.3   1 <1>   0.0160 
 24 C        6.1540     1.5980     1.3280 C.3   1 <1>   0.3430 
 25 C        7.2190     1.6160    -0.9190 C.3   1 <1>   0.3430 
 26 N        7.2430     2.1590     0.4730 N.4   1 <1>  -0.9590 
 27 C        8.5780     1.9420     1.1080 C.3   1 <1>   0.2630 
 28 H        1.4080    -1.0590    -1.4810 H     1 <1>   0.3700 
 29 H        3.7750    -3.7320     0.0910 H     1 <1>   0.1500 
 30 H        0.3690     1.1800    -2.3350 H     1 <1>   0.1500 
 31 H        4.8650     0.2800    -0.6850 H     1 <1>   0.0800 
 32 H        1.3930     3.5520    -2.7590 H     1 <1>   0.1500 
 33 H        0.5190     0.0380     1.4400 H     1 <1>   0.0800 
 34 H       -1.2180     0.0560     1.5710 H     1 <1>   0.0800 
 35 H       -0.4760     0.0550    -0.0070 H     1 <1>   0.0800 
 36 H        3.9320    -6.0640     0.2390 H     1 <1>   0.0800 
 37 H        2.4910    -6.8950    -0.2980 H     1 <1>   0.0800 
 38 H        2.8480    -6.7790     1.4080 H     1 <1>   0.0800 
 39 H        4.0280     1.5180     1.3190 H     1 <1>   0.0800 
 40 H        4.6700     2.9980     0.6750 H     1 <1>   0.0800 
 41 H        5.7620     2.9740    -1.6960 H     1 <1>   0.0800 
 42 H        5.8430     1.4560    -2.5460 H     1 <1>   0.0800 
 43 H       -2.1520    -5.5360     0.6740 H     1 <1>   0.0800 
 44 H       -3.1110    -4.4200     1.6380 H     1 <1>   0.0800 
 45 H       -1.8340    -5.3640     2.3920 H     1 <1>   0.0800 
 46 H        6.2570     0.5270     1.4090 H     1 <1>   0.0800 
 47 H        6.2040     2.0200     2.3200 H     1 <1>   0.0800 
 48 H        8.0050     2.0650    -1.5050 H     1 <1>   0.0800 
 49 H        7.3810     0.5500    -0.8950 H     1 <1>   0.0800 
 50 H        7.0760     3.1750     0.4040 H     1 <1>   0.4500 
 51 H        8.7830     0.8880     1.1980 H     1 <1>   0.0800 
 52 H        8.6000     2.3830     2.0910 H     1 <1>   0.0800 
 53 H        9.3540     2.3950     0.5120 H     1 <1>   0.0800 
@<TRIPOS>BOND
  1   1   2  2   
  2   2   3  am  
  3   2   4  1   
  4   3   5  1   
  5   3  28  1   
  6   4   6  ar  
  7   4   7  ar  
  8   5   8  1   
  9   5   9  2   
 10   6  10  ar  
 11   6  11  1   
 12   7  12  ar  
 13   7  29  1   
 14   8  13  1   
 15   8  14  1   
 16   9  15  1   
 17   9  30  1   
 18  10  16  ar  
 19  10  17  1   
 20  11  18  2   
 21  11  19  1   
 22  12  16  ar  
 23  12  20  1   
 24  13  15  2   
 25  14  21  1   
 26  14  22  1   
 27  14  31  1   
 28  15  32  1   
 29  17  18  1   
 30  17  23  1   
 31  19  33  1   
 32  19  34  1   
 33  19  35  1   
 34  20  36  1   
 35  20  37  1   
 36  20  38  1   
 37  21  24  1   
 38  21  39  1   
 39  21  40  1   
 40  22  25  1   
 41  22  41  1   
 42  22  42  1   
 43  23  43  1   
 44  23  44  1   
 45  23  45  1   
 46  24  26  1   
 47  24  46  1   
 48  24  47  1   
 49  25  26  1   
 50  25  48  1   
 51  25  49  1   
 52  26  27  1   
 53  26  50  1   
 54  27  51  1   
 55  27  52  1   
 56  27  53  1   
@<TRIPOS>SUBSTRUCTURE
  1 ****   2 GROUP 4 **** **** 0

# MOE 2024.06 (io_trps.svl 2023.06)
