@<TRIPOS>MOLECULE
NONAME
38 39 1 0 0 
SMALL
USER_CHARGES


@<TRIPOS>ATOM
  1 O        3.7390    -0.9220    -0.7730 O.2   1 <1>  -0.5700 
  2 C        2.5640    -1.1730    -0.6620 C.2   1 <1>   0.5690 
  3 N        1.6020    -0.2190    -0.5690 N.am  1 <1>  -0.4930 
  4 C        2.1020    -2.6320    -0.6290 C.3   1 <1>   0.1710 
  5 C        1.6430     1.1840    -0.5650 C.2   1 <1>   0.3520 
  6 N        0.7210    -2.8070    -0.0860 N.3   1 <1>  -0.8100 
  7 N        0.5700     1.8480    -0.3870 N.2   1 <1>  -0.4100 
  8 C        2.7020     2.0930    -0.7320 C.2   1 <1>   0.3520 
  9 C        0.1440    -4.0940    -0.5260 C.3   1 <1>   0.2540 
 10 C        0.7150    -2.7030     1.3880 C.3   1 <1>   0.0300 
 11 O        0.9540     3.0870    -0.4420 O.3   1 <1>   0.2420 
 12 N        2.2220     3.2750    -0.6470 N.2   1 <1>  -0.4100 
 13 N        4.0600     1.7990    -0.9550 N.am  1 <1>  -0.4930 
 14 C       -1.3220    -4.2040    -0.1340 C.ar  1 <1>  -0.1440 
 15 C        5.1490     2.5780    -1.1740 C.2   1 <1>   0.5690 
 16 C       -1.7610    -5.2440     0.6740 C.ar  1 <1>   0.1600 
 17 C       -2.2430    -3.2750    -0.5750 C.ar  1 <1>  -0.1500 
 18 O        6.2260     2.0660    -1.3330 O.2   1 <1>  -0.5700 
 19 C        5.0630     4.0860    -1.2290 C.3   1 <1>  -0.1790 
 20 N       -3.0110    -5.4270     1.0660 N.ar  1 <1>  -0.6200 
 21 C       -3.5510    -3.4490    -0.1780 C.ar  1 <1>  -0.1500 
 22 C       -3.8760    -4.5250     0.6310 C.ar  1 <1>   0.1600 
 23 H        0.6680    -0.6170    -0.4240 H     1 <1>   0.3700 
 24 H        2.8030    -3.2100    -0.0520 H     1 <1>   0.0800 
 25 H        2.1380    -2.9900    -1.6430 H     1 <1>   0.0800 
 26 H        0.7070    -4.9100    -0.1040 H     1 <1>   0.0800 
 27 H        0.2070    -4.1660    -1.5990 H     1 <1>   0.0800 
 28 H        1.1590    -1.7750     1.7040 H     1 <1>   0.0800 
 29 H        1.2660    -3.5180     1.8280 H     1 <1>   0.0800 
 30 H       -0.2960    -2.7280     1.7600 H     1 <1>   0.0800 
 31 H        4.2840     0.7950    -0.9470 H     1 <1>   0.3700 
 32 H       -1.0450    -5.9690     1.0210 H     1 <1>   0.1500 
 33 H       -1.9510    -2.4490    -1.2000 H     1 <1>   0.1500 
 34 H        4.3900     4.3850    -2.0100 H     1 <1>   0.0800 
 35 H        6.0340     4.4990    -1.4330 H     1 <1>   0.0800 
 36 H        4.7160     4.4660    -0.2870 H     1 <1>   0.0800 
 37 H       -4.3130    -2.7580    -0.4890 H     1 <1>   0.1500 
 38 H       -4.9020    -4.6500     0.9350 H     1 <1>   0.1500 
@<TRIPOS>BOND
  1   1   2  2   
  2   2   3  am  
  3   2   4  1   
  4   3   5  1   
  5   3  23  1   
  6   4   6  1   
  7   4  24  1   
  8   4  25  1   
  9   5   7  2   
 10   5   8  1   
 11   6   9  1   
 12   6  10  1   
 13   7  11  1   
 14   8  12  2   
 15   8  13  1   
 16   9  14  1   
 17   9  26  1   
 18   9  27  1   
 19  10  28  1   
 20  10  29  1   
 21  10  30  1   
 22  11  12  1   
 23  13  15  am  
 24  13  31  1   
 25  14  16  ar  
 26  14  17  ar  
 27  15  18  2   
 28  15  19  1   
 29  16  20  ar  
 30  16  32  1   
 31  17  21  ar  
 32  17  33  1   
 33  19  34  1   
 34  19  35  1   
 35  19  36  1   
 36  20  22  ar  
 37  21  22  ar  
 38  21  37  1   
 39  22  38  1   
@<TRIPOS>SUBSTRUCTURE
  1 ****   3 GROUP 4 **** **** 0

# MOE 2024.06 (io_trps.svl 2023.06)
