@<TRIPOS>MOLECULE
NONAME
51 54 1 0 0 
SMALL
USER_CHARGES


@<TRIPOS>ATOM
  1 S       -0.0500     0.9250     0.4300 S.3   1 <1>  -0.0800 
  2 C        0.9530    -0.5320     0.5110 C.2   1 <1>  -0.0450 
  3 C        1.2980     1.9240    -0.0640 C.2   1 <1>  -0.1100 
  4 C        2.2270    -0.1900     0.1790 C.2   1 <1>  -0.1810 
  5 C        0.3400    -1.7780     0.9110 C.2   1 <1>   0.7150 
  6 C        2.4170     1.1840    -0.1460 C.2   1 <1>  -0.1810 
  7 C        3.4490    -1.0930     0.1130 C.3   1 <1>   0.0210 
  8 O        0.9980    -2.6350     1.4790 O.2   1 <1>  -0.5700 
  9 N       -0.9740    -2.0770     0.6180 N.am  1 <1>  -0.6600 
 10 C        3.8060     1.6440    -0.5440 C.3   1 <1>   0.0210 
 11 C        4.2460    -0.8340    -1.1800 C.3   1 <1>  -0.1600 
 12 C       -1.6620    -3.1500     1.4040 C.3   1 <1>   0.1400 
 13 C       -1.4440    -1.9020    -0.7990 C.3   1 <1>   0.1400 
 14 C        4.4000     0.6590    -1.5640 C.3   1 <1>  -0.1600 
 15 C       -1.6670    -4.3880     0.4970 C.3   1 <1>   0.4230 
 16 C       -2.7010    -2.7300    -1.1350 C.3   1 <1>  -0.1600 
 17 N       -1.7770    -5.7360     1.1390 N.4   1 <1>  -0.9590 
 18 C       -2.7440    -4.1940    -0.5840 C.3   1 <1>  -0.1060 
 19 C       -1.5480    -6.8160     0.1380 C.3   1 <1>   0.3430 
 20 C       -0.9460    -5.9050     2.3600 C.3   1 <1>   0.2630 
 21 C       -4.1430    -4.4440     0.0100 C.2   1 <1>   0.9060 
 22 C       -2.4490    -5.2350    -1.6870 C.3   1 <1>  -0.1600 
 23 C       -2.4550    -6.6580    -1.0920 C.3   1 <1>  -0.1600 
 24 O       -5.1260    -4.2820    -0.7100 O.co2 1 <1>  -0.9000 
 25 O       -4.2500    -4.8490     1.1790 O.co2 1 <1>  -0.9000 
 26 H        1.1090     2.9670    -0.2420 H     1 <1>   0.1500 
 27 H        4.0730    -0.8790     0.9630 H     1 <1>   0.0800 
 28 H        3.1680    -2.1290     0.1650 H     1 <1>   0.0800 
 29 H        3.7680     2.6350    -0.9610 H     1 <1>   0.0800 
 30 H        4.4270     1.6710     0.3340 H     1 <1>   0.0800 
 31 H        5.2190    -1.2840    -1.0820 H     1 <1>   0.0800 
 32 H        3.7440    -1.3370    -1.9880 H     1 <1>   0.0800 
 33 H       -1.1330    -3.3250     2.3210 H     1 <1>   0.0800 
 34 H       -2.6640    -2.8390     1.6480 H     1 <1>   0.0800 
 35 H       -1.6590    -0.8630    -0.9790 H     1 <1>   0.0800 
 36 H       -0.6480    -2.1910    -1.4650 H     1 <1>   0.0800 
 37 H        3.8990     0.8160    -2.5040 H     1 <1>   0.0800 
 38 H        5.4400     0.8890    -1.7150 H     1 <1>   0.0800 
 39 H       -0.7110    -4.3700     0.0030 H     1 <1>   0.0800 
 40 H       -3.5350    -2.1840    -0.7240 H     1 <1>   0.0800 
 41 H       -2.8590    -2.7300    -2.1990 H     1 <1>   0.0800 
 42 H       -2.7980    -5.7480     1.4060 H     1 <1>   0.4500 
 43 H       -0.5190    -6.7860    -0.1810 H     1 <1>   0.0800 
 44 H       -1.7330    -7.7760     0.5920 H     1 <1>   0.0800 
 45 H        0.0930    -5.7310     2.1320 H     1 <1>   0.0800 
 46 H       -1.0600    -6.9030     2.7510 H     1 <1>   0.0800 
 47 H       -1.2570    -5.2070     3.1190 H     1 <1>   0.0800 
 48 H       -3.2040    -5.1700    -2.4540 H     1 <1>   0.0800 
 49 H       -1.4940    -5.0320    -2.1410 H     1 <1>   0.0800 
 50 H       -2.1480    -7.3600    -1.8460 H     1 <1>   0.0800 
 51 H       -3.4610    -6.9240    -0.8110 H     1 <1>   0.0800 
@<TRIPOS>BOND
  1   1   2  1   
  2   1   3  1   
  3   2   4  2   
  4   2   5  1   
  5   3   6  2   
  6   3  26  1   
  7   4   6  1   
  8   4   7  1   
  9   5   8  2   
 10   5   9  am  
 11   6  10  1   
 12   7  11  1   
 13   7  27  1   
 14   7  28  1   
 15   9  12  1   
 16   9  13  1   
 17  10  14  1   
 18  10  29  1   
 19  10  30  1   
 20  11  14  1   
 21  11  31  1   
 22  11  32  1   
 23  12  15  1   
 24  12  33  1   
 25  12  34  1   
 26  13  16  1   
 27  13  35  1   
 28  13  36  1   
 29  14  37  1   
 30  14  38  1   
 31  15  17  1   
 32  15  18  1   
 33  15  39  1   
 34  16  18  1   
 35  16  40  1   
 36  16  41  1   
 37  17  19  1   
 38  17  20  1   
 39  17  42  1   
 40  18  21  1   
 41  18  22  1   
 42  19  23  1   
 43  19  43  1   
 44  19  44  1   
 45  20  45  1   
 46  20  46  1   
 47  20  47  1   
 48  21  24  ar  
 49  21  25  ar  
 50  22  23  1   
 51  22  48  1   
 52  22  49  1   
 53  23  50  1   
 54  23  51  1   
@<TRIPOS>SUBSTRUCTURE
  1 ****   9 GROUP 4 **** **** 0

# MOE 2024.06 (io_trps.svl 2023.06)
