@<TRIPOS>MOLECULE
NONAME
46 48 1 0 0 
SMALL
USER_CHARGES


@<TRIPOS>ATOM
  1 S       -2.1940    -1.7420     2.9990 S.3   1 <1>  -0.0800 
  2 C       -2.8350    -2.7460     1.7130 C.2   1 <1>  -0.1100 
  3 C       -1.6070    -0.5620     1.8440 C.2   1 <1>  -0.1100 
  4 C       -2.6050    -2.1870     0.5080 C.2   1 <1>  -0.1810 
  5 C       -1.8980    -0.9400     0.5860 C.2   1 <1>  -0.1500 
  6 C       -3.0340    -2.7640    -0.8240 C.3   1 <1>   0.5240 
  7 N       -4.5170    -2.7620    -0.8830 N.4   1 <1>  -0.9590 
  8 C       -5.0800    -3.5300    -2.0390 C.3   1 <1>   0.3430 
  9 C       -5.1240    -1.4140    -0.7190 C.3   1 <1>   0.3430 
 10 C       -6.6000    -3.7760    -1.8850 C.3   1 <1>   0.1400 
 11 C       -6.1920    -1.4850     0.3730 C.3   1 <1>  -0.1600 
 12 N       -7.0160    -3.7320    -0.4510 N.am  1 <1>  -0.6600 
 13 C       -7.4010    -2.3850     0.0670 C.3   1 <1>   0.1400 
 14 C       -6.6090    -4.7330     0.3970 C.2   1 <1>   0.5440 
 15 O       -5.6920    -4.4610     1.1480 O.2   1 <1>  -0.5700 
 16 C       -7.1520    -6.0730     0.3020 C.ar  1 <1>   0.0860 
 17 C       -8.5180    -6.3310     0.3570 C.ar  1 <1>   0.1660 
 18 C       -6.3410    -7.1920     0.1280 C.ar  1 <1>   0.1670 
 19 N       -9.0180    -7.5360     0.2070 N.ar  1 <1>  -0.6200 
 20 C       -9.5480    -5.2410     0.6070 C.3   1 <1>  -0.0970 
 21 N       -6.8270    -8.4030    -0.0190 N.ar  1 <1>  -0.6200 
 22 C       -4.8230    -7.1080     0.0910 C.3   1 <1>  -0.0970 
 23 C       -8.1420    -8.5070     0.0280 C.ar  1 <1>   0.4700 
 24 H       -3.3270    -3.6560     2.0150 H     1 <1>   0.1500 
 25 H       -1.0950     0.2990     2.2380 H     1 <1>   0.1500 
 26 H       -1.6310    -0.3770    -0.2930 H     1 <1>   0.1500 
 27 H       -2.6650    -3.7740    -0.9040 H     1 <1>   0.0800 
 28 H       -2.6240    -2.1800    -1.6310 H     1 <1>   0.0800 
 29 H       -4.8320    -3.2780    -0.0310 H     1 <1>   0.4500 
 30 H       -4.5930    -4.4900    -2.0920 H     1 <1>   0.0800 
 31 H       -4.8870    -3.0160    -2.9660 H     1 <1>   0.0800 
 32 H       -5.5560    -1.0770    -1.6470 H     1 <1>   0.0800 
 33 H       -4.3720    -0.7020    -0.4180 H     1 <1>   0.0800 
 34 H       -6.8530    -4.7330    -2.3100 H     1 <1>   0.0800 
 35 H       -7.1420    -3.0290    -2.4400 H     1 <1>   0.0800 
 36 H       -6.5590    -0.4900     0.5470 H     1 <1>   0.0800 
 37 H       -5.7360    -1.8000     1.2960 H     1 <1>   0.0800 
 38 H       -8.0420    -1.9030    -0.6520 H     1 <1>   0.0800 
 39 H       -7.9740    -2.5090     0.9720 H     1 <1>   0.0800 
 40 H       -9.2090    -4.5660     1.3710 H     1 <1>   0.0800 
 41 H      -10.4760    -5.6740     0.9370 H     1 <1>   0.0800 
 42 H       -9.7330    -4.6970    -0.3010 H     1 <1>   0.0800 
 43 H       -4.4960    -6.2990    -0.5320 H     1 <1>   0.0800 
 44 H       -4.4050    -8.0220    -0.2940 H     1 <1>   0.0800 
 45 H       -4.4490    -6.9610     1.0890 H     1 <1>   0.0800 
 46 H       -8.5470    -9.4990    -0.0930 H     1 <1>   0.1500 
@<TRIPOS>BOND
  1   1   2  1   
  2   1   3  1   
  3   2   4  2   
  4   2  24  1   
  5   3   5  2   
  6   3  25  1   
  7   4   5  1   
  8   4   6  1   
  9   5  26  1   
 10   6   7  1   
 11   6  27  1   
 12   6  28  1   
 13   7   8  1   
 14   7   9  1   
 15   7  29  1   
 16   8  10  1   
 17   8  30  1   
 18   8  31  1   
 19   9  11  1   
 20   9  32  1   
 21   9  33  1   
 22  10  12  1   
 23  10  34  1   
 24  10  35  1   
 25  11  13  1   
 26  11  36  1   
 27  11  37  1   
 28  12  13  1   
 29  12  14  am  
 30  13  38  1   
 31  13  39  1   
 32  14  15  2   
 33  14  16  1   
 34  16  17  ar  
 35  16  18  ar  
 36  17  19  ar  
 37  17  20  1   
 38  18  21  ar  
 39  18  22  1   
 40  19  23  ar  
 41  20  40  1   
 42  20  41  1   
 43  20  42  1   
 44  21  23  ar  
 45  22  43  1   
 46  22  44  1   
 47  22  45  1   
 48  23  46  1   
@<TRIPOS>SUBSTRUCTURE
  1 ****  15 GROUP 4 **** **** 0

# MOE 2024.06 (io_trps.svl 2023.06)
