@<TRIPOS>MOLECULE
NONAME
50 53 1 0 0 
SMALL
USER_CHARGES


@<TRIPOS>ATOM
  1 O       -1.6050     0.6810    -1.4200 O.2   1 <1>  -0.5700 
  2 C       -2.5100     1.2950    -0.9110 C.2   1 <1>   0.5690 
  3 N       -3.8040     0.8530    -1.0150 N.am  1 <1>  -0.6600 
  4 C       -2.1900     2.5480    -0.1220 C.3   1 <1>  -0.0990 
  5 C       -4.9490     1.3240    -0.1680 C.3   1 <1>   0.1400 
  6 C       -4.1440    -0.3170    -1.8780 C.3   1 <1>   0.1400 
  7 C       -0.7540     3.0490    -0.3460 C.3   1 <1>   0.0960 
  8 C       -5.7260     0.1480     0.4850 C.3   1 <1>   0.4230 
  9 C       -4.5820    -1.5260    -1.0270 C.3   1 <1>   0.3430 
 10 N       -0.4840     4.2990     0.4030 N.pl3 1 <1>   0.3140 
 11 N       -4.9780    -1.1670     0.3900 N.4   1 <1>  -0.9590 
 12 C       -7.1520    -0.0050    -0.0890 C.3   1 <1>   0.1200 
 13 N       -1.2420     4.6960     1.4490 N.2   1 <1>  -0.7070 
 14 C        0.5200     5.1760     0.1710 C.2   1 <1>  -0.3320 
 15 C       -5.7650    -2.2440     1.0740 C.3   1 <1>   0.5180 
 16 O       -7.8260    -1.0400     0.5710 O.3   1 <1>  -0.5600 
 17 C       -0.7050     5.8070     1.8490 C.2   1 <1>   0.1390 
 18 C        0.4010     6.1590     1.0880 C.2   1 <1>  -0.1500 
 19 C        1.5640     5.0370    -0.9250 C.3   1 <1>  -0.0600 
 20 C       -4.9890    -3.5740     0.9890 C.3   1 <1>  -0.1950 
 21 C       -7.2110    -2.3020     0.5160 C.3   1 <1>   0.1200 
 22 C       -5.0820    -4.5540    -0.1440 C.3   1 <1>  -0.2000 
 23 C       -5.6380    -4.9080     1.2060 C.3   1 <1>  -0.2000 
 24 H       -2.8740     3.3250    -0.4110 H     1 <1>   0.0800 
 25 H       -2.3210     2.3300     0.9220 H     1 <1>   0.0800 
 26 H       -4.5940     1.9640     0.6200 H     1 <1>   0.0800 
 27 H       -5.6140     1.9180    -0.7730 H     1 <1>   0.0800 
 28 H       -4.9440    -0.0390    -2.5420 H     1 <1>   0.0800 
 29 H       -3.3100    -0.6010    -2.4980 H     1 <1>   0.0800 
 30 H       -0.5970     3.2380    -1.3920 H     1 <1>   0.0800 
 31 H       -0.0490     2.3060    -0.0220 H     1 <1>   0.0800 
 32 H       -5.8510     0.4000     1.5250 H     1 <1>   0.0800 
 33 H       -3.7670    -2.2320    -0.9970 H     1 <1>   0.0800 
 34 H       -5.4020    -2.0130    -1.5290 H     1 <1>   0.0800 
 35 H       -4.0940    -1.0380     0.8980 H     1 <1>   0.4500 
 36 H       -7.1380    -0.2160    -1.1440 H     1 <1>   0.0800 
 37 H       -7.7160     0.8980     0.0710 H     1 <1>   0.0800 
 38 H       -5.8500    -1.9940     2.1190 H     1 <1>   0.0800 
 39 H       -1.0800     6.3830     2.6780 H     1 <1>   0.1500 
 40 H        1.0110     7.0340     1.2280 H     1 <1>   0.1500 
 41 H        2.2630     5.8530    -0.8750 H     1 <1>   0.0800 
 42 H        1.0950     5.0490    -1.8920 H     1 <1>   0.0800 
 43 H        2.1070     4.1160    -0.8080 H     1 <1>   0.0800 
 44 H       -4.0280    -3.4740     1.4660 H     1 <1>   0.1000 
 45 H       -7.8070    -2.9720     1.1100 H     1 <1>   0.0800 
 46 H       -7.2290    -2.6460    -0.5020 H     1 <1>   0.0800 
 47 H       -5.7920    -4.4390    -0.9460 H     1 <1>   0.1000 
 48 H       -4.1920    -5.0700    -0.4680 H     1 <1>   0.1000 
 49 H       -5.1170    -5.6500     1.7900 H     1 <1>   0.1000 
 50 H       -6.7060    -5.0090     1.2970 H     1 <1>   0.1000 
@<TRIPOS>BOND
  1   1   2  2   
  2   2   3  am  
  3   2   4  1   
  4   3   5  1   
  5   3   6  1   
  6   4   7  1   
  7   4  24  1   
  8   4  25  1   
  9   5   8  1   
 10   5  26  1   
 11   5  27  1   
 12   6   9  1   
 13   6  28  1   
 14   6  29  1   
 15   7  10  1   
 16   7  30  1   
 17   7  31  1   
 18   8  11  1   
 19   8  12  1   
 20   8  32  1   
 21   9  11  1   
 22   9  33  1   
 23   9  34  1   
 24  10  13  1   
 25  10  14  1   
 26  11  15  1   
 27  11  35  1   
 28  12  16  1   
 29  12  36  1   
 30  12  37  1   
 31  13  17  2   
 32  14  18  2   
 33  14  19  1   
 34  15  20  1   
 35  15  21  1   
 36  15  38  1   
 37  16  21  1   
 38  17  18  1   
 39  17  39  1   
 40  18  40  1   
 41  19  41  1   
 42  19  42  1   
 43  19  43  1   
 44  20  22  1   
 45  20  23  1   
 46  20  44  1   
 47  21  45  1   
 48  21  46  1   
 49  22  23  1   
 50  22  47  1   
 51  22  48  1   
 52  23  49  1   
 53  23  50  1   
@<TRIPOS>SUBSTRUCTURE
  1 ****   3 GROUP 4 **** **** 0

# MOE 2024.06 (io_trps.svl 2023.06)
