@<TRIPOS>MOLECULE
NONAME
43 44 1 0 0 
SMALL
USER_CHARGES


@<TRIPOS>ATOM
  1 O       -0.4020     0.4700     2.1540 O.2   1 <1>  -0.5700 
  2 C       -1.1260     0.7800     1.2400 C.2   1 <1>   0.5690 
  3 N       -1.8430    -0.1420     0.5560 N.am  1 <1>  -0.7300 
  4 C       -1.2540     2.2520     0.8590 C.3   1 <1>  -0.0190 
  5 C       -1.9740    -1.5550     0.9310 C.3   1 <1>   0.3210 
  6 C       -2.7210     2.7280     0.8860 C.3   1 <1>  -0.1600 
  7 C       -0.5910     2.5550    -0.5070 C.3   1 <1>  -0.1600 
  8 C       -3.4340    -1.9170     0.7720 C.2   1 <1>  -0.1810 
  9 C       -2.8450     4.2490     0.6560 C.3   1 <1>   0.2000 
 10 C       -1.1180     3.8380    -1.1800 C.3   1 <1>  -0.1600 
 11 C       -4.0750    -2.6280    -0.1850 C.2   1 <1>  -0.3320 
 12 C       -4.4350    -1.5290     1.6540 C.2   1 <1>   0.1390 
 13 O       -4.0420     4.4890    -0.0430 O.3   1 <1>  -0.5600 
 14 C       -1.6570     4.8360    -0.1520 C.3   1 <1>   0.2000 
 15 N       -5.3850    -2.6360     0.1540 N.pl3 1 <1>   0.3140 
 16 C       -3.5130    -3.3090    -1.4240 C.3   1 <1>  -0.0600 
 17 N       -5.6040    -1.9520     1.2880 N.2   1 <1>  -0.7070 
 18 C       -5.2000     4.4630     0.7340 C.3   1 <1>   0.0400 
 19 O       -2.0830     5.9590    -0.8300 O.3   1 <1>  -0.6800 
 20 C       -6.4900    -3.2810    -0.5660 C.3   1 <1>   0.0160 
 21 H       -2.4960     0.1510    -0.1720 H     1 <1>   0.3700 
 22 H       -0.7240     2.8100     1.6120 H     1 <1>   0.0800 
 23 H       -1.3600    -2.1570     0.2850 H     1 <1>   0.0800 
 24 H       -1.6590    -1.7070     1.9500 H     1 <1>   0.0800 
 25 H       -3.1590     2.4780     1.8360 H     1 <1>   0.0800 
 26 H       -3.2660     2.2100     0.1150 H     1 <1>   0.0800 
 27 H        0.4710     2.6420    -0.3510 H     1 <1>   0.0800 
 28 H       -0.7430     1.7330    -1.1850 H     1 <1>   0.0800 
 29 H       -2.8850     4.7650     1.6010 H     1 <1>   0.0800 
 30 H       -1.9180     3.5770    -1.8520 H     1 <1>   0.0800 
 31 H       -0.3300     4.2940    -1.7550 H     1 <1>   0.0800 
 32 H       -4.2690    -0.9410     2.5410 H     1 <1>   0.1500 
 33 H       -0.8620     5.1310     0.5100 H     1 <1>   0.0800 
 34 H       -2.4530    -3.1480    -1.5010 H     1 <1>   0.0800 
 35 H       -3.9810    -2.9140    -2.3080 H     1 <1>   0.0800 
 36 H       -3.6930    -4.3680    -1.3760 H     1 <1>   0.0800 
 37 H       -6.0360     4.6810     0.0940 H     1 <1>   0.0800 
 38 H       -5.1290     5.2120     1.5040 H     1 <1>   0.0800 
 39 H       -5.3240     3.4850     1.1660 H     1 <1>   0.0800 
 40 H       -3.0360     5.8050    -1.0250 H     1 <1>   0.4000 
 41 H       -6.3050    -4.3360    -0.6230 H     1 <1>   0.0800 
 42 H       -6.5600    -2.8630    -1.5520 H     1 <1>   0.0800 
 43 H       -7.4060    -3.1040    -0.0340 H     1 <1>   0.0800 
@<TRIPOS>BOND
  1   1   2  2   
  2   2   3  am  
  3   2   4  1   
  4   3   5  1   
  5   3  21  1   
  6   4   6  1   
  7   4   7  1   
  8   4  22  1   
  9   5   8  1   
 10   5  23  1   
 11   5  24  1   
 12   6   9  1   
 13   6  25  1   
 14   6  26  1   
 15   7  10  1   
 16   7  27  1   
 17   7  28  1   
 18   8  11  2   
 19   8  12  1   
 20   9  13  1   
 21   9  14  1   
 22   9  29  1   
 23  10  14  1   
 24  10  30  1   
 25  10  31  1   
 26  11  15  1   
 27  11  16  1   
 28  12  17  2   
 29  12  32  1   
 30  13  18  1   
 31  14  19  1   
 32  14  33  1   
 33  15  17  1   
 34  15  20  1   
 35  16  34  1   
 36  16  35  1   
 37  16  36  1   
 38  18  37  1   
 39  18  38  1   
 40  18  39  1   
 41  19  40  1   
 42  20  41  1   
 43  20  42  1   
 44  20  43  1   
@<TRIPOS>SUBSTRUCTURE
  1 ****   3 GROUP 4 **** **** 0

# MOE 2024.06 (io_trps.svl 2023.06)
