@<TRIPOS>MOLECULE
NONAME
48 50 1 0 0 
SMALL
USER_CHARGES


@<TRIPOS>ATOM
  1 S       -2.7590     1.7450     0.0810 S.o2  1 <1>   1.3330 
  2 O       -3.8570     2.0760     0.9590 O.2   1 <1>  -0.6500 
  3 O       -2.0210     2.7600    -0.6270 O.2   1 <1>  -0.6500 
  4 N       -3.3590     0.7080    -1.0940 N.am  1 <1>  -0.9140 
  5 C       -1.5900     0.7450     0.9800 C.3   1 <1>  -0.1350 
  6 C       -4.0750    -0.4590    -0.6090 C.3   1 <1>   0.1960 
  7 C       -4.8700    -1.0820    -1.7480 C.3   1 <1>  -0.0990 
  8 C       -5.8520    -2.0740    -1.1640 C.2   1 <1>   0.5690 
  9 O       -5.4620    -3.2120    -1.0550 O.2   1 <1>  -0.5700 
 10 N       -7.1080    -1.6990    -0.7560 N.am  1 <1>  -0.6600 
 11 C       -7.6590    -0.3020    -0.8030 C.3   1 <1>   0.1400 
 12 C       -8.0760    -2.7650    -0.3500 C.3   1 <1>   0.1400 
 13 C       -8.3680     0.1130     0.5110 C.3   1 <1>   0.1430 
 14 C       -9.4050    -2.1970     0.1710 C.3   1 <1>  -0.1600 
 15 C       -9.2570     1.2990     0.1720 C.ar  1 <1>   0.1670 
 16 C       -9.1510    -1.0550     1.1630 C.3   1 <1>  -0.1600 
 17 C       -7.3790     0.7500     1.5220 C.3   1 <1>  -0.1600 
 18 N      -10.4210     1.2370    -0.4390 N.ar  1 <1>  -0.6200 
 19 C       -8.6920     2.4760     0.5650 C.ar  1 <1>  -0.1430 
 20 C       -7.3540     2.2590     1.2290 C.3   1 <1>  -0.0170 
 21 C      -11.0040     2.4120    -0.6290 C.ar  1 <1>   0.4770 
 22 C       -9.3820     3.6350     0.3130 C.ar  1 <1>   0.1600 
 23 N      -10.5540     3.6130    -0.2890 N.ar  1 <1>  -0.6200 
 24 C      -12.3480     2.3820    -1.3150 C.3   1 <1>  -0.0970 
 25 H       -2.6040     0.4800    -1.7380 H     1 <1>   0.4200 
 26 H       -1.1090     1.3400     1.7320 H     1 <1>   0.0800 
 27 H       -0.8380     0.3620     0.3190 H     1 <1>   0.0800 
 28 H       -2.0850    -0.0730     1.4640 H     1 <1>   0.0800 
 29 H       -4.7570    -0.1570     0.1650 H     1 <1>   0.0800 
 30 H       -3.3940    -1.1850    -0.1960 H     1 <1>   0.0800 
 31 H       -4.2030    -1.6030    -2.4090 H     1 <1>   0.0800 
 32 H       -5.3860    -0.3340    -2.3180 H     1 <1>   0.0800 
 33 H       -8.3740    -0.2610    -1.6070 H     1 <1>   0.0800 
 34 H       -6.8940     0.4190    -1.0220 H     1 <1>   0.0800 
 35 H       -7.6200    -3.3580     0.4250 H     1 <1>   0.0800 
 36 H       -8.2620    -3.4130    -1.1900 H     1 <1>   0.0800 
 37 H       -9.9600    -2.9830     0.6520 H     1 <1>   0.0800 
 38 H       -9.9980    -1.8420    -0.6550 H     1 <1>   0.0800 
 39 H      -10.0850    -0.6980     1.5600 H     1 <1>   0.0800 
 40 H       -8.5840    -1.4590     1.9830 H     1 <1>   0.0800 
 41 H       -6.4010     0.3110     1.4830 H     1 <1>   0.0800 
 42 H       -7.7620     0.6240     2.5200 H     1 <1>   0.0800 
 43 H       -6.5600     2.5040     0.5440 H     1 <1>   0.0800 
 44 H       -7.2490     2.8370     2.1300 H     1 <1>   0.0800 
 45 H       -8.9730     4.5880     0.6050 H     1 <1>   0.1500 
 46 H      -12.4270     1.5110    -1.9380 H     1 <1>   0.0800 
 47 H      -12.4690     3.2580    -1.9250 H     1 <1>   0.0800 
 48 H      -13.1230     2.3580    -0.5730 H     1 <1>   0.0800 
@<TRIPOS>BOND
  1   1   2  2   
  2   1   3  2   
  3   1   4  am  
  4   1   5  1   
  5   4   6  1   
  6   4  25  1   
  7   5  26  1   
  8   5  27  1   
  9   5  28  1   
 10   6   7  1   
 11   6  29  1   
 12   6  30  1   
 13   7   8  1   
 14   7  31  1   
 15   7  32  1   
 16   8   9  2   
 17   8  10  am  
 18  10  11  1   
 19  10  12  1   
 20  11  13  1   
 21  11  33  1   
 22  11  34  1   
 23  12  14  1   
 24  12  35  1   
 25  12  36  1   
 26  13  15  1   
 27  13  16  1   
 28  13  17  1   
 29  14  16  1   
 30  14  37  1   
 31  14  38  1   
 32  15  18  ar  
 33  15  19  ar  
 34  16  39  1   
 35  16  40  1   
 36  17  20  1   
 37  17  41  1   
 38  17  42  1   
 39  18  21  ar  
 40  19  20  1   
 41  19  22  ar  
 42  20  43  1   
 43  20  44  1   
 44  21  23  ar  
 45  21  24  1   
 46  22  23  ar  
 47  22  45  1   
 48  24  46  1   
 49  24  47  1   
 50  24  48  1   
@<TRIPOS>SUBSTRUCTURE
  1 ****  11 GROUP 4 **** **** 0

# MOE 2024.06 (io_trps.svl 2023.06)
