@<TRIPOS>MOLECULE
NONAME
46 49 1 0 0 
SMALL
USER_CHARGES


@<TRIPOS>ATOM
  1 CL      -0.7600    -0.1160    -1.0640 Cl    1 <1>  -0.1770 
  2 C       -0.7300    -1.8600    -0.9150 C.ar  1 <1>   0.1770 
  3 C       -1.6760    -2.5070    -0.0890 C.ar  1 <1>   0.3100 
  4 C        0.2240    -2.5430    -1.6190 C.ar  1 <1>  -0.1500 
  5 N       -2.6010    -1.7780     0.5910 N.ar  1 <1>  -0.6200 
  6 C       -1.6180    -3.9180    -0.0060 C.ar  1 <1>   0.0000 
  7 C        0.2800    -3.9340    -1.5270 C.ar  1 <1>  -0.1500 
  8 C       -3.4470    -2.4040     1.3440 C.ar  1 <1>   0.1670 
  9 C       -2.5720    -4.5790     0.8070 C.ar  1 <1>   0.0860 
 10 C       -0.6200    -4.6000    -0.7380 C.ar  1 <1>  -0.1500 
 11 C       -3.4690    -3.7920     1.4800 C.ar  1 <1>  -0.1500 
 12 C       -4.4500    -1.5560     2.0980 C.3   1 <1>  -0.0960 
 13 C       -2.6170    -6.0180     0.9150 C.2   1 <1>   0.5440 
 14 O       -1.7180    -6.6190     1.4700 O.2   1 <1>  -0.5700 
 15 N       -3.6690    -6.7330     0.3930 N.am  1 <1>  -0.6600 
 16 C       -4.7220    -6.1830    -0.4960 C.3   1 <1>   0.1400 
 17 C       -3.7290    -8.2130     0.4310 C.3   1 <1>   0.1400 
 18 C       -5.3990    -7.4100    -1.1080 C.3   1 <1>   0.2000 
 19 C       -5.0950    -8.5690    -0.1600 C.3   1 <1>  -0.0800 
 20 O       -6.7700    -7.2360    -1.2170 O.3   1 <1>  -0.6800 
 21 C       -5.1410    -9.9360    -0.8650 C.3   1 <1>  -0.0170 
 22 C       -4.8630   -11.0770     0.1010 C.ar  1 <1>   0.1670 
 23 N       -3.5910   -11.3400     0.3530 N.ar  1 <1>  -0.6200 
 24 C       -5.9220   -11.7810     0.6720 C.ar  1 <1>   0.1600 
 25 C       -3.4500   -12.3390     1.2080 C.ar  1 <1>   0.1600 
 26 N       -5.7830   -12.7800     1.5280 N.ar  1 <1>  -0.6200 
 27 C       -4.5100   -13.0350     1.7770 C.ar  1 <1>   0.1600 
 28 H        0.9290    -2.0160    -2.2370 H     1 <1>   0.1500 
 29 H        1.0350    -4.4710    -2.0770 H     1 <1>   0.1500 
 30 H       -0.5600    -5.6730    -0.6700 H     1 <1>   0.1500 
 31 H       -4.2000    -4.2470     2.1230 H     1 <1>   0.1500 
 32 H       -5.0830    -2.1580     2.7230 H     1 <1>   0.0800 
 33 H       -5.0610    -1.0160     1.3980 H     1 <1>   0.0800 
 34 H       -3.9260    -0.8480     2.7140 H     1 <1>   0.0800 
 35 H       -5.4190    -5.6110     0.0910 H     1 <1>   0.0800 
 36 H       -4.2850    -5.5660    -1.2630 H     1 <1>   0.0800 
 37 H       -2.9300    -8.6130    -0.1720 H     1 <1>   0.0800 
 38 H       -3.6230    -8.5770     1.4390 H     1 <1>   0.0800 
 39 H       -5.0000    -7.5920    -2.0920 H     1 <1>   0.0800 
 40 H       -5.8000    -8.5620     0.6520 H     1 <1>   0.0800 
 41 H       -7.1680    -7.0920    -0.3370 H     1 <1>   0.4000 
 42 H       -4.4150    -9.9660    -1.6580 H     1 <1>   0.0800 
 43 H       -6.1100   -10.0710    -1.3110 H     1 <1>   0.0800 
 44 H       -6.9280   -11.5050     0.4120 H     1 <1>   0.1500 
 45 H       -2.4460   -12.6210     1.4730 H     1 <1>   0.1500 
 46 H       -4.2940   -13.8340     2.4630 H     1 <1>   0.1500 
@<TRIPOS>BOND
  1   1   2  1   
  2   2   3  ar  
  3   2   4  ar  
  4   3   5  ar  
  5   3   6  ar  
  6   4   7  ar  
  7   4  28  1   
  8   5   8  ar  
  9   6   9  ar  
 10   6  10  ar  
 11   7  10  ar  
 12   7  29  1   
 13   8  11  ar  
 14   8  12  1   
 15   9  11  ar  
 16   9  13  1   
 17  10  30  1   
 18  11  31  1   
 19  12  32  1   
 20  12  33  1   
 21  12  34  1   
 22  13  14  2   
 23  13  15  am  
 24  15  16  1   
 25  15  17  1   
 26  16  18  1   
 27  16  35  1   
 28  16  36  1   
 29  17  19  1   
 30  17  37  1   
 31  17  38  1   
 32  18  19  1   
 33  18  20  1   
 34  18  39  1   
 35  19  21  1   
 36  19  40  1   
 37  20  41  1   
 38  21  22  1   
 39  21  42  1   
 40  21  43  1   
 41  22  23  ar  
 42  22  24  ar  
 43  23  25  ar  
 44  24  26  ar  
 45  24  44  1   
 46  25  27  ar  
 47  25  45  1   
 48  26  27  ar  
 49  27  46  1   
@<TRIPOS>SUBSTRUCTURE
  1 ****  15 GROUP 4 **** **** 0

# MOE 2024.06 (io_trps.svl 2023.06)
