@<TRIPOS>MOLECULE
NONAME
51 54 1 0 0 
SMALL
USER_CHARGES


@<TRIPOS>ATOM
  1 O       -3.0840    -0.3390     3.3490 O.2   1 <1>  -0.5700 
  2 C       -3.5370    -0.9650     2.4160 C.2   1 <1>   0.6900 
  3 N       -4.0880    -0.3670     1.3040 N.am  1 <1>  -0.4770 
  4 N       -3.5050    -2.3120     2.4710 N.am  1 <1>  -0.4900 
  5 C       -4.5750    -1.1340     0.2380 C.ar  1 <1>   0.4270 
  6 C       -4.1440     1.1280     1.2290 C.3   1 <1>   0.0600 
  7 C       -3.9860    -3.1250     1.5020 C.2   1 <1>   0.5440 
  8 N       -5.0690    -0.4600    -0.8000 N.ar  1 <1>  -0.6200 
  9 C       -4.5270    -2.5370     0.3010 C.ar  1 <1>   0.0860 
 10 O       -3.9460    -4.3140     1.7340 O.2   1 <1>  -0.5700 
 11 C       -5.5090    -1.1590    -1.8210 C.ar  1 <1>   0.1660 
 12 C       -5.0050    -3.2660    -0.7930 C.ar  1 <1>   0.0860 
 13 C       -5.4940    -2.5360    -1.8620 C.ar  1 <1>  -0.1500 
 14 C       -6.0470    -0.3630    -2.9920 C.3   1 <1>  -0.0960 
 15 C       -4.9950    -4.7060    -0.8740 C.2   1 <1>   0.5440 
 16 O       -4.1490    -5.2510    -1.5540 O.2   1 <1>  -0.5700 
 17 N       -5.9320    -5.4760    -0.2300 N.am  1 <1>  -0.6600 
 18 C       -7.0550    -4.9680     0.6000 C.3   1 <1>   0.1400 
 19 C       -5.6070    -6.8740     0.1610 C.3   1 <1>   0.1400 
 20 C       -7.1270    -5.9280     1.7870 C.3   1 <1>   0.2000 
 21 C       -6.6410    -7.2650     1.2260 C.3   1 <1>  -0.0800 
 22 O       -6.2360    -5.4950     2.7560 O.3   1 <1>  -0.6800 
 23 C       -7.8090    -8.0610     0.6130 C.3   1 <1>   0.0210 
 24 C       -7.3480    -9.3990     0.0690 C.2   1 <1>   0.1080 
 25 N       -6.9860   -10.3800     0.8350 N.2   1 <1>  -0.7070 
 26 C       -7.2540    -9.7230    -1.2800 C.2   1 <1>  -0.1500 
 27 N       -6.6440   -11.3670    -0.0140 N.pl3 1 <1>   0.3000 
 28 C       -6.7980   -10.9930    -1.3020 C.2   1 <1>  -0.3320 
 29 C       -6.4920   -11.8840    -2.4920 C.3   1 <1>  -0.0600 
 30 H       -3.1220    -2.7340     3.3120 H     1 <1>   0.3700 
 31 H       -3.5580     1.4680     0.3930 H     1 <1>   0.0800 
 32 H       -3.7620     1.5850     2.1250 H     1 <1>   0.0800 
 33 H       -5.1640     1.4440     1.0920 H     1 <1>   0.0800 
 34 H       -5.8570    -3.0610    -2.7290 H     1 <1>   0.1500 
 35 H       -6.3810    -1.0080    -3.7830 H     1 <1>   0.0800 
 36 H       -5.2760     0.2810    -3.3730 H     1 <1>   0.0800 
 37 H       -6.8730     0.2440    -2.6670 H     1 <1>   0.0800 
 38 H       -6.9100    -3.9540     0.9280 H     1 <1>   0.0800 
 39 H       -7.9630    -5.0310     0.0260 H     1 <1>   0.0800 
 40 H       -5.6250    -7.5200    -0.6990 H     1 <1>   0.0800 
 41 H       -4.6170    -6.8960     0.5870 H     1 <1>   0.0800 
 42 H       -8.1060    -5.9770     2.2330 H     1 <1>   0.0800 
 43 H       -6.1900    -7.8680     1.9950 H     1 <1>   0.0800 
 44 H       -5.3530    -5.3170     2.3430 H     1 <1>   0.4000 
 45 H       -8.2730    -7.5010    -0.1780 H     1 <1>   0.0800 
 46 H       -8.5500    -8.2500     1.3690 H     1 <1>   0.0800 
 47 H       -7.4950    -9.0790    -2.1070 H     1 <1>   0.1500 
 48 H       -6.3070   -12.2780     0.3170 H     1 <1>   0.2700 
 49 H       -6.6940   -11.3580    -3.4080 H     1 <1>   0.0800 
 50 H       -7.1020   -12.7690    -2.4620 H     1 <1>   0.0800 
 51 H       -5.4550   -12.1700    -2.4840 H     1 <1>   0.0800 
@<TRIPOS>BOND
  1   1   2  2   
  2   2   3  am  
  3   2   4  am  
  4   3   5  1   
  5   3   6  1   
  6   4   7  am  
  7   4  30  1   
  8   5   8  ar  
  9   5   9  ar  
 10   6  31  1   
 11   6  32  1   
 12   6  33  1   
 13   7   9  1   
 14   7  10  2   
 15   8  11  ar  
 16   9  12  ar  
 17  11  13  ar  
 18  11  14  1   
 19  12  13  ar  
 20  12  15  1   
 21  13  34  1   
 22  14  35  1   
 23  14  36  1   
 24  14  37  1   
 25  15  16  2   
 26  15  17  am  
 27  17  18  1   
 28  17  19  1   
 29  18  20  1   
 30  18  38  1   
 31  18  39  1   
 32  19  21  1   
 33  19  40  1   
 34  19  41  1   
 35  20  21  1   
 36  20  22  1   
 37  20  42  1   
 38  21  23  1   
 39  21  43  1   
 40  22  44  1   
 41  23  24  1   
 42  23  45  1   
 43  23  46  1   
 44  24  25  2   
 45  24  26  1   
 46  25  27  1   
 47  26  28  2   
 48  26  47  1   
 49  27  28  1   
 50  27  48  1   
 51  28  29  1   
 52  29  49  1   
 53  29  50  1   
 54  29  51  1   
@<TRIPOS>SUBSTRUCTURE
  1 ****  17 GROUP 4 **** **** 0

# MOE 2024.06 (io_trps.svl 2023.06)
