@<TRIPOS>MOLECULE
NONAME
48 50 1 0 0 
SMALL
USER_CHARGES


@<TRIPOS>ATOM
  1 O        3.1620     2.0500     1.6840 O.co2 1 <1>  -0.9000 
  2 C        2.4790     1.0920     1.2900 C.2   1 <1>   0.9060 
  3 O        2.1960     0.1630     2.0440 O.co2 1 <1>  -0.9000 
  4 C        2.2620     0.8850    -0.2170 C.3   1 <1>  -0.1060 
  5 C        3.1840    -0.3120    -0.5460 C.3   1 <1>   0.2000 
  6 C        2.7360     2.1150    -1.0630 C.3   1 <1>  -0.1600 
  7 C        0.7700     0.5640    -0.4890 C.3   1 <1>  -0.0170 
  8 O        3.1550    -0.5770    -1.9180 O.3   1 <1>  -0.6800 
  9 C        4.6480     0.0080    -0.1380 C.3   1 <1>   0.3430 
 10 C        4.2530     2.1640    -1.3190 C.3   1 <1>   0.3430 
 11 C       -0.1410     1.7740    -0.3140 C.ar  1 <1>  -0.1440 
 12 N        4.9580     1.4830    -0.2010 N.4   1 <1>  -0.9590 
 13 C       -0.4950     2.2040     0.9560 C.ar  1 <1>  -0.1500 
 14 C       -0.6260     2.4590    -1.4190 C.ar  1 <1>  -0.1500 
 15 C        6.3800     1.8170    -0.0020 C.3   1 <1>   0.4860 
 16 C       -1.3120     3.3080     1.1210 C.ar  1 <1>  -0.1500 
 17 C       -1.4450     3.5640    -1.2560 C.ar  1 <1>  -0.1500 
 18 C        6.5690     3.3170     0.0400 C.ar  1 <1>  -0.1440 
 19 C       -1.7870     3.9900     0.0150 C.ar  1 <1>  -0.1500 
 20 C        7.4310     3.9400    -0.8330 C.ar  1 <1>   0.1600 
 21 C        5.8970     4.1210     0.9360 C.ar  1 <1>   0.1600 
 22 N        7.6130     5.2390    -0.8310 N.ar  1 <1>  -0.6200 
 23 N        6.0690     5.4250     0.9570 N.ar  1 <1>  -0.6200 
 24 C        6.9180     5.9130     0.0710 C.ar  1 <1>   0.4770 
 25 C        7.1170     7.4090     0.0960 C.3   1 <1>  -0.0970 
 26 H        2.8580    -1.2040    -0.0350 H     1 <1>   0.0800 
 27 H        2.4300     3.0250    -0.5740 H     1 <1>   0.0800 
 28 H        2.2530     2.1070    -2.0230 H     1 <1>   0.0800 
 29 H        0.6500     0.1930    -1.4900 H     1 <1>   0.0800 
 30 H        0.4390    -0.2160     0.1760 H     1 <1>   0.0800 
 31 H        2.2650    -0.8910    -2.1750 H     1 <1>   0.4000 
 32 H        5.3130    -0.5520    -0.7720 H     1 <1>   0.0800 
 33 H        4.7850    -0.3220     0.8790 H     1 <1>   0.0800 
 34 H        4.5640     3.1930    -1.4040 H     1 <1>   0.0800 
 35 H        4.4780     1.6550    -2.2430 H     1 <1>   0.0800 
 36 H        4.4550     1.8680     0.6410 H     1 <1>   0.4500 
 37 H       -0.1310     1.6810     1.8270 H     1 <1>   0.1500 
 38 H       -0.3680     2.1390    -2.4120 H     1 <1>   0.1500 
 39 H        6.7220     1.3920     0.9280 H     1 <1>   0.0800 
 40 H        6.9650     1.3990    -0.8040 H     1 <1>   0.0800 
 41 H       -1.5730     3.6330     2.1120 H     1 <1>   0.1500 
 42 H       -1.8150     4.0910    -2.1170 H     1 <1>   0.1500 
 43 H       -2.4210     4.8490     0.1450 H     1 <1>   0.1500 
 44 H        7.9890     3.3690    -1.5560 H     1 <1>   0.1500 
 45 H        5.2010     3.7000     1.6480 H     1 <1>   0.1500 
 46 H        7.5280     7.7490    -0.8360 H     1 <1>   0.0800 
 47 H        7.7910     7.6640     0.8920 H     1 <1>   0.0800 
 48 H        6.1750     7.8990     0.2620 H     1 <1>   0.0800 
@<TRIPOS>BOND
  1   1   2  ar  
  2   2   3  ar  
  3   2   4  1   
  4   4   5  1   
  5   4   6  1   
  6   4   7  1   
  7   5   8  1   
  8   5   9  1   
  9   5  26  1   
 10   6  10  1   
 11   6  27  1   
 12   6  28  1   
 13   7  11  1   
 14   7  29  1   
 15   7  30  1   
 16   8  31  1   
 17   9  12  1   
 18   9  32  1   
 19   9  33  1   
 20  10  12  1   
 21  10  34  1   
 22  10  35  1   
 23  11  13  ar  
 24  11  14  ar  
 25  12  15  1   
 26  12  36  1   
 27  13  16  ar  
 28  13  37  1   
 29  14  17  ar  
 30  14  38  1   
 31  15  18  1   
 32  15  39  1   
 33  15  40  1   
 34  16  19  ar  
 35  16  41  1   
 36  17  19  ar  
 37  17  42  1   
 38  18  20  ar  
 39  18  21  ar  
 40  19  43  1   
 41  20  22  ar  
 42  20  44  1   
 43  21  23  ar  
 44  21  45  1   
 45  22  24  ar  
 46  23  24  ar  
 47  24  25  1   
 48  25  46  1   
 49  25  47  1   
 50  25  48  1   
@<TRIPOS>SUBSTRUCTURE
  1 ****   6 GROUP 4 **** **** 0

# MOE 2024.06 (io_trps.svl 2023.06)
