@<TRIPOS>MOLECULE
NONAME
46 48 1 0 0 
SMALL
USER_CHARGES


@<TRIPOS>ATOM
  1 F        0.6680    -2.8630    -1.1520 F     1 <1>  -0.3400 
  2 C       -0.5210    -2.6020    -0.6340 C.3   1 <1>   1.0200 
  3 F       -0.3160    -1.9780     0.5160 F     1 <1>  -0.3400 
  4 F       -1.1130    -1.7310    -1.4370 F     1 <1>  -0.3400 
  5 C       -1.3630    -3.8720    -0.4520 C.3   1 <1>  -0.1600 
  6 C       -2.7620    -3.6150     0.1550 C.3   1 <1>  -0.1600 
  7 C       -3.5430    -4.9220     0.2870 C.3   1 <1>   0.3430 
  8 N       -4.8730    -4.6820     0.9150 N.4   1 <1>  -0.9590 
  9 C       -5.8370    -3.9800    -0.0050 C.3   1 <1>   0.3430 
 10 C       -5.4980    -5.9930     1.2770 C.3   1 <1>   0.3430 
 11 C       -7.1000    -4.8500    -0.0730 C.3   1 <1>   0.2000 
 12 C       -6.6020    -6.2550     0.2460 C.3   1 <1>  -0.0800 
 13 O       -8.0000    -4.4510     0.9070 O.3   1 <1>  -0.6800 
 14 C       -6.0870    -6.9580    -1.0330 C.3   1 <1>  -0.0170 
 15 C       -5.1410    -8.1060    -0.7260 C.ar  1 <1>   0.1670 
 16 N       -3.8770    -7.8190    -0.6340 N.ar  1 <1>  -0.6200 
 17 C       -5.6660    -9.3950    -0.5440 C.ar  1 <1>  -0.1500 
 18 C       -3.0180    -8.8400    -0.3670 C.ar  1 <1>   0.3100 
 19 C       -4.8300   -10.4280    -0.2530 C.ar  1 <1>  -0.1500 
 20 C       -3.4540   -10.1660    -0.1520 C.ar  1 <1>   0.0000 
 21 C       -1.6410    -8.5690    -0.2930 C.ar  1 <1>  -0.1500 
 22 C       -2.5030   -11.1600     0.1480 C.ar  1 <1>  -0.1500 
 23 C       -0.7320    -9.5510    -0.0030 C.ar  1 <1>  -0.1500 
 24 C       -1.1700   -10.8600     0.2230 C.ar  1 <1>  -0.1500 
 25 H       -1.4640    -4.3360    -1.4170 H     1 <1>   0.0800 
 26 H       -0.8090    -4.5420     0.1810 H     1 <1>   0.0800 
 27 H       -3.2970    -2.9310    -0.4810 H     1 <1>   0.0800 
 28 H       -2.6470    -3.1670     1.1270 H     1 <1>   0.0800 
 29 H       -2.9780    -5.6120     0.8940 H     1 <1>   0.0800 
 30 H       -3.6700    -5.3730    -0.6850 H     1 <1>   0.0800 
 31 H       -4.7380    -4.1260     1.7710 H     1 <1>   0.4500 
 32 H       -6.0760    -2.9870     0.3410 H     1 <1>   0.0800 
 33 H       -5.4080    -3.9120    -0.9910 H     1 <1>   0.0800 
 34 H       -4.7730    -6.7890     1.3120 H     1 <1>   0.0800 
 35 H       -5.9500    -5.9110     2.2520 H     1 <1>   0.0800 
 36 H       -7.5980    -4.7740    -1.0250 H     1 <1>   0.0800 
 37 H       -7.3780    -6.8650     0.6770 H     1 <1>   0.0800 
 38 H       -7.6770    -4.5930     1.8170 H     1 <1>   0.4000 
 39 H       -5.5650    -6.2630    -1.6670 H     1 <1>   0.0800 
 40 H       -6.9240    -7.3250    -1.6010 H     1 <1>   0.0800 
 41 H       -6.7250    -9.5580    -0.6370 H     1 <1>   0.1500 
 42 H       -5.1930   -11.4310    -0.1040 H     1 <1>   0.1500 
 43 H       -1.3150    -7.5650    -0.4770 H     1 <1>   0.1500 
 44 H       -2.8420   -12.1670     0.3160 H     1 <1>   0.1500 
 45 H        0.3220    -9.3360     0.0520 H     1 <1>   0.1500 
 46 H       -0.4440   -11.6230     0.4520 H     1 <1>   0.1500 
@<TRIPOS>BOND
  1   1   2  1   
  2   2   3  1   
  3   2   4  1   
  4   2   5  1   
  5   5   6  1   
  6   5  25  1   
  7   5  26  1   
  8   6   7  1   
  9   6  27  1   
 10   6  28  1   
 11   7   8  1   
 12   7  29  1   
 13   7  30  1   
 14   8   9  1   
 15   8  10  1   
 16   8  31  1   
 17   9  11  1   
 18   9  32  1   
 19   9  33  1   
 20  10  12  1   
 21  10  34  1   
 22  10  35  1   
 23  11  12  1   
 24  11  13  1   
 25  11  36  1   
 26  12  14  1   
 27  12  37  1   
 28  13  38  1   
 29  14  15  1   
 30  14  39  1   
 31  14  40  1   
 32  15  16  ar  
 33  15  17  ar  
 34  16  18  ar  
 35  17  19  ar  
 36  17  41  1   
 37  18  20  ar  
 38  18  21  ar  
 39  19  20  ar  
 40  19  42  1   
 41  20  22  ar  
 42  21  23  ar  
 43  21  43  1   
 44  22  24  ar  
 45  22  44  1   
 46  23  24  ar  
 47  23  45  1   
 48  24  46  1   
@<TRIPOS>SUBSTRUCTURE
  1 ****   7 GROUP 4 **** **** 0

# MOE 2024.06 (io_trps.svl 2023.06)
