@<TRIPOS>MOLECULE
NONAME
44 46 1 0 0 
SMALL
USER_CHARGES


@<TRIPOS>ATOM
  1 O       -1.6670    -0.0050    -2.2180 O.2   1 <1>  -0.5700 
  2 C       -1.7960     0.4780    -1.1090 C.2   1 <1>   0.7150 
  3 N       -1.9430    -0.3730    -0.0540 N.am  1 <1>  -0.7300 
  4 C       -1.8150     1.9050    -0.8850 C.2   1 <1>   0.0550 
  5 C       -1.9040    -1.8530    -0.1070 C.3   1 <1>   0.2200 
  6 O       -1.9890     2.3750     0.3450 O.3   1 <1>  -0.2800 
  7 C       -1.6830     2.9530    -1.7290 C.2   1 <1>   0.0460 
  8 C       -3.2970    -2.4490     0.0510 C.3   1 <1>  -0.0800 
  9 C       -1.2340    -2.3720     1.1580 C.3   1 <1>   0.1200 
 10 C       -1.9490     3.6780     0.1560 C.2   1 <1>   0.2980 
 11 N       -1.7720     4.0880    -1.0460 N.2   1 <1>  -0.5650 
 12 C       -1.4650     3.0100    -3.2280 C.3   1 <1>  -0.0590 
 13 C       -3.4860    -2.4890     1.5720 C.3   1 <1>   0.1200 
 14 C       -4.4290    -1.7330    -0.7090 C.3   1 <1>  -0.0160 
 15 O       -2.2210    -2.3120     2.1420 O.3   1 <1>  -0.5600 
 16 C       -2.1170     4.5580     1.3870 C.3   1 <1>   0.0200 
 17 C       -5.7440    -2.4790    -0.5490 C.ar  1 <1>  -0.1440 
 18 C       -2.0630     6.0640     1.0890 C.3   1 <1>  -0.2400 
 19 C       -6.0470    -3.5880    -1.3130 C.ar  1 <1>  -0.1500 
 20 C       -6.7010    -2.0920     0.3670 C.ar  1 <1>  -0.1500 
 21 C       -7.2540    -4.2400    -1.1270 C.ar  1 <1>   0.1600 
 22 C       -7.8780    -2.8150     0.4750 C.ar  1 <1>   0.1600 
 23 N       -8.1760    -3.8820    -0.2480 N.ar  1 <1>  -0.6200 
 24 H       -2.0700     0.0240     0.8800 H     1 <1>   0.3700 
 25 H       -1.4060    -2.1910    -1.0000 H     1 <1>   0.0800 
 26 H       -3.2560    -3.4680    -0.2920 H     1 <1>   0.0800 
 27 H       -0.3850    -1.7820     1.4550 H     1 <1>   0.0800 
 28 H       -0.9450    -3.4020     1.0420 H     1 <1>   0.0800 
 29 H       -1.4000     2.0280    -3.6560 H     1 <1>   0.0800 
 30 H       -0.5530     3.5390    -3.4370 H     1 <1>   0.0800 
 31 H       -2.2810     3.5350    -3.6890 H     1 <1>   0.0800 
 32 H       -3.8900    -3.4320     1.8990 H     1 <1>   0.0800 
 33 H       -4.1120    -1.6850     1.9180 H     1 <1>   0.0800 
 34 H       -4.1770    -1.6760    -1.7540 H     1 <1>   0.0800 
 35 H       -4.5460    -0.7250    -0.3500 H     1 <1>   0.0800 
 36 H       -3.0610     4.3230     1.8430 H     1 <1>   0.0800 
 37 H       -1.3400     4.3090     2.0860 H     1 <1>   0.0800 
 38 H       -2.8450     6.3330     0.4010 H     1 <1>   0.0800 
 39 H       -1.1160     6.3200     0.6460 H     1 <1>   0.0800 
 40 H       -2.1870     6.6290     1.9950 H     1 <1>   0.0800 
 41 H       -5.3560    -3.9490    -2.0530 H     1 <1>   0.1500 
 42 H       -6.5460    -1.2360     0.9980 H     1 <1>   0.1500 
 43 H       -7.4720    -5.1030    -1.7320 H     1 <1>   0.1500 
 44 H       -8.6130    -2.4990     1.1950 H     1 <1>   0.1500 
@<TRIPOS>BOND
  1   1   2  2   
  2   2   3  am  
  3   2   4  1   
  4   3   5  1   
  5   3  24  1   
  6   4   6  1   
  7   4   7  2   
  8   5   8  1   
  9   5   9  1   
 10   5  25  1   
 11   6  10  1   
 12   7  11  1   
 13   7  12  1   
 14   8  13  1   
 15   8  14  1   
 16   8  26  1   
 17   9  15  1   
 18   9  27  1   
 19   9  28  1   
 20  10  11  2   
 21  10  16  1   
 22  12  29  1   
 23  12  30  1   
 24  12  31  1   
 25  13  15  1   
 26  13  32  1   
 27  13  33  1   
 28  14  17  1   
 29  14  34  1   
 30  14  35  1   
 31  16  18  1   
 32  16  36  1   
 33  16  37  1   
 34  17  19  ar  
 35  17  20  ar  
 36  18  38  1   
 37  18  39  1   
 38  18  40  1   
 39  19  21  ar  
 40  19  41  1   
 41  20  22  ar  
 42  20  42  1   
 43  21  23  ar  
 44  21  43  1   
 45  22  23  ar  
 46  22  44  1   
@<TRIPOS>SUBSTRUCTURE
  1 ****   3 GROUP 4 **** **** 0

# MOE 2024.06 (io_trps.svl 2023.06)
