@<TRIPOS>MOLECULE
NONAME
37 39 1 0 0 
SMALL
USER_CHARGES


@<TRIPOS>ATOM
  1 O       -0.0130    -0.1390    -0.1760 O.2   1 <1>  -0.5700 
  2 C        1.0890    -0.6330    -0.3350 C.2   1 <1>   0.7160 
  3 N        2.2150     0.1520    -0.2830 N.am  1 <1>  -0.4940 
  4 C        1.2650    -2.0500    -0.5700 C.2   1 <1>  -0.0860 
  5 C        2.3580     1.5530    -0.1110 C.2   1 <1>  -0.0880 
  6 C        0.5120    -3.1280    -0.1600 C.2   1 <1>  -0.3320 
  7 C        2.3240    -2.6120    -1.3170 C.2   1 <1>  -0.1500 
  8 N        3.5470     2.2130    -0.0170 N.pl3 1 <1>   0.3140 
  9 C        1.3930     2.4970    -0.0050 C.2   1 <1>  -0.1500 
 10 N        1.0600    -4.2800    -0.6130 N.pl3 1 <1>   0.0330 
 11 C       -0.7560    -3.1370     0.6790 C.3   1 <1>  -0.0600 
 12 C        2.1720    -3.9580    -1.3200 C.2   1 <1>  -0.3020 
 13 N        3.3550     3.5470     0.1500 N.2   1 <1>  -0.7070 
 14 C        4.8980     1.5790    -0.0730 C.3   1 <1>   0.1760 
 15 C        2.0670     3.6990     0.1540 C.2   1 <1>   0.1390 
 16 C        5.2980     0.9440     1.2610 C.3   1 <1>  -0.1600 
 17 C        6.0540     2.5350    -0.3790 C.3   1 <1>  -0.1600 
 18 C        6.8310     0.8880     1.2500 C.3   1 <1>  -0.1600 
 19 C        7.2960     1.7810     0.0940 C.3   1 <1>  -0.1600 
 20 H        3.0680    -0.3980    -0.3290 H     1 <1>   0.3700 
 21 H        3.1030    -2.0560    -1.8080 H     1 <1>   0.1500 
 22 H        0.3260     2.3680    -0.0330 H     1 <1>   0.1500 
 23 H        0.6980    -5.2270    -0.4560 H     1 <1>   0.2700 
 24 H       -0.9960    -2.1490     1.0290 H     1 <1>   0.0800 
 25 H       -0.6310    -3.7740     1.5360 H     1 <1>   0.0800 
 26 H       -1.5830    -3.4960     0.0930 H     1 <1>   0.0800 
 27 H        2.7880    -4.7050    -1.7900 H     1 <1>   0.1500 
 28 H        4.8830     0.8210    -0.8340 H     1 <1>   0.0800 
 29 H        1.5840     4.6540     0.2690 H     1 <1>   0.1500 
 30 H        4.8660    -0.0330     1.3850 H     1 <1>   0.0800 
 31 H        4.9770     1.5820     2.0680 H     1 <1>   0.0800 
 32 H        5.9550     3.4360     0.2020 H     1 <1>   0.0800 
 33 H        6.1040     2.7840    -1.4240 H     1 <1>   0.0800 
 34 H        7.1760    -0.1210     1.1000 H     1 <1>   0.0800 
 35 H        7.2190     1.2480     2.1880 H     1 <1>   0.0800 
 36 H        8.0730     2.4610     0.4020 H     1 <1>   0.0800 
 37 H        7.6710     1.1660    -0.7070 H     1 <1>   0.0800 
@<TRIPOS>BOND
  1   1   2  2   
  2   2   3  am  
  3   2   4  1   
  4   3   5  1   
  5   3  20  1   
  6   4   6  2   
  7   4   7  1   
  8   5   8  1   
  9   5   9  2   
 10   6  10  1   
 11   6  11  1   
 12   7  12  2   
 13   7  21  1   
 14   8  13  1   
 15   8  14  1   
 16   9  15  1   
 17   9  22  1   
 18  10  12  1   
 19  10  23  1   
 20  11  24  1   
 21  11  25  1   
 22  11  26  1   
 23  12  27  1   
 24  13  15  2   
 25  14  16  1   
 26  14  17  1   
 27  14  28  1   
 28  15  29  1   
 29  16  18  1   
 30  16  30  1   
 31  16  31  1   
 32  17  19  1   
 33  17  32  1   
 34  17  33  1   
 35  18  19  1   
 36  18  34  1   
 37  18  35  1   
 38  19  36  1   
 39  19  37  1   
@<TRIPOS>SUBSTRUCTURE
  1 ****   3 GROUP 4 **** **** 0

# MOE 2024.06 (io_trps.svl 2023.06)
