@<TRIPOS>MOLECULE
NONAME
54 57 1 0 0 
SMALL
USER_CHARGES


@<TRIPOS>ATOM
  1 S        2.1960     1.5770    -1.7880 S.3   1 <1>  -0.0800 
  2 C        3.6020     1.9330    -0.7800 C.2   1 <1>  -0.0450 
  3 C        1.5610     3.1970    -1.6100 C.2   1 <1>  -0.1100 
  4 C        4.5570     0.8730    -0.5580 C.2   1 <1>   0.7150 
  5 C        3.5260     3.2310    -0.3800 C.2   1 <1>  -0.1500 
  6 C        2.3780     3.9390    -0.8420 C.2   1 <1>  -0.1500 
  7 O        4.9260     0.1960    -1.5010 O.2   1 <1>  -0.5700 
  8 N        5.0910     0.6130     0.7010 N.am  1 <1>  -0.4770 
  9 C        6.0260    -0.4170     0.9210 C.ar  1 <1>   0.1170 
 10 C        4.4990     1.2600     1.9060 C.3   1 <1>   0.0600 
 11 C        7.3330    -0.4170     0.3850 C.ar  1 <1>   0.0860 
 12 C        5.6100    -1.4980     1.6970 C.ar  1 <1>  -0.1500 
 13 C        7.8940     0.6500    -0.4280 C.2   1 <1>   0.5440 
 14 C        8.1470    -1.5200     0.6650 C.ar  1 <1>  -0.1500 
 15 C        6.4420    -2.5640     1.9650 C.ar  1 <1>  -0.1500 
 16 O        8.7910     0.4300    -1.2260 O.2   1 <1>  -0.5700 
 17 N        7.5860     1.9770    -0.2670 N.am  1 <1>  -0.6600 
 18 C        7.7210    -2.5750     1.4440 C.ar  1 <1>  -0.1500 
 19 C        8.2520     2.7210     0.8580 C.3   1 <1>   0.2200 
 20 C        7.1270     2.7530    -1.4690 C.3   1 <1>   0.1400 
 21 C        7.4180     3.9080     1.3900 C.3   1 <1>   0.1200 
 22 C        9.6980     3.1530     0.4890 C.3   1 <1>   0.3430 
 23 C        7.8780     4.0820    -1.6860 C.3   1 <1>  -0.0800 
 24 O        6.7780     4.6590     0.4000 O.3   1 <1>  -0.5600 
 25 N       10.0290     2.9410    -0.9600 N.4   1 <1>  -0.9590 
 26 C        7.5580     5.1680    -0.6340 C.3   1 <1>   0.1200 
 27 C        9.3890     3.9020    -1.9040 C.3   1 <1>   0.3430 
 28 C       11.4910     2.7930    -1.2080 C.3   1 <1>   0.2630 
 29 H        0.6340     3.4270    -2.1050 H     1 <1>   0.1500 
 30 H        4.2590     3.7340     0.2260 H     1 <1>   0.1500 
 31 H        2.2180     4.9710    -0.5800 H     1 <1>   0.1500 
 32 H        4.9030     0.8300     2.8060 H     1 <1>   0.0800 
 33 H        3.4310     1.1250     1.9080 H     1 <1>   0.0800 
 34 H        4.7230     2.3110     1.9070 H     1 <1>   0.0800 
 35 H        4.6090    -1.5140     2.0890 H     1 <1>   0.1500 
 36 H        9.1430    -1.5560     0.2570 H     1 <1>   0.1500 
 37 H        6.0980    -3.3870     2.5680 H     1 <1>   0.1500 
 38 H        8.3750    -3.4090     1.6400 H     1 <1>   0.1500 
 39 H        8.3500     2.0410     1.6860 H     1 <1>   0.0800 
 40 H        7.2260     2.1360    -2.3470 H     1 <1>   0.0800 
 41 H        6.0800     2.9680    -1.3610 H     1 <1>   0.0800 
 42 H        8.0260     4.5740     1.9780 H     1 <1>   0.0800 
 43 H        6.6460     3.5280     2.0320 H     1 <1>   0.0800 
 44 H       10.3720     2.5650     1.0890 H     1 <1>   0.0800 
 45 H        9.8520     4.1840     0.7560 H     1 <1>   0.0800 
 46 H        7.5090     4.4810    -2.6140 H     1 <1>   0.0800 
 47 H        9.5800     2.0180    -1.1790 H     1 <1>   0.4500 
 48 H        6.9760     5.9480    -1.0960 H     1 <1>   0.0800 
 49 H        8.4420     5.6210    -0.2180 H     1 <1>   0.0800 
 50 H        9.8740     4.8620    -1.8340 H     1 <1>   0.0800 
 51 H        9.5390     3.5370    -2.9080 H     1 <1>   0.0800 
 52 H       12.0060     3.7130    -0.9890 H     1 <1>   0.0800 
 53 H       11.6670     2.5320    -2.2390 H     1 <1>   0.0800 
 54 H       11.8950     2.0100    -0.5880 H     1 <1>   0.0800 
@<TRIPOS>BOND
  1   1   2  1   
  2   1   3  1   
  3   2   4  1   
  4   2   5  2   
  5   3   6  2   
  6   3  29  1   
  7   4   7  2   
  8   4   8  am  
  9   5   6  1   
 10   5  30  1   
 11   6  31  1   
 12   8   9  1   
 13   8  10  1   
 14   9  11  ar  
 15   9  12  ar  
 16  10  32  1   
 17  10  33  1   
 18  10  34  1   
 19  11  13  1   
 20  11  14  ar  
 21  12  15  ar  
 22  12  35  1   
 23  13  16  2   
 24  13  17  am  
 25  14  18  ar  
 26  14  36  1   
 27  15  18  ar  
 28  15  37  1   
 29  17  19  1   
 30  17  20  1   
 31  18  38  1   
 32  19  21  1   
 33  19  22  1   
 34  19  39  1   
 35  20  23  1   
 36  20  40  1   
 37  20  41  1   
 38  21  24  1   
 39  21  42  1   
 40  21  43  1   
 41  22  25  1   
 42  22  44  1   
 43  22  45  1   
 44  23  26  1   
 45  23  27  1   
 46  23  46  1   
 47  24  26  1   
 48  25  27  1   
 49  25  28  1   
 50  25  47  1   
 51  26  48  1   
 52  26  49  1   
 53  27  50  1   
 54  27  51  1   
 55  28  52  1   
 56  28  53  1   
 57  28  54  1   
@<TRIPOS>SUBSTRUCTURE
  1 ****  17 GROUP 4 **** **** 0

# MOE 2024.06 (io_trps.svl 2023.06)
