@<TRIPOS>MOLECULE
NONAME
49 51 1 0 0 
SMALL
USER_CHARGES


@<TRIPOS>ATOM
  1 O        1.7480     0.5670     2.5350 O.co2 1 <1>  -0.9000 
  2 C        1.5200     0.1140     1.4080 C.2   1 <1>   0.9060 
  3 O        1.0220    -1.0100     1.2460 O.co2 1 <1>  -0.9000 
  4 C        1.9600     0.8840     0.1600 C.3   1 <1>  -0.1060 
  5 C        3.1440     0.0360    -0.3650 C.3   1 <1>   0.2000 
  6 C        2.4500     2.3310     0.4790 C.3   1 <1>  -0.1600 
  7 C        0.7870     0.9740    -0.8630 C.3   1 <1>  -0.0160 
  8 O        2.6740    -1.0480    -1.0900 O.3   1 <1>  -0.6800 
  9 C        4.1550     0.8490    -1.1830 C.3   1 <1>   0.1400 
 10 C        3.9350     2.3800     0.8370 C.3   1 <1>   0.1400 
 11 C       -0.2900     1.9970    -0.5060 C.ar  1 <1>  -0.1440 
 12 N        4.7470     1.9580    -0.3540 N.am  1 <1>  -0.6600 
 13 C       -0.4330     3.1580    -1.2520 C.ar  1 <1>  -0.1500 
 14 C       -1.1420     1.7740     0.5640 C.ar  1 <1>  -0.1500 
 15 C        5.9410     2.5190    -0.7330 C.2   1 <1>   0.5690 
 16 C       -1.4100     4.0850    -0.9300 C.ar  1 <1>  -0.1500 
 17 C       -2.1180     2.6990     0.8890 C.ar  1 <1>  -0.1500 
 18 O        6.4800     2.1980    -1.7680 O.2   1 <1>  -0.5700 
 19 C        6.6310     3.5770     0.1400 C.3   1 <1>  -0.0190 
 20 C       -2.2530     3.8560     0.1430 C.ar  1 <1>  -0.1500 
 21 C        6.1690     4.9980    -0.2280 C.3   1 <1>  -0.1600 
 22 C        8.1680     3.5260     0.0590 C.3   1 <1>  -0.1600 
 23 C        6.9080     6.0440     0.6120 C.3   1 <1>   0.1200 
 24 C        8.7940     4.6560     0.8820 C.3   1 <1>   0.1200 
 25 O        8.2840     5.8820     0.4540 O.3   1 <1>  -0.5600 
 26 H        3.6830    -0.3800     0.4710 H     1 <1>   0.0800 
 27 H        1.8690     2.7410     1.2870 H     1 <1>   0.0800 
 28 H        2.3050     2.9750    -0.3700 H     1 <1>   0.0800 
 29 H        1.1900     1.2170    -1.8290 H     1 <1>   0.0800 
 30 H        0.3100     0.0140    -0.9640 H     1 <1>   0.0800 
 31 H        2.0030    -1.4860    -0.5040 H     1 <1>   0.4000 
 32 H        3.6670     1.2750    -2.0410 H     1 <1>   0.0800 
 33 H        4.9420     0.1960    -1.5200 H     1 <1>   0.0800 
 34 H        4.1280     1.7180     1.6660 H     1 <1>   0.0800 
 35 H        4.1790     3.3810     1.1370 H     1 <1>   0.0800 
 36 H        0.2200     3.3440    -2.0860 H     1 <1>   0.1500 
 37 H       -1.0430     0.8750     1.1520 H     1 <1>   0.1500 
 38 H       -1.5120     4.9820    -1.5130 H     1 <1>   0.1500 
 39 H       -2.7660     2.5130     1.7270 H     1 <1>   0.1500 
 40 H        6.3750     3.3870     1.1660 H     1 <1>   0.0800 
 41 H       -3.0120     4.5750     0.3970 H     1 <1>   0.1500 
 42 H        5.1100     5.0970    -0.0760 H     1 <1>   0.0800 
 43 H        6.3680     5.1840    -1.2700 H     1 <1>   0.0800 
 44 H        8.4900     3.6290    -0.9640 H     1 <1>   0.0800 
 45 H        8.5200     2.5750     0.4180 H     1 <1>   0.0800 
 46 H        6.6690     5.9480     1.6580 H     1 <1>   0.0800 
 47 H        6.6560     7.0370     0.2850 H     1 <1>   0.0800 
 48 H        9.8610     4.6780     0.7420 H     1 <1>   0.0800 
 49 H        8.5800     4.5430     1.9320 H     1 <1>   0.0800 
@<TRIPOS>BOND
  1   1   2  ar  
  2   2   3  ar  
  3   2   4  1   
  4   4   5  1   
  5   4   6  1   
  6   4   7  1   
  7   5   8  1   
  8   5   9  1   
  9   5  26  1   
 10   6  10  1   
 11   6  27  1   
 12   6  28  1   
 13   7  11  1   
 14   7  29  1   
 15   7  30  1   
 16   8  31  1   
 17   9  12  1   
 18   9  32  1   
 19   9  33  1   
 20  10  12  1   
 21  10  34  1   
 22  10  35  1   
 23  11  13  ar  
 24  11  14  ar  
 25  12  15  am  
 26  13  16  ar  
 27  13  36  1   
 28  14  17  ar  
 29  14  37  1   
 30  15  18  2   
 31  15  19  1   
 32  16  20  ar  
 33  16  38  1   
 34  17  20  ar  
 35  17  39  1   
 36  19  21  1   
 37  19  22  1   
 38  19  40  1   
 39  20  41  1   
 40  21  23  1   
 41  21  42  1   
 42  21  43  1   
 43  22  24  1   
 44  22  44  1   
 45  22  45  1   
 46  23  25  1   
 47  23  46  1   
 48  23  47  1   
 49  24  25  1   
 50  24  48  1   
 51  24  49  1   
@<TRIPOS>SUBSTRUCTURE
  1 ****   6 GROUP 4 **** **** 0

# MOE 2024.06 (io_trps.svl 2023.06)
