@<TRIPOS>MOLECULE
NONAME
50 53 1 0 0 
SMALL
USER_CHARGES


@<TRIPOS>ATOM
  1 O        1.2540     0.2020     3.1690 O.3   1 <1>  -0.6800 
  2 C        1.3800    -0.7860     2.2030 C.3   1 <1>   0.2000 
  3 C        2.2660    -1.8880     2.7940 C.3   1 <1>  -0.0800 
  4 C        2.1840    -0.1860     1.0370 C.3   1 <1>   0.3430 
  5 C        3.6680    -1.3310     2.5160 C.3   1 <1>   0.3430 
  6 C        2.0250    -3.3030     2.1950 C.3   1 <1>  -0.0170 
  7 N        3.5790    -0.7170     1.1640 N.4   1 <1>  -0.9590 
  8 C        2.6460    -3.4850     0.8110 C.ar  1 <1>  -0.1440 
  9 C        4.6170     0.2910     0.8450 C.3   1 <1>   0.5240 
 10 C        2.0050    -3.0750    -0.3830 C.ar  1 <1>   0.0000 
 11 C        3.9100    -3.9920     0.7090 C.ar  1 <1>  -0.1500 
 12 C        4.3580     0.8000    -0.5560 C.2   1 <1>  -0.1810 
 13 C        2.7880    -3.0430    -1.5620 C.ar  1 <1>   0.3100 
 14 C        0.6510    -2.6770    -0.4770 C.ar  1 <1>  -0.1500 
 15 C        4.5710    -3.9890    -0.5230 C.ar  1 <1>   0.1600 
 16 C        4.5440     0.0900    -1.7380 C.2   1 <1>   0.1390 
 17 C        3.8940     2.0060    -0.9520 C.2   1 <1>  -0.3020 
 18 N        4.0660    -3.4900    -1.6040 N.ar  1 <1>  -0.6200 
 19 C        2.2290    -2.5130    -2.7350 C.ar  1 <1>  -0.1500 
 20 C        0.1300    -2.1840    -1.6410 C.ar  1 <1>  -0.1500 
 21 N        4.2120     0.7860    -2.7770 N.2   1 <1>  -0.7070 
 22 N        3.8170     1.9780    -2.2990 N.pl3 1 <1>   0.3140 
 23 C        0.9310    -2.0850    -2.7810 C.ar  1 <1>  -0.1500 
 24 C        3.3750     3.0700    -3.1910 C.3   1 <1>   0.0960 
 25 C        4.4860     4.1100    -3.3860 C.3   1 <1>  -0.2400 
 26 H        0.5780    -0.0330     3.8400 H     1 <1>   0.4000 
 27 H        0.3940    -1.1050     1.9120 H     1 <1>   0.0800 
 28 H        2.1070    -1.9610     3.8560 H     1 <1>   0.0800 
 29 H        2.1670     0.8890     1.1040 H     1 <1>   0.0800 
 30 H        1.7670    -0.4830     0.0890 H     1 <1>   0.0800 
 31 H        4.4230    -2.0990     2.5590 H     1 <1>   0.0800 
 32 H        3.8890    -0.5670     3.2440 H     1 <1>   0.0800 
 33 H        0.9760    -3.5380     2.1850 H     1 <1>   0.0800 
 34 H        2.4760    -4.0220     2.8580 H     1 <1>   0.0800 
 35 H        3.6600    -1.4730     0.4650 H     1 <1>   0.4500 
 36 H        4.5630     1.1110     1.5420 H     1 <1>   0.0800 
 37 H        5.5990    -0.1490     0.8970 H     1 <1>   0.0800 
 38 H        4.4400    -4.3830     1.5600 H     1 <1>   0.1500 
 39 H        0.0050    -2.7720     0.3750 H     1 <1>   0.1500 
 40 H        5.5660    -4.4030    -0.5710 H     1 <1>   0.1500 
 41 H        4.9150    -0.9210    -1.8130 H     1 <1>   0.1500 
 42 H        3.6190     2.8730    -0.3780 H     1 <1>   0.1500 
 43 H        2.8570    -2.4560    -3.6060 H     1 <1>   0.1500 
 44 H       -0.9010    -1.8760    -1.7050 H     1 <1>   0.1500 
 45 H        0.5150    -1.6820    -3.6900 H     1 <1>   0.1500 
 46 H        3.1070     2.6410    -4.1390 H     1 <1>   0.0800 
 47 H        2.5030     3.5300    -2.7640 H     1 <1>   0.0800 
 48 H        5.3540     3.6440    -3.8170 H     1 <1>   0.0800 
 49 H        4.7520     4.5610    -2.4460 H     1 <1>   0.0800 
 50 H        4.1480     4.8830    -4.0530 H     1 <1>   0.0800 
@<TRIPOS>BOND
  1   1   2  1   
  2   1  26  1   
  3   2   3  1   
  4   2   4  1   
  5   2  27  1   
  6   3   5  1   
  7   3   6  1   
  8   3  28  1   
  9   4   7  1   
 10   4  29  1   
 11   4  30  1   
 12   5   7  1   
 13   5  31  1   
 14   5  32  1   
 15   6   8  1   
 16   6  33  1   
 17   6  34  1   
 18   7   9  1   
 19   7  35  1   
 20   8  10  ar  
 21   8  11  ar  
 22   9  12  1   
 23   9  36  1   
 24   9  37  1   
 25  10  13  ar  
 26  10  14  ar  
 27  11  15  ar  
 28  11  38  1   
 29  12  16  1   
 30  12  17  2   
 31  13  18  ar  
 32  13  19  ar  
 33  14  20  ar  
 34  14  39  1   
 35  15  18  ar  
 36  15  40  1   
 37  16  21  2   
 38  16  41  1   
 39  17  22  1   
 40  17  42  1   
 41  19  23  ar  
 42  19  43  1   
 43  20  23  ar  
 44  20  44  1   
 45  21  22  1   
 46  22  24  1   
 47  23  45  1   
 48  24  25  1   
 49  24  46  1   
 50  24  47  1   
 51  25  48  1   
 52  25  49  1   
 53  25  50  1   
@<TRIPOS>SUBSTRUCTURE
  1 ****   7 GROUP 4 **** **** 0

# MOE 2024.06 (io_trps.svl 2023.06)
