@<TRIPOS>MOLECULE
NONAME
66 68 1 0 0 
SMALL
USER_CHARGES


@<TRIPOS>ATOM
  1 O        1.5900     0.5880    -1.3470 O.3   1 <1>  -0.6800 
  2 C        2.4430    -0.4640    -1.7190 C.3   1 <1>   0.1200 
  3 C        3.6300    -0.5900    -0.7390 C.3   1 <1>   0.3430 
  4 N        3.2170    -0.1050     0.6180 N.4   1 <1>  -0.9590 
  5 C        4.1670     0.8640     1.2240 C.3   1 <1>   0.4860 
  6 C        2.8890    -1.2160     1.5680 C.3   1 <1>   0.5240 
  7 C        4.5390     1.9640     0.2340 C.ar  1 <1>  -0.1430 
  8 C        1.8800    -2.2060     0.9960 C.2   1 <1>   0.0460 
  9 C        5.8290     2.0560    -0.2760 C.ar  1 <1>  -0.1430 
 10 C        3.5790     2.8790    -0.1780 C.ar  1 <1>  -0.1500 
 11 N        2.2670    -3.1650     0.1290 N.2   1 <1>  -0.5650 
 12 C        0.5560    -2.3000     1.2510 C.2   1 <1>  -0.3020 
 13 C        6.1230     3.0440    -1.2000 C.ar  1 <1>  -0.1500 
 14 C        6.9420     1.1020     0.1430 C.3   1 <1>  -0.0970 
 15 C        3.8810     3.8740    -1.0970 C.ar  1 <1>  -0.1430 
 16 C        1.1820    -3.8220    -0.1190 C.2   1 <1>   0.0060 
 17 N        0.1010    -3.3430     0.5330 N.pl3 1 <1>   0.0330 
 18 C        5.1650     3.9480    -1.6250 C.ar  1 <1>  -0.1430 
 19 C        2.7980     4.8600    -1.5130 C.3   1 <1>   0.4860 
 20 C        1.1130    -5.0200    -1.0430 C.3   1 <1>  -0.0600 
 21 C        5.5640     4.9850    -2.6710 C.3   1 <1>  -0.0970 
 22 N        2.5370     5.8130    -0.3980 N.4   1 <1>  -0.9590 
 23 C        1.3800     6.7020    -0.7010 C.3   1 <1>   0.3430 
 24 C        3.7560     6.5960    -0.0380 C.3   1 <1>   0.3430 
 25 C        1.0510     7.5510     0.5270 C.3   1 <1>  -0.1600 
 26 C        3.4740     7.4420     1.2030 C.3   1 <1>  -0.1600 
 27 C        2.2650     8.3660     0.9960 C.3   1 <1>  -0.0800 
 28 C        1.9400     9.1250     2.2870 C.3   1 <1>  -0.2400 
 29 H        0.8120     0.6040    -1.9470 H     1 <1>   0.4000 
 30 H        2.8030    -0.2860    -2.7180 H     1 <1>   0.0800 
 31 H        1.8680    -1.3740    -1.7230 H     1 <1>   0.0800 
 32 H        4.4400     0.0080    -1.1210 H     1 <1>   0.0800 
 33 H        3.9710    -1.6120    -0.7010 H     1 <1>   0.0800 
 34 H        2.3370     0.3870     0.3890 H     1 <1>   0.4500 
 35 H        5.0570     0.3460     1.5370 H     1 <1>   0.0800 
 36 H        3.7230     1.3130     2.0970 H     1 <1>   0.0800 
 37 H        2.4810    -0.8040     2.4750 H     1 <1>   0.0800 
 38 H        3.7840    -1.7590     1.8190 H     1 <1>   0.0800 
 39 H        2.5790     2.8040     0.2150 H     1 <1>   0.1500 
 40 H       -0.0800    -1.7100     1.8890 H     1 <1>   0.1500 
 41 H        7.1210     3.1070    -1.6010 H     1 <1>   0.1500 
 42 H        6.6770     0.0850    -0.0810 H     1 <1>   0.0800 
 43 H        7.1380     1.1950     1.1970 H     1 <1>   0.0800 
 44 H        7.8570     1.3240    -0.3790 H     1 <1>   0.0800 
 45 H       -0.8550    -3.7130     0.4930 H     1 <1>   0.2700 
 46 H        1.8990     4.3130    -1.7490 H     1 <1>   0.0800 
 47 H        3.1030     5.3980    -2.3950 H     1 <1>   0.0800 
 48 H        2.0880    -5.2290    -1.4470 H     1 <1>   0.0800 
 49 H        0.4380    -4.8240    -1.8570 H     1 <1>   0.0800 
 50 H        0.7750    -5.8850    -0.5020 H     1 <1>   0.0800 
 51 H        6.5860     4.8460    -2.9790 H     1 <1>   0.0800 
 52 H        5.4740     5.9810    -2.2800 H     1 <1>   0.0800 
 53 H        4.9480     4.8890    -3.5470 H     1 <1>   0.0800 
 54 H        2.3000     5.2540     0.4280 H     1 <1>   0.4500 
 55 H        0.5160     6.1130    -0.9690 H     1 <1>   0.0800 
 56 H        1.6220     7.3490    -1.5290 H     1 <1>   0.0800 
 57 H        4.0330     7.2400    -0.8570 H     1 <1>   0.0800 
 58 H        4.5810     5.9310     0.1650 H     1 <1>   0.0800 
 59 H        0.7020     6.9120     1.3200 H     1 <1>   0.0800 
 60 H        0.2460     8.2220     0.2790 H     1 <1>   0.0800 
 61 H        4.3440     8.0370     1.4220 H     1 <1>   0.0800 
 62 H        3.3100     6.7940     2.0460 H     1 <1>   0.0800 
 63 H        2.5100     9.0900     0.2350 H     1 <1>   0.0800 
 64 H        1.6870     8.4460     3.0830 H     1 <1>   0.0800 
 65 H        1.1090     9.7910     2.1320 H     1 <1>   0.0800 
 66 H        2.7840     9.7150     2.5980 H     1 <1>   0.0800 
@<TRIPOS>BOND
  1   1   2  1   
  2   1  29  1   
  3   2   3  1   
  4   2  30  1   
  5   2  31  1   
  6   3   4  1   
  7   3  32  1   
  8   3  33  1   
  9   4   5  1   
 10   4   6  1   
 11   4  34  1   
 12   5   7  1   
 13   5  35  1   
 14   5  36  1   
 15   6   8  1   
 16   6  37  1   
 17   6  38  1   
 18   7   9  ar  
 19   7  10  ar  
 20   8  11  1   
 21   8  12  2   
 22   9  13  ar  
 23   9  14  1   
 24  10  15  ar  
 25  10  39  1   
 26  11  16  2   
 27  12  17  1   
 28  12  40  1   
 29  13  18  ar  
 30  13  41  1   
 31  14  42  1   
 32  14  43  1   
 33  14  44  1   
 34  15  18  ar  
 35  15  19  1   
 36  16  17  1   
 37  16  20  1   
 38  17  45  1   
 39  18  21  1   
 40  19  22  1   
 41  19  46  1   
 42  19  47  1   
 43  20  48  1   
 44  20  49  1   
 45  20  50  1   
 46  21  51  1   
 47  21  52  1   
 48  21  53  1   
 49  22  23  1   
 50  22  24  1   
 51  22  54  1   
 52  23  25  1   
 53  23  55  1   
 54  23  56  1   
 55  24  26  1   
 56  24  57  1   
 57  24  58  1   
 58  25  27  1   
 59  25  59  1   
 60  25  60  1   
 61  26  27  1   
 62  26  61  1   
 63  26  62  1   
 64  27  28  1   
 65  27  63  1   
 66  28  64  1   
 67  28  65  1   
 68  28  66  1   
@<TRIPOS>SUBSTRUCTURE
  1 ****  10 GROUP 4 **** **** 0

# MOE 2024.06 (io_trps.svl 2023.06)
