@<TRIPOS>MOLECULE
NONAME
59 61 1 0 0 
SMALL
USER_CHARGES


@<TRIPOS>ATOM
  1 O        0.6110     0.8590    -0.5090 O.2   1 <1>  -0.5700 
  2 C        0.3650     2.0360    -0.3860 C.2   1 <1>   0.5690 
  3 N       -0.8150     2.4890     0.1380 N.am  1 <1>  -0.6600 
  4 C        1.4150     3.0380    -0.8660 C.3   1 <1>   0.1810 
  5 C       -1.1010     3.9570     0.2790 C.3   1 <1>   0.3640 
  6 C       -1.8440     1.5630     0.6940 C.3   1 <1>   0.0600 
  7 O        1.2770     4.3090    -0.2780 O.3   1 <1>  -0.5600 
  8 C       -2.4860     4.2510    -0.3220 C.ar  1 <1>  -0.1430 
  9 C       -0.0250     4.8580    -0.3920 C.3   1 <1>   0.2610 
 10 C       -3.5380     4.7920     0.4190 C.ar  1 <1>  -0.1430 
 11 C       -2.6980     3.9520    -1.6650 C.ar  1 <1>  -0.1500 
 12 C       -0.0380     6.2940     0.1600 C.2   1 <1>   0.5690 
 13 C       -4.7530     5.0470    -0.2020 C.ar  1 <1>  -0.1500 
 14 C       -3.4260     5.1170     1.9040 C.3   1 <1>  -0.0960 
 15 C       -3.9130     4.2060    -2.2730 C.ar  1 <1>  -0.1500 
 16 O       -0.4880     6.4940     1.2670 O.2   1 <1>  -0.5700 
 17 N        0.4960     7.3360    -0.5690 N.am  1 <1>  -0.6600 
 18 C       -4.9420     4.7600    -1.5400 C.ar  1 <1>  -0.1500 
 19 C        0.4980     8.7140    -0.0280 C.3   1 <1>   0.1400 
 20 C        1.4390     7.1670    -1.7010 C.3   1 <1>   0.1400 
 21 C        1.8800     8.9790     0.5760 C.3   1 <1>  -0.1600 
 22 C        2.8550     7.3800    -1.1590 C.3   1 <1>  -0.1600 
 23 C        3.0230     8.7380    -0.4410 C.3   1 <1>  -0.0800 
 24 C        4.4070     8.7670     0.2300 C.3   1 <1>   0.3430 
 25 N        4.6260    10.0070     1.0360 N.4   1 <1>  -0.9590 
 26 C        4.7490    11.2290     0.1800 C.3   1 <1>   0.2630 
 27 C        5.8300     9.8550     1.9090 C.3   1 <1>   0.2630 
 28 H        1.3450     3.1450    -1.9330 H     1 <1>   0.0800 
 29 H        2.3920     2.6690    -0.6180 H     1 <1>   0.0800 
 30 H       -1.0990     4.1700     1.3310 H     1 <1>   0.0800 
 31 H       -2.1030     1.8620     1.6950 H     1 <1>   0.0800 
 32 H       -1.4720     0.5530     0.7230 H     1 <1>   0.0800 
 33 H       -2.7270     1.5860     0.0800 H     1 <1>   0.0800 
 34 H       -0.2490     4.9210    -1.4390 H     1 <1>   0.0800 
 35 H       -1.9140     3.5050    -2.2510 H     1 <1>   0.1500 
 36 H       -5.5670     5.4740     0.3570 H     1 <1>   0.1500 
 37 H       -4.3950     5.3110     2.3280 H     1 <1>   0.0800 
 38 H       -2.8220     5.9930     2.0500 H     1 <1>   0.0800 
 39 H       -2.9960     4.2940     2.4440 H     1 <1>   0.0800 
 40 H       -4.0570     3.9710    -3.3130 H     1 <1>   0.1500 
 41 H       -5.8900     4.9640    -2.0070 H     1 <1>   0.1500 
 42 H        0.2880     9.4110    -0.8210 H     1 <1>   0.0800 
 43 H       -0.2660     8.8290     0.7240 H     1 <1>   0.0800 
 44 H        1.3590     6.1900    -2.1410 H     1 <1>   0.0800 
 45 H        1.2140     7.8940    -2.4640 H     1 <1>   0.0800 
 46 H        1.8950     9.9930     0.9320 H     1 <1>   0.0800 
 47 H        1.9950     8.3260     1.4250 H     1 <1>   0.0800 
 48 H        3.0670     6.5730    -0.4770 H     1 <1>   0.0800 
 49 H        3.5530     7.3050    -1.9750 H     1 <1>   0.0800 
 50 H        2.9770     9.5040    -1.1960 H     1 <1>   0.0800 
 51 H        5.1750     8.6780    -0.5210 H     1 <1>   0.0800 
 52 H        4.4810     7.9090     0.8790 H     1 <1>   0.0800 
 53 H        3.8020    10.1160     1.6480 H     1 <1>   0.4500 
 54 H        5.5870    11.1330    -0.4910 H     1 <1>   0.0800 
 55 H        4.8980    12.1020     0.7950 H     1 <1>   0.0800 
 56 H        3.8540    11.3720    -0.4030 H     1 <1>   0.0800 
 57 H        6.7160     9.7250     1.3090 H     1 <1>   0.0800 
 58 H        5.7210     8.9970     2.5530 H     1 <1>   0.0800 
 59 H        5.9580    10.7300     2.5260 H     1 <1>   0.0800 
@<TRIPOS>BOND
  1   1   2  2   
  2   2   3  am  
  3   2   4  1   
  4   3   5  1   
  5   3   6  1   
  6   4   7  1   
  7   4  28  1   
  8   4  29  1   
  9   5   8  1   
 10   5   9  1   
 11   5  30  1   
 12   6  31  1   
 13   6  32  1   
 14   6  33  1   
 15   7   9  1   
 16   8  10  ar  
 17   8  11  ar  
 18   9  12  1   
 19   9  34  1   
 20  10  13  ar  
 21  10  14  1   
 22  11  15  ar  
 23  11  35  1   
 24  12  16  2   
 25  12  17  am  
 26  13  18  ar  
 27  13  36  1   
 28  14  37  1   
 29  14  38  1   
 30  14  39  1   
 31  15  18  ar  
 32  15  40  1   
 33  17  19  1   
 34  17  20  1   
 35  18  41  1   
 36  19  21  1   
 37  19  42  1   
 38  19  43  1   
 39  20  22  1   
 40  20  44  1   
 41  20  45  1   
 42  21  23  1   
 43  21  46  1   
 44  21  47  1   
 45  22  23  1   
 46  22  48  1   
 47  22  49  1   
 48  23  24  1   
 49  23  50  1   
 50  24  25  1   
 51  24  51  1   
 52  24  52  1   
 53  25  26  1   
 54  25  27  1   
 55  25  53  1   
 56  26  54  1   
 57  26  55  1   
 58  26  56  1   
 59  27  57  1   
 60  27  58  1   
 61  27  59  1   
@<TRIPOS>SUBSTRUCTURE
  1 ****  12 GROUP 4 **** **** 0

# MOE 2024.06 (io_trps.svl 2023.06)
