@<TRIPOS>MOLECULE
NONAME
55 57 1 0 0 
SMALL
USER_CHARGES


@<TRIPOS>ATOM
  1 S       -0.6400     0.1000     1.4380 S.o2  1 <1>   1.4470 
  2 O        0.2840    -0.2310     2.5030 O.2   1 <1>  -0.6500 
  3 O       -2.0630    -0.0170     1.6740 O.2   1 <1>  -0.6500 
  4 N       -0.3370     1.7180     1.0280 N.am  1 <1>  -0.8490 
  5 C       -0.2080    -0.8020    -0.0760 C.ar  1 <1>  -0.0090 
  6 C        1.0980     1.9860     0.8810 C.3   1 <1>   0.1960 
  7 C       -0.9490     2.6310     1.9980 C.3   1 <1>   0.1960 
  8 C        0.7130    -1.8440    -0.0600 C.ar  1 <1>  -0.1500 
  9 C       -0.7910    -0.4690    -1.2940 C.ar  1 <1>  -0.1500 
 10 C        1.3100     3.4030     0.3500 C.3   1 <1>  -0.1600 
 11 C       -0.8060     4.0770     1.5190 C.3   1 <1>  -0.1600 
 12 C        1.0460    -2.5260    -1.2180 C.ar  1 <1>  -0.1500 
 13 C       -0.4640    -1.1450    -2.4570 C.ar  1 <1>  -0.1500 
 14 C        0.6630     4.4190     1.2870 C.3   1 <1>   0.2200 
 15 C        0.4570    -2.1760    -2.4190 C.ar  1 <1>  -0.1500 
 16 N        0.7590     5.7580     0.6880 N.am  1 <1>  -0.7300 
 17 C        1.4980     6.7840     1.1820 C.2   1 <1>   0.5690 
 18 O        2.1500     6.6730     2.1910 O.2   1 <1>  -0.5700 
 19 C        1.5000     8.1200     0.4440 C.3   1 <1>  -0.0190 
 20 C        0.0860     8.7250     0.3430 C.3   1 <1>  -0.1600 
 21 C        2.1690     8.0110    -0.9480 C.3   1 <1>  -0.1600 
 22 C        0.1050    10.1470    -0.2570 C.3   1 <1>   0.2000 
 23 C        1.7400     9.1200    -1.9300 C.3   1 <1>  -0.1600 
 24 O       -1.0850    10.3260    -0.9840 O.3   1 <1>  -0.5600 
 25 C        1.3190    10.3930    -1.1930 C.3   1 <1>   0.2000 
 26 C       -2.1980    10.6750    -0.2200 C.3   1 <1>   0.0400 
 27 O        0.9780    11.3400    -2.1370 O.3   1 <1>  -0.6800 
 28 H        1.5960     1.8710     1.8310 H     1 <1>   0.0800 
 29 H        1.5320     1.2850     0.1870 H     1 <1>   0.0800 
 30 H       -1.9990     2.4080     2.1000 H     1 <1>   0.0800 
 31 H       -0.4850     2.5070     2.9630 H     1 <1>   0.0800 
 32 H        1.1760    -2.1260     0.8710 H     1 <1>   0.1500 
 33 H       -1.5100     0.3330    -1.3270 H     1 <1>   0.1500 
 34 H        0.8800     3.4720    -0.6340 H     1 <1>   0.0800 
 35 H        2.3640     3.6010     0.2810 H     1 <1>   0.0800 
 36 H       -1.2150     4.7360     2.2630 H     1 <1>   0.0800 
 37 H       -1.3660     4.1930     0.6090 H     1 <1>   0.0800 
 38 H        1.7610    -3.3300    -1.1840 H     1 <1>   0.1500 
 39 H       -0.9280    -0.8700    -3.3890 H     1 <1>   0.1500 
 40 H        1.1820     4.4050     2.2330 H     1 <1>   0.0800 
 41 H        0.7120    -2.7050    -3.3210 H     1 <1>   0.1500 
 42 H        0.2320     5.8900    -0.1760 H     1 <1>   0.3700 
 43 H        2.0920     8.7960     1.0380 H     1 <1>   0.0800 
 44 H       -0.3560     8.7620     1.3230 H     1 <1>   0.0800 
 45 H       -0.5190     8.0870    -0.2780 H     1 <1>   0.0800 
 46 H        3.2370     8.0520    -0.8100 H     1 <1>   0.0800 
 47 H        1.9470     7.0600    -1.4000 H     1 <1>   0.0800 
 48 H        0.1470    10.8810     0.5300 H     1 <1>   0.0800 
 49 H        0.9020     8.7700    -2.5090 H     1 <1>   0.0800 
 50 H        2.5500     9.3380    -2.6050 H     1 <1>   0.0800 
 51 H        2.1550    10.7730    -0.6310 H     1 <1>   0.0800 
 52 H       -3.0360    10.7900    -0.8850 H     1 <1>   0.0800 
 53 H       -2.0060    11.6080     0.2820 H     1 <1>   0.0800 
 54 H       -2.4060     9.8960     0.4920 H     1 <1>   0.0800 
 55 H        0.0090    11.2390    -2.2790 H     1 <1>   0.4000 
@<TRIPOS>BOND
  1   1   2  2   
  2   1   3  2   
  3   1   4  am  
  4   1   5  1   
  5   4   6  1   
  6   4   7  1   
  7   5   8  ar  
  8   5   9  ar  
  9   6  10  1   
 10   6  28  1   
 11   6  29  1   
 12   7  11  1   
 13   7  30  1   
 14   7  31  1   
 15   8  12  ar  
 16   8  32  1   
 17   9  13  ar  
 18   9  33  1   
 19  10  14  1   
 20  10  34  1   
 21  10  35  1   
 22  11  14  1   
 23  11  36  1   
 24  11  37  1   
 25  12  15  ar  
 26  12  38  1   
 27  13  15  ar  
 28  13  39  1   
 29  14  16  1   
 30  14  40  1   
 31  15  41  1   
 32  16  17  am  
 33  16  42  1   
 34  17  18  2   
 35  17  19  1   
 36  19  20  1   
 37  19  21  1   
 38  19  43  1   
 39  20  22  1   
 40  20  44  1   
 41  20  45  1   
 42  21  23  1   
 43  21  46  1   
 44  21  47  1   
 45  22  24  1   
 46  22  25  1   
 47  22  48  1   
 48  23  25  1   
 49  23  49  1   
 50  23  50  1   
 51  24  26  1   
 52  25  27  1   
 53  25  51  1   
 54  26  52  1   
 55  26  53  1   
 56  26  54  1   
 57  27  55  1   
@<TRIPOS>SUBSTRUCTURE
  1 ****  14 GROUP 4 **** **** 0

# MOE 2024.06 (io_trps.svl 2023.06)
