@<TRIPOS>MOLECULE
NONAME
50 51 1 0 0 
SMALL
USER_CHARGES


@<TRIPOS>ATOM
  1 S        1.8850    -0.3550     0.8530 S.o2  1 <1>   1.3330 
  2 O        1.7200     0.3780     2.0880 O.2   1 <1>  -0.6500 
  3 O        2.9800    -1.2900     0.7210 O.2   1 <1>  -0.6500 
  4 N        0.4470    -1.2040     0.5460 N.am  1 <1>  -0.8490 
  5 C        1.9240     0.8350    -0.4870 C.3   1 <1>  -0.0550 
  6 C        0.6070    -2.2850    -0.4330 C.3   1 <1>   0.1160 
  7 C       -0.1610    -1.7300     1.7730 C.3   1 <1>   0.1160 
  8 C        3.1010     1.8280    -0.4040 C.3   1 <1>  -0.0800 
  9 C        2.9440     2.9410    -1.4260 C.3   1 <1>   0.2200 
 10 C        4.4180     1.1920    -0.8490 C.3   1 <1>   0.1200 
 11 N        3.7110     4.1230    -0.9790 N.am  1 <1>  -0.7300 
 12 C        3.5890     2.3370    -2.6730 C.3   1 <1>   0.1200 
 13 O        4.4690     1.3430    -2.2350 O.3   1 <1>  -0.5600 
 14 C        3.1770     5.3300    -0.6620 C.2   1 <1>   0.5690 
 15 O        1.9910     5.5360    -0.7370 O.2   1 <1>  -0.5700 
 16 C        4.0840     6.4580    -0.1980 C.3   1 <1>   0.0440 
 17 C        5.5650     6.0850    -0.1810 C.ar  1 <1>  -0.1440 
 18 C        6.3510     6.2800    -1.3040 C.ar  1 <1>  -0.1500 
 19 C        6.1370     5.5340     0.9540 C.ar  1 <1>  -0.1500 
 20 C        7.6910     5.9350    -1.2870 C.ar  1 <1>  -0.1500 
 21 C        7.4790     5.1940     0.9630 C.ar  1 <1>  -0.1500 
 22 C        8.2820     5.3900    -0.1540 C.ar  1 <1>  -0.0090 
 23 S       10.0480     4.9930    -0.1210 S.o2  1 <1>   1.2040 
 24 O       10.3140     4.0490     0.9410 O.2   1 <1>  -0.6500 
 25 O       10.5080     4.7240    -1.4640 O.2   1 <1>  -0.6500 
 26 C       10.7630     6.5480     0.3740 C.3   1 <1>  -0.1350 
 27 H        1.9560     0.3170    -1.4260 H     1 <1>   0.0800 
 28 H        1.0070     1.3930    -0.4530 H     1 <1>   0.0800 
 29 H       -0.3500    -2.7250    -0.6580 H     1 <1>   0.0800 
 30 H        1.2620    -3.0490    -0.0480 H     1 <1>   0.0800 
 31 H        1.0260    -1.9000    -1.3470 H     1 <1>   0.0800 
 32 H       -1.0760    -2.2490     1.5440 H     1 <1>   0.0800 
 33 H       -0.3930    -0.9210     2.4460 H     1 <1>   0.0800 
 34 H        0.5180    -2.4060     2.2670 H     1 <1>   0.0800 
 35 H        3.1640     2.2200     0.5970 H     1 <1>   0.0800 
 36 H        1.9150     3.2120    -1.6010 H     1 <1>   0.0800 
 37 H        4.5060     0.1480    -0.6060 H     1 <1>   0.0800 
 38 H        5.2570     1.7240    -0.4330 H     1 <1>   0.0800 
 39 H        4.7270     4.0020    -0.9250 H     1 <1>   0.3700 
 40 H        4.1290     3.0670    -3.2500 H     1 <1>   0.0800 
 41 H        2.8470     1.8610    -3.2900 H     1 <1>   0.0800 
 42 H        3.9290     7.3000    -0.8470 H     1 <1>   0.0800 
 43 H        3.7720     6.7520     0.7870 H     1 <1>   0.0800 
 44 H        5.9240     6.7010    -2.2000 H     1 <1>   0.1500 
 45 H        5.5420     5.3660     1.8360 H     1 <1>   0.1500 
 46 H        8.2870     6.0900    -2.1720 H     1 <1>   0.1500 
 47 H        7.9080     4.7650     1.8540 H     1 <1>   0.1500 
 48 H       10.3900     6.8430     1.3350 H     1 <1>   0.0800 
 49 H       10.5270     7.3130    -0.3400 H     1 <1>   0.0800 
 50 H       11.8300     6.4570     0.4350 H     1 <1>   0.0800 
@<TRIPOS>BOND
  1   1   2  2   
  2   1   3  2   
  3   1   4  am  
  4   1   5  1   
  5   4   6  1   
  6   4   7  1   
  7   5   8  1   
  8   5  27  1   
  9   5  28  1   
 10   6  29  1   
 11   6  30  1   
 12   6  31  1   
 13   7  32  1   
 14   7  33  1   
 15   7  34  1   
 16   8   9  1   
 17   8  10  1   
 18   8  35  1   
 19   9  11  1   
 20   9  12  1   
 21   9  36  1   
 22  10  13  1   
 23  10  37  1   
 24  10  38  1   
 25  11  14  am  
 26  11  39  1   
 27  12  13  1   
 28  12  40  1   
 29  12  41  1   
 30  14  15  2   
 31  14  16  1   
 32  16  17  1   
 33  16  42  1   
 34  16  43  1   
 35  17  18  ar  
 36  17  19  ar  
 37  18  20  ar  
 38  18  44  1   
 39  19  21  ar  
 40  19  45  1   
 41  20  22  ar  
 42  20  46  1   
 43  21  22  ar  
 44  21  47  1   
 45  22  23  1   
 46  23  24  2   
 47  23  25  2   
 48  23  26  1   
 49  26  48  1   
 50  26  49  1   
 51  26  50  1   
@<TRIPOS>SUBSTRUCTURE
  1 ****  11 GROUP 4 **** **** 0

# MOE 2024.06 (io_trps.svl 2023.06)
