@<TRIPOS>MOLECULE
NONAME
47 48 1 0 0 
SMALL
USER_CHARGES


@<TRIPOS>ATOM
  1 O        0.0780     0.0390    -1.7160 O.2   1 <1>  -0.5700 
  2 C        0.8870    -0.5970    -1.0870 C.2   1 <1>   0.5690 
  3 N        1.8950    -0.0330    -0.3470 N.am  1 <1>  -0.5470 
  4 C        0.7370    -2.1280    -1.1120 C.3   1 <1>   0.4040 
  5 C        2.1780     1.3170    -0.0740 C.ar  1 <1>   0.1170 
  6 N       -0.4370    -2.6710    -0.3090 N.4   1 <1>  -0.9590 
  7 C        3.4830     1.6890     0.2590 C.ar  1 <1>  -0.1430 
  8 C        1.1890     2.2970    -0.0960 C.ar  1 <1>  -0.1500 
  9 C       -0.3920    -4.1690    -0.2610 C.3   1 <1>   0.3430 
 10 C       -1.7340    -2.1630    -0.8800 C.3   1 <1>   0.2630 
 11 C        3.7650     3.0120     0.5570 C.ar  1 <1>  -0.1500 
 12 C        4.6240     0.6780     0.2990 C.3   1 <1>  -0.0970 
 13 C        1.4750     3.6180     0.1980 C.ar  1 <1>  -0.1430 
 14 C       -1.3860    -4.7590     0.7440 C.3   1 <1>   0.0210 
 15 C        2.7700     3.9710     0.5280 C.ar  1 <1>  -0.1500 
 16 C        0.3830     4.6720     0.1630 C.3   1 <1>  -0.0970 
 17 C       -1.1840    -6.2570     0.7900 C.2   1 <1>  -0.1810 
 18 C       -0.2220    -6.9490     1.5190 C.2   1 <1>   0.1390 
 19 C       -1.8730    -7.2170     0.1390 C.2   1 <1>  -0.3020 
 20 N       -0.2950    -8.2270     1.3280 N.2   1 <1>  -0.7070 
 21 N       -1.3220    -8.3990     0.4820 N.pl3 1 <1>   0.3140 
 22 C       -1.7320    -9.7360     0.0370 C.3   1 <1>   0.0160 
 23 H        2.6160    -0.6490     0.0250 H     1 <1>   0.3700 
 24 H        1.6520    -2.5590    -0.7440 H     1 <1>   0.0800 
 25 H        0.6280    -2.4240    -2.1410 H     1 <1>   0.0800 
 26 H       -0.3560    -2.3020     0.6510 H     1 <1>   0.4500 
 27 H        0.1780     2.0350    -0.3420 H     1 <1>   0.1500 
 28 H        0.5980    -4.4900     0.0230 H     1 <1>   0.0800 
 29 H       -0.6000    -4.5760    -1.2380 H     1 <1>   0.0800 
 30 H       -1.8490    -2.4880    -1.9010 H     1 <1>   0.0800 
 31 H       -1.7580    -1.0840    -0.8640 H     1 <1>   0.0800 
 32 H       -2.5710    -2.5240    -0.3050 H     1 <1>   0.0800 
 33 H        4.7660     3.3130     0.8160 H     1 <1>   0.1500 
 34 H        4.7000     0.1660    -0.6430 H     1 <1>   0.0800 
 35 H        4.4620    -0.0340     1.0870 H     1 <1>   0.0800 
 36 H        5.5630     1.1690     0.4820 H     1 <1>   0.0800 
 37 H       -2.3970    -4.5590     0.4420 H     1 <1>   0.0800 
 38 H       -1.2220    -4.3530     1.7260 H     1 <1>   0.0800 
 39 H        3.0090     4.9940     0.7620 H     1 <1>   0.1500 
 40 H       -0.4210     4.3650    -0.4810 H     1 <1>   0.0800 
 41 H        0.7750     5.6020    -0.2070 H     1 <1>   0.0800 
 42 H       -0.0050     4.8270     1.1540 H     1 <1>   0.0800 
 43 H        0.5080    -6.5020     2.1730 H     1 <1>   0.1500 
 44 H       -2.7090    -7.1420    -0.5330 H     1 <1>   0.1500 
 45 H       -2.7010    -9.6850    -0.4230 H     1 <1>   0.0800 
 46 H       -1.7690   -10.3900     0.8890 H     1 <1>   0.0800 
 47 H       -1.0110   -10.1070    -0.6660 H     1 <1>   0.0800 
@<TRIPOS>BOND
  1   1   2  2   
  2   2   3  am  
  3   2   4  1   
  4   3   5  1   
  5   3  23  1   
  6   4   6  1   
  7   4  24  1   
  8   4  25  1   
  9   5   7  ar  
 10   5   8  ar  
 11   6   9  1   
 12   6  10  1   
 13   6  26  1   
 14   7  11  ar  
 15   7  12  1   
 16   8  13  ar  
 17   8  27  1   
 18   9  14  1   
 19   9  28  1   
 20   9  29  1   
 21  10  30  1   
 22  10  31  1   
 23  10  32  1   
 24  11  15  ar  
 25  11  33  1   
 26  12  34  1   
 27  12  35  1   
 28  12  36  1   
 29  13  15  ar  
 30  13  16  1   
 31  14  17  1   
 32  14  37  1   
 33  14  38  1   
 34  15  39  1   
 35  16  40  1   
 36  16  41  1   
 37  16  42  1   
 38  17  18  1   
 39  17  19  2   
 40  18  20  2   
 41  18  43  1   
 42  19  21  1   
 43  19  44  1   
 44  20  21  1   
 45  21  22  1   
 46  22  45  1   
 47  22  46  1   
 48  22  47  1   
@<TRIPOS>SUBSTRUCTURE
  1 ****   4 GROUP 4 **** **** 0

# MOE 2024.06 (io_trps.svl 2023.06)
