@<TRIPOS>MOLECULE
NONAME
37 38 1 0 0 
SMALL
USER_CHARGES


@<TRIPOS>ATOM
  1 F       -0.2030     0.5210     1.0190 F     1 <1>  -0.1900 
  2 C       -1.1420     1.1920     0.4080 C.ar  1 <1>   0.1900 
  3 C       -1.1940     2.5630     0.5740 C.ar  1 <1>  -0.1500 
  4 C       -2.0450     0.5070    -0.3810 C.ar  1 <1>  -0.1500 
  5 C       -2.1880     3.2790    -0.0760 C.ar  1 <1>  -0.1440 
  6 C       -3.0360     1.2270    -1.0260 C.ar  1 <1>  -0.1500 
  7 C       -3.1040     2.6040    -0.8720 C.ar  1 <1>  -0.1500 
  8 C       -2.2720     4.7890     0.0750 C.3   1 <1>  -0.0160 
  9 C       -1.5560     5.4790    -1.0920 C.3   1 <1>  -0.0990 
 10 C       -1.5660     6.9830    -0.9210 C.2   1 <1>   0.5690 
 11 O       -2.5890     7.5720    -1.1580 O.2   1 <1>  -0.5700 
 12 N       -0.4160     7.5820    -0.4930 N.am  1 <1>  -0.4940 
 13 C       -0.1580     8.9350    -0.2470 C.2   1 <1>   0.2040 
 14 O       -1.0550     9.8720    -0.4500 O.3   1 <1>  -0.0190 
 15 C        0.9620     9.5350     0.2020 C.2   1 <1>  -0.1810 
 16 N       -0.5910    11.0610    -0.1620 N.2   1 <1>  -0.4100 
 17 C        0.6190    10.8860     0.2320 C.2   1 <1>   0.1080 
 18 C        2.2940     8.9170     0.5930 C.3   1 <1>   0.0210 
 19 C        1.5200    12.0230     0.6640 C.3   1 <1>  -0.0590 
 20 C        3.2690     8.9480    -0.5860 C.3   1 <1>  -0.2400 
 21 H       -0.4680     3.0470     1.2010 H     1 <1>   0.1500 
 22 H       -1.9720    -0.5610    -0.4850 H     1 <1>   0.1500 
 23 H       -3.7540     0.7190    -1.6470 H     1 <1>   0.1500 
 24 H       -3.8800     3.1520    -1.3800 H     1 <1>   0.1500 
 25 H       -1.8260     5.0880     1.0080 H     1 <1>   0.0800 
 26 H       -3.3040     5.0960     0.0960 H     1 <1>   0.0800 
 27 H       -2.0580     5.2380    -2.0110 H     1 <1>   0.0800 
 28 H       -0.5460     5.1210    -1.1640 H     1 <1>   0.0800 
 29 H        0.3760     6.9660    -0.3400 H     1 <1>   0.3700 
 30 H        2.1420     7.8990     0.9050 H     1 <1>   0.0800 
 31 H        2.7120     9.4530     1.4280 H     1 <1>   0.0800 
 32 H        2.3900    12.0600     0.0370 H     1 <1>   0.0800 
 33 H        1.8200    11.8840     1.6860 H     1 <1>   0.0800 
 34 H        0.9940    12.9570     0.5830 H     1 <1>   0.0800 
 35 H        2.8620     8.4050    -1.4200 H     1 <1>   0.0800 
 36 H        4.2060     8.5010    -0.3050 H     1 <1>   0.0800 
 37 H        3.4500     9.9620    -0.8940 H     1 <1>   0.0800 
@<TRIPOS>BOND
  1   1   2  1   
  2   2   3  ar  
  3   2   4  ar  
  4   3   5  ar  
  5   3  21  1   
  6   4   6  ar  
  7   4  22  1   
  8   5   7  ar  
  9   5   8  1   
 10   6   7  ar  
 11   6  23  1   
 12   7  24  1   
 13   8   9  1   
 14   8  25  1   
 15   8  26  1   
 16   9  10  1   
 17   9  27  1   
 18   9  28  1   
 19  10  11  2   
 20  10  12  am  
 21  12  13  1   
 22  12  29  1   
 23  13  14  1   
 24  13  15  2   
 25  14  16  1   
 26  15  17  1   
 27  15  18  1   
 28  16  17  2   
 29  17  19  1   
 30  18  20  1   
 31  18  30  1   
 32  18  31  1   
 33  19  32  1   
 34  19  33  1   
 35  19  34  1   
 36  20  35  1   
 37  20  36  1   
 38  20  37  1   
@<TRIPOS>SUBSTRUCTURE
  1 ****  10 GROUP 4 **** **** 0

# MOE 2024.06 (io_trps.svl 2023.06)
