@<TRIPOS>MOLECULE
NONAME
56 58 1 0 0 
SMALL
USER_CHARGES


@<TRIPOS>ATOM
  1 O       -0.9720     0.1840     2.1610 O.2   1 <1>  -0.5700 
  2 C       -1.2770     0.4790     1.0300 C.2   1 <1>   0.5690 
  3 N       -1.6430    -0.4670     0.1120 N.am  1 <1>  -0.6600 
  4 C       -1.2500     1.9480     0.6270 C.3   1 <1>  -0.0990 
  5 C       -1.6820    -1.9220     0.4940 C.3   1 <1>   0.3640 
  6 C       -2.1010    -0.1390    -1.2760 C.3   1 <1>   0.1400 
  7 C       -0.6940     2.8820     1.7120 C.3   1 <1>  -0.0160 
  8 C       -0.4140    -2.6730     0.0470 C.ar  1 <1>  -0.1440 
  9 C       -2.9740    -2.6180    -0.0470 C.3   1 <1>   0.2000 
 10 C       -2.5870    -1.3790    -2.0410 C.3   1 <1>   0.1200 
 11 C       -0.6890     4.3200     1.2170 C.ar  1 <1>  -0.1440 
 12 C       -0.2460    -3.9840     0.4800 C.ar  1 <1>  -0.1500 
 13 C        0.5800    -2.1120    -0.7510 C.ar  1 <1>  -0.1500 
 14 O       -3.4890    -2.0840    -1.2490 O.3   1 <1>  -0.5600 
 15 C       -4.1100    -2.5500     0.9810 C.3   1 <1>   0.1200 
 16 C        0.4190     4.8260     0.5520 C.ar  1 <1>  -0.1500 
 17 C       -1.7930     5.1350     1.4240 C.ar  1 <1>  -0.1500 
 18 C        0.8570    -4.7320     0.1080 C.ar  1 <1>   0.0830 
 19 C        1.6980    -2.8440    -1.1130 C.ar  1 <1>  -0.1500 
 20 O       -3.8400    -3.3950     2.0530 O.3   1 <1>  -0.6800 
 21 C        0.4240     6.1330     0.0980 C.ar  1 <1>  -0.1500 
 22 C       -1.7930     6.4440     0.9710 C.ar  1 <1>  -0.1500 
 23 O        0.9080    -6.0180     0.5350 O.3   1 <1>  -0.3630 
 24 C        1.8540    -4.1470    -0.6800 C.ar  1 <1>   0.0830 
 25 C       -0.6810     6.9380     0.3090 C.ar  1 <1>   0.0830 
 26 C        0.8950    -7.0170    -0.4620 C.3   1 <1>   0.0400 
 27 O        2.9890    -4.7960    -1.0370 O.3   1 <1>  -0.3630 
 28 O       -0.6650     8.2040    -0.1340 O.3   1 <1>  -0.5330 
 29 C        3.8860    -5.0930     0.0100 C.3   1 <1>   0.0400 
 30 H       -0.6450     2.0520    -0.2530 H     1 <1>   0.0800 
 31 H       -2.2520     2.2540     0.3900 H     1 <1>   0.0800 
 32 H       -1.7020    -2.0010     1.5670 H     1 <1>   0.0800 
 33 H       -2.9140     0.5640    -1.2220 H     1 <1>   0.0800 
 34 H       -1.2970     0.3200    -1.8230 H     1 <1>   0.0800 
 35 H        0.3070     2.5820     1.9710 H     1 <1>   0.0800 
 36 H       -1.2950     2.8060     2.6020 H     1 <1>   0.0800 
 37 H       -2.7700    -3.6530    -0.2470 H     1 <1>   0.0800 
 38 H       -1.7700    -2.0280    -2.3050 H     1 <1>   0.0800 
 39 H       -3.0960    -1.0850    -2.9420 H     1 <1>   0.0800 
 40 H       -0.9790    -4.4470     1.1170 H     1 <1>   0.1500 
 41 H        0.5080    -1.0980    -1.0940 H     1 <1>   0.1500 
 42 H       -5.0420    -2.8580     0.5400 H     1 <1>   0.0800 
 43 H       -4.2050    -1.5480     1.3630 H     1 <1>   0.0800 
 44 H        1.2830     4.2060     0.3870 H     1 <1>   0.1500 
 45 H       -2.6560     4.7510     1.9390 H     1 <1>   0.1500 
 46 H        2.4620    -2.4020    -1.7270 H     1 <1>   0.1500 
 47 H       -4.0360    -4.3250     1.8230 H     1 <1>   0.4000 
 48 H        1.2780     6.5340    -0.4170 H     1 <1>   0.1500 
 49 H       -2.6520     7.0670     1.1380 H     1 <1>   0.1500 
 50 H        0.7840    -7.9710     0.0200 H     1 <1>   0.0800 
 51 H        1.8210    -6.9900    -1.0070 H     1 <1>   0.0800 
 52 H        0.0660    -6.8380    -1.1230 H     1 <1>   0.0800 
 53 H       -1.4800     8.6920     0.0750 H     1 <1>   0.4500 
 54 H        4.7710    -5.5280    -0.4180 H     1 <1>   0.0800 
 55 H        3.4260    -5.7900     0.6870 H     1 <1>   0.0800 
 56 H        4.1330    -4.1820     0.5250 H     1 <1>   0.0800 
@<TRIPOS>BOND
  1   1   2  2   
  2   2   3  am  
  3   2   4  1   
  4   3   5  1   
  5   3   6  1   
  6   4   7  1   
  7   4  30  1   
  8   4  31  1   
  9   5   8  1   
 10   5   9  1   
 11   5  32  1   
 12   6  10  1   
 13   6  33  1   
 14   6  34  1   
 15   7  11  1   
 16   7  35  1   
 17   7  36  1   
 18   8  12  ar  
 19   8  13  ar  
 20   9  14  1   
 21   9  15  1   
 22   9  37  1   
 23  10  14  1   
 24  10  38  1   
 25  10  39  1   
 26  11  16  ar  
 27  11  17  ar  
 28  12  18  ar  
 29  12  40  1   
 30  13  19  ar  
 31  13  41  1   
 32  15  20  1   
 33  15  42  1   
 34  15  43  1   
 35  16  21  ar  
 36  16  44  1   
 37  17  22  ar  
 38  17  45  1   
 39  18  23  1   
 40  18  24  ar  
 41  19  24  ar  
 42  19  46  1   
 43  20  47  1   
 44  21  25  ar  
 45  21  48  1   
 46  22  25  ar  
 47  22  49  1   
 48  23  26  1   
 49  24  27  1   
 50  25  28  1   
 51  26  50  1   
 52  26  51  1   
 53  26  52  1   
 54  27  29  1   
 55  28  53  1   
 56  29  54  1   
 57  29  55  1   
 58  29  56  1   
@<TRIPOS>SUBSTRUCTURE
  1 ****   3 GROUP 4 **** **** 0

# MOE 2024.06 (io_trps.svl 2023.06)
