@<TRIPOS>MOLECULE
NONAME
46 47 1 0 0 
SMALL
USER_CHARGES


@<TRIPOS>ATOM
  1 CL      -2.1050    -0.0270     2.2690 Cl    1 <1>  -0.1770 
  2 C       -2.6690    -1.0440     0.9580 C.ar  1 <1>   0.1770 
  3 C       -3.0440    -0.5430    -0.2940 C.ar  1 <1>   0.0820 
  4 C       -2.7540    -2.3940     1.2360 C.ar  1 <1>  -0.1500 
  5 O       -2.9930     0.7520    -0.6920 O.3   1 <1>  -0.3630 
  6 C       -3.5240    -1.4380    -1.2380 C.ar  1 <1>  -0.1500 
  7 C       -3.2290    -3.2950     0.2860 C.ar  1 <1>   0.0860 
  8 C       -1.9990     1.6440    -0.2420 C.3   1 <1>   0.1200 
  9 C       -3.6110    -2.7890    -0.9540 C.ar  1 <1>  -0.1500 
 10 C       -3.3290    -4.7080     0.5770 C.2   1 <1>   0.5440 
 11 C       -1.8370     2.7440    -1.2920 C.3   1 <1>  -0.1600 
 12 O       -2.4550    -5.4540     0.1760 O.2   1 <1>  -0.5700 
 13 N       -4.3740    -5.2220     1.3120 N.am  1 <1>  -0.6600 
 14 C       -0.7690     3.7610    -0.8740 C.3   1 <1>  -0.2400 
 15 C       -4.5070    -6.6980     1.5190 C.3   1 <1>   0.3210 
 16 C       -5.5150    -4.3970     1.8300 C.3   1 <1>   0.1400 
 17 C       -5.5990    -7.2750     0.6230 C.2   1 <1>   0.0460 
 18 C       -6.4030    -3.7610     0.7390 C.3   1 <1>   0.1200 
 19 N       -6.8990    -7.2270     0.9890 N.2   1 <1>  -0.5650 
 20 C       -5.4660    -7.8580    -0.5910 C.2   1 <1>  -0.3320 
 21 O       -6.5650    -4.6010    -0.3510 O.3   1 <1>  -0.6800 
 22 C       -7.5210    -7.7840     0.0020 C.2   1 <1>   0.0360 
 23 N       -6.7060    -8.1900    -0.9920 N.pl3 1 <1>   0.0330 
 24 C       -4.2290    -8.1140    -1.4360 C.3   1 <1>  -0.0600 
 25 H       -2.4520    -2.7590     2.2010 H     1 <1>   0.1500 
 26 H       -3.8270    -1.0680    -2.2020 H     1 <1>   0.1500 
 27 H       -1.0770     1.1030    -0.1160 H     1 <1>   0.0800 
 28 H       -2.3200     2.0650     0.6940 H     1 <1>   0.0800 
 29 H       -3.9880    -3.4730    -1.6970 H     1 <1>   0.1500 
 30 H       -2.7780     3.2510    -1.4210 H     1 <1>   0.0800 
 31 H       -1.5550     2.2980    -2.2300 H     1 <1>   0.0800 
 32 H       -1.0400     4.2300     0.0560 H     1 <1>   0.0800 
 33 H       -0.6740     4.5240    -1.6270 H     1 <1>   0.0800 
 34 H        0.1850     3.2780    -0.7550 H     1 <1>   0.0800 
 35 H       -4.7510    -6.8970     2.5470 H     1 <1>   0.0800 
 36 H       -3.5780    -7.1950     1.3090 H     1 <1>   0.0800 
 37 H       -5.1290    -3.6180     2.4630 H     1 <1>   0.0800 
 38 H       -6.1430    -5.0140     2.4500 H     1 <1>   0.0800 
 39 H       -5.9800    -2.8380     0.3860 H     1 <1>   0.0800 
 40 H       -7.3780    -3.5500     1.1430 H     1 <1>   0.0800 
 41 H       -6.5740    -5.5410    -0.0330 H     1 <1>   0.4000 
 42 H       -8.5880    -7.9180    -0.0440 H     1 <1>   0.1500 
 43 H       -6.9790    -8.6420    -1.8700 H     1 <1>   0.2700 
 44 H       -3.3460    -7.7540    -0.9380 H     1 <1>   0.0800 
 45 H       -4.3120    -7.6000    -2.3770 H     1 <1>   0.0800 
 46 H       -4.1120    -9.1670    -1.6190 H     1 <1>   0.0800 
@<TRIPOS>BOND
  1   1   2  1   
  2   2   3  ar  
  3   2   4  ar  
  4   3   5  1   
  5   3   6  ar  
  6   4   7  ar  
  7   4  25  1   
  8   5   8  1   
  9   6   9  ar  
 10   6  26  1   
 11   7   9  ar  
 12   7  10  1   
 13   8  11  1   
 14   8  27  1   
 15   8  28  1   
 16   9  29  1   
 17  10  12  2   
 18  10  13  am  
 19  11  14  1   
 20  11  30  1   
 21  11  31  1   
 22  13  15  1   
 23  13  16  1   
 24  14  32  1   
 25  14  33  1   
 26  14  34  1   
 27  15  17  1   
 28  15  35  1   
 29  15  36  1   
 30  16  18  1   
 31  16  37  1   
 32  16  38  1   
 33  17  19  1   
 34  17  20  2   
 35  18  21  1   
 36  18  39  1   
 37  18  40  1   
 38  19  22  2   
 39  20  23  1   
 40  20  24  1   
 41  21  41  1   
 42  22  23  1   
 43  22  42  1   
 44  23  43  1   
 45  24  44  1   
 46  24  45  1   
 47  24  46  1   
@<TRIPOS>SUBSTRUCTURE
  1 ****   7 GROUP 4 **** **** 0

# MOE 2024.06 (io_trps.svl 2023.06)
