@<TRIPOS>MOLECULE
NONAME
56 58 1 0 0 
SMALL
USER_CHARGES


@<TRIPOS>ATOM
  1 O        0.1220     0.8870     2.5100 O.2   1 <1>  -0.5700 
  2 C       -0.2980     0.8960     1.3680 C.2   1 <1>   0.6900 
  3 N       -1.6280     0.7150     1.1190 N.am  1 <1>  -0.6600 
  4 N        0.5120     1.1560     0.3070 N.am  1 <1>  -0.5470 
  5 C       -2.6200     1.4550     1.9360 C.3   1 <1>   0.1400 
  6 C       -2.1370     0.1400    -0.1470 C.3   1 <1>   0.1400 
  7 C        1.9030     1.3200     0.2560 C.ar  1 <1>   0.1170 
  8 C       -3.6960     2.1060     1.0510 C.3   1 <1>  -0.1600 
  9 C       -2.6880     1.2410    -1.0660 C.3   1 <1>  -0.1600 
 10 C        2.4280     2.5380    -0.1870 C.ar  1 <1>  -0.1440 
 11 C        2.7750     0.2820     0.6000 C.ar  1 <1>  -0.1440 
 12 C       -3.1730     2.5300    -0.3490 C.3   1 <1>   0.2800 
 13 C        3.8000     2.7020    -0.2860 C.ar  1 <1>  -0.1500 
 14 C        1.5280     3.7150    -0.5540 C.3   1 <1>  -0.0170 
 15 C        4.1430     0.4700     0.5020 C.ar  1 <1>  -0.1500 
 16 C        2.2620    -1.0710     1.0810 C.3   1 <1>  -0.0970 
 17 O       -2.0300     3.3510    -0.2260 O.3   1 <1>  -0.5600 
 18 C       -4.2190     3.2880    -1.2340 C.3   1 <1>   0.2000 
 19 C        4.6570     1.6740     0.0580 C.ar  1 <1>  -0.1500 
 20 C        1.0100     3.5950    -1.9900 C.3   1 <1>  -0.2400 
 21 C       -2.2090     4.6090     0.3620 C.3   1 <1>   0.1200 
 22 O       -3.7420     3.3190    -2.5530 O.3   1 <1>  -0.6800 
 23 C       -4.4760     4.7540    -0.7710 C.3   1 <1>   0.2800 
 24 C       -3.1420     5.4620    -0.5030 C.3   1 <1>  -0.1600 
 25 O       -5.1930     4.7520     0.4090 O.3   1 <1>  -0.6800 
 26 C       -5.3410     5.5570    -1.7510 C.3   1 <1>  -0.2400 
 27 H       -0.0040     1.6630    -0.4060 H     1 <1>   0.3700 
 28 H       -3.0710     0.7850     2.6460 H     1 <1>   0.0800 
 29 H       -2.1060     2.2250     2.4870 H     1 <1>   0.0800 
 30 H       -1.3620    -0.4150    -0.6480 H     1 <1>   0.0800 
 31 H       -2.9250    -0.5520     0.0970 H     1 <1>   0.0800 
 32 H       -4.1220     2.9230     1.5960 H     1 <1>   0.0800 
 33 H       -4.4940     1.4000     0.9130 H     1 <1>   0.0800 
 34 H       -3.5090     0.8080    -1.6070 H     1 <1>   0.0800 
 35 H       -1.9420     1.4960    -1.7960 H     1 <1>   0.0800 
 36 H        4.2120     3.6340    -0.6280 H     1 <1>   0.1500 
 37 H        0.7030     3.7680     0.1340 H     1 <1>   0.0800 
 38 H        2.0770     4.6340    -0.4530 H     1 <1>   0.0800 
 39 H        4.8200    -0.3210     0.7710 H     1 <1>   0.1500 
 40 H        3.0330    -1.8170     1.0270 H     1 <1>   0.0800 
 41 H        1.4360    -1.3950     0.4750 H     1 <1>   0.0800 
 42 H        1.9350    -0.9910     2.1020 H     1 <1>   0.0800 
 43 H       -5.1510     2.7520    -1.2550 H     1 <1>   0.0800 
 44 H        5.7210     1.8100    -0.0170 H     1 <1>   0.1500 
 45 H        0.4400     2.6930    -2.1140 H     1 <1>   0.0800 
 46 H        1.8360     3.5770    -2.6790 H     1 <1>   0.0800 
 47 H        0.3800     4.4350    -2.2250 H     1 <1>   0.0800 
 48 H       -2.5960     4.4880     1.3580 H     1 <1>   0.0800 
 49 H       -1.2430     5.0760     0.4330 H     1 <1>   0.0800 
 50 H       -2.8020     3.5910    -2.5220 H     1 <1>   0.4000 
 51 H       -2.6450     5.6550    -1.4370 H     1 <1>   0.0800 
 52 H       -3.3110     6.4130    -0.0310 H     1 <1>   0.0800 
 53 H       -5.5010     5.6570     0.6010 H     1 <1>   0.4000 
 54 H       -4.8400     5.6580    -2.6970 H     1 <1>   0.0800 
 55 H       -5.5380     6.5440    -1.3760 H     1 <1>   0.0800 
 56 H       -6.2720     5.0470    -1.9250 H     1 <1>   0.0800 
@<TRIPOS>BOND
  1   1   2  2   
  2   2   3  am  
  3   2   4  am  
  4   3   5  1   
  5   3   6  1   
  6   4   7  1   
  7   4  27  1   
  8   5   8  1   
  9   5  28  1   
 10   5  29  1   
 11   6   9  1   
 12   6  30  1   
 13   6  31  1   
 14   7  10  ar  
 15   7  11  ar  
 16   8  12  1   
 17   8  32  1   
 18   8  33  1   
 19   9  12  1   
 20   9  34  1   
 21   9  35  1   
 22  10  13  ar  
 23  10  14  1   
 24  11  15  ar  
 25  11  16  1   
 26  12  17  1   
 27  12  18  1   
 28  13  19  ar  
 29  13  36  1   
 30  14  20  1   
 31  14  37  1   
 32  14  38  1   
 33  15  19  ar  
 34  15  39  1   
 35  16  40  1   
 36  16  41  1   
 37  16  42  1   
 38  17  21  1   
 39  18  22  1   
 40  18  23  1   
 41  18  43  1   
 42  19  44  1   
 43  20  45  1   
 44  20  46  1   
 45  20  47  1   
 46  21  24  1   
 47  21  48  1   
 48  21  49  1   
 49  22  50  1   
 50  23  24  1   
 51  23  25  1   
 52  23  26  1   
 53  24  51  1   
 54  24  52  1   
 55  25  53  1   
 56  26  54  1   
 57  26  55  1   
 58  26  56  1   
@<TRIPOS>SUBSTRUCTURE
  1 ****  17 GROUP 4 **** **** 0

# MOE 2024.06 (io_trps.svl 2023.06)
