@<TRIPOS>MOLECULE
NONAME
43 45 1 0 0 
SMALL
USER_CHARGES


@<TRIPOS>ATOM
  1 S       -0.2760     0.0240     0.0510 S.3   1 <1>  -0.0800 
  2 C       -1.5250     0.9290     0.9030 C.2   1 <1>  -0.0450 
  3 C        0.9170     1.3140     0.1930 C.2   1 <1>  -0.0450 
  4 C       -2.8150     0.3120     1.1050 C.2   1 <1>   0.7150 
  5 C       -1.0040     2.1340     1.2570 C.2   1 <1>  -0.1500 
  6 C        2.2340     1.1550    -0.3520 C.2   1 <1>   0.5940 
  7 C        0.3400     2.3470     0.8610 C.2   1 <1>  -0.1500 
  8 O       -2.9000    -0.9010     1.1870 O.2   1 <1>  -0.5700 
  9 N       -3.9690     1.0610     1.2200 N.am  1 <1>  -0.6600 
 10 O        3.0700     2.0210    -0.2900 O.2   1 <1>  -0.5700 
 11 C        2.6270    -0.1370    -1.0380 C.3   1 <1>  -0.1790 
 12 C       -4.1750     2.3750     0.5520 C.3   1 <1>   0.1400 
 13 C       -5.1940     0.5110     1.8680 C.3   1 <1>   0.1400 
 14 C       -5.2850     2.2430    -0.4940 C.3   1 <1>  -0.1600 
 15 C       -6.3090     0.3740     0.8300 C.3   1 <1>  -0.1600 
 16 C       -6.5840     1.7000     0.1170 C.3   1 <1>   0.4180 
 17 O       -7.0430     2.5920     1.1040 O.3   1 <1>  -0.5600 
 18 C       -7.6500     1.4950    -0.9560 C.2   1 <1>  -0.2880 
 19 C       -7.7640     3.7140     0.6760 C.3   1 <1>   0.1200 
 20 C       -8.7870     2.1930    -1.0260 C.2   1 <1>  -0.2760 
 21 C       -9.0660     3.2890    -0.0150 C.3   1 <1>  -0.0220 
 22 C       -9.8720     1.9690    -2.0640 C.3   1 <1>  -0.1020 
 23 H       -1.5420     2.8870     1.8060 H     1 <1>   0.1500 
 24 H        0.8520     3.2680     1.0870 H     1 <1>   0.1500 
 25 H        2.0010    -0.2990    -1.8960 H     1 <1>   0.0800 
 26 H        2.5220    -0.9600    -0.3560 H     1 <1>   0.0800 
 27 H        3.6500    -0.0830    -1.3610 H     1 <1>   0.0800 
 28 H       -3.2760     2.7040     0.0640 H     1 <1>   0.0800 
 29 H       -4.4510     3.1070     1.2920 H     1 <1>   0.0800 
 30 H       -5.5070     1.1800     2.6520 H     1 <1>   0.0800 
 31 H       -4.9920    -0.4490     2.3140 H     1 <1>   0.0800 
 32 H       -4.9510     1.5700    -1.2620 H     1 <1>   0.0800 
 33 H       -5.4650     3.1910    -0.9630 H     1 <1>   0.0800 
 34 H       -7.2110     0.0350     1.3050 H     1 <1>   0.0800 
 35 H       -6.0190    -0.3720     0.1130 H     1 <1>   0.0800 
 36 H       -7.3950     0.7160    -1.6510 H     1 <1>   0.1500 
 37 H       -7.1490     4.2830     0.0030 H     1 <1>   0.0800 
 38 H       -7.9800     4.3160     1.5410 H     1 <1>   0.0800 
 39 H       -9.4890     4.1480    -0.5040 H     1 <1>   0.0800 
 40 H       -9.7700     2.9390     0.7180 H     1 <1>   0.0800 
 41 H      -10.7970     1.7120    -1.5810 H     1 <1>   0.0800 
 42 H       -9.5990     1.1670    -2.7270 H     1 <1>   0.0800 
 43 H      -10.0180     2.8590    -2.6480 H     1 <1>   0.0800 
@<TRIPOS>BOND
  1   1   2  1   
  2   1   3  1   
  3   2   4  1   
  4   2   5  2   
  5   3   6  1   
  6   3   7  2   
  7   4   8  2   
  8   4   9  am  
  9   5   7  1   
 10   5  23  1   
 11   6  10  2   
 12   6  11  1   
 13   7  24  1   
 14   9  12  1   
 15   9  13  1   
 16  11  25  1   
 17  11  26  1   
 18  11  27  1   
 19  12  14  1   
 20  12  28  1   
 21  12  29  1   
 22  13  15  1   
 23  13  30  1   
 24  13  31  1   
 25  14  16  1   
 26  14  32  1   
 27  14  33  1   
 28  15  16  1   
 29  15  34  1   
 30  15  35  1   
 31  16  17  1   
 32  16  18  1   
 33  17  19  1   
 34  18  20  2   
 35  18  36  1   
 36  19  21  1   
 37  19  37  1   
 38  19  38  1   
 39  20  21  1   
 40  20  22  1   
 41  21  39  1   
 42  21  40  1   
 43  22  41  1   
 44  22  42  1   
 45  22  43  1   
@<TRIPOS>SUBSTRUCTURE
  1 ****  12 GROUP 4 **** **** 0

# MOE 2024.06 (io_trps.svl 2023.06)
