@<TRIPOS>MOLECULE
NONAME
52 54 1 0 0 
SMALL
USER_CHARGES


@<TRIPOS>ATOM
  1 S       -0.7770    -2.8230    -2.6330 S.3   1 <1>  -0.0800 
  2 C       -1.3830    -4.2520    -1.8110 C.2   1 <1>  -0.1400 
  3 C        0.8030    -3.5540    -2.8460 C.2   1 <1>  -0.1100 
  4 C       -0.4150    -5.1880    -1.7280 C.2   1 <1>  -0.1500 
  5 C       -2.8280    -4.1910    -1.3550 C.3   1 <1>   0.3200 
  6 C        0.8270    -4.7900    -2.3170 C.2   1 <1>  -0.1500 
  7 N       -3.2370    -5.5150    -0.8420 N.am  1 <1>  -0.7300 
  8 C       -4.0690    -5.7040     0.2140 C.2   1 <1>   0.5690 
  9 O       -4.6180    -4.7840     0.7720 O.2   1 <1>  -0.5700 
 10 C       -4.3330    -7.1310     0.7180 C.3   1 <1>   0.4040 
 11 N       -5.6320    -7.3950     1.4430 N.4   1 <1>  -0.9590 
 12 C       -5.7740    -8.8300     1.8690 C.3   1 <1>   0.4230 
 13 C       -6.7590    -6.9340     0.5700 C.3   1 <1>   0.3430 
 14 C       -7.1400    -9.0210     2.5550 C.3   1 <1>  -0.1600 
 15 C       -4.6790    -9.3220     2.8520 C.3   1 <1>  -0.1600 
 16 C       -8.0980    -7.0960     1.2810 C.3   1 <1>  -0.1600 
 17 C       -8.3180    -8.5480     1.7000 C.3   1 <1>  -0.1600 
 18 C       -3.2470    -9.6160     2.3440 C.3   1 <1>  -0.0170 
 19 C       -3.1530    -9.9360     0.8580 C.ar  1 <1>  -0.1430 
 20 C       -2.3090    -9.1900     0.0490 C.ar  1 <1>  -0.1500 
 21 C       -3.9040   -10.9560     0.2890 C.ar  1 <1>  -0.1500 
 22 C       -2.2870    -9.3980    -1.3160 C.ar  1 <1>   0.0820 
 23 C       -3.8490   -11.1900    -1.0760 C.ar  1 <1>  -0.1500 
 24 O       -1.5300    -8.5960    -2.0770 O.3   1 <1>  -0.5330 
 25 C       -3.0480   -10.4050    -1.8860 C.ar  1 <1>  -0.1500 
 26 H        1.5550    -2.9720    -3.3500 H     1 <1>   0.1500 
 27 H       -0.5040    -6.1580    -1.2720 H     1 <1>   0.1500 
 28 H       -3.4560    -3.9230    -2.1870 H     1 <1>   0.0800 
 29 H       -2.9360    -3.4410    -0.5890 H     1 <1>   0.0800 
 30 H        1.6770    -5.4510    -2.3140 H     1 <1>   0.1500 
 31 H       -2.7590    -6.2900    -1.3160 H     1 <1>   0.3700 
 32 H       -3.5170    -7.3690     1.3730 H     1 <1>   0.0800 
 33 H       -4.2780    -7.7860    -0.1330 H     1 <1>   0.0800 
 34 H       -5.6450    -6.7930     2.2760 H     1 <1>   0.4500 
 35 H       -5.7570    -9.4540     0.9900 H     1 <1>   0.0800 
 36 H       -6.7700    -7.5080    -0.3420 H     1 <1>   0.0800 
 37 H       -6.6280    -5.8940     0.3130 H     1 <1>   0.0800 
 38 H       -7.1480    -8.4930     3.4930 H     1 <1>   0.0800 
 39 H       -7.2840   -10.0650     2.7760 H     1 <1>   0.0800 
 40 H       -5.0280   -10.2610     3.2460 H     1 <1>   0.0800 
 41 H       -4.6260    -8.6550     3.6950 H     1 <1>   0.0800 
 42 H       -8.8880    -6.7920     0.6160 H     1 <1>   0.0800 
 43 H       -8.1310    -6.4480     2.1400 H     1 <1>   0.0800 
 44 H       -9.2350    -8.6330     2.2600 H     1 <1>   0.0800 
 45 H       -8.4080    -9.1710     0.8250 H     1 <1>   0.0800 
 46 H       -2.8420   -10.4470     2.8970 H     1 <1>   0.0800 
 47 H       -2.6160    -8.7750     2.5720 H     1 <1>   0.0800 
 48 H       -1.6650    -8.4320     0.4620 H     1 <1>   0.1500 
 49 H       -4.5320   -11.5800     0.9020 H     1 <1>   0.1500 
 50 H       -4.4320   -11.9870    -1.5090 H     1 <1>   0.1500 
 51 H       -1.4280    -8.9200    -2.9940 H     1 <1>   0.4500 
 52 H       -3.0190   -10.5830    -2.9470 H     1 <1>   0.1500 
@<TRIPOS>BOND
  1   1   2  1   
  2   1   3  1   
  3   2   4  2   
  4   2   5  1   
  5   3   6  2   
  6   3  26  1   
  7   4   6  1   
  8   4  27  1   
  9   5   7  1   
 10   5  28  1   
 11   5  29  1   
 12   6  30  1   
 13   7   8  am  
 14   7  31  1   
 15   8   9  2   
 16   8  10  1   
 17  10  11  1   
 18  10  32  1   
 19  10  33  1   
 20  11  12  1   
 21  11  13  1   
 22  11  34  1   
 23  12  14  1   
 24  12  15  1   
 25  12  35  1   
 26  13  16  1   
 27  13  36  1   
 28  13  37  1   
 29  14  17  1   
 30  14  38  1   
 31  14  39  1   
 32  15  18  1   
 33  15  40  1   
 34  15  41  1   
 35  16  17  1   
 36  16  42  1   
 37  16  43  1   
 38  17  44  1   
 39  17  45  1   
 40  18  19  1   
 41  18  46  1   
 42  18  47  1   
 43  19  20  ar  
 44  19  21  ar  
 45  20  22  ar  
 46  20  48  1   
 47  21  23  ar  
 48  21  49  1   
 49  22  24  1   
 50  22  25  ar  
 51  23  25  ar  
 52  23  50  1   
 53  24  51  1   
 54  25  52  1   
@<TRIPOS>SUBSTRUCTURE
  1 ****  10 GROUP 4 **** **** 0

# MOE 2024.06 (io_trps.svl 2023.06)
