@<TRIPOS>MOLECULE
NONAME
46 47 1 0 0 
SMALL
USER_CHARGES


@<TRIPOS>ATOM
  1 O       -1.7750     0.0900     2.0210 O.2   1 <1>  -0.5700 
  2 C       -2.0560     0.4120     0.8900 C.2   1 <1>   0.5690 
  3 N       -2.3710    -0.5150    -0.0690 N.am  1 <1>  -0.6600 
  4 C       -2.0470     1.9110     0.5660 C.3   1 <1>   0.1810 
  5 C       -2.2990    -1.9840     0.2370 C.3   1 <1>   0.3640 
  6 C       -2.7680    -0.1400    -1.4630 C.3   1 <1>   0.1400 
  7 O       -1.0970     2.2630    -0.4140 O.3   1 <1>  -0.5600 
  8 C       -0.9250    -2.5780    -0.1190 C.ar  1 <1>  -0.1430 
  9 C       -3.4500    -2.7840    -0.4550 C.3   1 <1>   0.2000 
 10 C       -3.0910    -1.3660    -2.3280 C.3   1 <1>   0.1200 
 11 C        0.2270     2.1280     0.0020 C.3   1 <1>   0.0400 
 12 C       -0.6260    -3.8480     0.3600 C.ar  1 <1>  -0.1500 
 13 C        0.0360    -1.9170    -0.8800 C.ar  1 <1>  -0.1500 
 14 O       -3.9630    -2.2010    -1.6350 O.3   1 <1>  -0.5600 
 15 C       -4.6420    -2.9720     0.4900 C.3   1 <1>   0.1200 
 16 C        0.5820    -4.4610     0.0730 C.ar  1 <1>   0.0830 
 17 C        1.2550    -2.5110    -1.1570 C.ar  1 <1>  -0.1500 
 18 O       -4.3130    -3.8590     1.5110 O.3   1 <1>  -0.6800 
 19 O        0.7650    -5.7220     0.5400 O.3   1 <1>  -0.3630 
 20 C        1.5440    -3.7750    -0.6750 C.ar  1 <1>   0.0830 
 21 C        0.9390    -6.7360    -0.4260 C.3   1 <1>   0.0400 
 22 O        2.7700    -4.2840    -0.9470 O.3   1 <1>  -0.3630 
 23 C        3.6320    -4.4430     0.1590 C.3   1 <1>   0.0400 
 24 H       -1.8430     2.4750     1.4580 H     1 <1>   0.0800 
 25 H       -3.0140     2.1990     0.1990 H     1 <1>   0.0800 
 26 H       -2.4080    -2.1170     1.3000 H     1 <1>   0.0800 
 27 H       -3.6390     0.4900    -1.4230 H     1 <1>   0.0800 
 28 H       -1.9750     0.4190    -1.9290 H     1 <1>   0.0800 
 29 H       -3.0900    -3.7570    -0.7350 H     1 <1>   0.0800 
 30 H       -2.2020    -1.9190    -2.5800 H     1 <1>   0.0800 
 31 H       -3.5760    -1.0610    -3.2380 H     1 <1>   0.0800 
 32 H        0.8660     2.4470    -0.8030 H     1 <1>   0.0800 
 33 H        0.4300     1.0960     0.2360 H     1 <1>   0.0800 
 34 H        0.3950     2.7480     0.8650 H     1 <1>   0.0800 
 35 H       -1.3350    -4.3830     0.9660 H     1 <1>   0.1500 
 36 H       -0.1430    -0.9280    -1.2600 H     1 <1>   0.1500 
 37 H       -5.4890    -3.3730    -0.0400 H     1 <1>   0.0800 
 38 H       -4.9100    -2.0310     0.9400 H     1 <1>   0.0800 
 39 H        1.9920    -1.9930    -1.7420 H     1 <1>   0.1500 
 40 H       -4.3440    -4.7830     1.1940 H     1 <1>   0.4000 
 41 H        0.9110    -7.6850     0.0760 H     1 <1>   0.0800 
 42 H        1.8890    -6.6080    -0.9120 H     1 <1>   0.0800 
 43 H        0.1400    -6.6730    -1.1440 H     1 <1>   0.0800 
 44 H        4.5870    -4.7770    -0.2040 H     1 <1>   0.0800 
 45 H        3.2190    -5.1730     0.8310 H     1 <1>   0.0800 
 46 H        3.7360    -3.4950     0.6560 H     1 <1>   0.0800 
@<TRIPOS>BOND
  1   1   2  2   
  2   2   3  am  
  3   2   4  1   
  4   3   5  1   
  5   3   6  1   
  6   4   7  1   
  7   4  24  1   
  8   4  25  1   
  9   5   8  1   
 10   5   9  1   
 11   5  26  1   
 12   6  10  1   
 13   6  27  1   
 14   6  28  1   
 15   7  11  1   
 16   8  12  ar  
 17   8  13  ar  
 18   9  14  1   
 19   9  15  1   
 20   9  29  1   
 21  10  14  1   
 22  10  30  1   
 23  10  31  1   
 24  11  32  1   
 25  11  33  1   
 26  11  34  1   
 27  12  16  ar  
 28  12  35  1   
 29  13  17  ar  
 30  13  36  1   
 31  15  18  1   
 32  15  37  1   
 33  15  38  1   
 34  16  19  1   
 35  16  20  ar  
 36  17  20  ar  
 37  17  39  1   
 38  18  40  1   
 39  19  21  1   
 40  20  22  1   
 41  21  41  1   
 42  21  42  1   
 43  21  43  1   
 44  22  23  1   
 45  23  44  1   
 46  23  45  1   
 47  23  46  1   
@<TRIPOS>SUBSTRUCTURE
  1 ****   8 GROUP 4 **** **** 0

# MOE 2024.06 (io_trps.svl 2023.06)
