@<TRIPOS>MOLECULE
NONAME
45 46 1 0 0 
SMALL
USER_CHARGES


@<TRIPOS>ATOM
  1 S       -0.2800     0.3150    -1.1390 S.o2  1 <1>   1.4470 
  2 O       -0.5550     1.4700    -1.9730 O.2   1 <1>  -0.6500 
  3 O       -0.1000    -0.9250    -1.8650 O.2   1 <1>  -0.6500 
  4 N       -1.6700     0.1070    -0.1850 N.am  1 <1>  -0.8490 
  5 C        1.0700     0.7130     0.0610 C.ar  1 <1>  -0.0090 
  6 C       -1.5310    -0.9210     0.8760 C.3   1 <1>   0.1960 
  7 C       -2.8650    -0.0420    -1.0310 C.3   1 <1>   0.1960 
  8 C        2.0710    -0.2200     0.3990 C.ar  1 <1>  -0.1440 
  9 C        1.1150     1.9780     0.6770 C.ar  1 <1>  -0.1440 
 10 C       -2.1890    -2.2380     0.4810 C.3   1 <1>  -0.1860 
 11 C       -4.0450    -0.6340    -0.2570 C.3   1 <1>  -0.1600 
 12 C        3.1060     0.1300     1.2660 C.ar  1 <1>  -0.1440 
 13 C        2.0470    -1.6470    -0.1700 C.3   1 <1>  -0.0970 
 14 C        2.1610     2.3220     1.5300 C.ar  1 <1>  -0.1440 
 15 C        0.0120     3.0160     0.4240 C.3   1 <1>  -0.0970 
 16 C       -1.7720    -3.3250     1.4520 C.2   1 <1>   0.9060 
 17 C       -3.7050    -2.0220     0.3080 C.3   1 <1>   0.2000 
 18 C        3.1390     1.3950     1.8120 C.ar  1 <1>  -0.1500 
 19 C        4.2300    -0.8220     1.6630 C.3   1 <1>  -0.0960 
 20 C        2.2950     3.6940     2.1850 C.3   1 <1>  -0.0970 
 21 O       -0.5700    -3.5850     1.5400 O.co2 1 <1>  -0.9000 
 22 O       -2.6220    -3.9150     2.1330 O.co2 1 <1>  -0.9000 
 23 O       -4.3400    -2.1190     1.5270 O.3   1 <1>  -0.6800 
 24 H       -0.4980    -1.0800     1.1290 H     1 <1>   0.0800 
 25 H       -2.0140    -0.5600     1.7690 H     1 <1>   0.0800 
 26 H       -3.1340     0.9220    -1.4300 H     1 <1>   0.0800 
 27 H       -2.6440    -0.6910    -1.8630 H     1 <1>   0.0800 
 28 H       -1.7770    -2.5380    -0.4630 H     1 <1>   0.0800 
 29 H       -4.8950    -0.7170    -0.9070 H     1 <1>   0.0800 
 30 H       -4.2940     0.0480     0.5380 H     1 <1>   0.0800 
 31 H        2.7450    -2.3130     0.2950 H     1 <1>   0.0800 
 32 H        2.2680    -1.6280    -1.2210 H     1 <1>   0.0800 
 33 H        1.0860    -2.1020    -0.0210 H     1 <1>   0.0800 
 34 H       -0.0430     3.7600     1.1930 H     1 <1>   0.0800 
 35 H       -0.9570     2.5570     0.4000 H     1 <1>   0.0800 
 36 H        0.1860     3.5120    -0.5140 H     1 <1>   0.0800 
 37 H       -4.1000    -2.8030    -0.3200 H     1 <1>   0.0800 
 38 H        3.9420     1.6610     2.4760 H     1 <1>   0.1500 
 39 H        4.9640    -0.3310     2.2750 H     1 <1>   0.0800 
 40 H        4.7280    -1.1930     0.7850 H     1 <1>   0.0800 
 41 H        3.8290    -1.6480     2.2220 H     1 <1>   0.0800 
 42 H        3.2510     3.8070     2.6630 H     1 <1>   0.0800 
 43 H        1.5300     3.8210     2.9300 H     1 <1>   0.0800 
 44 H        2.2050     4.4690     1.4450 H     1 <1>   0.0800 
 45 H       -3.8880    -2.8850     2.0010 H     1 <1>   0.4000 
@<TRIPOS>BOND
  1   1   2  2   
  2   1   3  2   
  3   1   4  am  
  4   1   5  1   
  5   4   6  1   
  6   4   7  1   
  7   5   8  ar  
  8   5   9  ar  
  9   6  10  1   
 10   6  24  1   
 11   6  25  1   
 12   7  11  1   
 13   7  26  1   
 14   7  27  1   
 15   8  12  ar  
 16   8  13  1   
 17   9  14  ar  
 18   9  15  1   
 19  10  16  1   
 20  10  17  1   
 21  10  28  1   
 22  11  17  1   
 23  11  29  1   
 24  11  30  1   
 25  12  18  ar  
 26  12  19  1   
 27  13  31  1   
 28  13  32  1   
 29  13  33  1   
 30  14  18  ar  
 31  14  20  1   
 32  15  34  1   
 33  15  35  1   
 34  15  36  1   
 35  16  21  ar  
 36  16  22  ar  
 37  17  23  1   
 38  17  37  1   
 39  18  38  1   
 40  19  39  1   
 41  19  40  1   
 42  19  41  1   
 43  20  42  1   
 44  20  43  1   
 45  20  44  1   
 46  23  45  1   
@<TRIPOS>SUBSTRUCTURE
  1 ****   6 GROUP 4 **** **** 0

# MOE 2024.06 (io_trps.svl 2023.06)
