@<TRIPOS>MOLECULE
NONAME
48 51 1 0 0 
SMALL
USER_CHARGES


@<TRIPOS>ATOM
  1 O       -1.1300    -1.6920     0.3090 O.2   1 <1>  -0.5700 
  2 C       -0.1530    -2.3910     0.3500 C.2   1 <1>   0.5690 
  3 N       -0.2350    -3.7100     0.6250 N.am  1 <1>  -0.7300 
  4 C        1.2250    -1.8170     0.1010 C.3   1 <1>  -0.0990 
  5 C        0.9370    -4.6020     0.6970 C.3   1 <1>   0.1400 
  6 C        2.0490    -2.7590    -0.8010 C.3   1 <1>  -0.0800 
  7 C        1.9160    -4.2620    -0.4470 C.3   1 <1>  -0.0800 
  8 C        3.5510    -2.4400    -0.8030 C.3   1 <1>  -0.1600 
  9 C        3.3460    -4.7620    -0.1950 C.3   1 <1>  -0.1600 
 10 C        4.2230    -3.7960    -0.9910 C.3   1 <1>   0.4230 
 11 N        5.6670    -3.8140    -0.6110 N.4   1 <1>  -0.9590 
 12 C        5.9810    -3.4360     0.7990 C.3   1 <1>   0.4810 
 13 C        6.3050    -5.1140    -0.9840 C.3   1 <1>   0.2630 
 14 C        6.6920    -2.0890     0.7580 C.2   1 <1>  -0.0380 
 15 N        7.8930    -1.9840     0.0820 N.pl3 1 <1>  -0.6000 
 16 C        6.1680    -0.9860     1.3510 C.2   1 <1>  -0.1360 
 17 C        8.5750    -0.7750    -0.0280 C.ar  1 <1>   0.1000 
 18 C        6.8050     0.2800     1.2860 C.2   1 <1>   0.4690 
 19 C        8.0480     0.3830     0.5700 C.ar  1 <1>   0.0860 
 20 C        9.7810    -0.7060    -0.7250 C.ar  1 <1>  -0.1500 
 21 O        6.2780     1.2430     1.8250 O.2   1 <1>  -0.5700 
 22 C        8.7570     1.5820     0.4400 C.ar  1 <1>  -0.1500 
 23 C       10.4610     0.4860    -0.8380 C.ar  1 <1>  -0.1500 
 24 C        9.9460     1.6360    -0.2540 C.ar  1 <1>  -0.1500 
 25 H       -1.1640    -4.0890     0.8290 H     1 <1>   0.3700 
 26 H        1.1290    -0.8490    -0.3570 H     1 <1>   0.0800 
 27 H        1.6960    -1.6900     1.0580 H     1 <1>   0.0800 
 28 H        1.4070    -4.4610     1.6560 H     1 <1>   0.0800 
 29 H        0.6180    -5.6280     0.6210 H     1 <1>   0.0800 
 30 H        1.6740    -2.6380    -1.8060 H     1 <1>   0.0800 
 31 H        1.5450    -4.7610    -1.3290 H     1 <1>   0.0800 
 32 H        3.8150    -2.0030     0.1400 H     1 <1>   0.0800 
 33 H        3.8000    -1.7580    -1.5970 H     1 <1>   0.0800 
 34 H        3.4590    -5.7780    -0.5320 H     1 <1>   0.0800 
 35 H        3.5640    -4.7020     0.8550 H     1 <1>   0.0800 
 36 H        4.1310    -4.0570    -2.0350 H     1 <1>   0.0800 
 37 H        6.1140    -3.0640    -1.1640 H     1 <1>   0.4500 
 38 H        5.0800    -3.3560     1.3840 H     1 <1>   0.0800 
 39 H        6.6250    -4.1680     1.2580 H     1 <1>   0.0800 
 40 H        5.8780    -5.9200    -0.4090 H     1 <1>   0.0800 
 41 H        7.3660    -5.0820    -0.7960 H     1 <1>   0.0800 
 42 H        6.1500    -5.3200    -2.0310 H     1 <1>   0.0800 
 43 H        8.4000    -2.8070    -0.2670 H     1 <1>   0.4000 
 44 H        5.2440    -1.0000     1.8990 H     1 <1>   0.1500 
 45 H       10.1900    -1.5900    -1.1790 H     1 <1>   0.1500 
 46 H        8.3580     2.4740     0.8950 H     1 <1>   0.1500 
 47 H       11.3920     0.5370    -1.3770 H     1 <1>   0.1500 
 48 H       10.4800     2.5670    -0.3450 H     1 <1>   0.1500 
@<TRIPOS>BOND
  1   1   2  2   
  2   2   3  am  
  3   2   4  1   
  4   3   5  1   
  5   3  25  1   
  6   4   6  1   
  7   4  26  1   
  8   4  27  1   
  9   5   7  1   
 10   5  28  1   
 11   5  29  1   
 12   6   7  1   
 13   6   8  1   
 14   6  30  1   
 15   7   9  1   
 16   7  31  1   
 17   8  10  1   
 18   8  32  1   
 19   8  33  1   
 20   9  10  1   
 21   9  34  1   
 22   9  35  1   
 23  10  11  1   
 24  10  36  1   
 25  11  12  1   
 26  11  13  1   
 27  11  37  1   
 28  12  14  1   
 29  12  38  1   
 30  12  39  1   
 31  13  40  1   
 32  13  41  1   
 33  13  42  1   
 34  14  15  1   
 35  14  16  2   
 36  15  17  1   
 37  15  43  1   
 38  16  18  1   
 39  16  44  1   
 40  17  19  ar  
 41  17  20  ar  
 42  18  19  1   
 43  18  21  2   
 44  19  22  ar  
 45  20  23  ar  
 46  20  45  1   
 47  22  24  ar  
 48  22  46  1   
 49  23  24  ar  
 50  23  47  1   
 51  24  48  1   
@<TRIPOS>SUBSTRUCTURE
  1 ****  14 GROUP 4 **** **** 0

# MOE 2024.06 (io_trps.svl 2023.06)
