@<TRIPOS>MOLECULE
NONAME
45 47 1 0 0 
SMALL
USER_CHARGES


@<TRIPOS>ATOM
  1 S       -0.0240    -0.1350     0.1000 S.o2  1 <1>   1.0900 
  2 O        0.1000     0.1360    -1.3120 O.2   1 <1>  -0.6500 
  3 O        0.9910    -0.9040     0.7800 O.2   1 <1>  -0.6500 
  4 C       -1.5990    -0.9290     0.3670 C.3   1 <1>  -0.0550 
  5 C       -0.1970     1.4230     0.9480 C.3   1 <1>  -0.1350 
  6 C       -1.6020    -2.3230    -0.2500 C.3   1 <1>   0.1100 
  7 N       -2.9050    -2.9640    -0.0350 N.3   1 <1>  -0.8100 
  8 C       -3.9690    -2.4600    -0.9190 C.3   1 <1>   0.1100 
  9 C       -2.8550    -4.4210    -0.2540 C.3   1 <1>   0.1100 
 10 C       -5.0320    -3.5480    -0.8620 C.3   1 <1>   0.2000 
 11 C       -4.1880    -4.8240    -0.9110 C.3   1 <1>  -0.0800 
 12 O       -5.6490    -3.4420     0.3710 O.3   1 <1>  -0.6800 
 13 C       -4.8490    -6.0660    -0.2760 C.3   1 <1>  -0.0170 
 14 C       -4.0960    -7.3960    -0.4210 C.ar  1 <1>  -0.1440 
 15 C       -4.5360    -8.5330     0.3020 C.ar  1 <1>   0.0000 
 16 C       -3.0070    -7.5630    -1.2310 C.ar  1 <1>  -0.1500 
 17 C       -3.8060    -9.7380     0.1570 C.ar  1 <1>   0.3100 
 18 C       -5.6620    -8.5470     1.1600 C.ar  1 <1>  -0.1500 
 19 C       -2.3600    -8.8020    -1.3060 C.ar  1 <1>   0.1600 
 20 N       -2.7210    -9.8560    -0.6480 N.ar  1 <1>  -0.6200 
 21 C       -4.2150   -10.8760     0.8720 C.ar  1 <1>  -0.1500 
 22 C       -6.0370    -9.6730     1.8400 C.ar  1 <1>  -0.1500 
 23 C       -5.3050   -10.8540     1.6980 C.ar  1 <1>  -0.1500 
 24 H       -1.7890    -1.0230     1.4180 H     1 <1>   0.0800 
 25 H       -2.3760    -0.3410    -0.0780 H     1 <1>   0.0800 
 26 H       -1.0040     1.9930     0.5310 H     1 <1>   0.0800 
 27 H        0.7060     1.9930     0.8480 H     1 <1>   0.0800 
 28 H       -0.3830     1.2660     1.9930 H     1 <1>   0.0800 
 29 H       -0.8340    -2.9090     0.2280 H     1 <1>   0.0800 
 30 H       -1.3770    -2.2710    -1.3040 H     1 <1>   0.0800 
 31 H       -4.3540    -1.5110    -0.5870 H     1 <1>   0.0800 
 32 H       -3.6030    -2.3680    -1.9280 H     1 <1>   0.0800 
 33 H       -2.0340    -4.6840    -0.9000 H     1 <1>   0.0800 
 34 H       -2.7220    -4.9150     0.6940 H     1 <1>   0.0800 
 35 H       -5.7750    -3.4800    -1.6380 H     1 <1>   0.0800 
 36 H       -4.0000    -5.0270    -1.9500 H     1 <1>   0.0800 
 37 H       -4.9280    -3.2970     1.0220 H     1 <1>   0.4000 
 38 H       -5.8290    -6.1860    -0.7030 H     1 <1>   0.0800 
 39 H       -4.9760    -5.8710     0.7740 H     1 <1>   0.0800 
 40 H       -2.6030    -6.7750    -1.8340 H     1 <1>   0.1500 
 41 H       -6.2460    -7.6540     1.2830 H     1 <1>   0.1500 
 42 H       -1.5040    -8.8830    -1.9540 H     1 <1>   0.1500 
 43 H       -3.6380   -11.7720     0.7440 H     1 <1>   0.1500 
 44 H       -6.8950    -9.6650     2.4900 H     1 <1>   0.1500 
 45 H       -5.6080   -11.7340     2.2400 H     1 <1>   0.1500 
@<TRIPOS>BOND
  1   1   2  2   
  2   1   3  2   
  3   1   4  1   
  4   1   5  1   
  5   4   6  1   
  6   4  24  1   
  7   4  25  1   
  8   5  26  1   
  9   5  27  1   
 10   5  28  1   
 11   6   7  1   
 12   6  29  1   
 13   6  30  1   
 14   7   8  1   
 15   7   9  1   
 16   8  10  1   
 17   8  31  1   
 18   8  32  1   
 19   9  11  1   
 20   9  33  1   
 21   9  34  1   
 22  10  11  1   
 23  10  12  1   
 24  10  35  1   
 25  11  13  1   
 26  11  36  1   
 27  12  37  1   
 28  13  14  1   
 29  13  38  1   
 30  13  39  1   
 31  14  15  ar  
 32  14  16  ar  
 33  15  17  ar  
 34  15  18  ar  
 35  16  19  ar  
 36  16  40  1   
 37  17  20  ar  
 38  17  21  ar  
 39  18  22  ar  
 40  18  41  1   
 41  19  20  ar  
 42  19  42  1   
 43  21  23  ar  
 44  21  43  1   
 45  22  23  ar  
 46  22  44  1   
 47  23  45  1   
@<TRIPOS>SUBSTRUCTURE
  1 ****   9 GROUP 4 **** **** 0

# MOE 2024.06 (io_trps.svl 2023.06)
