@<TRIPOS>MOLECULE
NONAME
47 49 1 0 0 
SMALL
USER_CHARGES


@<TRIPOS>ATOM
  1 O        2.1890    -1.4990    -0.5870 O.2   1 <1>  -0.5700 
  2 C        1.9600    -0.3160    -0.5890 C.2   1 <1>   0.5690 
  3 N        0.7340     0.2300    -0.3190 N.am  1 <1>  -0.5470 
  4 C        3.0990     0.6310    -0.8830 C.3   1 <1>  -0.0990 
  5 C       -0.5120    -0.3710    -0.0550 C.ar  1 <1>   0.1170 
  6 C        3.9620     0.8440     0.3630 C.3   1 <1>   0.1100 
  7 C       -1.5300     0.3700     0.5490 C.ar  1 <1>   0.1600 
  8 C       -0.7990    -1.6870    -0.3860 C.ar  1 <1>  -0.1500 
  9 N        4.6160     2.1570     0.2700 N.3   1 <1>  -0.8100 
 10 N       -2.7460    -0.0690     0.8380 N.ar  1 <1>  -0.6200 
 11 C       -2.0560    -2.1660    -0.0920 C.ar  1 <1>  -0.1500 
 12 C        3.9690     3.2340     1.0430 C.3   1 <1>   0.3700 
 13 C        6.0150     2.1610     0.6840 C.3   1 <1>   0.1100 
 14 C       -2.9800    -1.3300     0.5110 C.ar  1 <1>   0.1600 
 15 C        2.5600     3.5980     0.5550 C.2   1 <1>   0.2980 
 16 C        4.9990     4.3570     0.9690 C.3   1 <1>  -0.1600 
 17 C        6.3470     3.6320     0.9410 C.3   1 <1>  -0.1600 
 18 O        1.5790     2.8390     0.9800 O.3   1 <1>  -0.0190 
 19 N        2.2080     4.5360    -0.2360 N.2   1 <1>  -0.5650 
 20 N        0.5290     3.3050     0.3820 N.2   1 <1>  -0.4100 
 21 C        0.9050     4.3040    -0.3160 C.2   1 <1>   0.3350 
 22 C        0.0040     5.1820    -1.1850 C.3   1 <1>   0.1010 
 23 C       -0.5070     6.3880    -0.3850 C.3   1 <1>  -0.2400 
 24 C       -1.1810     4.3980    -1.7740 C.3   1 <1>  -0.2400 
 25 H        0.7320     1.2530    -0.2430 H     1 <1>   0.3700 
 26 H        3.7060     0.2130    -1.6640 H     1 <1>   0.0800 
 27 H        2.7000     1.5610    -1.2430 H     1 <1>   0.0800 
 28 H        4.6960     0.0560     0.4070 H     1 <1>   0.0800 
 29 H        3.3640     0.7880     1.2580 H     1 <1>   0.0800 
 30 H       -1.3200     1.3910     0.8120 H     1 <1>   0.1500 
 31 H       -0.0700    -2.3190    -0.8600 H     1 <1>   0.1500 
 32 H       -2.3210    -3.1810    -0.3280 H     1 <1>   0.1500 
 33 H        3.8940     2.9220     2.0710 H     1 <1>   0.0800 
 34 H        6.1350     1.5940     1.5930 H     1 <1>   0.0800 
 35 H        6.6390     1.7420    -0.0880 H     1 <1>   0.0800 
 36 H       -3.9600    -1.7170     0.7360 H     1 <1>   0.1500 
 37 H        4.8660     4.9060     0.0530 H     1 <1>   0.0800 
 38 H        4.9070     5.0320     1.8000 H     1 <1>   0.0800 
 39 H        6.8700     3.7330     1.8760 H     1 <1>   0.0800 
 40 H        6.9680     4.0190     0.1520 H     1 <1>   0.0800 
 41 H        0.6000     5.5470    -2.0040 H     1 <1>   0.0800 
 42 H       -1.1040     6.0580     0.4470 H     1 <1>   0.0800 
 43 H       -1.1020     7.0300    -1.0090 H     1 <1>   0.0800 
 44 H        0.3250     6.9540    -0.0060 H     1 <1>   0.0800 
 45 H       -1.8220     4.0350    -0.9900 H     1 <1>   0.0800 
 46 H       -0.8210     3.5570    -2.3400 H     1 <1>   0.0800 
 47 H       -1.7580     5.0280    -2.4270 H     1 <1>   0.0800 
@<TRIPOS>BOND
  1   1   2  2   
  2   2   3  am  
  3   2   4  1   
  4   3   5  1   
  5   3  25  1   
  6   4   6  1   
  7   4  26  1   
  8   4  27  1   
  9   5   7  ar  
 10   5   8  ar  
 11   6   9  1   
 12   6  28  1   
 13   6  29  1   
 14   7  10  ar  
 15   7  30  1   
 16   8  11  ar  
 17   8  31  1   
 18   9  12  1   
 19   9  13  1   
 20  10  14  ar  
 21  11  14  ar  
 22  11  32  1   
 23  12  15  1   
 24  12  16  1   
 25  12  33  1   
 26  13  17  1   
 27  13  34  1   
 28  13  35  1   
 29  14  36  1   
 30  15  18  1   
 31  15  19  2   
 32  16  17  1   
 33  16  37  1   
 34  16  38  1   
 35  17  39  1   
 36  17  40  1   
 37  18  20  1   
 38  19  21  1   
 39  20  21  2   
 40  21  22  1   
 41  22  23  1   
 42  22  24  1   
 43  22  41  1   
 44  23  42  1   
 45  23  43  1   
 46  23  44  1   
 47  24  45  1   
 48  24  46  1   
 49  24  47  1   
@<TRIPOS>SUBSTRUCTURE
  1 ****  18 GROUP 4 **** **** 0

# MOE 2024.06 (io_trps.svl 2023.06)
