@<TRIPOS>MOLECULE
NONAME
45 47 1 0 0 
SMALL
USER_CHARGES


@<TRIPOS>ATOM
  1 S        2.0670    -0.2240    -0.3190 S.3   1 <1>  -0.0800 
  2 C        0.5620    -1.0690    -0.3830 C.2   1 <1>   0.1980 
  3 C        1.1430     1.2210    -0.0950 C.2   1 <1>   0.1980 
  4 N       -0.4470    -0.3060    -0.2500 N.2   1 <1>  -0.3380 
  5 C        0.5860    -2.5740    -0.5860 C.3   1 <1>   0.5230 
  6 N       -0.1110     1.0080    -0.0820 N.2   1 <1>  -0.3380 
  7 C        1.8840     2.5300     0.0570 C.3   1 <1>  -0.0600 
  8 N       -0.7580    -3.1750    -0.3080 N.4   1 <1>  -0.9590 
  9 C       -0.9280    -4.5350    -0.9760 C.3   1 <1>   0.3430 
 10 C       -0.9880    -3.2150     1.1790 C.3   1 <1>   0.3430 
 11 C       -1.1130    -5.6910     0.0650 C.3   1 <1>  -0.1060 
 12 C       -2.3130    -3.9040     1.4840 C.3   1 <1>  -0.1600 
 13 C       -1.2670    -6.7700     1.1330 C.2   1 <1>   0.9060 
 14 C       -2.5250    -5.0290     0.4750 C.3   1 <1>   0.2000 
 15 C        0.2630    -6.3680    -0.4090 C.3   1 <1>  -0.0170 
 16 O       -1.8790    -7.8100     0.8650 O.co2 1 <1>  -0.9000 
 17 O       -0.7890    -6.5420     2.2480 O.co2 1 <1>  -0.9000 
 18 O       -3.5720    -5.8320     0.9180 O.3   1 <1>  -0.6800 
 19 C        1.5340    -5.5280    -0.2240 C.ar  1 <1>  -0.1440 
 20 C        2.2980    -5.1440    -1.3180 C.ar  1 <1>  -0.1500 
 21 C        1.9430    -5.1580     1.0480 C.ar  1 <1>  -0.1500 
 22 C        3.4300    -4.3650    -1.1450 C.ar  1 <1>  -0.1500 
 23 C        3.0740    -4.3810     1.2240 C.ar  1 <1>  -0.1500 
 24 C        3.8150    -3.9780     0.1270 C.ar  1 <1>  -0.1500 
 25 H        1.3230    -3.0050     0.0680 H     1 <1>   0.0800 
 26 H        0.8780    -2.7780    -1.6010 H     1 <1>   0.0800 
 27 H        1.1820     3.3330     0.1880 H     1 <1>   0.0800 
 28 H        2.4720     2.7220    -0.8220 H     1 <1>   0.0800 
 29 H        2.5300     2.4900     0.9140 H     1 <1>   0.0800 
 30 H       -1.4480    -2.5130    -0.6920 H     1 <1>   0.4500 
 31 H       -1.7780    -4.5070    -1.6370 H     1 <1>   0.0800 
 32 H       -0.0990    -4.6890    -1.6420 H     1 <1>   0.0800 
 33 H       -0.2000    -3.7880     1.6440 H     1 <1>   0.0800 
 34 H       -0.9810    -2.2210     1.5990 H     1 <1>   0.0800 
 35 H       -3.1230    -3.2000     1.4310 H     1 <1>   0.0800 
 36 H       -2.2680    -4.3030     2.4830 H     1 <1>   0.0800 
 37 H       -3.0170    -4.5640    -0.3650 H     1 <1>   0.0800 
 38 H        0.5220    -7.3230     0.0360 H     1 <1>   0.0800 
 39 H        0.1660    -6.6440    -1.4470 H     1 <1>   0.0800 
 40 H       -3.2200    -6.7610     1.0640 H     1 <1>   0.4000 
 41 H        2.0250    -5.4580    -2.3120 H     1 <1>   0.1500 
 42 H        1.3860    -5.4850     1.9130 H     1 <1>   0.1500 
 43 H        4.0220    -4.0740    -1.9960 H     1 <1>   0.1500 
 44 H        3.3830    -4.1040     2.2180 H     1 <1>   0.1500 
 45 H        4.7000    -3.3790     0.2650 H     1 <1>   0.1500 
@<TRIPOS>BOND
  1   1   2  1   
  2   1   3  1   
  3   2   4  2   
  4   2   5  1   
  5   3   6  2   
  6   3   7  1   
  7   4   6  1   
  8   5   8  1   
  9   5  25  1   
 10   5  26  1   
 11   7  27  1   
 12   7  28  1   
 13   7  29  1   
 14   8   9  1   
 15   8  10  1   
 16   8  30  1   
 17   9  11  1   
 18   9  31  1   
 19   9  32  1   
 20  10  12  1   
 21  10  33  1   
 22  10  34  1   
 23  11  13  1   
 24  11  14  1   
 25  11  15  1   
 26  12  14  1   
 27  12  35  1   
 28  12  36  1   
 29  13  16  ar  
 30  13  17  ar  
 31  14  18  1   
 32  14  37  1   
 33  15  19  1   
 34  15  38  1   
 35  15  39  1   
 36  18  40  1   
 37  19  20  ar  
 38  19  21  ar  
 39  20  22  ar  
 40  20  41  1   
 41  21  23  ar  
 42  21  42  1   
 43  22  24  ar  
 44  22  43  1   
 45  23  24  ar  
 46  23  44  1   
 47  24  45  1   
@<TRIPOS>SUBSTRUCTURE
  1 ****   8 GROUP 4 **** **** 0

# MOE 2024.06 (io_trps.svl 2023.06)
