@<TRIPOS>MOLECULE
NONAME
52 54 1 0 0 
SMALL
USER_CHARGES


@<TRIPOS>ATOM
  1 O       -0.8580     1.2690    -1.3980 O.2   1 <1>  -0.5700 
  2 C       -1.7030     1.2440    -0.5290 C.2   1 <1>   0.5690 
  3 N       -2.8810     0.5520    -0.7090 N.am  1 <1>  -0.6600 
  4 C       -1.4220     2.0140     0.7870 C.3   1 <1>   0.2610 
  5 C       -4.0480     0.5970     0.2150 C.3   1 <1>   0.1400 
  6 C       -3.1290    -0.2680    -1.9280 C.3   1 <1>   0.1400 
  7 O       -2.1680     3.1950     0.8470 O.3   1 <1>  -0.6800 
  8 C        0.0620     2.3770     1.0010 C.3   1 <1>  -0.1600 
  9 C       -4.3830    -0.8260     0.6650 C.3   1 <1>  -0.1600 
 10 C       -3.4650    -1.7010    -1.5110 C.3   1 <1>  -0.1600 
 11 C        0.3440     3.0490     2.3540 C.3   1 <1>  -0.2400 
 12 C       -4.6500    -1.7550    -0.5340 C.3   1 <1>   0.4240 
 13 O       -5.7450    -1.2380    -1.2530 O.3   1 <1>  -0.5600 
 14 C       -4.9040    -3.2050    -0.0690 C.ar  1 <1>  -0.1430 
 15 C       -7.0240    -1.5680    -0.8080 C.3   1 <1>   0.1200 
 16 C       -6.1270    -3.8280    -0.2830 C.ar  1 <1>  -0.1430 
 17 C       -3.9090    -3.9200     0.5840 C.ar  1 <1>  -0.1500 
 18 C       -7.2350    -3.0680    -0.9850 C.3   1 <1>  -0.0170 
 19 C       -6.3400    -5.1290     0.1430 C.ar  1 <1>  -0.1500 
 20 C       -4.1010    -5.2230     1.0120 C.ar  1 <1>   0.0830 
 21 C       -5.3420    -5.8440     0.8010 C.ar  1 <1>   0.0830 
 22 O       -3.0190    -5.7840     1.6250 O.3   1 <1>  -0.3630 
 23 O       -5.5590    -7.1150     1.2520 O.3   1 <1>  -0.3620 
 24 C       -2.7740    -7.1710     1.5570 C.3   1 <1>   0.0400 
 25 C       -6.8310    -7.7230     1.2080 C.3   1 <1>   0.0400 
 26 H       -1.7380     1.3980     1.6090 H     1 <1>   0.0800 
 27 H       -4.8890     1.0230    -0.3080 H     1 <1>   0.0800 
 28 H       -3.8530     1.2130     1.0730 H     1 <1>   0.0800 
 29 H       -2.2640    -0.2740    -2.5700 H     1 <1>   0.0800 
 30 H       -3.9500     0.1590    -2.4800 H     1 <1>   0.0800 
 31 H       -1.9280     3.7560     0.0830 H     1 <1>   0.4000 
 32 H        0.3940     3.0150     0.2000 H     1 <1>   0.0800 
 33 H        0.6400     1.4710     0.9420 H     1 <1>   0.0800 
 34 H       -5.2340    -0.8150     1.3190 H     1 <1>   0.0800 
 35 H       -3.5540    -1.2020     1.2340 H     1 <1>   0.0800 
 36 H       -2.5900    -2.1290    -1.0600 H     1 <1>   0.0800 
 37 H       -3.7000    -2.2890    -2.3790 H     1 <1>   0.0800 
 38 H       -0.1800     3.9860     2.4300 H     1 <1>   0.0800 
 39 H        1.3970     3.2400     2.4580 H     1 <1>   0.0800 
 40 H        0.0280     2.4130     3.1630 H     1 <1>   0.0800 
 41 H       -7.7320    -1.0160    -1.4000 H     1 <1>   0.0800 
 42 H       -7.1270    -1.2800     0.2240 H     1 <1>   0.0800 
 43 H       -2.9510    -3.4730     0.7740 H     1 <1>   0.1500 
 44 H       -7.2310    -3.3080    -2.0330 H     1 <1>   0.0800 
 45 H       -8.1910    -3.3410    -0.5770 H     1 <1>   0.0800 
 46 H       -7.2980    -5.5710    -0.0480 H     1 <1>   0.1500 
 47 H       -1.7380    -7.3400     1.7870 H     1 <1>   0.0800 
 48 H       -2.9940    -7.5200     0.5640 H     1 <1>   0.0800 
 49 H       -3.3920    -7.6680     2.2830 H     1 <1>   0.0800 
 50 H       -6.7560    -8.6860     1.6790 H     1 <1>   0.0800 
 51 H       -7.1250    -7.8420     0.1800 H     1 <1>   0.0800 
 52 H       -7.5310    -7.1080     1.7440 H     1 <1>   0.0800 
@<TRIPOS>BOND
  1   1   2  2   
  2   2   3  am  
  3   2   4  1   
  4   3   5  1   
  5   3   6  1   
  6   4   7  1   
  7   4   8  1   
  8   4  26  1   
  9   5   9  1   
 10   5  27  1   
 11   5  28  1   
 12   6  10  1   
 13   6  29  1   
 14   6  30  1   
 15   7  31  1   
 16   8  11  1   
 17   8  32  1   
 18   8  33  1   
 19   9  12  1   
 20   9  34  1   
 21   9  35  1   
 22  10  12  1   
 23  10  36  1   
 24  10  37  1   
 25  11  38  1   
 26  11  39  1   
 27  11  40  1   
 28  12  13  1   
 29  12  14  1   
 30  13  15  1   
 31  14  16  ar  
 32  14  17  ar  
 33  15  18  1   
 34  15  41  1   
 35  15  42  1   
 36  16  18  1   
 37  16  19  ar  
 38  17  20  ar  
 39  17  43  1   
 40  18  44  1   
 41  18  45  1   
 42  19  21  ar  
 43  19  46  1   
 44  20  21  ar  
 45  20  22  1   
 46  21  23  1   
 47  22  24  1   
 48  23  25  1   
 49  24  47  1   
 50  24  48  1   
 51  24  49  1   
 52  25  50  1   
 53  25  51  1   
 54  25  52  1   
@<TRIPOS>SUBSTRUCTURE
  1 ****  12 GROUP 4 **** **** 0

# MOE 2024.06 (io_trps.svl 2023.06)
