@<TRIPOS>MOLECULE
NONAME
56 58 1 0 0 
SMALL
USER_CHARGES


@<TRIPOS>ATOM
  1 O        0.0810     0.0910    -0.5560 O.2   1 <1>  -0.5700 
  2 C        1.1260    -0.4660    -0.2750 C.2   1 <1>   0.5440 
  3 N        2.2550     0.2720     0.0010 N.am  1 <1>  -0.4940 
  4 C        1.2030    -1.9100    -0.2560 C.ar  1 <1>   0.0860 
  5 C        2.4140     1.6700     0.1740 C.2   1 <1>  -0.0880 
  6 C        0.4470    -2.6810    -1.1410 C.ar  1 <1>  -0.1500 
  7 C        2.0280    -2.5970     0.6390 C.ar  1 <1>  -0.1500 
  8 N        3.6050     2.3220     0.3160 N.pl3 1 <1>   0.3140 
  9 C        1.4560     2.6240     0.2410 C.2   1 <1>  -0.1500 
 10 C        0.5210    -4.0590    -1.1450 C.ar  1 <1>  -0.1500 
 11 C        2.1040    -3.9760     0.6360 C.ar  1 <1>  -0.1500 
 12 N        3.4180     3.6550     0.4750 N.2   1 <1>  -0.7070 
 13 C        4.9900     1.7700     0.2940 C.3   1 <1>   0.1760 
 14 C        2.1360     3.8190     0.4270 C.2   1 <1>   0.1080 
 15 C        1.3530    -4.7320    -0.2570 C.ar  1 <1>   0.1000 
 16 C        5.3160     1.1750    -1.0930 C.3   1 <1>  -0.1600 
 17 C        5.2100     0.7770     1.4500 C.3   1 <1>  -0.2400 
 18 C        1.4870     5.1760     0.5610 C.3   1 <1>  -0.0590 
 19 N        1.4340    -6.1160    -0.2410 N.pl3 1 <1>  -0.8380 
 20 C        6.7930     0.7860    -1.2560 C.3   1 <1>  -0.2400 
 21 C        2.7220    -6.7910    -0.5770 C.3   1 <1>   0.2090 
 22 C        0.2030    -6.9490    -0.3790 C.3   1 <1>   0.2090 
 23 C        2.8430    -8.1380     0.1670 C.3   1 <1>   0.3430 
 24 C        0.3680    -8.2900     0.3680 C.3   1 <1>   0.3430 
 25 N        1.6310    -9.0230    -0.0210 N.4   1 <1>  -0.9590 
 26 C        1.7710   -10.2970     0.7480 C.3   1 <1>   0.2630 
 27 H        3.1090    -0.2770     0.0630 H     1 <1>   0.3700 
 28 H       -0.2060    -2.1780    -1.8340 H     1 <1>   0.1500 
 29 H        2.6060    -2.0460     1.3590 H     1 <1>   0.1500 
 30 H        0.3920     2.4980     0.1690 H     1 <1>   0.1500 
 31 H       -0.0690    -4.6160    -1.8490 H     1 <1>   0.1500 
 32 H        2.7380    -4.4790     1.3420 H     1 <1>   0.1500 
 33 H        5.6480     2.6070     0.4540 H     1 <1>   0.0800 
 34 H        5.0810     1.9150    -1.8390 H     1 <1>   0.0800 
 35 H        4.7060     0.3110    -1.2820 H     1 <1>   0.0800 
 36 H        4.6780    -0.1400     1.2880 H     1 <1>   0.0800 
 37 H        4.8810     1.2200     2.3740 H     1 <1>   0.0800 
 38 H        6.2550     0.5500     1.5480 H     1 <1>   0.0800 
 39 H        0.4190     5.0900     0.4880 H     1 <1>   0.0800 
 40 H        1.8440     5.8210    -0.2200 H     1 <1>   0.0800 
 41 H        1.7440     5.6030     1.5130 H     1 <1>   0.0800 
 42 H        7.4300     1.6290    -1.0490 H     1 <1>   0.0800 
 43 H        6.9750     0.4660    -2.2670 H     1 <1>   0.0800 
 44 H        7.0570    -0.0220    -0.5970 H     1 <1>   0.0800 
 45 H        3.5480    -6.1560    -0.3060 H     1 <1>   0.0800 
 46 H        2.7700    -6.9540    -1.6400 H     1 <1>   0.0800 
 47 H        0.0070    -7.1320    -1.4210 H     1 <1>   0.0800 
 48 H       -0.6380    -6.4150     0.0300 H     1 <1>   0.0800 
 49 H        2.9710    -7.9260     1.2160 H     1 <1>   0.0800 
 50 H        3.7270    -8.6490    -0.1750 H     1 <1>   0.0800 
 51 H       -0.4920    -8.9080     0.1710 H     1 <1>   0.0800 
 52 H        0.3860    -8.0790     1.4250 H     1 <1>   0.0800 
 53 H        1.5640    -9.2440    -1.0250 H     1 <1>   0.4500 
 54 H        1.8440   -10.0910     1.8040 H     1 <1>   0.0800 
 55 H        2.6580   -10.8260     0.4380 H     1 <1>   0.0800 
 56 H        0.9170   -10.9320     0.5790 H     1 <1>   0.0800 
@<TRIPOS>BOND
  1   1   2  2   
  2   2   3  am  
  3   2   4  1   
  4   3   5  1   
  5   3  27  1   
  6   4   6  ar  
  7   4   7  ar  
  8   5   8  1   
  9   5   9  2   
 10   6  10  ar  
 11   6  28  1   
 12   7  11  ar  
 13   7  29  1   
 14   8  12  1   
 15   8  13  1   
 16   9  14  1   
 17   9  30  1   
 18  10  15  ar  
 19  10  31  1   
 20  11  15  ar  
 21  11  32  1   
 22  12  14  2   
 23  13  16  1   
 24  13  17  1   
 25  13  33  1   
 26  14  18  1   
 27  15  19  1   
 28  16  20  1   
 29  16  34  1   
 30  16  35  1   
 31  17  36  1   
 32  17  37  1   
 33  17  38  1   
 34  18  39  1   
 35  18  40  1   
 36  18  41  1   
 37  19  21  1   
 38  19  22  1   
 39  20  42  1   
 40  20  43  1   
 41  20  44  1   
 42  21  23  1   
 43  21  45  1   
 44  21  46  1   
 45  22  24  1   
 46  22  47  1   
 47  22  48  1   
 48  23  25  1   
 49  23  49  1   
 50  23  50  1   
 51  24  25  1   
 52  24  51  1   
 53  24  52  1   
 54  25  26  1   
 55  25  53  1   
 56  26  54  1   
 57  26  55  1   
 58  26  56  1   
@<TRIPOS>SUBSTRUCTURE
  1 ****   7 GROUP 4 **** **** 0

# MOE 2024.06 (io_trps.svl 2023.06)
