@<TRIPOS>MOLECULE
NONAME
50 52 1 0 0 
SMALL
USER_CHARGES


@<TRIPOS>ATOM
  1 O       -0.5380     0.1330    -0.9490 O.2   1 <1>  -0.5700 
  2 C       -1.5860     0.7120    -0.7840 C.2   1 <1>   0.5690 
  3 N       -2.7540     0.0010    -0.6370 N.am  1 <1>  -0.6600 
  4 C       -1.5280     2.2490    -0.7620 C.3   1 <1>  -0.0190 
  5 C       -4.1260     0.5150    -0.3900 C.3   1 <1>   0.1400 
  6 C       -2.7650    -1.4830    -0.6820 C.3   1 <1>   0.1400 
  7 C       -2.1220     2.8510     0.5370 C.3   1 <1>  -0.1600 
  8 C       -2.1210     2.8340    -2.0660 C.3   1 <1>  -0.1600 
  9 C       -5.0190    -0.7250    -0.3330 C.3   1 <1>   0.2000 
 10 C       -4.0860    -1.8940    -0.0300 C.3   1 <1>  -0.0800 
 11 C       -1.3050     4.0230     1.1010 C.3   1 <1>  -0.2400 
 12 C       -1.9110     4.3430    -2.2420 C.3   1 <1>  -0.2400 
 13 O       -5.9790    -0.6150     0.6610 O.3   1 <1>  -0.6800 
 14 C       -4.6370    -3.2390    -0.5310 C.3   1 <1>  -0.0170 
 15 C       -3.6770    -4.3770    -0.2310 C.ar  1 <1>   0.1670 
 16 N       -2.7760    -4.6490    -1.1240 N.ar  1 <1>  -0.6200 
 17 C       -3.8000    -5.0670     0.9850 C.ar  1 <1>  -0.1500 
 18 C       -1.9020    -5.6520    -0.8560 C.ar  1 <1>   0.3100 
 19 C       -2.9410    -6.0810     1.2790 C.ar  1 <1>  -0.1500 
 20 C       -1.9460    -6.4020     0.3400 C.ar  1 <1>   0.0000 
 21 C       -0.9100    -5.9590    -1.8000 C.ar  1 <1>  -0.1500 
 22 C       -1.0010    -7.4280     0.5410 C.ar  1 <1>  -0.1500 
 23 C        0.0010    -6.9600    -1.5860 C.ar  1 <1>  -0.1500 
 24 C       -0.0470    -7.7020    -0.4020 C.ar  1 <1>  -0.1500 
 25 H       -0.4790     2.4870    -0.7680 H     1 <1>   0.0800 
 26 H       -4.1520     1.0370     0.5500 H     1 <1>   0.0800 
 27 H       -4.4430     1.1590    -1.1880 H     1 <1>   0.0800 
 28 H       -2.7260    -1.8030    -1.7090 H     1 <1>   0.0800 
 29 H       -1.9210    -1.8970    -0.1550 H     1 <1>   0.0800 
 30 H       -3.1360     3.1670     0.3680 H     1 <1>   0.0800 
 31 H       -2.1390     2.0870     1.2960 H     1 <1>   0.0800 
 32 H       -1.6510     2.3340    -2.8970 H     1 <1>   0.0800 
 33 H       -3.1720     2.6270    -2.1260 H     1 <1>   0.0800 
 34 H       -5.5200    -0.8560    -1.2770 H     1 <1>   0.0800 
 35 H       -3.9100    -1.9510     1.0290 H     1 <1>   0.0800 
 36 H       -1.2530     4.8400     0.4060 H     1 <1>   0.0800 
 37 H       -0.3030     3.7040     1.3290 H     1 <1>   0.0800 
 38 H       -1.7590     4.3820     2.0080 H     1 <1>   0.0800 
 39 H       -0.8720     4.5970    -2.1270 H     1 <1>   0.0800 
 40 H       -2.4930     4.8950    -1.5260 H     1 <1>   0.0800 
 41 H       -2.2260     4.6430    -3.2260 H     1 <1>   0.0800 
 42 H       -5.5530    -0.5330     1.5360 H     1 <1>   0.4000 
 43 H       -4.8040    -3.1940    -1.5940 H     1 <1>   0.0800 
 44 H       -5.5860    -3.4360    -0.0640 H     1 <1>   0.0800 
 45 H       -4.5750    -4.7840     1.6740 H     1 <1>   0.1500 
 46 H       -3.0040    -6.6330     2.1990 H     1 <1>   0.1500 
 47 H       -0.8900    -5.3760    -2.7020 H     1 <1>   0.1500 
 48 H       -1.0420    -7.9940     1.4540 H     1 <1>   0.1500 
 49 H        0.7560    -7.1840    -2.3190 H     1 <1>   0.1500 
 50 H        0.6750    -8.4860    -0.2460 H     1 <1>   0.1500 
@<TRIPOS>BOND
  1   1   2  2   
  2   2   3  am  
  3   2   4  1   
  4   3   5  1   
  5   3   6  1   
  6   4   7  1   
  7   4   8  1   
  8   4  25  1   
  9   5   9  1   
 10   5  26  1   
 11   5  27  1   
 12   6  10  1   
 13   6  28  1   
 14   6  29  1   
 15   7  11  1   
 16   7  30  1   
 17   7  31  1   
 18   8  12  1   
 19   8  32  1   
 20   8  33  1   
 21   9  10  1   
 22   9  13  1   
 23   9  34  1   
 24  10  14  1   
 25  10  35  1   
 26  11  36  1   
 27  11  37  1   
 28  11  38  1   
 29  12  39  1   
 30  12  40  1   
 31  12  41  1   
 32  13  42  1   
 33  14  15  1   
 34  14  43  1   
 35  14  44  1   
 36  15  16  ar  
 37  15  17  ar  
 38  16  18  ar  
 39  17  19  ar  
 40  17  45  1   
 41  18  20  ar  
 42  18  21  ar  
 43  19  20  ar  
 44  19  46  1   
 45  20  22  ar  
 46  21  23  ar  
 47  21  47  1   
 48  22  24  ar  
 49  22  48  1   
 50  23  24  ar  
 51  23  49  1   
 52  24  50  1   
@<TRIPOS>SUBSTRUCTURE
  1 ****   6 GROUP 4 **** **** 0

# MOE 2024.06 (io_trps.svl 2023.06)
