@<TRIPOS>MOLECULE
NONAME
61 63 1 0 0 
SMALL
USER_CHARGES


@<TRIPOS>ATOM
  1 O        0.2510     0.2600     1.7110 O.2   1 <1>  -0.5700 
  2 C       -0.0340    -0.8690     1.3930 C.2   1 <1>   0.5690 
  3 N        0.8630    -1.7070     0.8030 N.am  1 <1>  -0.7300 
  4 C       -1.4810    -1.3310     1.6340 C.3   1 <1>   0.4040 
  5 C        2.2650    -1.3500     0.4950 C.3   1 <1>   0.2200 
  6 N       -2.4840    -0.7810     0.6430 N.4   1 <1>  -0.9590 
  7 C        2.4270    -1.3060    -1.0380 C.3   1 <1>  -0.1600 
  8 C        3.1760    -2.3800     1.1770 C.3   1 <1>  -0.1600 
  9 C       -3.8320    -1.4000     0.8480 C.3   1 <1>   0.3430 
 10 C       -2.5530     0.7110     0.7280 C.3   1 <1>   0.3430 
 11 C        2.9610     0.0430    -1.5440 C.3   1 <1>  -0.1600 
 12 C        4.5800    -1.8520     1.5180 C.3   1 <1>  -0.1600 
 13 C       -4.8500    -0.9180    -0.2080 C.3   1 <1>   0.0000 
 14 C       -3.5220     1.2500    -0.3260 C.3   1 <1>  -0.1600 
 15 C        4.4920     0.1690    -1.5230 C.3   1 <1>  -0.1600 
 16 C        5.4220    -1.3940     0.3170 C.3   1 <1>  -0.1600 
 17 C       -6.2200    -1.5510     0.0860 C.3   1 <1>   0.2000 
 18 C       -4.9190     0.6220    -0.1970 C.3   1 <1>  -0.1600 
 19 C       -4.5120    -1.4840    -1.5980 C.3   1 <1>  -0.1600 
 20 C        5.1450     0.0540    -0.1370 C.3   1 <1>  -0.1600 
 21 O       -6.3940    -1.6840     1.4640 O.3   1 <1>  -0.5600 
 22 C       -6.2130    -2.9240    -0.5990 C.3   1 <1>  -0.1600 
 23 C       -5.0330    -2.9220    -1.5790 C.3   1 <1>  -0.1600 
 24 C       -7.7110    -1.9050     1.8670 C.3   1 <1>   0.0400 
 25 H        0.6330    -2.6700     0.5540 H     1 <1>   0.3700 
 26 H       -1.7600    -1.0270     2.6280 H     1 <1>   0.0800 
 27 H       -1.4980    -2.4060     1.6020 H     1 <1>   0.0800 
 28 H        2.4710    -0.3790     0.9170 H     1 <1>   0.0800 
 29 H       -2.1690    -1.0110    -0.3080 H     1 <1>   0.4500 
 30 H        3.0720    -2.0930    -1.3850 H     1 <1>   0.0800 
 31 H        1.4710    -1.4630    -1.5040 H     1 <1>   0.0800 
 32 H        2.7280    -2.6730     2.1110 H     1 <1>   0.0800 
 33 H        3.2630    -3.2630     0.5690 H     1 <1>   0.0800 
 34 H       -3.7630    -2.4740     0.8030 H     1 <1>   0.0800 
 35 H       -4.2000    -1.1350     1.8260 H     1 <1>   0.0800 
 36 H       -2.8900     1.0050     1.7100 H     1 <1>   0.0800 
 37 H       -1.5770     1.1420     0.5670 H     1 <1>   0.0800 
 38 H        2.6460     0.1630    -2.5660 H     1 <1>   0.0800 
 39 H        2.5180     0.8500    -0.9850 H     1 <1>   0.0800 
 40 H        4.5050    -1.0530     2.2370 H     1 <1>   0.0800 
 41 H        5.1120    -2.6520     2.0050 H     1 <1>   0.0800 
 42 H       -3.6030     2.3170    -0.2080 H     1 <1>   0.0800 
 43 H       -3.1200     1.0700    -1.3080 H     1 <1>   0.0800 
 44 H        4.9280    -0.5510    -2.1940 H     1 <1>   0.0800 
 45 H        4.7340     1.1420    -1.9180 H     1 <1>   0.0800 
 46 H        6.4530    -1.4360     0.6240 H     1 <1>   0.0800 
 47 H        5.3230    -2.0900    -0.4970 H     1 <1>   0.0800 
 48 H       -7.0050    -0.9340    -0.3200 H     1 <1>   0.0800 
 49 H       -5.5530     0.9770    -0.9930 H     1 <1>   0.0800 
 50 H       -5.3610     0.9450     0.7320 H     1 <1>   0.0800 
 51 H       -5.0570    -0.9370    -2.3500 H     1 <1>   0.0800 
 52 H       -3.4660    -1.4420    -1.8450 H     1 <1>   0.0800 
 53 H        4.5710     0.5980     0.5940 H     1 <1>   0.0800 
 54 H        6.0980     0.5520    -0.1990 H     1 <1>   0.0800 
 55 H       -6.0950    -3.7190     0.1180 H     1 <1>   0.0800 
 56 H       -7.1360    -3.0650    -1.1320 H     1 <1>   0.0800 
 57 H       -4.2670    -3.5900    -1.2240 H     1 <1>   0.0800 
 58 H       -5.3360    -3.2410    -2.5620 H     1 <1>   0.0800 
 59 H       -7.7250    -1.9910     2.9400 H     1 <1>   0.0800 
 60 H       -8.0760    -2.8180     1.4290 H     1 <1>   0.0800 
 61 H       -8.3220    -1.0710     1.5660 H     1 <1>   0.0800 
@<TRIPOS>BOND
  1   1   2  2   
  2   2   3  am  
  3   2   4  1   
  4   3   5  1   
  5   3  25  1   
  6   4   6  1   
  7   4  26  1   
  8   4  27  1   
  9   5   7  1   
 10   5   8  1   
 11   5  28  1   
 12   6   9  1   
 13   6  10  1   
 14   6  29  1   
 15   7  11  1   
 16   7  30  1   
 17   7  31  1   
 18   8  12  1   
 19   8  32  1   
 20   8  33  1   
 21   9  13  1   
 22   9  34  1   
 23   9  35  1   
 24  10  14  1   
 25  10  36  1   
 26  10  37  1   
 27  11  15  1   
 28  11  38  1   
 29  11  39  1   
 30  12  16  1   
 31  12  40  1   
 32  12  41  1   
 33  13  17  1   
 34  13  18  1   
 35  13  19  1   
 36  14  18  1   
 37  14  42  1   
 38  14  43  1   
 39  15  20  1   
 40  15  44  1   
 41  15  45  1   
 42  16  20  1   
 43  16  46  1   
 44  16  47  1   
 45  17  21  1   
 46  17  22  1   
 47  17  48  1   
 48  18  49  1   
 49  18  50  1   
 50  19  23  1   
 51  19  51  1   
 52  19  52  1   
 53  20  53  1   
 54  20  54  1   
 55  21  24  1   
 56  22  23  1   
 57  22  55  1   
 58  22  56  1   
 59  23  57  1   
 60  23  58  1   
 61  24  59  1   
 62  24  60  1   
 63  24  61  1   
@<TRIPOS>SUBSTRUCTURE
  1 ****   6 GROUP 4 **** **** 0

# MOE 2024.06 (io_trps.svl 2023.06)
