@<TRIPOS>MOLECULE
NONAME
55 56 1 0 0 
SMALL
USER_CHARGES


@<TRIPOS>ATOM
  1 O       -0.3870     1.1090     0.9420 O.2   1 <1>  -0.5700 
  2 C       -0.3800     2.2720     0.6140 C.2   1 <1>   0.5690 
  3 N       -1.5220     3.0290     0.4810 N.am  1 <1>  -0.6600 
  4 C        0.9900     2.8940     0.3260 C.3   1 <1>   0.1810 
  5 C       -1.4270     4.4780     0.0970 C.3   1 <1>   0.3640 
  6 C       -2.8720     2.5840     0.9390 C.3   1 <1>   0.2200 
  7 O        0.9960     4.3020     0.3820 O.3   1 <1>  -0.5600 
  8 C       -2.4350     4.8180    -1.0030 C.ar  1 <1>  -0.1440 
  9 C       -0.0210     4.8930    -0.3960 C.3   1 <1>   0.2610 
 10 C       -2.8640     2.3240     2.4450 C.3   1 <1>  -0.2400 
 11 C       -3.3550     1.3670     0.1500 C.3   1 <1>  -0.2400 
 12 C       -3.2630     5.9230    -0.8640 C.ar  1 <1>  -0.1500 
 13 C       -2.5300     4.0440    -2.1520 C.ar  1 <1>  -0.1500 
 14 C        0.1460     6.4230    -0.4090 C.2   1 <1>   0.5690 
 15 C       -4.1670     6.2530    -1.8580 C.ar  1 <1>  -0.1500 
 16 C       -3.4330     4.3740    -3.1480 C.ar  1 <1>  -0.1500 
 17 O       -0.4520     7.0940     0.4060 O.2   1 <1>  -0.5700 
 18 N        0.9930     7.0450    -1.3010 N.am  1 <1>  -0.6600 
 19 C       -4.2520     5.4790    -3.0010 C.ar  1 <1>  -0.1500 
 20 C        0.9400     8.5260    -1.5340 C.3   1 <1>   0.1400 
 21 C        1.9360     6.3020    -2.1900 C.3   1 <1>   0.0600 
 22 C        1.8500     9.2970    -0.5570 C.3   1 <1>   0.3430 
 23 N        1.4130     9.1040     0.8590 N.4   1 <1>  -0.9590 
 24 C        0.4140    10.1220     1.2950 C.3   1 <1>   0.2630 
 25 C        2.5600     9.0020     1.8060 C.3   1 <1>   0.2630 
 26 H        1.3190     2.5890    -0.6510 H     1 <1>   0.0800 
 27 H        1.6960     2.5370     1.0530 H     1 <1>   0.0800 
 28 H       -1.6650     5.0500     0.9770 H     1 <1>   0.0800 
 29 H       -3.5810     3.3760     0.7600 H     1 <1>   0.0800 
 30 H        0.0970     4.5370    -1.4020 H     1 <1>   0.0800 
 31 H       -2.2390     1.4840     2.6880 H     1 <1>   0.0800 
 32 H       -3.8610     2.1060     2.7810 H     1 <1>   0.0800 
 33 H       -2.5120     3.1920     2.9710 H     1 <1>   0.0800 
 34 H       -2.7520     0.5020     0.3580 H     1 <1>   0.0800 
 35 H       -3.3310     1.5720    -0.9040 H     1 <1>   0.0800 
 36 H       -4.3680     1.1380     0.4240 H     1 <1>   0.0800 
 37 H       -3.2080     6.5380     0.0190 H     1 <1>   0.1500 
 38 H       -1.9060     3.1760    -2.2760 H     1 <1>   0.1500 
 39 H       -4.8070     7.1100    -1.7430 H     1 <1>   0.1500 
 40 H       -3.5020     3.7680    -4.0350 H     1 <1>   0.1500 
 41 H       -4.9560     5.7350    -3.7750 H     1 <1>   0.1500 
 42 H        1.2450     8.7380    -2.5450 H     1 <1>   0.0800 
 43 H       -0.0750     8.8710    -1.4300 H     1 <1>   0.0800 
 44 H        2.8270     6.8820    -2.3590 H     1 <1>   0.0800 
 45 H        1.4650     6.1030    -3.1380 H     1 <1>   0.0800 
 46 H        2.2320     5.3690    -1.7410 H     1 <1>   0.0800 
 47 H        1.8440    10.3460    -0.8030 H     1 <1>   0.0800 
 48 H        2.8560     8.9330    -0.6820 H     1 <1>   0.0800 
 49 H        0.9050     8.1890     0.8610 H     1 <1>   0.4500 
 50 H        0.8490    11.1080     1.2840 H     1 <1>   0.0800 
 51 H        0.0730     9.9030     2.2940 H     1 <1>   0.0800 
 52 H       -0.4410    10.1080     0.6370 H     1 <1>   0.0800 
 53 H        3.1140     9.9260     1.8260 H     1 <1>   0.0800 
 54 H        3.2210     8.2050     1.5040 H     1 <1>   0.0800 
 55 H        2.2030     8.7890     2.8010 H     1 <1>   0.0800 
@<TRIPOS>BOND
  1   1   2  2   
  2   2   3  am  
  3   2   4  1   
  4   3   5  1   
  5   3   6  1   
  6   4   7  1   
  7   4  26  1   
  8   4  27  1   
  9   5   8  1   
 10   5   9  1   
 11   5  28  1   
 12   6  10  1   
 13   6  11  1   
 14   6  29  1   
 15   7   9  1   
 16   8  12  ar  
 17   8  13  ar  
 18   9  14  1   
 19   9  30  1   
 20  10  31  1   
 21  10  32  1   
 22  10  33  1   
 23  11  34  1   
 24  11  35  1   
 25  11  36  1   
 26  12  15  ar  
 27  12  37  1   
 28  13  16  ar  
 29  13  38  1   
 30  14  17  2   
 31  14  18  am  
 32  15  19  ar  
 33  15  39  1   
 34  16  19  ar  
 35  16  40  1   
 36  18  20  1   
 37  18  21  1   
 38  19  41  1   
 39  20  22  1   
 40  20  42  1   
 41  20  43  1   
 42  21  44  1   
 43  21  45  1   
 44  21  46  1   
 45  22  23  1   
 46  22  47  1   
 47  22  48  1   
 48  23  24  1   
 49  23  25  1   
 50  23  49  1   
 51  24  50  1   
 52  24  51  1   
 53  24  52  1   
 54  25  53  1   
 55  25  54  1   
 56  25  55  1   
@<TRIPOS>SUBSTRUCTURE
  1 ****   9 GROUP 4 **** **** 0

# MOE 2024.06 (io_trps.svl 2023.06)
