@<TRIPOS>MOLECULE
NONAME
48 50 1 0 0 
SMALL
USER_CHARGES


@<TRIPOS>ATOM
  1 F       -2.3520    -1.0010    -0.9110 F     1 <1>  -0.1900 
  2 C       -2.3370     0.0660    -0.1510 C.ar  1 <1>   0.1900 
  3 C       -1.7490     1.2260    -0.6480 C.ar  1 <1>   0.0820 
  4 C       -2.9180    -0.0270     1.1120 C.ar  1 <1>   0.0860 
  5 O       -1.2190     1.1740    -1.9100 O.3   1 <1>  -0.3630 
  6 C       -1.7640     2.3380     0.2000 C.ar  1 <1>   0.1900 
  7 C       -3.5170    -1.2530     1.5810 C.2   1 <1>   0.5440 
  8 C       -2.8970     1.1140     1.9150 C.ar  1 <1>  -0.1500 
  9 C       -0.4090     2.1950    -2.4520 C.3   1 <1>   0.0400 
 10 F       -1.2550     3.4860    -0.1610 F     1 <1>  -0.1900 
 11 C       -2.3250     2.2910     1.4640 C.ar  1 <1>  -0.1500 
 12 O       -2.8520    -2.0190     2.2530 O.2   1 <1>  -0.5700 
 13 N       -4.8240    -1.5820     1.2970 N.am  1 <1>  -0.6600 
 14 C       -5.4240    -2.8650     1.7700 C.3   1 <1>   0.1400 
 15 C       -5.6540    -0.9000     0.2620 C.3   1 <1>   0.1400 
 16 C       -5.5150    -3.8340     0.5690 C.3   1 <1>   0.4230 
 17 C       -5.8150    -1.8450    -0.9390 C.3   1 <1>  -0.1600 
 18 N       -5.9850    -5.2180     0.9200 N.4   1 <1>  -0.9590 
 19 C       -6.4110    -3.2240    -0.5310 C.3   1 <1>  -0.1060 
 20 C       -5.9260    -6.1340    -0.2470 C.3   1 <1>   0.3430 
 21 C       -5.3670    -5.8070     2.1380 C.3   1 <1>   0.2630 
 22 C       -7.8370    -3.0570     0.0320 C.2   1 <1>   0.9060 
 23 C       -6.4140    -4.1500    -1.7710 C.3   1 <1>  -0.1600 
 24 C       -6.7830    -5.5940    -1.3950 C.3   1 <1>  -0.1600 
 25 O       -8.2550    -3.8850     0.8590 O.co2 1 <1>  -0.9000 
 26 O       -8.5260    -2.1050    -0.3290 O.co2 1 <1>  -0.9000 
 27 H       -3.3330     1.0670     2.8990 H     1 <1>   0.1500 
 28 H       -0.0300     1.8520    -3.3980 H     1 <1>   0.0800 
 29 H        0.4090     2.3900    -1.7810 H     1 <1>   0.0800 
 30 H       -1.0070     3.0760    -2.6000 H     1 <1>   0.0800 
 31 H       -2.3120     3.1690     2.0860 H     1 <1>   0.1500 
 32 H       -4.8130    -3.2830     2.5470 H     1 <1>   0.0800 
 33 H       -6.3990    -2.6680     2.1820 H     1 <1>   0.0800 
 34 H       -6.6210    -0.6630     0.6780 H     1 <1>   0.0800 
 35 H       -5.2020     0.0220    -0.0580 H     1 <1>   0.0800 
 36 H       -4.5170    -3.9190     0.1740 H     1 <1>   0.0800 
 37 H       -6.4600    -1.3730    -1.6610 H     1 <1>   0.0800 
 38 H       -4.8540    -1.9730    -1.4060 H     1 <1>   0.0800 
 39 H       -7.0100    -5.0360     1.1010 H     1 <1>   0.4500 
 40 H       -4.9040    -6.2320    -0.5760 H     1 <1>   0.0800 
 41 H       -6.2910    -7.1080     0.0360 H     1 <1>   0.0800 
 42 H       -4.2990    -5.8830     2.0150 H     1 <1>   0.0800 
 43 H       -5.7720    -6.7880     2.3210 H     1 <1>   0.0800 
 44 H       -5.5770    -5.1900     2.9960 H     1 <1>   0.0800 
 45 H       -7.1210    -3.7760    -2.4930 H     1 <1>   0.0800 
 46 H       -5.4410    -4.1460    -2.2310 H     1 <1>   0.0800 
 47 H       -6.6620    -6.2280    -2.2540 H     1 <1>   0.0800 
 48 H       -7.8200    -5.6420    -1.1090 H     1 <1>   0.0800 
@<TRIPOS>BOND
  1   1   2  1   
  2   2   3  ar  
  3   2   4  ar  
  4   3   5  1   
  5   3   6  ar  
  6   4   7  1   
  7   4   8  ar  
  8   5   9  1   
  9   6  10  1   
 10   6  11  ar  
 11   7  12  2   
 12   7  13  am  
 13   8  11  ar  
 14   8  27  1   
 15   9  28  1   
 16   9  29  1   
 17   9  30  1   
 18  11  31  1   
 19  13  14  1   
 20  13  15  1   
 21  14  16  1   
 22  14  32  1   
 23  14  33  1   
 24  15  17  1   
 25  15  34  1   
 26  15  35  1   
 27  16  18  1   
 28  16  19  1   
 29  16  36  1   
 30  17  19  1   
 31  17  37  1   
 32  17  38  1   
 33  18  20  1   
 34  18  21  1   
 35  18  39  1   
 36  19  22  1   
 37  19  23  1   
 38  20  24  1   
 39  20  40  1   
 40  20  41  1   
 41  21  42  1   
 42  21  43  1   
 43  21  44  1   
 44  22  25  ar  
 45  22  26  ar  
 46  23  24  1   
 47  23  45  1   
 48  23  46  1   
 49  24  47  1   
 50  24  48  1   
@<TRIPOS>SUBSTRUCTURE
  1 ****  13 GROUP 4 **** **** 0

# MOE 2024.06 (io_trps.svl 2023.06)
