@<TRIPOS>MOLECULE
NONAME
63 66 1 0 0 
SMALL
USER_CHARGES


@<TRIPOS>ATOM
  1 O        0.9010    -0.9470    -1.5690 O.2   1 <1>  -0.5700 
  2 C        1.3780    -2.0350    -1.3530 C.2   1 <1>   0.5690 
  3 N        2.7410    -2.2120    -1.3630 N.am  1 <1>  -0.6600 
  4 C        0.3700    -3.1460    -1.1020 C.3   1 <1>  -0.0990 
  5 C        3.4330    -3.5090    -1.1040 C.3   1 <1>   0.1400 
  6 C        3.6530    -1.0670    -1.7430 C.3   1 <1>   0.2010 
  7 C        0.8720    -4.4840    -0.5600 C.3   1 <1>   0.1200 
  8 C        3.0980    -4.1490     0.2810 C.3   1 <1>   0.2800 
  9 C        4.5200    -0.5530    -0.5860 C.2   1 <1>   0.5690 
 10 O        1.7270    -4.2560     0.5160 O.3   1 <1>  -0.5600 
 11 C        3.6710    -5.5680     0.4060 C.3   1 <1>  -0.1600 
 12 C        3.6190    -3.2990     1.4450 C.3   1 <1>  -0.1600 
 13 O        5.6490    -0.9870    -0.5080 O.2   1 <1>  -0.5700 
 14 N        4.0320     0.3340     0.3460 N.am  1 <1>  -0.6600 
 15 C        5.1940    -5.5580     0.4990 C.3   1 <1>   0.3430 
 16 C        5.1410    -3.3000     1.5070 C.3   1 <1>   0.3430 
 17 C        2.6160     0.8050     0.3610 C.3   1 <1>   0.0600 
 18 C        4.8910     0.9320     1.4070 C.3   1 <1>   0.0600 
 19 N        5.6460    -4.6990     1.6340 N.4   1 <1>  -0.9590 
 20 C        7.1380    -4.7010     1.7490 C.3   1 <1>   0.5240 
 21 C        7.7660    -4.1400     0.4860 C.2   1 <1>  -0.1810 
 22 C        8.1310    -4.8760    -0.6470 C.2   1 <1>   0.2350 
 23 C        8.0530    -2.8550     0.1880 C.2   1 <1>  -0.3020 
 24 N        8.5670    -4.0840    -1.5890 N.2   1 <1>  -0.7070 
 25 C        8.0040    -6.3090    -0.7950 C.ar  1 <1>   0.0540 
 26 N        8.5310    -2.8470    -1.0700 N.pl3 1 <1>   0.3000 
 27 C        7.2960    -6.8460    -1.8670 C.ar  1 <1>  -0.1500 
 28 C        8.5500    -7.1940     0.1330 C.ar  1 <1>  -0.1500 
 29 C        7.0980    -8.2090    -1.9860 C.ar  1 <1>  -0.1500 
 30 C        8.3540    -8.5590     0.0210 C.ar  1 <1>  -0.1500 
 31 C        7.6210    -9.0680    -1.0350 C.ar  1 <1>  -0.1500 
 32 H       -0.1550    -3.3250    -2.0210 H     1 <1>   0.0800 
 33 H       -0.3530    -2.7650    -0.4040 H     1 <1>   0.0800 
 34 H        4.4960    -3.3550    -1.1700 H     1 <1>   0.0800 
 35 H        3.1890    -4.1910    -1.8990 H     1 <1>   0.0800 
 36 H        3.0880    -0.2470    -2.1440 H     1 <1>   0.0800 
 37 H        4.3060    -1.3970    -2.5290 H     1 <1>   0.0800 
 38 H        1.3600    -5.0760    -1.3140 H     1 <1>   0.0800 
 39 H        0.0350    -5.0500    -0.1880 H     1 <1>   0.0800 
 40 H        3.3820    -6.1560    -0.4460 H     1 <1>   0.0800 
 41 H        3.2720    -6.0450     1.2840 H     1 <1>   0.0800 
 42 H        3.2300    -3.6720     2.3760 H     1 <1>   0.0800 
 43 H        3.2740    -2.2870     1.3350 H     1 <1>   0.0800 
 44 H        5.5980    -5.1770    -0.4250 H     1 <1>   0.0800 
 45 H        5.5560    -6.5660     0.6280 H     1 <1>   0.0800 
 46 H        5.4690    -2.7050     2.3430 H     1 <1>   0.0800 
 47 H        5.5370    -2.8600     0.6090 H     1 <1>   0.0800 
 48 H        2.3170     1.1340    -0.6180 H     1 <1>   0.0800 
 49 H        2.4980     1.6300     1.0430 H     1 <1>   0.0800 
 50 H        1.9680     0.0050     0.6740 H     1 <1>   0.0800 
 51 H        5.9020     0.5700     1.3360 H     1 <1>   0.0800 
 52 H        4.4990     0.6820     2.3770 H     1 <1>   0.0800 
 53 H        4.9050     2.0020     1.2990 H     1 <1>   0.0800 
 54 H        5.2580    -5.0910     2.5010 H     1 <1>   0.4500 
 55 H        7.4940    -5.7030     1.9180 H     1 <1>   0.0800 
 56 H        7.4380    -4.0940     2.5880 H     1 <1>   0.0800 
 57 H        7.9360    -1.9500     0.7580 H     1 <1>   0.1500 
 58 H        8.8220    -2.0140    -1.6020 H     1 <1>   0.2700 
 59 H        6.9080    -6.1810    -2.6200 H     1 <1>   0.1500 
 60 H        9.1490    -6.8140     0.9410 H     1 <1>   0.1500 
 61 H        6.5480    -8.6080    -2.8220 H     1 <1>   0.1500 
 62 H        8.7820    -9.2310     0.7470 H     1 <1>   0.1500 
 63 H        7.4700   -10.1310    -1.1270 H     1 <1>   0.1500 
@<TRIPOS>BOND
  1   1   2  2   
  2   2   3  am  
  3   2   4  1   
  4   3   5  1   
  5   3   6  1   
  6   4   7  1   
  7   4  32  1   
  8   4  33  1   
  9   5   8  1   
 10   5  34  1   
 11   5  35  1   
 12   6   9  1   
 13   6  36  1   
 14   6  37  1   
 15   7  10  1   
 16   7  38  1   
 17   7  39  1   
 18   8  10  1   
 19   8  11  1   
 20   8  12  1   
 21   9  13  2   
 22   9  14  am  
 23  11  15  1   
 24  11  40  1   
 25  11  41  1   
 26  12  16  1   
 27  12  42  1   
 28  12  43  1   
 29  14  17  1   
 30  14  18  1   
 31  15  19  1   
 32  15  44  1   
 33  15  45  1   
 34  16  19  1   
 35  16  46  1   
 36  16  47  1   
 37  17  48  1   
 38  17  49  1   
 39  17  50  1   
 40  18  51  1   
 41  18  52  1   
 42  18  53  1   
 43  19  20  1   
 44  19  54  1   
 45  20  21  1   
 46  20  55  1   
 47  20  56  1   
 48  21  22  1   
 49  21  23  2   
 50  22  24  2   
 51  22  25  1   
 52  23  26  1   
 53  23  57  1   
 54  24  26  1   
 55  25  27  ar  
 56  25  28  ar  
 57  26  58  1   
 58  27  29  ar  
 59  27  59  1   
 60  28  30  ar  
 61  28  60  1   
 62  29  31  ar  
 63  29  61  1   
 64  30  31  ar  
 65  30  62  1   
 66  31  63  1   
@<TRIPOS>SUBSTRUCTURE
  1 ****  16 GROUP 4 **** **** 0

# MOE 2024.06 (io_trps.svl 2023.06)
