@<TRIPOS>MOLECULE
NONAME
41 42 1 0 0 
SMALL
USER_CHARGES


@<TRIPOS>ATOM
  1 O       -0.0740     0.5660    -0.8670 O.co2 1 <1>  -0.9000 
  2 C       -0.4560     1.4750    -0.1240 C.2   1 <1>   0.9060 
  3 O        0.1650     1.8260     0.8840 O.co2 1 <1>  -0.9000 
  4 C       -1.7270     2.2130    -0.4800 C.3   1 <1>  -0.2660 
  5 C       -2.9710     1.6400     0.2240 C.3   1 <1>  -0.1600 
  6 C       -4.2290     2.4440    -0.1510 C.3   1 <1>  -0.0990 
  7 C       -5.5200     1.9820     0.5180 C.2   1 <1>   0.5690 
  8 O       -5.5770     0.8650     0.9790 O.2   1 <1>  -0.5700 
  9 N       -6.6000     2.8300     0.5670 N.am  1 <1>  -0.6600 
 10 C       -7.8620     2.4190     1.2480 C.3   1 <1>   0.1400 
 11 C       -6.6720     4.1430    -0.1440 C.3   1 <1>   0.1400 
 12 C       -8.9910     2.2160     0.2120 C.3   1 <1>   0.0000 
 13 C       -8.1200     4.5220    -0.5020 C.3   1 <1>  -0.1600 
 14 C      -10.3520     2.1770     0.9320 C.3   1 <1>   0.2000 
 15 C       -8.9230     3.2820    -0.9290 C.3   1 <1>  -0.1600 
 16 C       -8.9530     0.8080    -0.4060 C.3   1 <1>  -0.1600 
 17 O      -10.8610     3.4400     1.1760 O.3   1 <1>  -0.6800 
 18 C      -11.2940     1.3790     0.0280 C.3   1 <1>  -0.1600 
 19 C      -10.3850     0.5400    -0.8810 C.3   1 <1>  -0.1600 
 20 H       -1.5860     3.2400    -0.2050 H     1 <1>   0.0800 
 21 H       -1.8460     2.1580    -1.5450 H     1 <1>   0.0800 
 22 H       -3.0940     0.6090    -0.0610 H     1 <1>   0.0800 
 23 H       -2.8210     1.6720     1.2900 H     1 <1>   0.0800 
 24 H       -4.3690     2.3880    -1.2140 H     1 <1>   0.0800 
 25 H       -4.0530     3.4690     0.1150 H     1 <1>   0.0800 
 26 H       -7.7150     1.5240     1.8270 H     1 <1>   0.0800 
 27 H       -8.1420     3.1980     1.9360 H     1 <1>   0.0800 
 28 H       -6.2350     4.9080     0.4740 H     1 <1>   0.0800 
 29 H       -6.1040     4.0780    -1.0560 H     1 <1>   0.0800 
 30 H       -8.5880     4.9870     0.3490 H     1 <1>   0.0800 
 31 H       -8.1090     5.2470    -1.2970 H     1 <1>   0.0800 
 32 H      -10.2550     1.6710     1.8780 H     1 <1>   0.0800 
 33 H       -8.4200     2.8640    -1.7830 H     1 <1>   0.0800 
 34 H       -9.9040     3.5670    -1.2620 H     1 <1>   0.0800 
 35 H       -8.2290     0.7140    -1.1970 H     1 <1>   0.0800 
 36 H       -8.7010     0.0880     0.3540 H     1 <1>   0.0800 
 37 H      -10.9110     3.9350     0.3380 H     1 <1>   0.4000 
 38 H      -11.9230     0.7450     0.6270 H     1 <1>   0.0800 
 39 H      -11.9080     2.0290    -0.5700 H     1 <1>   0.0800 
 40 H      -10.6220    -0.5090    -0.8240 H     1 <1>   0.0800 
 41 H      -10.4950     0.8650    -1.9020 H     1 <1>   0.0800 
@<TRIPOS>BOND
  1   1   2  ar  
  2   2   3  ar  
  3   2   4  1   
  4   4   5  1   
  5   4  20  1   
  6   4  21  1   
  7   5   6  1   
  8   5  22  1   
  9   5  23  1   
 10   6   7  1   
 11   6  24  1   
 12   6  25  1   
 13   7   8  2   
 14   7   9  am  
 15   9  10  1   
 16   9  11  1   
 17  10  12  1   
 18  10  26  1   
 19  10  27  1   
 20  11  13  1   
 21  11  28  1   
 22  11  29  1   
 23  12  14  1   
 24  12  15  1   
 25  12  16  1   
 26  13  15  1   
 27  13  30  1   
 28  13  31  1   
 29  14  17  1   
 30  14  18  1   
 31  14  32  1   
 32  15  33  1   
 33  15  34  1   
 34  16  19  1   
 35  16  35  1   
 36  16  36  1   
 37  17  37  1   
 38  18  19  1   
 39  18  38  1   
 40  18  39  1   
 41  19  40  1   
 42  19  41  1   
@<TRIPOS>SUBSTRUCTURE
  1 ****   9 GROUP 4 **** **** 0

# MOE 2024.06 (io_trps.svl 2023.06)
