@<TRIPOS>MOLECULE
NONAME
47 48 1 0 0 
SMALL
USER_CHARGES


@<TRIPOS>ATOM
  1 S       -0.1950    -0.0720     0.2280 S.o2  1 <1>   1.3330 
  2 O       -0.9240     1.1680     0.0960 O.2   1 <1>  -0.6500 
  3 O       -0.1470    -0.7350     1.5120 O.2   1 <1>  -0.6500 
  4 N       -0.8190    -1.1780    -0.8990 N.am  1 <1>  -0.8490 
  5 C        1.4690     0.2050    -0.3800 C.3   1 <1>  -0.0550 
  6 C       -2.2710    -1.0510    -1.0580 C.3   1 <1>   0.1160 
  7 C       -0.4700    -2.5720    -0.6020 C.3   1 <1>   0.1160 
  8 C        2.2590     1.2490     0.4340 C.3   1 <1>  -0.0800 
  9 C        3.5600     1.6110    -0.2600 C.3   1 <1>   0.2200 
 10 C        2.7660     0.6790     1.7620 C.3   1 <1>   0.1200 
 11 N        4.0090     2.9400     0.2110 N.am  1 <1>  -0.7300 
 12 C        4.5090     0.5330     0.2530 C.3   1 <1>   0.1200 
 13 O        4.0300     0.1420     1.5070 O.3   1 <1>  -0.5600 
 14 C        4.1880     4.0400    -0.5760 C.2   1 <1>   0.5440 
 15 O        3.9650     3.9450    -1.7670 O.2   1 <1>  -0.5700 
 16 C        4.6320     5.2850     0.0230 C.ar  1 <1>   0.0860 
 17 C        5.8090     5.9490    -0.3600 C.ar  1 <1>  -0.1440 
 18 C        3.8560     5.8460     1.0360 C.ar  1 <1>  -0.1500 
 19 C        6.1700     7.1460     0.2560 C.ar  1 <1>  -0.1440 
 20 C        6.6770     5.3410    -1.4650 C.3   1 <1>  -0.0970 
 21 C        4.2210     7.0230     1.6540 C.ar  1 <1>  -0.1500 
 22 C        5.3750     7.6700     1.2630 C.ar  1 <1>  -0.1500 
 23 C        7.4200     7.9240    -0.1380 C.3   1 <1>  -0.0970 
 24 H        2.0060    -0.7230    -0.3920 H     1 <1>   0.0800 
 25 H        1.3920     0.5520    -1.3930 H     1 <1>   0.0800 
 26 H       -2.6300    -1.7540    -1.7890 H     1 <1>   0.0800 
 27 H       -2.5200    -0.0590    -1.3970 H     1 <1>   0.0800 
 28 H       -2.7680    -1.2300    -0.1180 H     1 <1>   0.0800 
 29 H       -0.8100    -3.2150    -1.3950 H     1 <1>   0.0800 
 30 H       -0.9260    -2.8850     0.3230 H     1 <1>   0.0800 
 31 H        0.5970    -2.6780    -0.5120 H     1 <1>   0.0800 
 32 H        1.6420     2.1190     0.5840 H     1 <1>   0.0800 
 33 H        3.4840     1.6000    -1.3350 H     1 <1>   0.0800 
 34 H        2.1380    -0.0900     2.1760 H     1 <1>   0.0800 
 35 H        2.8890     1.4630     2.4890 H     1 <1>   0.0800 
 36 H        4.2850     2.9810     1.1950 H     1 <1>   0.3700 
 37 H        5.5220     0.8840     0.3450 H     1 <1>   0.0800 
 38 H        4.4810    -0.3310    -0.3870 H     1 <1>   0.0800 
 39 H        2.9490     5.3520     1.3350 H     1 <1>   0.1500 
 40 H        7.6950     5.6750    -1.4170 H     1 <1>   0.0800 
 41 H        6.2710     5.6050    -2.4260 H     1 <1>   0.0800 
 42 H        6.6960     4.2690    -1.3890 H     1 <1>   0.0800 
 43 H        3.6080     7.4410     2.4340 H     1 <1>   0.1500 
 44 H        5.6480     8.5910     1.7480 H     1 <1>   0.1500 
 45 H        7.4450     8.8870     0.3390 H     1 <1>   0.0800 
 46 H        7.4390     8.0810    -1.2020 H     1 <1>   0.0800 
 47 H        8.2990     7.3790     0.1550 H     1 <1>   0.0800 
@<TRIPOS>BOND
  1   1   2  2   
  2   1   3  2   
  3   1   4  am  
  4   1   5  1   
  5   4   6  1   
  6   4   7  1   
  7   5   8  1   
  8   5  24  1   
  9   5  25  1   
 10   6  26  1   
 11   6  27  1   
 12   6  28  1   
 13   7  29  1   
 14   7  30  1   
 15   7  31  1   
 16   8   9  1   
 17   8  10  1   
 18   8  32  1   
 19   9  11  1   
 20   9  12  1   
 21   9  33  1   
 22  10  13  1   
 23  10  34  1   
 24  10  35  1   
 25  11  14  am  
 26  11  36  1   
 27  12  13  1   
 28  12  37  1   
 29  12  38  1   
 30  14  15  2   
 31  14  16  1   
 32  16  17  ar  
 33  16  18  ar  
 34  17  19  ar  
 35  17  20  1   
 36  18  21  ar  
 37  18  39  1   
 38  19  22  ar  
 39  19  23  1   
 40  20  40  1   
 41  20  41  1   
 42  20  42  1   
 43  21  22  ar  
 44  21  43  1   
 45  22  44  1   
 46  23  45  1   
 47  23  46  1   
 48  23  47  1   
@<TRIPOS>SUBSTRUCTURE
  1 ****  11 GROUP 4 **** **** 0

# MOE 2024.06 (io_trps.svl 2023.06)
