@<TRIPOS>MOLECULE
NONAME
36 38 1 0 0 
SMALL
USER_CHARGES


@<TRIPOS>ATOM
  1 O        0.9090     1.8980     0.0890 O.co2 1 <1>  -0.9000 
  2 C        0.1810     2.6270    -0.6110 C.2   1 <1>   0.9790 
  3 O        0.6720     3.1630    -1.6220 O.co2 1 <1>  -0.9000 
  4 C       -1.2010     2.8160    -0.2750 C.ar  1 <1>  -0.1790 
  5 C       -1.6170     3.9190     0.4810 C.ar  1 <1>   0.4100 
  6 C       -2.1610     1.9140    -0.7050 C.ar  1 <1>  -0.1500 
  7 N       -2.8890     4.1670     0.7820 N.ar  1 <1>  -0.6200 
  8 N       -0.7370     4.8590     0.9700 N.pl3 1 <1>  -0.8380 
  9 C       -3.4740     2.1640    -0.3780 C.ar  1 <1>  -0.1500 
 10 C       -3.7810     3.2960     0.3570 C.ar  1 <1>   0.1670 
 11 C       -0.4710     6.0710     0.1400 C.3   1 <1>   0.2090 
 12 C        0.3460     4.4670     1.9220 C.3   1 <1>   0.2090 
 13 C       -5.2170     3.5980     0.7230 C.3   1 <1>  -0.0970 
 14 C        1.0140     6.2310    -0.2590 C.3   1 <1>   0.2950 
 15 C        1.7610     4.7820     1.3930 C.3   1 <1>   0.1200 
 16 O        1.8330     6.0810     0.8730 O.3   1 <1>  -0.5600 
 17 C        1.2650     7.6110    -0.8990 C.3   1 <1>  -0.1950 
 18 C        2.6140     8.2630    -0.9090 C.3   1 <1>  -0.2000 
 19 C        1.4990     8.8480    -0.0860 C.3   1 <1>  -0.2000 
 20 H       -1.8690     1.0520    -1.2790 H     1 <1>   0.1500 
 21 H       -4.2440     1.4870    -0.6950 H     1 <1>   0.1500 
 22 H       -0.7770     6.9370     0.6970 H     1 <1>   0.0800 
 23 H       -1.0680     6.0270    -0.7540 H     1 <1>   0.0800 
 24 H        0.2770     3.4150     2.1390 H     1 <1>   0.0800 
 25 H        0.1960     4.9990     2.8440 H     1 <1>   0.0800 
 26 H       -5.4950     4.5520     0.3130 H     1 <1>   0.0800 
 27 H       -5.3080     3.6420     1.7930 H     1 <1>   0.0800 
 28 H       -5.8820     2.8450     0.3440 H     1 <1>   0.0800 
 29 H        1.2790     5.4670    -0.9700 H     1 <1>   0.0800 
 30 H        2.0460     4.0850     0.6240 H     1 <1>   0.0800 
 31 H        2.4750     4.7050     2.1920 H     1 <1>   0.0800 
 32 H        0.6840     7.7240    -1.7980 H     1 <1>   0.1000 
 33 H        2.9310     8.7710    -1.8020 H     1 <1>   0.1000 
 34 H        3.4260     7.7690    -0.4030 H     1 <1>   0.1000 
 35 H        1.5540     8.7580     0.9850 H     1 <1>   0.1000 
 36 H        1.0430     9.7680    -0.4030 H     1 <1>   0.1000 
@<TRIPOS>BOND
  1   1   2  ar  
  2   2   3  ar  
  3   2   4  1   
  4   4   5  ar  
  5   4   6  ar  
  6   5   7  ar  
  7   5   8  1   
  8   6   9  ar  
  9   6  20  1   
 10   7  10  ar  
 11   8  11  1   
 12   8  12  1   
 13   9  10  ar  
 14   9  21  1   
 15  10  13  1   
 16  11  14  1   
 17  11  22  1   
 18  11  23  1   
 19  12  15  1   
 20  12  24  1   
 21  12  25  1   
 22  13  26  1   
 23  13  27  1   
 24  13  28  1   
 25  14  16  1   
 26  14  17  1   
 27  14  29  1   
 28  15  16  1   
 29  15  30  1   
 30  15  31  1   
 31  17  18  1   
 32  17  19  1   
 33  17  32  1   
 34  18  19  1   
 35  18  33  1   
 36  18  34  1   
 37  19  35  1   
 38  19  36  1   
@<TRIPOS>SUBSTRUCTURE
  1 ****   8 GROUP 4 **** **** 0

# MOE 2024.06 (io_trps.svl 2023.06)
