@<TRIPOS>MOLECULE
NONAME
24 24 1 0 0 
SMALL
USER_CHARGES


@<TRIPOS>ATOM
  1 O        0.1880    -0.2770     0.7370 O.3   1 <1>  -0.6800 
  2 C        1.2840    -0.8980     0.1580 C.3   1 <1>   0.1200 
  3 C        1.2360    -2.4070     0.4450 C.3   1 <1>  -0.0800 
  4 C        2.5070    -3.0860    -0.0970 C.3   1 <1>  -0.1600 
  5 C       -0.0220    -3.0690    -0.1520 C.3   1 <1>  -0.1600 
  6 C        2.4890    -4.6010     0.1540 C.3   1 <1>  -0.1600 
  7 C       -0.0350    -4.5850     0.0950 C.3   1 <1>  -0.1600 
  8 C        1.2360    -5.2570    -0.4440 C.3   1 <1>   0.1200 
  9 C        1.2210    -6.7160    -0.1320 C.1   1 <1>  -0.2000 
 10 C        1.2080    -7.8790     0.1180 C.1   1 <1>  -0.1770 
 11 H        0.2020     0.6830     0.5620 H     1 <1>   0.4000 
 12 H        2.1740    -0.4620     0.5800 H     1 <1>   0.0800 
 13 H        1.2590    -0.7110    -0.9020 H     1 <1>   0.0800 
 14 H        1.2200    -2.5380     1.5150 H     1 <1>   0.0800 
 15 H        3.3750    -2.6610     0.3790 H     1 <1>   0.0800 
 16 H        2.5890    -2.9050    -1.1550 H     1 <1>   0.0800 
 17 H       -0.0610    -2.8790    -1.2100 H     1 <1>   0.0800 
 18 H       -0.9030    -2.6360     0.2910 H     1 <1>   0.0800 
 19 H        2.5140    -4.7850     1.2150 H     1 <1>   0.0800 
 20 H        3.3680    -5.0480    -0.2780 H     1 <1>   0.0800 
 21 H       -0.8980    -5.0190    -0.3790 H     1 <1>   0.0800 
 22 H       -0.1130    -4.7690     1.1530 H     1 <1>   0.0800 
 23 H        1.2610    -5.1430    -1.5140 H     1 <1>   0.0800 
 24 H        1.1950    -8.9290     0.3460 H     1 <1>   0.1770 
@<TRIPOS>BOND
  1   1   2  1   
  2   1  11  1   
  3   2   3  1   
  4   2  12  1   
  5   2  13  1   
  6   3   4  1   
  7   3   5  1   
  8   3  14  1   
  9   4   6  1   
 10   4  15  1   
 11   4  16  1   
 12   5   7  1   
 13   5  17  1   
 14   5  18  1   
 15   6   8  1   
 16   6  19  1   
 17   6  20  1   
 18   7   8  1   
 19   7  21  1   
 20   7  22  1   
 21   8   9  1   
 22   8  23  1   
 23   9  10  3   
 24  10  24  1   
@<TRIPOS>SUBSTRUCTURE
  1 ****   7 GROUP 4 **** **** 0

# MOE 2024.06 (io_trps.svl 2023.06)
