@<TRIPOS>MOLECULE
NONAME
33 35 1 0 0 
SMALL
USER_CHARGES


@<TRIPOS>ATOM
  1 S        0.5360    -0.0890     1.2310 S.3   1 <1>  -0.0800 
  2 C        2.2740     0.1000     1.1690 C.2   1 <1>   0.1980 
  3 C        0.4250     0.6800    -0.3240 C.2   1 <1>  -0.1100 
  4 N        2.7040     0.6720     0.1160 N.2   1 <1>  -0.5650 
  5 C        3.0690    -0.4230     2.3430 C.3   1 <1>  -0.0600 
  6 C        1.6590     1.0040    -0.7400 C.2   1 <1>   0.0460 
  7 C        2.0030     1.6870    -2.0570 C.3   1 <1>   0.0820 
  8 C        2.5430     3.0960    -1.8800 C.2   1 <1>   0.5690 
  9 O        2.3410     3.8970    -2.7610 O.2   1 <1>  -0.5700 
 10 N        3.2490     3.3790    -0.7440 N.am  1 <1>  -0.4940 
 11 C        3.9470     4.5180    -0.2750 C.2   1 <1>  -0.0880 
 12 N        3.7910     5.8370    -0.6080 N.pl3 1 <1>   0.3140 
 13 C        4.9300     4.4910     0.6530 C.2   1 <1>  -0.1810 
 14 N        4.6490     6.6290     0.0860 N.2   1 <1>  -0.7070 
 15 C        2.8100     6.4540    -1.5080 C.3   1 <1>   0.0160 
 16 C        5.3160     5.8030     0.8270 C.2   1 <1>   0.1080 
 17 C        5.6410     3.4390     1.4690 C.3   1 <1>   0.2510 
 18 C        6.4180     6.0710     1.8240 C.3   1 <1>   0.2510 
 19 S        6.8100     4.4100     2.4670 S.3   1 <1>  -0.4600 
 20 H       -0.5520     0.8040    -0.7550 H     1 <1>   0.1500 
 21 H        2.8920    -1.4760     2.4610 H     1 <1>   0.0800 
 22 H        2.7730     0.0880     3.2400 H     1 <1>   0.0800 
 23 H        4.1180    -0.2610     2.1760 H     1 <1>   0.0800 
 24 H        1.1230     1.7370    -2.6720 H     1 <1>   0.0800 
 25 H        2.7370     1.1030    -2.5780 H     1 <1>   0.0800 
 26 H        3.3210     2.5540    -0.1330 H     1 <1>   0.3700 
 27 H        1.8500     6.0000    -1.3540 H     1 <1>   0.0800 
 28 H        3.1270     6.3090    -2.5240 H     1 <1>   0.0800 
 29 H        2.7480     7.5050    -1.2980 H     1 <1>   0.0800 
 30 H        6.2050     2.7590     0.8560 H     1 <1>   0.0800 
 31 H        4.9770     2.9190     2.1360 H     1 <1>   0.0800 
 32 H        6.0840     6.6850     2.6400 H     1 <1>   0.0800 
 33 H        7.2970     6.4730     1.3550 H     1 <1>   0.0800 
@<TRIPOS>BOND
  1   1   2  1   
  2   1   3  1   
  3   2   4  2   
  4   2   5  1   
  5   3   6  2   
  6   3  20  1   
  7   4   6  1   
  8   5  21  1   
  9   5  22  1   
 10   5  23  1   
 11   6   7  1   
 12   7   8  1   
 13   7  24  1   
 14   7  25  1   
 15   8   9  2   
 16   8  10  am  
 17  10  11  1   
 18  10  26  1   
 19  11  12  1   
 20  11  13  2   
 21  12  14  1   
 22  12  15  1   
 23  13  16  1   
 24  13  17  1   
 25  14  16  2   
 26  15  27  1   
 27  15  28  1   
 28  15  29  1   
 29  16  18  1   
 30  17  19  1   
 31  17  30  1   
 32  17  31  1   
 33  18  19  1   
 34  18  32  1   
 35  18  33  1   
@<TRIPOS>SUBSTRUCTURE
  1 ****  10 GROUP 4 **** **** 0

# MOE 2024.06 (io_trps.svl 2023.06)
