@<TRIPOS>MOLECULE
NONAME
48 50 1 0 0 
SMALL
USER_CHARGES


@<TRIPOS>ATOM
  1 N        1.1100     0.1950     1.0850 N.ar  1 <1>  -0.6200 
  2 C        2.0360    -0.2590     0.2570 C.ar  1 <1>   0.1660 
  3 C       -0.0550    -0.4380     1.0650 C.ar  1 <1>   0.4700 
  4 C        1.7680    -1.3300    -0.5740 C.ar  1 <1>  -0.1500 
  5 C        3.3980     0.4750     0.2840 C.3   1 <1>   0.5660 
  6 N       -0.4060    -1.4570     0.3050 N.ar  1 <1>  -0.6200 
  7 C        0.5200    -1.9000    -0.5130 C.ar  1 <1>   0.1600 
  8 N        3.3050     1.8730    -0.2420 N.4   1 <1>  -0.9590 
  9 C        4.5300    -0.2310    -0.4640 C.3   1 <1>  -0.2400 
 10 C        2.6320     2.7600     0.7490 C.3   1 <1>   0.4860 
 11 C        2.6260     1.9740    -1.5740 C.3   1 <1>   0.2630 
 12 C        2.9220     4.1920     0.3510 C.ar  1 <1>  -0.1430 
 13 C        4.2200     4.6720     0.4160 C.ar  1 <1>  -0.1500 
 14 C        1.9110     5.0230    -0.1070 C.ar  1 <1>  -0.1500 
 15 C        4.5330     5.9600    -0.0020 C.ar  1 <1>  -0.0230 
 16 C        2.2060     6.3110    -0.5170 C.ar  1 <1>  -0.1500 
 17 N        5.8880     6.3960     0.0380 N.pl3 1 <1>   0.5930 
 18 C        3.5090     6.7740    -0.4740 C.ar  1 <1>  -0.1500 
 19 N        6.8860     5.6260    -0.4690 N.2   1 <1>  -0.7070 
 20 C        6.4120     7.5140     0.6160 C.2   1 <1>  -0.3320 
 21 C        7.9790     6.2720    -0.2290 C.2   1 <1>   0.1080 
 22 C        7.7490     7.4610     0.4500 C.2   1 <1>  -0.1500 
 23 C        5.6090     8.5920     1.3290 C.3   1 <1>  -0.0600 
 24 C        9.3380     5.7620    -0.6500 C.3   1 <1>  -0.0590 
 25 H       -0.8100    -0.0780     1.7470 H     1 <1>   0.1500 
 26 H        2.4880    -1.7340    -1.2600 H     1 <1>   0.1500 
 27 H        3.6940     0.5240     1.3190 H     1 <1>   0.0800 
 28 H        0.2720    -2.7380    -1.1450 H     1 <1>   0.1500 
 29 H        4.2580     2.2430    -0.3430 H     1 <1>   0.4500 
 30 H        4.3290    -0.3060    -1.5170 H     1 <1>   0.0800 
 31 H        4.6540    -1.2250    -0.0700 H     1 <1>   0.0800 
 32 H        5.4570     0.2930    -0.3180 H     1 <1>   0.0800 
 33 H        3.0170     2.5800     1.7400 H     1 <1>   0.0800 
 34 H        1.5690     2.5800     0.7570 H     1 <1>   0.0800 
 35 H        1.6030     1.6410    -1.5000 H     1 <1>   0.0800 
 36 H        3.1370     1.3700    -2.3060 H     1 <1>   0.0800 
 37 H        2.6300     2.9970    -1.9170 H     1 <1>   0.0800 
 38 H        5.0230     4.0550     0.7840 H     1 <1>   0.1500 
 39 H        0.8900     4.6810    -0.1540 H     1 <1>   0.1500 
 40 H        1.4210     6.9550    -0.8770 H     1 <1>   0.1500 
 41 H        3.7300     7.7690    -0.8180 H     1 <1>   0.1500 
 42 H        8.4990     8.1640     0.7680 H     1 <1>   0.1500 
 43 H        4.9650     8.1510     2.0690 H     1 <1>   0.0800 
 44 H        5.0120     9.1440     0.6260 H     1 <1>   0.0800 
 45 H        6.2730     9.2800     1.8220 H     1 <1>   0.0800 
 46 H        9.5370     4.8240    -0.1660 H     1 <1>   0.0800 
 47 H       10.1040     6.4660    -0.3830 H     1 <1>   0.0800 
 48 H        9.3520     5.6150    -1.7140 H     1 <1>   0.0800 
@<TRIPOS>BOND
  1   1   2  ar  
  2   1   3  ar  
  3   2   4  ar  
  4   2   5  1   
  5   3   6  ar  
  6   3  25  1   
  7   4   7  ar  
  8   4  26  1   
  9   5   8  1   
 10   5   9  1   
 11   5  27  1   
 12   6   7  ar  
 13   7  28  1   
 14   8  10  1   
 15   8  11  1   
 16   8  29  1   
 17   9  30  1   
 18   9  31  1   
 19   9  32  1   
 20  10  12  1   
 21  10  33  1   
 22  10  34  1   
 23  11  35  1   
 24  11  36  1   
 25  11  37  1   
 26  12  13  ar  
 27  12  14  ar  
 28  13  15  ar  
 29  13  38  1   
 30  14  16  ar  
 31  14  39  1   
 32  15  17  1   
 33  15  18  ar  
 34  16  18  ar  
 35  16  40  1   
 36  17  19  1   
 37  17  20  1   
 38  18  41  1   
 39  19  21  2   
 40  20  22  2   
 41  20  23  1   
 42  21  22  1   
 43  21  24  1   
 44  22  42  1   
 45  23  43  1   
 46  23  44  1   
 47  23  45  1   
 48  24  46  1   
 49  24  47  1   
 50  24  48  1   
@<TRIPOS>SUBSTRUCTURE
  1 ****  12 GROUP 4 **** **** 0

# MOE 2024.06 (io_trps.svl 2023.06)
