@<TRIPOS>MOLECULE
NONAME
49 51 1 0 0 
SMALL
USER_CHARGES


@<TRIPOS>ATOM
  1 O        2.6070     2.2050     1.0210 O.co2 1 <1>  -0.9000 
  2 C        2.3620     1.0010     0.9190 C.2   1 <1>   0.9060 
  3 O        2.2670     0.2860     1.9200 O.co2 1 <1>  -0.9000 
  4 C        2.5740     0.3180    -0.4480 C.3   1 <1>  -0.1060 
  5 C        3.7590    -0.6410    -0.2250 C.3   1 <1>   0.4230 
  6 C        3.0000     1.3390    -1.5550 C.3   1 <1>  -0.1600 
  7 C        1.3110    -0.4380    -0.9390 C.3   1 <1>  -0.1600 
  8 N        3.3400    -1.7790     0.6730 N.4   1 <1>  -0.9590 
  9 C        4.9920     0.1770     0.3030 C.3   1 <1>   0.3430 
 10 C        4.4360     1.8890    -1.4430 C.3   1 <1>   0.3430 
 11 C        0.9950    -1.6780    -0.0920 C.3   1 <1>  -0.1600 
 12 C        2.2180    -2.5750     0.1030 C.3   1 <1>   0.3430 
 13 C        4.4200    -2.6620     1.2000 C.3   1 <1>   0.2630 
 14 N        4.9800     1.6420    -0.0790 N.4   1 <1>  -0.9590 
 15 C        6.2280     2.3670     0.2660 C.3   1 <1>   0.3430 
 16 C        5.9990     3.8760     0.1950 C.3   1 <1>  -0.1600 
 17 C        7.1880     4.6440     0.7890 C.3   1 <1>   0.0960 
 18 N        7.1300     6.0580     0.3830 N.pl3 1 <1>   0.3140 
 19 N        7.4960     6.4380    -0.8540 N.2   1 <1>  -0.7070 
 20 C        6.7140     7.1080     1.1170 C.2   1 <1>  -0.3020 
 21 C        7.3090     7.7230    -0.8750 C.2   1 <1>   0.1390 
 22 C        6.8180     8.2020     0.3340 C.2   1 <1>  -0.1500 
 23 H        4.0300    -1.0560    -1.1810 H     1 <1>   0.0800 
 24 H        2.3170     2.1730    -1.5360 H     1 <1>   0.0800 
 25 H        2.9040     0.9010    -2.5320 H     1 <1>   0.0800 
 26 H        0.4640     0.2290    -0.9210 H     1 <1>   0.0800 
 27 H        1.4460    -0.7590    -1.9580 H     1 <1>   0.0800 
 28 H        2.8950    -1.2630     1.4840 H     1 <1>   0.4500 
 29 H        5.8930    -0.2820    -0.0640 H     1 <1>   0.0800 
 30 H        4.9900     0.1190     1.3790 H     1 <1>   0.0800 
 31 H        4.4150     2.9470    -1.6510 H     1 <1>   0.0800 
 32 H        5.0690     1.4160    -2.1760 H     1 <1>   0.0800 
 33 H        0.2140    -2.2460    -0.5670 H     1 <1>   0.0800 
 34 H        0.6190    -1.3790     0.8730 H     1 <1>   0.0800 
 35 H        2.5110    -3.0020    -0.8420 H     1 <1>   0.0800 
 36 H        1.9580    -3.3770     0.7750 H     1 <1>   0.0800 
 37 H        4.9130    -3.1790     0.3930 H     1 <1>   0.0800 
 38 H        3.9990    -3.3940     1.8720 H     1 <1>   0.0800 
 39 H        5.1450    -2.0860     1.7490 H     1 <1>   0.0800 
 40 H        4.2290     2.0750     0.5320 H     1 <1>   0.4500 
 41 H        6.5190     2.1090     1.2720 H     1 <1>   0.0800 
 42 H        7.0240     2.0840    -0.4040 H     1 <1>   0.0800 
 43 H        5.1080     4.1410     0.7390 H     1 <1>   0.0800 
 44 H        5.8860     4.1680    -0.8340 H     1 <1>   0.0800 
 45 H        8.1170     4.2460     0.4210 H     1 <1>   0.0800 
 46 H        7.1860     4.5880     1.8620 H     1 <1>   0.0800 
 47 H        6.3720     7.0250     2.1330 H     1 <1>   0.1500 
 48 H        7.5130     8.3380    -1.7360 H     1 <1>   0.1500 
 49 H        6.5810     9.2260     0.5620 H     1 <1>   0.1500 
@<TRIPOS>BOND
  1   1   2  ar  
  2   2   3  ar  
  3   2   4  1   
  4   4   5  1   
  5   4   6  1   
  6   4   7  1   
  7   5   8  1   
  8   5   9  1   
  9   5  23  1   
 10   6  10  1   
 11   6  24  1   
 12   6  25  1   
 13   7  11  1   
 14   7  26  1   
 15   7  27  1   
 16   8  12  1   
 17   8  13  1   
 18   8  28  1   
 19   9  14  1   
 20   9  29  1   
 21   9  30  1   
 22  10  14  1   
 23  10  31  1   
 24  10  32  1   
 25  11  12  1   
 26  11  33  1   
 27  11  34  1   
 28  12  35  1   
 29  12  36  1   
 30  13  37  1   
 31  13  38  1   
 32  13  39  1   
 33  14  15  1   
 34  14  40  1   
 35  15  16  1   
 36  15  41  1   
 37  15  42  1   
 38  16  17  1   
 39  16  43  1   
 40  16  44  1   
 41  17  18  1   
 42  17  45  1   
 43  17  46  1   
 44  18  19  1   
 45  18  20  1   
 46  19  21  2   
 47  20  22  2   
 48  20  47  1   
 49  21  22  1   
 50  21  48  1   
 51  22  49  1   
@<TRIPOS>SUBSTRUCTURE
  1 ****  14 GROUP 4 **** **** 0

# MOE 2024.06 (io_trps.svl 2023.06)
