@<TRIPOS>MOLECULE
NONAME
49 51 1 0 0 
SMALL
USER_CHARGES


@<TRIPOS>ATOM
  1 O        1.2840    -1.6090     1.6660 O.3   1 <1>  -0.5600 
  2 C        0.6310    -2.2020     0.5890 C.3   1 <1>   0.2000 
  3 C        2.6300    -1.9760     1.6700 C.3   1 <1>   0.1200 
  4 C        1.6680    -2.1880    -0.5260 C.3   1 <1>  -0.1600 
  5 C       -0.6720    -1.4550     0.2270 C.3   1 <1>   0.3430 
  6 C        2.9820    -2.3240     0.2250 C.3   1 <1>  -0.1600 
  7 N       -1.5900    -1.1990     1.4000 N.4   1 <1>  -0.9590 
  8 C       -2.9570    -0.8520     0.9310 C.3   1 <1>   0.5240 
  9 C       -1.0690    -0.1690     2.3740 C.3   1 <1>   0.3430 
 10 C       -3.5310    -2.0800     0.2680 C.2   1 <1>  -0.1810 
 11 C       -0.4980     1.1090     1.7310 C.3   1 <1>   0.1200 
 12 C       -3.7820    -2.2160    -1.0920 C.2   1 <1>   0.1390 
 13 C       -3.8990    -3.2670     0.8040 C.2   1 <1>  -0.3020 
 14 O       -1.3920     1.6040     0.7540 O.3   1 <1>  -0.3630 
 15 N       -4.2460    -3.3880    -1.3830 N.2   1 <1>  -0.7070 
 16 N       -4.3330    -4.0390    -0.2130 N.pl3 1 <1>   0.3140 
 17 C       -1.0450     2.6360    -0.0560 C.ar  1 <1>   0.0820 
 18 C       -4.8570    -5.4090    -0.1360 C.3   1 <1>   0.0160 
 19 C        0.1610     3.3270     0.0440 C.ar  1 <1>  -0.1500 
 20 C       -1.9600     2.9990    -1.0320 C.ar  1 <1>  -0.1500 
 21 C        0.4400     4.3610    -0.8320 C.ar  1 <1>  -0.1500 
 22 C       -1.6780     4.0330    -1.9070 C.ar  1 <1>  -0.1500 
 23 C       -0.4770     4.7130    -1.8080 C.ar  1 <1>  -0.1500 
 24 H        0.4110    -3.2200     0.8640 H     1 <1>   0.0800 
 25 H        2.7490    -2.8290     2.3170 H     1 <1>   0.0800 
 26 H        3.2130    -1.1500     2.0410 H     1 <1>   0.0800 
 27 H        1.6420    -1.2470    -1.0480 H     1 <1>   0.0800 
 28 H        1.5140    -2.9880    -1.2310 H     1 <1>   0.0800 
 29 H       -1.1860    -2.0490    -0.5100 H     1 <1>   0.0800 
 30 H       -0.4170    -0.5200    -0.2450 H     1 <1>   0.0800 
 31 H        3.3560    -3.3330     0.1780 H     1 <1>   0.0800 
 32 H        3.7330    -1.6590    -0.1640 H     1 <1>   0.0800 
 33 H       -1.6880    -2.0900     1.9000 H     1 <1>   0.4500 
 34 H       -2.9240    -0.0310     0.2340 H     1 <1>   0.0800 
 35 H       -3.5790    -0.5730     1.7650 H     1 <1>   0.0800 
 36 H       -0.2870    -0.6120     2.9690 H     1 <1>   0.0800 
 37 H       -1.8550     0.1120     3.0550 H     1 <1>   0.0800 
 38 H        0.4450     0.8930     1.2610 H     1 <1>   0.0800 
 39 H       -0.3530     1.8700     2.4780 H     1 <1>   0.0800 
 40 H       -3.6150    -1.4560    -1.8390 H     1 <1>   0.1500 
 41 H       -3.8900    -3.6100     1.8230 H     1 <1>   0.1500 
 42 H       -4.6120    -5.8400     0.8160 H     1 <1>   0.0800 
 43 H       -4.4200    -5.9940    -0.9230 H     1 <1>   0.0800 
 44 H       -5.9230    -5.3810    -0.2620 H     1 <1>   0.0800 
 45 H        0.8930     3.0860     0.7910 H     1 <1>   0.1500 
 46 H       -2.8950     2.4760    -1.1090 H     1 <1>   0.1500 
 47 H        1.3710     4.8970    -0.7570 H     1 <1>   0.1500 
 48 H       -2.3910     4.3110    -2.6640 H     1 <1>   0.1500 
 49 H       -0.2560     5.5190    -2.4870 H     1 <1>   0.1500 
@<TRIPOS>BOND
  1   1   2  1   
  2   1   3  1   
  3   2   4  1   
  4   2   5  1   
  5   2  24  1   
  6   3   6  1   
  7   3  25  1   
  8   3  26  1   
  9   4   6  1   
 10   4  27  1   
 11   4  28  1   
 12   5   7  1   
 13   5  29  1   
 14   5  30  1   
 15   6  31  1   
 16   6  32  1   
 17   7   8  1   
 18   7   9  1   
 19   7  33  1   
 20   8  10  1   
 21   8  34  1   
 22   8  35  1   
 23   9  11  1   
 24   9  36  1   
 25   9  37  1   
 26  10  12  1   
 27  10  13  2   
 28  11  14  1   
 29  11  38  1   
 30  11  39  1   
 31  12  15  2   
 32  12  40  1   
 33  13  16  1   
 34  13  41  1   
 35  14  17  1   
 36  15  16  1   
 37  16  18  1   
 38  17  19  ar  
 39  17  20  ar  
 40  18  42  1   
 41  18  43  1   
 42  18  44  1   
 43  19  21  ar  
 44  19  45  1   
 45  20  22  ar  
 46  20  46  1   
 47  21  23  ar  
 48  21  47  1   
 49  22  23  ar  
 50  22  48  1   
 51  23  49  1   
@<TRIPOS>SUBSTRUCTURE
  1 ****   5 GROUP 4 **** **** 0

# MOE 2024.06 (io_trps.svl 2023.06)
