@<TRIPOS>MOLECULE
NONAME
53 54 1 0 0 
SMALL
USER_CHARGES


@<TRIPOS>ATOM
  1 O       -0.6420     0.5700    -1.2900 O.2   1 <1>  -0.5700 
  2 C       -0.4090     1.6240    -0.7430 C.2   1 <1>   0.5690 
  3 N       -1.3980     2.4110    -0.2070 N.am  1 <1>  -0.6600 
  4 C        1.0540     2.0680    -0.6790 C.3   1 <1>   0.1810 
  5 C       -1.0490     3.7570     0.3880 C.3   1 <1>   0.3640 
  6 C       -2.7590     1.8260     0.0130 C.3   1 <1>   0.2200 
  7 O        1.2950     3.0410     0.3050 O.3   1 <1>  -0.5600 
  8 C       -1.9060     4.8730    -0.2140 C.ar  1 <1>  -0.1440 
  9 C        0.4360     4.1570     0.2000 C.3   1 <1>   0.2610 
 10 C       -3.7420     2.2980    -1.0570 C.3   1 <1>  -0.2400 
 11 C       -3.2930     2.1000     1.4200 C.3   1 <1>  -0.2400 
 12 C       -2.0130     5.0360    -1.5890 C.ar  1 <1>  -0.1500 
 13 C       -2.5680     5.7620     0.6220 C.ar  1 <1>  -0.1500 
 14 C        0.8440     5.2790     1.1710 C.2   1 <1>   0.5690 
 15 C       -2.7710     6.0660    -2.1190 C.ar  1 <1>  -0.1500 
 16 C       -3.3270     6.7910     0.0940 C.ar  1 <1>  -0.1500 
 17 O        0.2630     5.3770     2.2320 O.2   1 <1>  -0.5700 
 18 N        1.8210     6.1830     0.8180 N.am  1 <1>  -0.6600 
 19 C       -3.4290     6.9440    -1.2770 C.ar  1 <1>  -0.1500 
 20 C        2.0420     7.4330     1.6210 C.3   1 <1>   0.1400 
 21 C        2.6980     6.0440    -0.3780 C.3   1 <1>   0.0600 
 22 C        1.3820     8.7050     1.0240 C.3   1 <1>   0.2800 
 23 O        1.9990     9.0370    -0.1630 O.3   1 <1>  -0.6800 
 24 C       -0.1050     8.5160     0.7120 C.3   1 <1>  -0.2400 
 25 C        1.5820     9.9000     1.9550 C.3   1 <1>  -0.2400 
 26 H        1.3520     2.4630    -1.6330 H     1 <1>   0.0800 
 27 H        1.6700     1.2170    -0.4500 H     1 <1>   0.0800 
 28 H       -1.2380     3.6990     1.4440 H     1 <1>   0.0800 
 29 H       -2.6840     0.7540    -0.0820 H     1 <1>   0.0800 
 30 H        0.5480     4.5440    -0.7950 H     1 <1>   0.0800 
 31 H       -4.0080     3.3290    -0.9160 H     1 <1>   0.0800 
 32 H       -4.6420     1.7150    -0.9990 H     1 <1>   0.0800 
 33 H       -3.3150     2.1630    -2.0340 H     1 <1>   0.0800 
 34 H       -3.5200     3.1410     1.5560 H     1 <1>   0.0800 
 35 H       -2.5770     1.7830     2.1570 H     1 <1>   0.0800 
 36 H       -4.1990     1.5430     1.5730 H     1 <1>   0.0800 
 37 H       -1.5140     4.3530    -2.2550 H     1 <1>   0.1500 
 38 H       -2.4880     5.6610     1.6920 H     1 <1>   0.1500 
 39 H       -2.8510     6.1820    -3.1860 H     1 <1>   0.1500 
 40 H       -3.8370     7.4740     0.7510 H     1 <1>   0.1500 
 41 H       -4.0200     7.7450    -1.6880 H     1 <1>   0.1500 
 42 H        1.6500     7.2870     2.6110 H     1 <1>   0.0800 
 43 H        3.0980     7.6040     1.7310 H     1 <1>   0.0800 
 44 H        3.6550     6.4960    -0.1860 H     1 <1>   0.0800 
 45 H        2.2450     6.5410    -1.2180 H     1 <1>   0.0800 
 46 H        2.8570     5.0070    -0.6150 H     1 <1>   0.0800 
 47 H        1.5520     9.8130    -0.5470 H     1 <1>   0.4000 
 48 H       -0.6240     8.1970     1.5980 H     1 <1>   0.0800 
 49 H       -0.2410     7.7590    -0.0410 H     1 <1>   0.0800 
 50 H       -0.5500     9.4320     0.3700 H     1 <1>   0.0800 
 51 H        1.1080     9.7090     2.9010 H     1 <1>   0.0800 
 52 H        1.1490    10.7910     1.5370 H     1 <1>   0.0800 
 53 H        2.6300    10.0650     2.1300 H     1 <1>   0.0800 
@<TRIPOS>BOND
  1   1   2  2   
  2   2   3  am  
  3   2   4  1   
  4   3   5  1   
  5   3   6  1   
  6   4   7  1   
  7   4  26  1   
  8   4  27  1   
  9   5   8  1   
 10   5   9  1   
 11   5  28  1   
 12   6  10  1   
 13   6  11  1   
 14   6  29  1   
 15   7   9  1   
 16   8  12  ar  
 17   8  13  ar  
 18   9  14  1   
 19   9  30  1   
 20  10  31  1   
 21  10  32  1   
 22  10  33  1   
 23  11  34  1   
 24  11  35  1   
 25  11  36  1   
 26  12  15  ar  
 27  12  37  1   
 28  13  16  ar  
 29  13  38  1   
 30  14  17  2   
 31  14  18  am  
 32  15  19  ar  
 33  15  39  1   
 34  16  19  ar  
 35  16  40  1   
 36  18  20  1   
 37  18  21  1   
 38  19  41  1   
 39  20  22  1   
 40  20  42  1   
 41  20  43  1   
 42  21  44  1   
 43  21  45  1   
 44  21  46  1   
 45  22  23  1   
 46  22  24  1   
 47  22  25  1   
 48  23  47  1   
 49  24  48  1   
 50  24  49  1   
 51  24  50  1   
 52  25  51  1   
 53  25  52  1   
 54  25  53  1   
@<TRIPOS>SUBSTRUCTURE
  1 ****   9 GROUP 4 **** **** 0

# MOE 2024.06 (io_trps.svl 2023.06)
