@<TRIPOS>MOLECULE
NONAME
49 51 1 0 0 
SMALL
USER_CHARGES


@<TRIPOS>ATOM
  1 S       -0.4800    -0.1390    -0.6960 S.3   1 <1>  -0.3320 
  2 C        0.9920     0.7420    -0.1410 C.ar  1 <1>   0.1020 
  3 C       -0.2040    -1.9220    -0.3010 C.3   1 <1>   0.0700 
  4 C        1.0070     2.1130    -0.3220 C.ar  1 <1>  -0.1500 
  5 C        2.0680     0.0840     0.4410 C.ar  1 <1>  -0.1500 
  6 C       -1.4450    -2.7000    -0.7440 C.3   1 <1>  -0.0990 
  7 C        2.1110     2.8410     0.0830 C.ar  1 <1>   0.0820 
  8 C        3.1710     0.8160     0.8530 C.ar  1 <1>  -0.1500 
  9 C       -1.3410    -4.1840    -0.4260 C.2   1 <1>   0.5690 
 10 O        2.1210     4.1840    -0.1150 O.3   1 <1>  -0.3630 
 11 C        3.1940     2.1900     0.6820 C.ar  1 <1>   0.0820 
 12 O       -0.2420    -4.6420    -0.2160 O.2   1 <1>  -0.5700 
 13 N       -2.4620    -4.9690    -0.4060 N.am  1 <1>  -0.6600 
 14 C        3.3690     4.8400     0.0110 C.3   1 <1>   0.1200 
 15 O        4.2810     2.8840     1.1090 O.3   1 <1>  -0.3630 
 16 C       -2.3440    -6.4010     0.0280 C.3   1 <1>   0.3210 
 17 C       -3.7970    -4.5350    -0.9230 C.3   1 <1>   0.1400 
 18 C        4.1390     4.2880     1.2180 C.3   1 <1>   0.1200 
 19 C       -3.5300    -6.8770     0.8670 C.2   1 <1>   0.0460 
 20 C       -4.6840    -3.9610     0.1910 C.3   1 <1>   0.1200 
 21 N       -3.6520    -6.5090     2.1600 N.2   1 <1>  -0.5650 
 22 C       -4.5640    -7.6720     0.4960 C.2   1 <1>  -0.3320 
 23 O       -5.7030    -3.2060    -0.3780 O.3   1 <1>  -0.6800 
 24 C       -4.7430    -7.0820     2.5480 C.2   1 <1>   0.0360 
 25 N       -5.3470    -7.8040     1.5840 N.pl3 1 <1>   0.0330 
 26 C       -4.8940    -8.3370    -0.8300 C.3   1 <1>  -0.0600 
 27 H       -0.0500    -2.0030     0.7610 H     1 <1>   0.0800 
 28 H        0.6730    -2.2440    -0.8350 H     1 <1>   0.0800 
 29 H        0.1710     2.6110    -0.7770 H     1 <1>   0.1500 
 30 H        2.0670    -0.9790     0.5820 H     1 <1>   0.1500 
 31 H       -1.5730    -2.5840    -1.8030 H     1 <1>   0.0800 
 32 H       -2.2970    -2.2880    -0.2390 H     1 <1>   0.0800 
 33 H        4.0140     0.3280     1.3080 H     1 <1>   0.1500 
 34 H        3.1790     5.8920     0.1250 H     1 <1>   0.0800 
 35 H        3.9250     4.6760    -0.8950 H     1 <1>   0.0800 
 36 H       -1.4540    -6.5400     0.6160 H     1 <1>   0.0800 
 37 H       -2.2540    -7.0170    -0.8470 H     1 <1>   0.0800 
 38 H       -4.2980    -5.3740    -1.3740 H     1 <1>   0.0800 
 39 H       -3.6560    -3.7920    -1.6870 H     1 <1>   0.0800 
 40 H        3.6090     4.5020     2.1290 H     1 <1>   0.0800 
 41 H        5.1230     4.7170     1.2720 H     1 <1>   0.0800 
 42 H       -4.1230    -3.3280     0.8560 H     1 <1>   0.0800 
 43 H       -5.1420    -4.7530     0.7560 H     1 <1>   0.0800 
 44 H       -5.3710    -2.3350    -0.6700 H     1 <1>   0.4000 
 45 H       -5.1470    -7.0020     3.5420 H     1 <1>   0.1500 
 46 H       -6.2170    -8.3360     1.6690 H     1 <1>   0.2700 
 47 H       -4.1590    -8.0930    -1.5740 H     1 <1>   0.0800 
 48 H       -5.8550    -8.0050    -1.1810 H     1 <1>   0.0800 
 49 H       -4.9170    -9.4060    -0.7120 H     1 <1>   0.0800 
@<TRIPOS>BOND
  1   1   2  1   
  2   1   3  1   
  3   2   4  ar  
  4   2   5  ar  
  5   3   6  1   
  6   3  27  1   
  7   3  28  1   
  8   4   7  ar  
  9   4  29  1   
 10   5   8  ar  
 11   5  30  1   
 12   6   9  1   
 13   6  31  1   
 14   6  32  1   
 15   7  10  1   
 16   7  11  ar  
 17   8  11  ar  
 18   8  33  1   
 19   9  12  2   
 20   9  13  am  
 21  10  14  1   
 22  11  15  1   
 23  13  16  1   
 24  13  17  1   
 25  14  18  1   
 26  14  34  1   
 27  14  35  1   
 28  15  18  1   
 29  16  19  1   
 30  16  36  1   
 31  16  37  1   
 32  17  20  1   
 33  17  38  1   
 34  17  39  1   
 35  18  40  1   
 36  18  41  1   
 37  19  21  1   
 38  19  22  2   
 39  20  23  1   
 40  20  42  1   
 41  20  43  1   
 42  21  24  2   
 43  22  25  1   
 44  22  26  1   
 45  23  44  1   
 46  24  25  1   
 47  24  45  1   
 48  25  46  1   
 49  26  47  1   
 50  26  48  1   
 51  26  49  1   
@<TRIPOS>SUBSTRUCTURE
  1 ****   3 GROUP 4 **** **** 0

# MOE 2024.06 (io_trps.svl 2023.06)
