@<TRIPOS>MOLECULE
NONAME
47 50 1 0 0 
SMALL
USER_CHARGES


@<TRIPOS>ATOM
  1 O       -1.7830     0.4710     2.2060 O.2   1 <1>  -0.5700 
  2 C       -2.3590     0.8590     1.2060 C.2   1 <1>   0.6160 
  3 N       -3.4010     0.1010     0.7220 N.am  1 <1>  -0.6600 
  4 C       -1.9820     2.1140     0.6230 C.2   1 <1>   0.0290 
  5 C       -4.2920     0.4540    -0.4140 C.3   1 <1>   0.1400 
  6 C       -3.6680    -1.2850     1.1790 C.3   1 <1>   0.1400 
  7 C       -1.4730     2.1290    -0.7190 C.2   1 <1>   0.6160 
  8 C       -2.0750     3.2980     1.3180 C.2   1 <1>  -0.1500 
  9 C       -5.3380    -0.6610    -0.4430 C.3   1 <1>   0.2000 
 10 C       -4.6040    -1.8810     0.1200 C.3   1 <1>  -0.0800 
 11 O       -1.3420     1.1380    -1.4230 O.2   1 <1>  -0.5700 
 12 N       -1.1150     3.3310    -1.2770 N.am  1 <1>  -0.5390 
 13 C       -1.6910     4.4990     0.6920 C.2   1 <1>  -0.1380 
 14 O       -6.3590    -0.3240     0.4330 O.3   1 <1>  -0.6800 
 15 C       -3.8100    -2.6020    -0.9870 C.3   1 <1>   0.0210 
 16 C       -1.2270     4.4950    -0.5720 C.2   1 <1>  -0.0290 
 17 C       -1.7110     5.8900     1.2720 C.3   1 <1>  -0.0220 
 18 C       -3.0800    -3.8140    -0.4450 C.2   1 <1>   0.1080 
 19 C       -0.8580     5.8670    -1.0690 C.3   1 <1>  -0.0220 
 20 C       -1.3350     6.7890     0.0730 C.3   1 <1>  -0.1600 
 21 N       -3.6910    -4.8890    -0.0520 N.2   1 <1>  -0.7070 
 22 C       -1.7000    -3.9120    -0.3020 C.2   1 <1>  -0.1500 
 23 N       -2.7050    -5.7100     0.3550 N.pl3 1 <1>   0.3000 
 24 C       -1.4890    -5.1400     0.2140 C.2   1 <1>  -0.3320 
 25 C       -0.1810    -5.8120     0.5890 C.3   1 <1>  -0.0600 
 26 H       -4.7420     1.4230    -0.2850 H     1 <1>   0.0800 
 27 H       -3.7290     0.4350    -1.3300 H     1 <1>   0.0800 
 28 H       -2.7500    -1.8390     1.2850 H     1 <1>   0.0800 
 29 H       -4.1600    -1.2490     2.1360 H     1 <1>   0.0800 
 30 H       -2.4310     3.3210     2.3340 H     1 <1>   0.1500 
 31 H       -5.7670    -0.8190    -1.4180 H     1 <1>   0.0800 
 32 H       -5.2910    -2.5850     0.5580 H     1 <1>   0.0800 
 33 H       -0.7470     3.2850    -2.2270 H     1 <1>   0.3700 
 34 H       -5.9680    -0.1140     1.3050 H     1 <1>   0.4000 
 35 H       -3.0960    -1.9350    -1.4360 H     1 <1>   0.0800 
 36 H       -4.4850    -2.9360    -1.7540 H     1 <1>   0.0800 
 37 H       -2.6850     6.1380     1.6560 H     1 <1>   0.0800 
 38 H       -0.9780     5.9690     2.0560 H     1 <1>   0.0800 
 39 H        0.2070     5.9340    -1.2020 H     1 <1>   0.0800 
 40 H       -1.3610     6.0950    -1.9920 H     1 <1>   0.0800 
 41 H       -0.5720     7.4970     0.3440 H     1 <1>   0.0800 
 42 H       -2.2080     7.3280    -0.2500 H     1 <1>   0.0800 
 43 H       -0.9820    -3.1500    -0.5560 H     1 <1>   0.1500 
 44 H       -2.8940    -6.6490     0.7230 H     1 <1>   0.2700 
 45 H        0.6430    -5.1500     0.3890 H     1 <1>   0.0800 
 46 H       -0.0460    -6.7110     0.0150 H     1 <1>   0.0800 
 47 H       -0.1760    -6.0570     1.6360 H     1 <1>   0.0800 
@<TRIPOS>BOND
  1   1   2  2   
  2   2   3  am  
  3   2   4  1   
  4   3   5  1   
  5   3   6  1   
  6   4   7  1   
  7   4   8  2   
  8   5   9  1   
  9   5  26  1   
 10   5  27  1   
 11   6  10  1   
 12   6  28  1   
 13   6  29  1   
 14   7  11  2   
 15   7  12  am  
 16   8  13  1   
 17   8  30  1   
 18   9  10  1   
 19   9  14  1   
 20   9  31  1   
 21  10  15  1   
 22  10  32  1   
 23  12  16  1   
 24  12  33  1   
 25  13  16  2   
 26  13  17  1   
 27  14  34  1   
 28  15  18  1   
 29  15  35  1   
 30  15  36  1   
 31  16  19  1   
 32  17  20  1   
 33  17  37  1   
 34  17  38  1   
 35  18  21  2   
 36  18  22  1   
 37  19  20  1   
 38  19  39  1   
 39  19  40  1   
 40  20  41  1   
 41  20  42  1   
 42  21  23  1   
 43  22  24  2   
 44  22  43  1   
 45  23  24  1   
 46  23  44  1   
 47  24  25  1   
 48  25  45  1   
 49  25  46  1   
 50  25  47  1   
@<TRIPOS>SUBSTRUCTURE
  1 ****   3 GROUP 4 **** **** 0

# MOE 2024.06 (io_trps.svl 2023.06)
