@<TRIPOS>MOLECULE
NONAME
41 43 1 0 0 
SMALL
USER_CHARGES


@<TRIPOS>ATOM
  1 S        0.7290    -1.0020     1.5280 S.3   1 <1>  -0.0800 
  2 C        0.9310    -1.3160    -0.1860 C.2   1 <1>  -0.0450 
  3 C        0.8820     0.7080     1.2350 C.2   1 <1>   0.1980 
  4 C        1.0890    -0.1100    -0.7870 C.2   1 <1>   0.0460 
  5 C        0.8960    -2.6830    -0.6440 C.2   1 <1>   0.7150 
  6 N        1.0600     1.0110     0.0160 N.2   1 <1>  -0.5650 
  7 C        0.7910     1.6350     2.4240 C.3   1 <1>  -0.0600 
  8 C        1.3010     0.1660    -2.2630 C.3   1 <1>  -0.0590 
  9 O        0.9880    -2.9670    -1.8220 O.2   1 <1>  -0.5700 
 10 N        0.7420    -3.7030     0.2460 N.am  1 <1>  -0.7300 
 11 C        0.7260    -5.1490    -0.0750 C.3   1 <1>   0.2200 
 12 C       -0.6840    -5.7170     0.0100 C.3   1 <1>  -0.0800 
 13 C        1.4000    -5.9070     1.0600 C.3   1 <1>   0.1200 
 14 C       -0.8450    -6.0220     1.5040 C.3   1 <1>   0.1200 
 15 C       -1.8030    -4.8410    -0.5820 C.3   1 <1>  -0.0160 
 16 O        0.4360    -5.9820     2.0650 O.3   1 <1>  -0.5600 
 17 C       -3.1420    -5.5590    -0.5210 C.ar  1 <1>  -0.1440 
 18 C       -3.5010    -6.5050    -1.4600 C.ar  1 <1>  -0.1500 
 19 C       -4.0660    -5.3060     0.4730 C.ar  1 <1>  -0.1500 
 20 C       -4.7290    -7.1390    -1.3590 C.ar  1 <1>   0.1600 
 21 C       -5.2670    -5.9970     0.4830 C.ar  1 <1>   0.1600 
 22 N       -5.6190    -6.9090    -0.4080 N.ar  1 <1>  -0.6200 
 23 H        0.9020     2.6530     2.0970 H     1 <1>   0.0800 
 24 H        1.5700     1.4060     3.1260 H     1 <1>   0.0800 
 25 H       -0.1650     1.5240     2.9020 H     1 <1>   0.0800 
 26 H        1.3310    -0.7370    -2.8410 H     1 <1>   0.0800 
 27 H        2.2290     0.6900    -2.3990 H     1 <1>   0.0800 
 28 H        0.5010     0.7820    -2.6300 H     1 <1>   0.0800 
 29 H        0.6440    -3.4880     1.2400 H     1 <1>   0.3700 
 30 H        1.1960    -5.3360    -1.0270 H     1 <1>   0.0800 
 31 H       -0.6870    -6.6590    -0.5100 H     1 <1>   0.0800 
 32 H        2.2790    -5.4110     1.4330 H     1 <1>   0.0800 
 33 H        1.6430    -6.9110     0.7590 H     1 <1>   0.0800 
 34 H       -1.2700    -6.9970     1.6680 H     1 <1>   0.0800 
 35 H       -1.4400    -5.2770     2.0020 H     1 <1>   0.0800 
 36 H       -1.5700    -4.6080    -1.6080 H     1 <1>   0.0800 
 37 H       -1.8750    -3.9090    -0.0500 H     1 <1>   0.0800 
 38 H       -2.8390    -6.7540    -2.2690 H     1 <1>   0.1500 
 39 H       -3.8660    -4.5800     1.2390 H     1 <1>   0.1500 
 40 H       -4.9920    -7.8740    -2.1000 H     1 <1>   0.1500 
 41 H       -5.9750    -5.7870     1.2670 H     1 <1>   0.1500 
@<TRIPOS>BOND
  1   1   2  1   
  2   1   3  1   
  3   2   4  2   
  4   2   5  1   
  5   3   6  2   
  6   3   7  1   
  7   4   6  1   
  8   4   8  1   
  9   5   9  2   
 10   5  10  am  
 11   7  23  1   
 12   7  24  1   
 13   7  25  1   
 14   8  26  1   
 15   8  27  1   
 16   8  28  1   
 17  10  11  1   
 18  10  29  1   
 19  11  12  1   
 20  11  13  1   
 21  11  30  1   
 22  12  14  1   
 23  12  15  1   
 24  12  31  1   
 25  13  16  1   
 26  13  32  1   
 27  13  33  1   
 28  14  16  1   
 29  14  34  1   
 30  14  35  1   
 31  15  17  1   
 32  15  36  1   
 33  15  37  1   
 34  17  18  ar  
 35  17  19  ar  
 36  18  20  ar  
 37  18  38  1   
 38  19  21  ar  
 39  19  39  1   
 40  20  22  ar  
 41  20  40  1   
 42  21  22  ar  
 43  21  41  1   
@<TRIPOS>SUBSTRUCTURE
  1 ****  10 GROUP 4 **** **** 0

# MOE 2024.06 (io_trps.svl 2023.06)
