@<TRIPOS>MOLECULE
NONAME
38 40 1 0 0 
SMALL
USER_CHARGES


@<TRIPOS>ATOM
  1 O       -0.0660    -0.3270     0.9010 O.3   1 <1>  -0.5600 
  2 C        0.8190     0.1450    -0.0730 C.3   1 <1>   0.1200 
  3 C       -1.3390     0.2200     0.7270 C.3   1 <1>   0.1200 
  4 C        0.2150     1.4360    -0.6180 C.3   1 <1>   0.2890 
  5 C       -1.2720     1.1220    -0.5070 C.3   1 <1>  -0.0800 
  6 N        0.6090     2.5640     0.2600 N.pl3 1 <1>  -0.8690 
  7 C       -2.2330     2.3240    -0.4470 C.3   1 <1>  -0.0170 
  8 C        0.5960     3.8770    -0.0960 C.ar  1 <1>   0.4100 
  9 C       -3.6810     1.8610    -0.4110 C.ar  1 <1>  -0.1440 
 10 N        0.1390     4.6910     0.8240 N.ar  1 <1>  -0.6200 
 11 C        1.0190     4.3410    -1.3260 C.ar  1 <1>  -0.1500 
 12 C       -4.3490     1.4630    -1.5510 C.ar  1 <1>  -0.1500 
 13 C       -4.4010     1.8110     0.7660 C.ar  1 <1>  -0.1500 
 14 C        0.1010     5.9670     0.4930 C.ar  1 <1>   0.4770 
 15 C        0.9310     5.6860    -1.5580 C.ar  1 <1>   0.1600 
 16 C       -5.6660     1.0420    -1.4610 C.ar  1 <1>   0.1600 
 17 C       -5.7150     1.3730     0.7470 C.ar  1 <1>   0.1600 
 18 N        0.4640     6.5210    -0.6510 N.ar  1 <1>  -0.6200 
 19 C       -0.4240     6.9170     1.5420 C.3   1 <1>  -0.0970 
 20 N       -6.3640     0.9850    -0.3390 N.ar  1 <1>  -0.6200 
 21 H        1.7900     0.2980     0.3650 H     1 <1>   0.0800 
 22 H        0.8780    -0.6000    -0.8460 H     1 <1>   0.0800 
 23 H       -2.0530    -0.5760     0.6080 H     1 <1>   0.0800 
 24 H       -1.5690     0.7860     1.6140 H     1 <1>   0.0800 
 25 H        0.5220     1.6190    -1.6320 H     1 <1>   0.0800 
 26 H       -1.5420     0.5190    -1.3550 H     1 <1>   0.0800 
 27 H        0.3610     2.4090     1.2410 H     1 <1>   0.4000 
 28 H       -2.0820     2.9520    -1.3080 H     1 <1>   0.0800 
 29 H       -2.0340     2.9220     0.4250 H     1 <1>   0.0800 
 30 H        1.4080     3.6710    -2.0640 H     1 <1>   0.1500 
 31 H       -3.8610     1.4780    -2.5080 H     1 <1>   0.1500 
 32 H       -3.9540     2.1090     1.6970 H     1 <1>   0.1500 
 33 H        1.2480     6.0990    -2.5010 H     1 <1>   0.1500 
 34 H       -6.1720     0.7350    -2.3610 H     1 <1>   0.1500 
 35 H       -6.2600     1.3420     1.6740 H     1 <1>   0.1500 
 36 H        0.2930     7.6990     1.7080 H     1 <1>   0.0800 
 37 H       -0.6000     6.4000     2.4670 H     1 <1>   0.0800 
 38 H       -1.3450     7.3500     1.2000 H     1 <1>   0.0800 
@<TRIPOS>BOND
  1   1   2  1   
  2   1   3  1   
  3   2   4  1   
  4   2  21  1   
  5   2  22  1   
  6   3   5  1   
  7   3  23  1   
  8   3  24  1   
  9   4   5  1   
 10   4   6  1   
 11   4  25  1   
 12   5   7  1   
 13   5  26  1   
 14   6   8  1   
 15   6  27  1   
 16   7   9  1   
 17   7  28  1   
 18   7  29  1   
 19   8  10  ar  
 20   8  11  ar  
 21   9  12  ar  
 22   9  13  ar  
 23  10  14  ar  
 24  11  15  ar  
 25  11  30  1   
 26  12  16  ar  
 27  12  31  1   
 28  13  17  ar  
 29  13  32  1   
 30  14  18  ar  
 31  14  19  1   
 32  15  18  ar  
 33  15  33  1   
 34  16  20  ar  
 35  16  34  1   
 36  17  20  ar  
 37  17  35  1   
 38  19  36  1   
 39  19  37  1   
 40  19  38  1   
@<TRIPOS>SUBSTRUCTURE
  1 ****   7 GROUP 4 **** **** 0

# MOE 2024.06 (io_trps.svl 2023.06)
