@<TRIPOS>MOLECULE
NONAME
36 37 1 0 0 
SMALL
USER_CHARGES


@<TRIPOS>ATOM
  1 S       -1.0670     0.8740     1.2740 S.o2  1 <1>   1.4470 
  2 O       -1.1890    -0.0630     2.3690 O.2   1 <1>  -0.6500 
  3 O       -1.5970     2.2110     1.4470 O.2   1 <1>  -0.6500 
  4 N       -1.8090     0.2350    -0.1130 N.am  1 <1>  -0.8490 
  5 C        0.6770     1.0200     0.7890 C.ar  1 <1>  -0.0090 
  6 C       -1.3230    -1.0850    -0.5680 C.3   1 <1>   0.1960 
  7 C       -3.2710     0.3430    -0.1330 C.3   1 <1>   0.1960 
  8 C        1.1170     2.0930     0.0250 C.ar  1 <1>  -0.1500 
  9 C        1.6100     0.0480     1.1420 C.ar  1 <1>  -0.1500 
 10 C       -1.9610    -2.2590     0.1830 C.3   1 <1>  -0.1860 
 11 C       -3.9440    -0.7810     0.6580 C.3   1 <1>  -0.1600 
 12 C        2.4430     2.1710    -0.3520 C.ar  1 <1>   0.1900 
 13 C        2.9400     0.1360     0.7570 C.ar  1 <1>  -0.1500 
 14 C       -1.5080    -3.5700    -0.4250 C.2   1 <1>   0.9060 
 15 C       -3.4810    -2.1340     0.1300 C.3   1 <1>   0.2000 
 16 F        2.8180     3.1970    -1.0680 F     1 <1>  -0.1900 
 17 C        3.3780     1.2100    -0.0010 C.ar  1 <1>  -0.1440 
 18 O       -0.5780    -3.5710    -1.2360 O.co2 1 <1>  -0.9000 
 19 O       -2.0930    -4.6080    -0.0910 O.co2 1 <1>  -0.9000 
 20 O       -4.0390    -3.1230     0.9060 O.3   1 <1>  -0.6800 
 21 C        4.8330     1.3190    -0.4320 C.3   1 <1>  -0.0970 
 22 H       -1.5560    -1.1870    -1.6150 H     1 <1>   0.0800 
 23 H       -0.2520    -1.1430    -0.4860 H     1 <1>   0.0800 
 24 H       -3.5790     1.3000     0.2550 H     1 <1>   0.0800 
 25 H       -3.6010     0.2900    -1.1570 H     1 <1>   0.0800 
 26 H        0.4280     2.8630    -0.2760 H     1 <1>   0.1500 
 27 H        1.2870    -0.8000     1.7260 H     1 <1>   0.1500 
 28 H       -1.6300    -2.2560     1.2010 H     1 <1>   0.0800 
 29 H       -5.0100    -0.7040     0.5510 H     1 <1>   0.0800 
 30 H       -3.6990    -0.6900     1.7010 H     1 <1>   0.0800 
 31 H        3.6250    -0.6410     1.0490 H     1 <1>   0.1500 
 32 H       -3.8240    -2.2830    -0.8810 H     1 <1>   0.0800 
 33 H       -3.5100    -3.9500     0.7010 H     1 <1>   0.4000 
 34 H        5.4050     0.4800    -0.0800 H     1 <1>   0.0800 
 35 H        5.2650     2.2210    -0.0360 H     1 <1>   0.0800 
 36 H        4.8940     1.3490    -1.5060 H     1 <1>   0.0800 
@<TRIPOS>BOND
  1   1   2  2   
  2   1   3  2   
  3   1   4  am  
  4   1   5  1   
  5   4   6  1   
  6   4   7  1   
  7   5   8  ar  
  8   5   9  ar  
  9   6  10  1   
 10   6  22  1   
 11   6  23  1   
 12   7  11  1   
 13   7  24  1   
 14   7  25  1   
 15   8  12  ar  
 16   8  26  1   
 17   9  13  ar  
 18   9  27  1   
 19  10  14  1   
 20  10  15  1   
 21  10  28  1   
 22  11  15  1   
 23  11  29  1   
 24  11  30  1   
 25  12  16  1   
 26  12  17  ar  
 27  13  17  ar  
 28  13  31  1   
 29  14  18  ar  
 30  14  19  ar  
 31  15  20  1   
 32  15  32  1   
 33  17  21  1   
 34  20  33  1   
 35  21  34  1   
 36  21  35  1   
 37  21  36  1   
@<TRIPOS>SUBSTRUCTURE
  1 ****   6 GROUP 4 **** **** 0

# MOE 2024.06 (io_trps.svl 2023.06)
