@<TRIPOS>MOLECULE
NONAME
45 47 1 0 0 
SMALL
USER_CHARGES


@<TRIPOS>ATOM
  1 S       -2.4880     0.1160     1.5080 S.3   1 <1>  -0.0800 
  2 C       -1.9470     0.0930    -0.1640 C.2   1 <1>  -0.1400 
  3 C       -0.9300     0.7120     2.0510 C.2   1 <1>  -0.1100 
  4 C       -0.6730     0.5180    -0.2510 C.2   1 <1>  -0.1500 
  5 C       -2.9340    -0.3700    -1.2170 C.3   1 <1>   0.0200 
  6 C       -0.0930     0.8690     1.0090 C.2   1 <1>  -0.1500 
  7 C       -3.1900    -1.8770    -1.1000 C.3   1 <1>  -0.1600 
  8 C       -4.2210    -2.3650    -2.1320 C.3   1 <1>  -0.0990 
  9 C       -4.4620    -3.8610    -2.0250 C.2   1 <1>   0.5690 
 10 O       -3.8530    -4.5840    -2.7770 O.2   1 <1>  -0.5700 
 11 N       -5.3390    -4.3650    -1.1050 N.am  1 <1>  -0.6600 
 12 C       -6.1780    -3.5960    -0.1510 C.3   1 <1>   0.1400 
 13 C       -5.5510    -5.8210    -0.9360 C.3   1 <1>   0.1400 
 14 C       -7.0380    -4.6470     0.5520 C.3   1 <1>   0.2000 
 15 C       -6.2860    -5.9680     0.3960 C.3   1 <1>  -0.0800 
 16 O       -7.2090    -4.3500     1.8950 O.3   1 <1>  -0.6800 
 17 C       -7.2100    -7.1930     0.4610 C.3   1 <1>  -0.0170 
 18 C       -6.4200    -8.4840     0.3100 C.ar  1 <1>  -0.1430 
 19 C       -6.2930    -9.1310    -0.9030 C.ar  1 <1>  -0.1500 
 20 C       -5.7860    -9.0740     1.3850 C.ar  1 <1>  -0.1500 
 21 C       -5.5550   -10.3010    -0.9800 C.ar  1 <1>   0.1600 
 22 C       -5.0740   -10.2480     1.2000 C.ar  1 <1>   0.1600 
 23 N       -4.9430   -10.8750     0.0430 N.ar  1 <1>  -0.6200 
 24 H       -0.8050     0.8830     3.1050 H     1 <1>   0.1500 
 25 H       -0.1020     0.6020    -1.1600 H     1 <1>   0.1500 
 26 H       -3.8540     0.1750    -1.0980 H     1 <1>   0.0800 
 27 H       -2.5370    -0.1480    -2.1920 H     1 <1>   0.0800 
 28 H        0.9220     1.2220     1.0700 H     1 <1>   0.1500 
 29 H       -2.2630    -2.4050    -1.2490 H     1 <1>   0.0800 
 30 H       -3.5380    -2.1050    -0.1090 H     1 <1>   0.0800 
 31 H       -3.8570    -2.1560    -3.1220 H     1 <1>   0.0800 
 32 H       -5.1490    -1.8400    -2.0120 H     1 <1>   0.0800 
 33 H       -5.5440    -3.0880     0.5540 H     1 <1>   0.0800 
 34 H       -6.7980    -2.8910    -0.6760 H     1 <1>   0.0800 
 35 H       -6.1530    -6.1780    -1.7540 H     1 <1>   0.0800 
 36 H       -4.6110    -6.3490    -0.9300 H     1 <1>   0.0800 
 37 H       -8.0090    -4.6910     0.0880 H     1 <1>   0.0800 
 38 H       -5.5360    -6.0450     1.1640 H     1 <1>   0.0800 
 39 H       -6.3470    -4.3370     2.3540 H     1 <1>   0.4000 
 40 H       -7.9580    -7.1330    -0.3100 H     1 <1>   0.0800 
 41 H       -7.7240    -7.2020     1.4080 H     1 <1>   0.0800 
 42 H       -6.7570    -8.7400    -1.7890 H     1 <1>   0.1500 
 43 H       -5.8400    -8.6330     2.3630 H     1 <1>   0.1500 
 44 H       -5.4650   -10.7910    -1.9340 H     1 <1>   0.1500 
 45 H       -4.5870   -10.6940     2.0500 H     1 <1>   0.1500 
@<TRIPOS>BOND
  1   1   2  1   
  2   1   3  1   
  3   2   4  2   
  4   2   5  1   
  5   3   6  2   
  6   3  24  1   
  7   4   6  1   
  8   4  25  1   
  9   5   7  1   
 10   5  26  1   
 11   5  27  1   
 12   6  28  1   
 13   7   8  1   
 14   7  29  1   
 15   7  30  1   
 16   8   9  1   
 17   8  31  1   
 18   8  32  1   
 19   9  10  2   
 20   9  11  am  
 21  11  12  1   
 22  11  13  1   
 23  12  14  1   
 24  12  33  1   
 25  12  34  1   
 26  13  15  1   
 27  13  35  1   
 28  13  36  1   
 29  14  15  1   
 30  14  16  1   
 31  14  37  1   
 32  15  17  1   
 33  15  38  1   
 34  16  39  1   
 35  17  18  1   
 36  17  40  1   
 37  17  41  1   
 38  18  19  ar  
 39  18  20  ar  
 40  19  21  ar  
 41  19  42  1   
 42  20  22  ar  
 43  20  43  1   
 44  21  23  ar  
 45  21  44  1   
 46  22  23  ar  
 47  22  45  1   
@<TRIPOS>SUBSTRUCTURE
  1 ****  11 GROUP 4 **** **** 0

# MOE 2024.06 (io_trps.svl 2023.06)
