@<TRIPOS>MOLECULE
NONAME
44 45 1 0 0 
SMALL
USER_CHARGES


@<TRIPOS>ATOM
  1 S        0.0610     0.4900     0.6990 S.o2  1 <1>   1.3330 
  2 O        0.6400     1.7560     1.0930 O.2   1 <1>  -0.6500 
  3 O       -0.0090    -0.5960     1.6520 O.2   1 <1>  -0.6500 
  4 N       -1.5090     0.7950     0.1320 N.am  1 <1>  -0.8490 
  5 C        0.8860    -0.1030    -0.7860 C.3   1 <1>  -0.0550 
  6 C       -2.5160     0.6150     1.1840 C.3   1 <1>   0.1960 
  7 C       -1.6370     2.1330    -0.4560 C.3   1 <1>   0.1960 
  8 C        2.4100    -0.3060    -0.6680 C.3   1 <1>  -0.1600 
  9 C       -3.9220     0.7250     0.5900 C.3   1 <1>  -0.1600 
 10 C       -3.0060     2.2790    -1.1220 C.3   1 <1>  -0.1600 
 11 C        2.7840    -1.5090     0.2050 C.3   1 <1>  -0.2400 
 12 C       -4.1460     2.0730    -0.1110 C.3   1 <1>   0.2800 
 13 O       -4.0540     3.0510     0.8970 O.3   1 <1>  -0.5600 
 14 C       -5.5390     2.1220    -0.7890 C.3   1 <1>  -0.1600 
 15 C       -4.5400     4.3310     0.6090 C.3   1 <1>   0.1200 
 16 C       -6.5770     2.8910     0.0320 C.3   1 <1>   0.2800 
 17 C       -6.0520     4.2970     0.3330 C.3   1 <1>  -0.1600 
 18 O       -6.7220     2.2510     1.2340 O.3   1 <1>  -0.6800 
 19 C       -7.9530     2.9100    -0.6260 C.3   1 <1>  -0.2400 
 20 H        0.7170     0.6100    -1.5680 H     1 <1>   0.0800 
 21 H        0.4310    -1.0240    -1.0940 H     1 <1>   0.0800 
 22 H       -2.3750     1.3520     1.9590 H     1 <1>   0.0800 
 23 H       -2.4140    -0.3610     1.6290 H     1 <1>   0.0800 
 24 H       -0.8690     2.2830    -1.1940 H     1 <1>   0.0800 
 25 H       -1.5180     2.8850     0.3090 H     1 <1>   0.0800 
 26 H        2.8610     0.5860    -0.2660 H     1 <1>   0.0800 
 27 H        2.8120    -0.4610    -1.6540 H     1 <1>   0.0800 
 28 H       -4.6490     0.5870     1.3690 H     1 <1>   0.0800 
 29 H       -4.0500    -0.0770    -0.1140 H     1 <1>   0.0800 
 30 H       -3.0830     1.5420    -1.9020 H     1 <1>   0.0800 
 31 H       -3.0810     3.2430    -1.5880 H     1 <1>   0.0800 
 32 H        2.4790    -1.3530     1.2250 H     1 <1>   0.0800 
 33 H        3.8510    -1.6520     0.1950 H     1 <1>   0.0800 
 34 H        2.3160    -2.4060    -0.1620 H     1 <1>   0.0800 
 35 H       -5.8970     1.1290    -0.9950 H     1 <1>   0.0800 
 36 H       -5.4480     2.6090    -1.7430 H     1 <1>   0.0800 
 37 H       -4.0040     4.7210    -0.2380 H     1 <1>   0.0800 
 38 H       -4.3310     4.9570     1.4590 H     1 <1>   0.0800 
 39 H       -6.2410     4.9360    -0.5110 H     1 <1>   0.0800 
 40 H       -6.5900     4.7190     1.1640 H     1 <1>   0.0800 
 41 H       -5.8530     2.3140     1.6860 H     1 <1>   0.4000 
 42 H       -7.9040     3.3970    -1.5830 H     1 <1>   0.0800 
 43 H       -8.6530     3.4420    -0.0070 H     1 <1>   0.0800 
 44 H       -8.3090     1.9050    -0.7720 H     1 <1>   0.0800 
@<TRIPOS>BOND
  1   1   2  2   
  2   1   3  2   
  3   1   4  am  
  4   1   5  1   
  5   4   6  1   
  6   4   7  1   
  7   5   8  1   
  8   5  20  1   
  9   5  21  1   
 10   6   9  1   
 11   6  22  1   
 12   6  23  1   
 13   7  10  1   
 14   7  24  1   
 15   7  25  1   
 16   8  11  1   
 17   8  26  1   
 18   8  27  1   
 19   9  12  1   
 20   9  28  1   
 21   9  29  1   
 22  10  12  1   
 23  10  30  1   
 24  10  31  1   
 25  11  32  1   
 26  11  33  1   
 27  11  34  1   
 28  12  13  1   
 29  12  14  1   
 30  13  15  1   
 31  14  16  1   
 32  14  35  1   
 33  14  36  1   
 34  15  17  1   
 35  15  37  1   
 36  15  38  1   
 37  16  17  1   
 38  16  18  1   
 39  16  19  1   
 40  17  39  1   
 41  17  40  1   
 42  18  41  1   
 43  19  42  1   
 44  19  43  1   
 45  19  44  1   
@<TRIPOS>SUBSTRUCTURE
  1 ****   7 GROUP 4 **** **** 0

# MOE 2024.06 (io_trps.svl 2023.06)
