@<TRIPOS>MOLECULE
NONAME
52 55 1 0 0 
SMALL
USER_CHARGES


@<TRIPOS>ATOM
  1 S       -0.7460     0.4000     1.7270 S.3   1 <1>  -0.0800 
  2 C       -0.8380     1.4340     0.3130 C.2   1 <1>  -0.0450 
  3 C       -1.6510    -0.8290     0.8890 C.2   1 <1>   0.1980 
  4 C       -1.5450     0.7540    -0.6230 C.2   1 <1>   0.0460 
  5 C       -0.2220     2.7370     0.3610 C.2   1 <1>   0.7150 
  6 N       -1.9820    -0.5110    -0.2940 N.2   1 <1>  -0.5650 
  7 C       -1.9450    -2.1130     1.6270 C.3   1 <1>  -0.0600 
  8 C       -1.9250     1.2180    -2.0160 C.3   1 <1>  -0.0590 
  9 O       -0.5040     3.6020    -0.4460 O.2   1 <1>  -0.5700 
 10 N        0.7760     3.0390     1.2600 N.am  1 <1>  -0.6600 
 11 C        2.0700     2.3060     1.1980 C.3   1 <1>   0.1400 
 12 C        0.7710     4.3500     1.9570 C.3   1 <1>   0.1400 
 13 C        2.8290     2.6530    -0.0990 C.3   1 <1>   0.3430 
 14 C        1.9220     5.2550     1.5040 C.3   1 <1>  -0.1600 
 15 N        3.3130     4.0760    -0.1950 N.4   1 <1>  -0.9590 
 16 C        2.2610     5.1240     0.0180 C.3   1 <1>   0.3430 
 17 C        3.9880     4.2920    -1.5030 C.3   1 <1>   0.4860 
 18 C        4.8060     5.5650    -1.4160 C.ar  1 <1>  -0.1430 
 19 C        5.9900     5.5840    -0.6840 C.ar  1 <1>  -0.1500 
 20 C        4.3690     6.7180    -2.0660 C.ar  1 <1>  -0.1500 
 21 C        6.7050     6.7630    -0.6030 C.ar  1 <1>  -0.1430 
 22 C        5.0960     7.8940    -1.9770 C.ar  1 <1>  -0.1500 
 23 C        6.2610     7.8920    -1.2360 C.ar  1 <1>   0.0830 
 24 C        7.9930     7.0870     0.0970 C.3   1 <1>  -0.0170 
 25 O        7.0680     8.9480    -1.0570 O.3   1 <1>  -0.3630 
 26 C        8.1880     8.5710    -0.2670 C.3   1 <1>   0.1200 
 27 H       -2.5160    -1.9020     2.5120 H     1 <1>   0.0800 
 28 H       -1.0260    -2.5960     1.9030 H     1 <1>   0.0800 
 29 H       -2.5110    -2.7720     0.9950 H     1 <1>   0.0800 
 30 H       -1.5390     2.1940    -2.2340 H     1 <1>   0.0800 
 31 H       -2.9960     1.2460    -2.1010 H     1 <1>   0.0800 
 32 H       -1.5440     0.5240    -2.7430 H     1 <1>   0.0800 
 33 H        1.8750     1.2470     1.2060 H     1 <1>   0.0800 
 34 H        2.6710     2.5290     2.0620 H     1 <1>   0.0800 
 35 H        0.8250     4.1900     3.0210 H     1 <1>   0.0800 
 36 H       -0.1660     4.8470     1.7570 H     1 <1>   0.0800 
 37 H        2.1780     2.4410    -0.9320 H     1 <1>   0.0800 
 38 H        3.6760     1.9920    -0.1770 H     1 <1>   0.0800 
 39 H        2.7930     5.0890     2.1110 H     1 <1>   0.0800 
 40 H        1.6130     6.2690     1.6870 H     1 <1>   0.0800 
 41 H        4.0320     4.2430     0.5180 H     1 <1>   0.4500 
 42 H        2.6380     6.0780    -0.3140 H     1 <1>   0.0800 
 43 H        1.3740     4.9030    -0.5550 H     1 <1>   0.0800 
 44 H        3.2580     4.3700    -2.2930 H     1 <1>   0.0800 
 45 H        4.6470     3.4690    -1.7250 H     1 <1>   0.0800 
 46 H        6.3650     4.7070    -0.1850 H     1 <1>   0.1500 
 47 H        3.4630     6.7180    -2.6490 H     1 <1>   0.1500 
 48 H        4.7800     8.7980    -2.4680 H     1 <1>   0.1500 
 49 H        8.8070     6.4920    -0.2780 H     1 <1>   0.0800 
 50 H        7.9070     6.9630     1.1610 H     1 <1>   0.0800 
 51 H        9.0760     8.7210    -0.8550 H     1 <1>   0.0800 
 52 H        8.2080     9.1970     0.6070 H     1 <1>   0.0800 
@<TRIPOS>BOND
  1   1   2  1   
  2   1   3  1   
  3   2   4  2   
  4   2   5  1   
  5   3   6  2   
  6   3   7  1   
  7   4   6  1   
  8   4   8  1   
  9   5   9  2   
 10   5  10  am  
 11   7  27  1   
 12   7  28  1   
 13   7  29  1   
 14   8  30  1   
 15   8  31  1   
 16   8  32  1   
 17  10  11  1   
 18  10  12  1   
 19  11  13  1   
 20  11  33  1   
 21  11  34  1   
 22  12  14  1   
 23  12  35  1   
 24  12  36  1   
 25  13  15  1   
 26  13  37  1   
 27  13  38  1   
 28  14  16  1   
 29  14  39  1   
 30  14  40  1   
 31  15  16  1   
 32  15  17  1   
 33  15  41  1   
 34  16  42  1   
 35  16  43  1   
 36  17  18  1   
 37  17  44  1   
 38  17  45  1   
 39  18  19  ar  
 40  18  20  ar  
 41  19  21  ar  
 42  19  46  1   
 43  20  22  ar  
 44  20  47  1   
 45  21  23  ar  
 46  21  24  1   
 47  22  23  ar  
 48  22  48  1   
 49  23  25  1   
 50  24  26  1   
 51  24  49  1   
 52  24  50  1   
 53  25  26  1   
 54  26  51  1   
 55  26  52  1   
@<TRIPOS>SUBSTRUCTURE
  1 ****  15 GROUP 4 **** **** 0

# MOE 2024.06 (io_trps.svl 2023.06)
