@<TRIPOS>MOLECULE
NONAME
44 45 1 0 0 
SMALL
USER_CHARGES


@<TRIPOS>ATOM
  1 S        0.3630     1.0340    -1.0450 S.o2  1 <1>   1.3330 
  2 O       -0.1820     1.8620    -2.0970 O.2   1 <1>  -0.6500 
  3 O        0.7360    -0.3290    -1.3490 O.2   1 <1>  -0.6500 
  4 N        1.7530     1.8020    -0.4500 N.am  1 <1>  -0.8490 
  5 C       -0.8200     0.9960     0.3160 C.3   1 <1>  -0.0550 
  6 C        2.6140     2.2970    -1.5260 C.3   1 <1>   0.1160 
  7 C        2.5460     0.9730     0.4650 C.3   1 <1>   0.1160 
  8 C       -1.2870     2.3140     0.9880 C.3   1 <1>  -0.0800 
  9 C       -1.7320     3.4190     0.0210 C.3   1 <1>   0.2000 
 10 C       -0.2190     2.9760     1.8650 C.3   1 <1>   0.1400 
 11 O       -2.7400     4.1350     0.6470 O.3   1 <1>  -0.6800 
 12 C       -0.5210     4.3440    -0.1320 C.3   1 <1>   0.1400 
 13 N        0.2830     4.1400     1.1020 N.am  1 <1>  -0.6600 
 14 C        1.5200     4.6680     1.3410 C.2   1 <1>   0.5690 
 15 O        2.1870     4.3040     2.2830 O.2   1 <1>  -0.5700 
 16 C        2.0690     5.7370     0.4090 C.3   1 <1>  -0.0990 
 17 C        3.4280     6.2960     0.8520 C.3   1 <1>   0.0210 
 18 C        3.9030     7.3670    -0.1120 C.2   1 <1>  -0.1810 
 19 C        3.4510     8.6820    -0.1840 C.2   1 <1>   0.1390 
 20 C        4.8420     7.2750    -1.0770 C.2   1 <1>  -0.3020 
 21 N        4.0500     9.3580    -1.1160 N.2   1 <1>  -0.7070 
 22 N        4.9140     8.4850    -1.6680 N.pl3 1 <1>   0.3000 
 23 H       -1.7010     0.5090    -0.0560 H     1 <1>   0.0800 
 24 H       -0.4300     0.3560     1.0830 H     1 <1>   0.0800 
 25 H        3.4670     2.8090    -1.1140 H     1 <1>   0.0800 
 26 H        2.0710     2.9920    -2.1450 H     1 <1>   0.0800 
 27 H        2.9520     1.4790    -2.1410 H     1 <1>   0.0800 
 28 H        3.3450     1.5580     0.8890 H     1 <1>   0.0800 
 29 H        2.9640     0.1280    -0.0580 H     1 <1>   0.0800 
 30 H        1.9320     0.6110     1.2700 H     1 <1>   0.0800 
 31 H       -2.1140     2.0380     1.6190 H     1 <1>   0.0800 
 32 H       -2.1140     3.0580    -0.9190 H     1 <1>   0.0800 
 33 H        0.5850     2.3020     2.1070 H     1 <1>   0.0800 
 34 H       -0.6570     3.3320     2.7820 H     1 <1>   0.0800 
 35 H       -2.3650     4.6070     1.4170 H     1 <1>   0.4000 
 36 H       -0.8210     5.3710    -0.2430 H     1 <1>   0.0800 
 37 H        0.0640     4.0540    -0.9850 H     1 <1>   0.0800 
 38 H        2.1710     5.3140    -0.5730 H     1 <1>   0.0800 
 39 H        1.3590     6.5410     0.3590 H     1 <1>   0.0800 
 40 H        4.1510     5.5000     0.8860 H     1 <1>   0.0800 
 41 H        3.3490     6.7140     1.8400 H     1 <1>   0.0800 
 42 H        2.6930     9.1030     0.4550 H     1 <1>   0.1500 
 43 H        5.4500     6.4400    -1.3710 H     1 <1>   0.1500 
 44 H        5.5360     8.7470    -2.4420 H     1 <1>   0.2700 
@<TRIPOS>BOND
  1   1   2  2   
  2   1   3  2   
  3   1   4  am  
  4   1   5  1   
  5   4   6  1   
  6   4   7  1   
  7   5   8  1   
  8   5  23  1   
  9   5  24  1   
 10   6  25  1   
 11   6  26  1   
 12   6  27  1   
 13   7  28  1   
 14   7  29  1   
 15   7  30  1   
 16   8   9  1   
 17   8  10  1   
 18   8  31  1   
 19   9  11  1   
 20   9  12  1   
 21   9  32  1   
 22  10  13  1   
 23  10  33  1   
 24  10  34  1   
 25  11  35  1   
 26  12  13  1   
 27  12  36  1   
 28  12  37  1   
 29  13  14  am  
 30  14  15  2   
 31  14  16  1   
 32  16  17  1   
 33  16  38  1   
 34  16  39  1   
 35  17  18  1   
 36  17  40  1   
 37  17  41  1   
 38  18  19  1   
 39  18  20  2   
 40  19  21  2   
 41  19  42  1   
 42  20  22  1   
 43  20  43  1   
 44  21  22  1   
 45  22  44  1   
@<TRIPOS>SUBSTRUCTURE
  1 ****  14 GROUP 4 **** **** 0

# MOE 2024.06 (io_trps.svl 2023.06)
