@<TRIPOS>MOLECULE
NONAME
59 61 1 0 0 
SMALL
USER_CHARGES


@<TRIPOS>ATOM
  1 O        0.2830     0.9930    -1.3620 O.2   1 <1>  -0.5700 
  2 C        0.1310     2.1740    -1.1550 C.2   1 <1>   0.5690 
  3 N       -0.8810     2.6590    -0.3710 N.am  1 <1>  -0.6600 
  4 C        1.1010     3.1470    -1.8280 C.3   1 <1>   0.1810 
  5 C       -1.0420     4.1300    -0.1170 C.3   1 <1>   0.3640 
  6 C       -1.8160     1.7580     0.3650 C.3   1 <1>   0.0600 
  7 O        1.1720     4.3930    -1.1790 O.3   1 <1>  -0.5600 
  8 C       -2.5010     4.5290    -0.3930 C.ar  1 <1>  -0.1430 
  9 C       -0.0860     5.0070    -0.9730 C.3   1 <1>   0.2610 
 10 C       -3.3240     5.1130     0.5710 C.ar  1 <1>  -0.1430 
 11 C       -3.0210     4.2870    -1.6600 C.ar  1 <1>  -0.1500 
 12 C        0.1280     6.3970    -0.3630 C.2   1 <1>   0.5690 
 13 C       -4.6250     5.4650     0.2380 C.ar  1 <1>  -0.1500 
 14 C       -2.8660     5.3840     1.9990 C.3   1 <1>  -0.0960 
 15 C       -4.3190     4.6370    -1.9810 C.ar  1 <1>  -0.1500 
 16 O        0.0330     6.5700     0.8310 O.2   1 <1>  -0.5700 
 17 N        0.4940     7.4230    -1.1850 N.am  1 <1>  -0.7300 
 18 C       -5.1220     5.2320    -1.0300 C.ar  1 <1>  -0.1500 
 19 C        0.7970     8.7990    -0.7280 C.3   1 <1>   0.1400 
 20 C        2.3140     8.9890    -0.5400 C.3   1 <1>  -0.0800 
 21 C        2.9100     7.9760     0.4580 C.3   1 <1>  -0.1600 
 22 C        2.6110    10.4200    -0.0600 C.3   1 <1>  -0.1600 
 23 C        4.3820     8.2420     0.7560 C.3   1 <1>   0.3430 
 24 C        4.0950    10.6320     0.2460 C.3   1 <1>   0.3430 
 25 N        4.5470     9.6340     1.2600 N.4   1 <1>  -0.9590 
 26 C        5.9470     9.8630     1.7000 C.3   1 <1>   0.3430 
 27 C        6.0140    11.1030     2.5840 C.3   1 <1>  -0.2400 
 28 H        0.7980     3.3060    -2.8460 H     1 <1>   0.0800 
 29 H        2.0870     2.7190    -1.8220 H     1 <1>   0.0800 
 30 H       -0.8010     4.2910     0.9170 H     1 <1>   0.0800 
 31 H       -1.8300     2.0170     1.4080 H     1 <1>   0.0800 
 32 H       -1.5100     0.7310     0.2700 H     1 <1>   0.0800 
 33 H       -2.8110     1.8570    -0.0360 H     1 <1>   0.0800 
 34 H       -0.5240     5.1490    -1.9420 H     1 <1>   0.0800 
 35 H       -2.4170     3.8100    -2.4130 H     1 <1>   0.1500 
 36 H       -5.2660     5.9250     0.9700 H     1 <1>   0.1500 
 37 H       -3.7000     5.6390     2.6280 H     1 <1>   0.0800 
 38 H       -2.1750     6.2060     2.0190 H     1 <1>   0.0800 
 39 H       -2.3960     4.5150     2.4210 H     1 <1>   0.0800 
 40 H       -4.7040     4.4440    -2.9670 H     1 <1>   0.1500 
 41 H        0.6490     7.2360    -2.1780 H     1 <1>   0.3700 
 42 H       -6.1330     5.5100    -1.2720 H     1 <1>   0.1500 
 43 H        0.4180     9.4990    -1.4530 H     1 <1>   0.0800 
 44 H        0.2870     8.9820     0.2050 H     1 <1>   0.0800 
 45 H        2.7880     8.8500    -1.4980 H     1 <1>   0.0800 
 46 H        2.8310     6.9800     0.0570 H     1 <1>   0.0800 
 47 H        2.3520     7.9900     1.3790 H     1 <1>   0.0800 
 48 H        2.0370    10.6410     0.8240 H     1 <1>   0.0800 
 49 H        2.3120    11.1220    -0.8190 H     1 <1>   0.0800 
 50 H        4.9620     8.1060    -0.1430 H     1 <1>   0.0800 
 51 H        4.7280     7.5360     1.4950 H     1 <1>   0.0800 
 52 H        4.2400    11.6340     0.6190 H     1 <1>   0.0800 
 53 H        4.6710    10.5210    -0.6580 H     1 <1>   0.0800 
 54 H        3.9370     9.7290     2.0830 H     1 <1>   0.4500 
 55 H        6.2910     9.0140     2.2690 H     1 <1>   0.0800 
 56 H        6.5940     9.9790     0.8440 H     1 <1>   0.0800 
 57 H        5.3560    11.0060     3.4290 H     1 <1>   0.0800 
 58 H        5.7740    11.9950     2.0350 H     1 <1>   0.0800 
 59 H        7.0170    11.2120     2.9580 H     1 <1>   0.0800 
@<TRIPOS>BOND
  1   1   2  2   
  2   2   3  am  
  3   2   4  1   
  4   3   5  1   
  5   3   6  1   
  6   4   7  1   
  7   4  28  1   
  8   4  29  1   
  9   5   8  1   
 10   5   9  1   
 11   5  30  1   
 12   6  31  1   
 13   6  32  1   
 14   6  33  1   
 15   7   9  1   
 16   8  10  ar  
 17   8  11  ar  
 18   9  12  1   
 19   9  34  1   
 20  10  13  ar  
 21  10  14  1   
 22  11  15  ar  
 23  11  35  1   
 24  12  16  2   
 25  12  17  am  
 26  13  18  ar  
 27  13  36  1   
 28  14  37  1   
 29  14  38  1   
 30  14  39  1   
 31  15  18  ar  
 32  15  40  1   
 33  17  19  1   
 34  17  41  1   
 35  18  42  1   
 36  19  20  1   
 37  19  43  1   
 38  19  44  1   
 39  20  21  1   
 40  20  22  1   
 41  20  45  1   
 42  21  23  1   
 43  21  46  1   
 44  21  47  1   
 45  22  24  1   
 46  22  48  1   
 47  22  49  1   
 48  23  25  1   
 49  23  50  1   
 50  23  51  1   
 51  24  25  1   
 52  24  52  1   
 53  24  53  1   
 54  25  26  1   
 55  25  54  1   
 56  26  27  1   
 57  26  55  1   
 58  26  56  1   
 59  27  57  1   
 60  27  58  1   
 61  27  59  1   
@<TRIPOS>SUBSTRUCTURE
  1 ****  12 GROUP 4 **** **** 0

# MOE 2024.06 (io_trps.svl 2023.06)
