@<TRIPOS>MOLECULE
NONAME
52 53 1 0 0 
SMALL
USER_CHARGES


@<TRIPOS>ATOM
  1 S        0.1260    -1.3790     0.8830 S.o2  1 <1>   1.3330 
  2 O       -0.5290    -2.3700     1.7110 O.2   1 <1>  -0.6500 
  3 O        1.2050    -0.5860     1.4140 O.2   1 <1>  -0.6500 
  4 N       -1.0980    -0.3240     0.3630 N.am  1 <1>  -0.8490 
  5 C        0.6590    -2.2090    -0.6240 C.3   1 <1>  -0.0550 
  6 C       -0.5720     0.8140    -0.4080 C.3   1 <1>   0.1160 
  7 C       -1.8500     0.2150     1.5070 C.3   1 <1>   0.1160 
  8 C       -0.4450    -2.7480    -1.5700 C.3   1 <1>  -0.1600 
  9 C       -1.1960    -3.9970    -1.0750 C.3   1 <1>   0.3430 
 10 N       -2.1890    -3.7030     0.0030 N.4   1 <1>  -0.9590 
 11 C       -2.6820    -4.9230     0.7280 C.3   1 <1>   0.5660 
 12 C       -3.2720    -2.7780    -0.4670 C.3   1 <1>   0.3430 
 13 C       -1.5850    -5.9800     0.8340 C.ar  1 <1>  -0.1440 
 14 C       -4.0020    -5.4110     0.1190 C.3   1 <1>  -0.1600 
 15 C       -4.5430    -2.9280     0.3700 C.3   1 <1>  -0.1600 
 16 C       -1.4950    -7.0630    -0.0320 C.ar  1 <1>  -0.1500 
 17 C       -0.6250    -5.8370     1.8270 C.ar  1 <1>  -0.1500 
 18 C       -5.1130    -4.3560     0.2810 C.3   1 <1>  -0.1600 
 19 C       -0.4670    -7.9840     0.0820 C.ar  1 <1>   0.0820 
 20 C        0.4040    -6.7550     1.9490 C.ar  1 <1>  -0.1500 
 21 O       -0.4640    -9.0000    -0.8150 O.3   1 <1>  -0.3620 
 22 C        0.4880    -7.8270     1.0810 C.ar  1 <1>  -0.1500 
 23 C        0.4590   -10.0630    -0.7160 C.3   1 <1>   0.0400 
 24 H        1.3170    -3.0150    -0.3580 H     1 <1>   0.0800 
 25 H        1.2500    -1.5110    -1.1860 H     1 <1>   0.0800 
 26 H       -0.0380     0.4690    -1.2760 H     1 <1>   0.0800 
 27 H        0.0990     1.4050     0.1960 H     1 <1>   0.0800 
 28 H       -1.3810     1.4430    -0.7410 H     1 <1>   0.0800 
 29 H       -2.3050    -0.5840     2.0670 H     1 <1>   0.0800 
 30 H       -2.6290     0.8760     1.1670 H     1 <1>   0.0800 
 31 H       -1.1920     0.7600     2.1660 H     1 <1>   0.0800 
 32 H        0.0500    -3.0390    -2.4800 H     1 <1>   0.0800 
 33 H       -1.1290    -1.9640    -1.8410 H     1 <1>   0.0800 
 34 H       -0.4610    -4.7030    -0.7230 H     1 <1>   0.0800 
 35 H       -1.7090    -4.4540    -1.9060 H     1 <1>   0.0800 
 36 H       -1.6730    -3.2030     0.7500 H     1 <1>   0.4500 
 37 H       -2.9140    -4.6270     1.7390 H     1 <1>   0.0800 
 38 H       -3.5150    -3.0050    -1.4920 H     1 <1>   0.0800 
 39 H       -2.9250    -1.7580    -0.4240 H     1 <1>   0.0800 
 40 H       -4.3060    -6.3230     0.6020 H     1 <1>   0.0800 
 41 H       -3.8560    -5.6260    -0.9250 H     1 <1>   0.0800 
 42 H       -5.2840    -2.2280     0.0250 H     1 <1>   0.0800 
 43 H       -4.3200    -2.6760     1.3930 H     1 <1>   0.0800 
 44 H       -2.2110    -7.2250    -0.8170 H     1 <1>   0.1500 
 45 H       -0.6630    -5.0090     2.5170 H     1 <1>   0.1500 
 46 H       -5.6830    -4.5580     1.1730 H     1 <1>   0.0800 
 47 H       -5.7890    -4.4310    -0.5540 H     1 <1>   0.0800 
 48 H        1.1420    -6.6340     2.7250 H     1 <1>   0.1500 
 49 H        1.2970    -8.5240     1.1960 H     1 <1>   0.1500 
 50 H        0.2400   -10.7700    -1.4960 H     1 <1>   0.0800 
 51 H        0.3490   -10.5340     0.2450 H     1 <1>   0.0800 
 52 H        1.4550    -9.6770    -0.8440 H     1 <1>   0.0800 
@<TRIPOS>BOND
  1   1   2  2   
  2   1   3  2   
  3   1   4  am  
  4   1   5  1   
  5   4   6  1   
  6   4   7  1   
  7   5   8  1   
  8   5  24  1   
  9   5  25  1   
 10   6  26  1   
 11   6  27  1   
 12   6  28  1   
 13   7  29  1   
 14   7  30  1   
 15   7  31  1   
 16   8   9  1   
 17   8  32  1   
 18   8  33  1   
 19   9  10  1   
 20   9  34  1   
 21   9  35  1   
 22  10  11  1   
 23  10  12  1   
 24  10  36  1   
 25  11  13  1   
 26  11  14  1   
 27  11  37  1   
 28  12  15  1   
 29  12  38  1   
 30  12  39  1   
 31  13  16  ar  
 32  13  17  ar  
 33  14  18  1   
 34  14  40  1   
 35  14  41  1   
 36  15  18  1   
 37  15  42  1   
 38  15  43  1   
 39  16  19  ar  
 40  16  44  1   
 41  17  20  ar  
 42  17  45  1   
 43  18  46  1   
 44  18  47  1   
 45  19  21  1   
 46  19  22  ar  
 47  20  22  ar  
 48  20  48  1   
 49  21  23  1   
 50  22  49  1   
 51  23  50  1   
 52  23  51  1   
 53  23  52  1   
@<TRIPOS>SUBSTRUCTURE
  1 ****  10 GROUP 4 **** **** 0

# MOE 2024.06 (io_trps.svl 2023.06)
