@<TRIPOS>MOLECULE
NONAME
44 45 1 0 0 
SMALL
USER_CHARGES


@<TRIPOS>ATOM
  1 F        0.8840     1.4010     2.2390 F     1 <1>  -0.1900 
  2 C        1.9590     1.7390     1.5610 C.ar  1 <1>   0.1900 
  3 C        2.1920     3.0450     1.1780 C.ar  1 <1>   0.3920 
  4 C        2.8770     0.7850     1.2200 C.ar  1 <1>   0.1600 
  5 O        1.2920     4.0010     1.5000 O.3   1 <1>  -0.3630 
  6 N        3.2760     3.3780     0.5010 N.ar  1 <1>  -0.6200 
  7 N        3.9610     1.0950     0.5400 N.ar  1 <1>  -0.6200 
  8 C        1.4540     5.3400     1.0790 C.3   1 <1>   0.0400 
  9 C        4.1110     2.3790     0.2080 C.ar  1 <1>   0.7200 
 10 N        5.2520     2.7070    -0.5060 N.pl3 1 <1>  -0.8380 
 11 C        5.3900     4.0110    -1.1950 C.3   1 <1>   0.2090 
 12 C        6.2410     1.6560    -0.8950 C.3   1 <1>   0.1290 
 13 C        6.0840     4.9800    -0.2320 C.3   1 <1>  -0.1600 
 14 C        6.3520     6.3670    -0.8350 C.3   1 <1>   0.4230 
 15 N        7.0430     7.2240     0.1730 N.4   1 <1>  -0.9590 
 16 C        5.0460     7.0570    -1.2480 C.3   1 <1>  -0.2400 
 17 C        7.3920     8.5890    -0.3030 C.3   1 <1>   0.3430 
 18 C        8.3150     6.6680     0.7060 C.3   1 <1>   0.3430 
 19 C        8.4260     9.0980     0.6910 C.3   1 <1>  -0.1600 
 20 C        9.0090     7.8520     1.3610 C.3   1 <1>  -0.1600 
 21 H        2.7200    -0.2400     1.5070 H     1 <1>   0.1500 
 22 H        0.6150     5.9090     1.4370 H     1 <1>   0.0800 
 23 H        1.4860     5.3640     0.0040 H     1 <1>   0.0800 
 24 H        2.3680     5.7250     1.4950 H     1 <1>   0.0800 
 25 H        4.4160     4.3700    -1.4790 H     1 <1>   0.0800 
 26 H        5.9700     3.8880    -2.0940 H     1 <1>   0.0800 
 27 H        6.4350     1.0000    -0.0640 H     1 <1>   0.0800 
 28 H        7.1720     2.1030    -1.1950 H     1 <1>   0.0800 
 29 H        5.8470     1.0740    -1.7110 H     1 <1>   0.0800 
 30 H        7.0110     4.5160     0.0490 H     1 <1>   0.0800 
 31 H        5.4700     5.0820     0.6440 H     1 <1>   0.0800 
 32 H        6.9830     6.2570    -1.7030 H     1 <1>   0.0800 
 33 H        6.4060     7.3330     0.9720 H     1 <1>   0.4500 
 34 H        4.3820     7.1550    -0.4070 H     1 <1>   0.0800 
 35 H        4.5410     6.4840    -2.0040 H     1 <1>   0.0800 
 36 H        5.2250     8.0250    -1.6770 H     1 <1>   0.0800 
 37 H        6.5280     9.2340    -0.3380 H     1 <1>   0.0800 
 38 H        7.8340     8.5300    -1.2840 H     1 <1>   0.0800 
 39 H        8.9200     6.2990    -0.1060 H     1 <1>   0.0800 
 40 H        8.1390     5.8720     1.4130 H     1 <1>   0.0800 
 41 H        7.9530     9.7320     1.4210 H     1 <1>   0.0800 
 42 H        9.1840     9.6690     0.1830 H     1 <1>   0.0800 
 43 H       10.0750     7.7860     1.2280 H     1 <1>   0.0800 
 44 H        8.7970     7.8600     2.4170 H     1 <1>   0.0800 
@<TRIPOS>BOND
  1   1   2  1   
  2   2   3  ar  
  3   2   4  ar  
  4   3   5  1   
  5   3   6  ar  
  6   4   7  ar  
  7   4  21  1   
  8   5   8  1   
  9   6   9  ar  
 10   7   9  ar  
 11   8  22  1   
 12   8  23  1   
 13   8  24  1   
 14   9  10  1   
 15  10  11  1   
 16  10  12  1   
 17  11  13  1   
 18  11  25  1   
 19  11  26  1   
 20  12  27  1   
 21  12  28  1   
 22  12  29  1   
 23  13  14  1   
 24  13  30  1   
 25  13  31  1   
 26  14  15  1   
 27  14  16  1   
 28  14  32  1   
 29  15  17  1   
 30  15  18  1   
 31  15  33  1   
 32  16  34  1   
 33  16  35  1   
 34  16  36  1   
 35  17  19  1   
 36  17  37  1   
 37  17  38  1   
 38  18  20  1   
 39  18  39  1   
 40  18  40  1   
 41  19  20  1   
 42  19  41  1   
 43  19  42  1   
 44  20  43  1   
 45  20  44  1   
@<TRIPOS>SUBSTRUCTURE
  1 ****  13 GROUP 4 **** **** 0

# MOE 2024.06 (io_trps.svl 2023.06)
