@<TRIPOS>MOLECULE
NONAME
49 53 1 0 0 
SMALL
USER_CHARGES


@<TRIPOS>ATOM
  1 F       -0.1220    -1.2790     0.5430 F     1 <1>  -0.3400 
  2 C       -1.1810    -1.8330     1.1300 C.3   1 <1>   1.1640 
  3 F       -1.1580    -1.3780     2.3780 F     1 <1>  -0.3400 
  4 F       -0.9040    -3.1320     1.1820 F     1 <1>  -0.3400 
  5 C       -2.4800    -1.5120     0.3830 C.ar  1 <1>  -0.1440 
  6 C       -3.6930    -2.0430     0.8760 C.ar  1 <1>   0.3100 
  7 C       -2.4770    -0.7220    -0.7470 C.ar  1 <1>  -0.1500 
  8 N       -3.6790    -2.7950     2.0070 N.ar  1 <1>  -0.6200 
  9 C       -4.8950    -1.7670     0.1800 C.ar  1 <1>   0.0000 
 10 C       -3.6640    -0.4310    -1.4190 C.ar  1 <1>  -0.1500 
 11 C       -4.8100    -3.2680     2.4390 C.ar  1 <1>   0.1600 
 12 C       -6.1070    -2.3190     0.6680 C.ar  1 <1>   0.1000 
 13 C       -4.8440    -0.9410    -0.9600 C.ar  1 <1>  -0.1500 
 14 C       -6.0340    -3.0620     1.8150 C.ar  1 <1>  -0.1500 
 15 N       -7.3170    -2.1320     0.0170 N.pl3 1 <1>  -0.8380 
 16 C       -8.5330    -1.7070     0.7730 C.3   1 <1>   0.2090 
 17 C       -7.6160    -2.9090    -1.2130 C.3   1 <1>   0.2090 
 18 C       -9.4130    -0.8000    -0.1060 C.3   1 <1>   0.1430 
 19 C       -8.5030    -2.0720    -2.1440 C.3   1 <1>  -0.1600 
 20 C      -10.6850    -0.4250     0.6300 C.ar  1 <1>   0.1670 
 21 C       -9.7560    -1.5240    -1.4300 C.3   1 <1>  -0.1600 
 22 C       -8.7490     0.5830    -0.3570 C.3   1 <1>  -0.1600 
 23 N      -11.4860    -1.2670     1.2400 N.ar  1 <1>  -0.6200 
 24 C      -10.9130     0.9190     0.5900 C.ar  1 <1>  -0.1440 
 25 C       -9.8420     1.6510    -0.1780 C.3   1 <1>  -0.0170 
 26 C      -12.5270    -0.6940     1.8230 C.ar  1 <1>   0.7200 
 27 C      -12.0350     1.3980     1.2230 C.ar  1 <1>   0.1600 
 28 N      -12.8620     0.5890     1.8480 N.ar  1 <1>  -0.6200 
 29 N      -13.3650    -1.5190     2.4500 N.pl3 1 <1>  -0.9000 
 30 H       -1.5660    -0.3030    -1.1440 H     1 <1>   0.1500 
 31 H       -3.6370     0.1960    -2.2940 H     1 <1>   0.1500 
 32 H       -4.7940    -3.8600     3.3380 H     1 <1>   0.1500 
 33 H       -5.7630    -0.7120    -1.4680 H     1 <1>   0.1500 
 34 H       -6.9170    -3.5010     2.2360 H     1 <1>   0.1500 
 35 H       -8.2460    -1.1850     1.6690 H     1 <1>   0.0800 
 36 H       -9.0930    -2.5800     1.0600 H     1 <1>   0.0800 
 37 H       -8.1270    -3.8170    -0.9390 H     1 <1>   0.0800 
 38 H       -6.6990    -3.1740    -1.7120 H     1 <1>   0.0800 
 39 H       -8.8060    -2.6810    -2.9780 H     1 <1>   0.0800 
 40 H       -7.9170    -1.2630    -2.5380 H     1 <1>   0.0800 
 41 H      -10.2920    -0.8600    -2.0840 H     1 <1>   0.0800 
 42 H      -10.4080    -2.3510    -1.2040 H     1 <1>   0.0800 
 43 H       -8.2870     0.6530    -1.3240 H     1 <1>   0.0800 
 44 H       -7.9860     0.7500     0.3840 H     1 <1>   0.0800 
 45 H      -10.2290     1.9620    -1.1330 H     1 <1>   0.0800 
 46 H       -9.4740     2.5040     0.3650 H     1 <1>   0.0800 
 47 H      -12.2570     2.4510     1.2160 H     1 <1>   0.1500 
 48 H      -14.2880    -1.1340     2.6290 H     1 <1>   0.4000 
 49 H      -13.3230    -2.4890     2.1520 H     1 <1>   0.4000 
@<TRIPOS>BOND
  1   1   2  1   
  2   2   3  1   
  3   2   4  1   
  4   2   5  1   
  5   5   6  ar  
  6   5   7  ar  
  7   6   8  ar  
  8   6   9  ar  
  9   7  10  ar  
 10   7  30  1   
 11   8  11  ar  
 12   9  12  ar  
 13   9  13  ar  
 14  10  13  ar  
 15  10  31  1   
 16  11  14  ar  
 17  11  32  1   
 18  12  14  ar  
 19  12  15  1   
 20  13  33  1   
 21  14  34  1   
 22  15  16  1   
 23  15  17  1   
 24  16  18  1   
 25  16  35  1   
 26  16  36  1   
 27  17  19  1   
 28  17  37  1   
 29  17  38  1   
 30  18  20  1   
 31  18  21  1   
 32  18  22  1   
 33  19  21  1   
 34  19  39  1   
 35  19  40  1   
 36  20  23  ar  
 37  20  24  ar  
 38  21  41  1   
 39  21  42  1   
 40  22  25  1   
 41  22  43  1   
 42  22  44  1   
 43  23  26  ar  
 44  24  25  1   
 45  24  27  ar  
 46  25  45  1   
 47  25  46  1   
 48  26  28  ar  
 49  26  29  1   
 50  27  28  ar  
 51  27  47  1   
 52  29  48  1   
 53  29  49  1   
@<TRIPOS>SUBSTRUCTURE
  1 ****  15 GROUP 4 **** **** 0

# MOE 2024.06 (io_trps.svl 2023.06)
