@<TRIPOS>MOLECULE
NONAME
51 54 1 0 0 
SMALL
USER_CHARGES


@<TRIPOS>ATOM
  1 O       -1.4750     0.3830    -2.0460 O.2   1 <1>  -0.5700 
  2 C       -1.5350     0.6000    -0.8510 C.2   1 <1>   0.7160 
  3 N       -1.7610    -0.4650     0.0000 N.am  1 <1>  -0.6600 
  4 C       -1.4410     1.9340    -0.3600 C.2   1 <1>  -0.0860 
  5 C       -1.9730    -1.8450    -0.5340 C.3   1 <1>   0.1400 
  6 C       -2.3010    -0.2800     1.3790 C.3   1 <1>   0.1400 
  7 C       -2.5280     2.7320     0.0000 C.2   1 <1>   0.3720 
  8 C       -0.3620     2.6980    -0.0560 C.2   1 <1>   0.0870 
  9 C       -3.4840    -2.1680    -0.5440 C.3   1 <1>   0.4230 
 10 C       -3.8110    -0.5900     1.3770 C.3   1 <1>   0.3430 
 11 N       -2.1300     3.8460     0.5040 N.2   1 <1>  -0.4100 
 12 N       -3.8750     2.3590    -0.1460 N.pl3 1 <1>  -0.8210 
 13 O       -0.8240     3.8120     0.4540 O.3   1 <1>  -0.0190 
 14 C        1.0560     2.4680    -0.1700 C.ar  1 <1>   0.0530 
 15 N       -4.1030    -1.9510     0.7980 N.4   1 <1>  -0.9060 
 16 C       -3.7470    -3.6140    -0.9470 C.3   1 <1>  -0.2400 
 17 C       -4.8350     3.2040     0.6450 C.3   1 <1>   0.2090 
 18 C       -4.3050     2.3880    -1.5830 C.3   1 <1>   0.2090 
 19 C        1.9460     3.0260     0.7480 C.ar  1 <1>  -0.1500 
 20 C        1.5930     1.6810    -1.1890 C.ar  1 <1>  -0.1500 
 21 C       -6.2880     2.7430     0.4310 C.3   1 <1>   0.1200 
 22 C       -5.7730     1.9520    -1.7340 C.3   1 <1>   0.1200 
 23 C        3.3070     2.7980     0.6630 C.ar  1 <1>  -0.1500 
 24 C        2.9520     1.4480    -1.2780 C.ar  1 <1>  -0.1500 
 25 O       -6.6170     2.7270    -0.9290 O.3   1 <1>  -0.5600 
 26 C        3.8140     2.0040    -0.3500 C.ar  1 <1>  -0.1500 
 27 H       -1.5780    -1.9330    -1.5330 H     1 <1>   0.0800 
 28 H       -1.4420    -2.5510     0.0810 H     1 <1>   0.0800 
 29 H       -1.7880    -0.9410     2.0560 H     1 <1>   0.0800 
 30 H       -2.1410     0.7230     1.7330 H     1 <1>   0.0800 
 31 H       -3.9530    -1.5150    -1.2640 H     1 <1>   0.0800 
 32 H       -4.3090     0.1670     0.7920 H     1 <1>   0.0800 
 33 H       -4.1890    -0.5280     2.3840 H     1 <1>   0.0800 
 34 H       -5.1180    -2.0890     0.7220 H     1 <1>   0.4500 
 35 H       -3.7490    -2.6740     1.4330 H     1 <1>   0.4500 
 36 H       -3.2830    -4.3020    -0.2630 H     1 <1>   0.0800 
 37 H       -3.3390    -3.7930    -1.9270 H     1 <1>   0.0800 
 38 H       -4.8040    -3.8110    -0.9940 H     1 <1>   0.0800 
 39 H       -4.5890     3.1480     1.6910 H     1 <1>   0.0800 
 40 H       -4.7510     4.2360     0.3420 H     1 <1>   0.0800 
 41 H       -4.1920     3.3850    -1.9750 H     1 <1>   0.0800 
 42 H       -3.6840     1.7350    -2.1710 H     1 <1>   0.0800 
 43 H        1.5680     3.6470     1.5410 H     1 <1>   0.1500 
 44 H        0.9460     1.2510    -1.9320 H     1 <1>   0.1500 
 45 H       -6.9650     3.4200     0.9210 H     1 <1>   0.0800 
 46 H       -6.4360     1.7570     0.8310 H     1 <1>   0.0800 
 47 H       -5.8920     0.9200    -1.4600 H     1 <1>   0.0800 
 48 H       -6.0920     2.0780    -2.7540 H     1 <1>   0.0800 
 49 H        3.9750     3.2370     1.3840 H     1 <1>   0.1500 
 50 H        3.3430     0.8350    -2.0730 H     1 <1>   0.1500 
 51 H        4.8720     1.8230    -0.4180 H     1 <1>   0.1500 
@<TRIPOS>BOND
  1   1   2  2   
  2   2   3  am  
  3   2   4  1   
  4   3   5  1   
  5   3   6  1   
  6   4   7  1   
  7   4   8  2   
  8   5   9  1   
  9   5  27  1   
 10   5  28  1   
 11   6  10  1   
 12   6  29  1   
 13   6  30  1   
 14   7  11  2   
 15   7  12  1   
 16   8  13  1   
 17   8  14  1   
 18   9  15  1   
 19   9  16  1   
 20   9  31  1   
 21  10  15  1   
 22  10  32  1   
 23  10  33  1   
 24  11  13  1   
 25  12  17  1   
 26  12  18  1   
 27  14  19  ar  
 28  14  20  ar  
 29  15  34  1   
 30  15  35  1   
 31  16  36  1   
 32  16  37  1   
 33  16  38  1   
 34  17  21  1   
 35  17  39  1   
 36  17  40  1   
 37  18  22  1   
 38  18  41  1   
 39  18  42  1   
 40  19  23  ar  
 41  19  43  1   
 42  20  24  ar  
 43  20  44  1   
 44  21  25  1   
 45  21  45  1   
 46  21  46  1   
 47  22  25  1   
 48  22  47  1   
 49  22  48  1   
 50  23  26  ar  
 51  23  49  1   
 52  24  26  ar  
 53  24  50  1   
 54  26  51  1   
@<TRIPOS>SUBSTRUCTURE
  1 ****   4 GROUP 4 **** **** 0

# MOE 2024.06 (io_trps.svl 2023.06)
