@<TRIPOS>MOLECULE
NONAME
46 47 1 0 0 
SMALL
USER_CHARGES


@<TRIPOS>ATOM
  1 F       -0.1170     2.6030    -3.3920 F     1 <1>  -0.1900 
  2 C        0.0860     2.9220    -2.1420 C.ar  1 <1>   0.1900 
  3 C        1.3090     3.4570    -1.7860 C.ar  1 <1>  -0.1500 
  4 C       -0.9280     2.7110    -1.2280 C.ar  1 <1>  -0.1500 
  5 C        1.5340     3.7990    -0.4580 C.ar  1 <1>  -0.1440 
  6 C       -0.7020     3.0520     0.0940 C.ar  1 <1>  -0.1500 
  7 C        0.5200     3.5900     0.4710 C.ar  1 <1>  -0.1500 
  8 C        2.8760     4.3930    -0.0200 C.3   1 <1>   0.3940 
  9 N        3.4840     3.5600     1.0680 N.3   1 <1>  -0.8100 
 10 C        2.7180     5.9030     0.3040 C.2   1 <1>   0.5690 
 11 C        4.6920     4.1620     1.6510 C.3   1 <1>   0.0300 
 12 C        3.7480     2.1770     0.6430 C.3   1 <1>   0.0300 
 13 O        2.0090     6.2670     1.2170 O.2   1 <1>  -0.5700 
 14 N        3.4230     6.7970    -0.4690 N.am  1 <1>  -0.4940 
 15 C        3.5000     8.2110    -0.4170 C.2   1 <1>  -0.0880 
 16 N        2.5040     9.0910    -0.1100 N.pl3 1 <1>   0.3140 
 17 C        4.5920     8.9610    -0.7020 C.2   1 <1>  -0.1810 
 18 N        2.9330    10.3690    -0.2010 N.2   1 <1>  -0.7070 
 19 C        1.0910     8.8230     0.1930 C.3   1 <1>   0.0160 
 20 C        4.1770    10.2820    -0.5480 C.2   1 <1>   0.1080 
 21 C        5.9850     8.5010    -1.0970 C.3   1 <1>  -0.0590 
 22 C        5.0380    11.5160    -0.7490 C.3   1 <1>   0.0210 
 23 C        5.7260    11.9300     0.5560 C.3   1 <1>  -0.2400 
 24 H        2.0600     3.5960    -2.5420 H     1 <1>   0.1500 
 25 H       -1.8650     2.2910    -1.5450 H     1 <1>   0.1500 
 26 H       -1.4710     2.9010     0.8330 H     1 <1>   0.1500 
 27 H        0.6920     3.8530     1.5030 H     1 <1>   0.1500 
 28 H        3.5400     4.3320    -0.8620 H     1 <1>   0.0800 
 29 H        4.4580     5.1160     2.0930 H     1 <1>   0.0800 
 30 H        5.4530     4.2920     0.9010 H     1 <1>   0.0800 
 31 H        5.0750     3.5270     2.4310 H     1 <1>   0.0800 
 32 H        2.8350     1.7000     0.3320 H     1 <1>   0.0800 
 33 H        4.1490     1.6120     1.4680 H     1 <1>   0.0800 
 34 H        4.4530     2.1570    -0.1700 H     1 <1>   0.0800 
 35 H        4.0700     6.3850    -1.1370 H     1 <1>   0.3700 
 36 H        0.7580     7.9740    -0.3720 H     1 <1>   0.0800 
 37 H        0.5050     9.6840    -0.0670 H     1 <1>   0.0800 
 38 H        0.9930     8.6240     1.2440 H     1 <1>   0.0800 
 39 H        6.0740     7.4340    -1.0140 H     1 <1>   0.0800 
 40 H        6.7140     8.9540    -0.4510 H     1 <1>   0.0800 
 41 H        6.1900     8.7910    -2.1120 H     1 <1>   0.0800 
 42 H        4.4110    12.3190    -1.0930 H     1 <1>   0.0800 
 43 H        5.7740    11.3240    -1.5080 H     1 <1>   0.0800 
 44 H        4.9830    12.1350     1.3060 H     1 <1>   0.0800 
 45 H        6.3180    12.8140     0.4010 H     1 <1>   0.0800 
 46 H        6.3620    11.1380     0.9100 H     1 <1>   0.0800 
@<TRIPOS>BOND
  1   1   2  1   
  2   2   3  ar  
  3   2   4  ar  
  4   3   5  ar  
  5   3  24  1   
  6   4   6  ar  
  7   4  25  1   
  8   5   7  ar  
  9   5   8  1   
 10   6   7  ar  
 11   6  26  1   
 12   7  27  1   
 13   8   9  1   
 14   8  10  1   
 15   8  28  1   
 16   9  11  1   
 17   9  12  1   
 18  10  13  2   
 19  10  14  am  
 20  11  29  1   
 21  11  30  1   
 22  11  31  1   
 23  12  32  1   
 24  12  33  1   
 25  12  34  1   
 26  14  15  1   
 27  14  35  1   
 28  15  16  1   
 29  15  17  2   
 30  16  18  1   
 31  16  19  1   
 32  17  20  1   
 33  17  21  1   
 34  18  20  2   
 35  19  36  1   
 36  19  37  1   
 37  19  38  1   
 38  20  22  1   
 39  21  39  1   
 40  21  40  1   
 41  21  41  1   
 42  22  23  1   
 43  22  42  1   
 44  22  43  1   
 45  23  44  1   
 46  23  45  1   
 47  23  46  1   
@<TRIPOS>SUBSTRUCTURE
  1 ****  10 GROUP 4 **** **** 0

# MOE 2024.06 (io_trps.svl 2023.06)
