@<TRIPOS>MOLECULE
NONAME
40 41 1 0 0 
SMALL
USER_CHARGES


@<TRIPOS>ATOM
  1 S       -0.2810    -0.2890     0.3350 S.o2  1 <1>   1.3330 
  2 O        0.9350    -0.1560    -0.4240 O.2   1 <1>  -0.6500 
  3 O       -1.4070     0.5820     0.1110 O.2   1 <1>  -0.6500 
  4 N       -0.7790    -1.8520     0.0150 N.am  1 <1>  -0.9140 
  5 C        0.0910    -0.3400     2.0750 C.3   1 <1>  -0.1350 
  6 C       -1.6420    -1.9080    -1.1880 C.3   1 <1>   0.2570 
  7 C       -2.0430    -3.3300    -1.5950 C.2   1 <1>   0.5690 
  8 O       -2.3030    -3.5690    -2.7490 O.2   1 <1>  -0.5700 
  9 N       -2.0890    -4.2950    -0.6400 N.am  1 <1>  -0.7300 
 10 C       -2.4320    -5.7170    -0.8570 C.3   1 <1>   0.2200 
 11 C       -3.7350    -6.0320    -0.1430 C.3   1 <1>  -0.0800 
 12 C       -1.4440    -6.5980    -0.1010 C.3   1 <1>   0.1200 
 13 C       -3.2600    -6.3100     1.2890 C.3   1 <1>   0.1200 
 14 C       -4.4440    -7.2480    -0.7700 C.3   1 <1>  -0.0170 
 15 O       -1.9050    -6.6530     1.2160 O.3   1 <1>  -0.5600 
 16 C       -5.7580    -7.5520    -0.0650 C.ar  1 <1>  -0.1430 
 17 C       -5.8940    -8.6140     0.8060 C.ar  1 <1>  -0.1500 
 18 C       -6.8840    -6.7800    -0.2640 C.ar  1 <1>  -0.1500 
 19 C       -7.1130    -8.8420     1.4230 C.ar  1 <1>   0.1600 
 20 C       -8.0560    -7.0930     0.4030 C.ar  1 <1>   0.1600 
 21 N       -8.1980    -8.1050     1.2440 N.ar  1 <1>  -0.6200 
 22 H        0.0890    -2.3210    -0.2470 H     1 <1>   0.4200 
 23 H        0.8460    -1.0750     2.2740 H     1 <1>   0.0800 
 24 H       -0.7910    -0.5870     2.6330 H     1 <1>   0.0800 
 25 H        0.4470     0.6170     2.4010 H     1 <1>   0.0800 
 26 H       -2.5480    -1.3540    -1.0080 H     1 <1>   0.0800 
 27 H       -1.1350    -1.4490    -2.0200 H     1 <1>   0.0800 
 28 H       -1.8440    -4.0440     0.3230 H     1 <1>   0.3700 
 29 H       -2.4570    -5.9420    -1.9110 H     1 <1>   0.0800 
 30 H       -4.4050    -5.1910    -0.1690 H     1 <1>   0.0800 
 31 H       -0.4410    -6.2090    -0.1190 H     1 <1>   0.0800 
 32 H       -1.4510    -7.6010    -0.4910 H     1 <1>   0.0800 
 33 H       -3.7970    -7.1100     1.7660 H     1 <1>   0.0800 
 34 H       -3.3360    -5.4220     1.8930 H     1 <1>   0.0800 
 35 H       -3.8070    -8.1150    -0.7310 H     1 <1>   0.0800 
 36 H       -4.6510    -7.0450    -1.8060 H     1 <1>   0.0800 
 37 H       -5.0660    -9.2670     1.0140 H     1 <1>   0.1500 
 38 H       -6.8620    -5.9370    -0.9310 H     1 <1>   0.1500 
 39 H       -7.2010    -9.6740     2.1010 H     1 <1>   0.1500 
 40 H       -8.9250    -6.4790     0.2360 H     1 <1>   0.1500 
@<TRIPOS>BOND
  1   1   2  2   
  2   1   3  2   
  3   1   4  am  
  4   1   5  1   
  5   4   6  1   
  6   4  22  1   
  7   5  23  1   
  8   5  24  1   
  9   5  25  1   
 10   6   7  1   
 11   6  26  1   
 12   6  27  1   
 13   7   8  2   
 14   7   9  am  
 15   9  10  1   
 16   9  28  1   
 17  10  11  1   
 18  10  12  1   
 19  10  29  1   
 20  11  13  1   
 21  11  14  1   
 22  11  30  1   
 23  12  15  1   
 24  12  31  1   
 25  12  32  1   
 26  13  15  1   
 27  13  33  1   
 28  13  34  1   
 29  14  16  1   
 30  14  35  1   
 31  14  36  1   
 32  16  17  ar  
 33  16  18  ar  
 34  17  19  ar  
 35  17  37  1   
 36  18  20  ar  
 37  18  38  1   
 38  19  21  ar  
 39  19  39  1   
 40  20  21  ar  
 41  20  40  1   
@<TRIPOS>SUBSTRUCTURE
  1 ****  11 GROUP 4 **** **** 0

# MOE 2024.06 (io_trps.svl 2023.06)
