@<TRIPOS>MOLECULE
NONAME
28 29 1 0 0 
SMALL
USER_CHARGES


@<TRIPOS>ATOM
  1 F        0.2380    -3.9670     0.8380 F     1 <1>  -0.3400 
  2 C        1.2200    -4.6370     0.2420 C.3   1 <1>   1.1640 
  3 F        1.2880    -4.1750    -1.0020 F     1 <1>  -0.3400 
  4 F        2.3420    -4.2380     0.8380 F     1 <1>  -0.3400 
  5 C        1.0140    -6.1760     0.3060 C.ar  1 <1>   0.1660 
  6 N       -0.0720    -6.7190    -0.2290 N.ar  1 <1>  -0.6200 
  7 C        1.9510    -6.9860     0.9190 C.ar  1 <1>  -0.1500 
  8 C       -0.1910    -8.0370    -0.1660 C.ar  1 <1>   0.7200 
  9 C        1.7170    -8.3390     0.9570 C.ar  1 <1>   0.1600 
 10 N        0.6460    -8.8780     0.4280 N.ar  1 <1>  -0.6200 
 11 N       -1.3140    -8.5810    -0.7420 N.pl3 1 <1>  -0.8380 
 12 C       -1.3650   -10.0300    -1.0970 C.3   1 <1>   0.2090 
 13 C       -2.6470    -7.9620    -0.4870 C.3   1 <1>   0.2090 
 14 C       -2.0790   -10.8100     0.0250 C.3   1 <1>   0.3430 
 15 C       -3.3870    -8.7510     0.6160 C.3   1 <1>   0.3430 
 16 N       -3.4400   -10.2350     0.3380 N.4   1 <1>  -0.9060 
 17 H        2.8470    -6.5890     1.3640 H     1 <1>   0.1500 
 18 H        2.4310    -8.9920     1.4340 H     1 <1>   0.1500 
 19 H       -0.3710   -10.4220    -1.2400 H     1 <1>   0.0800 
 20 H       -1.8910   -10.1520    -2.0280 H     1 <1>   0.0800 
 21 H       -3.2220    -7.9640    -1.3970 H     1 <1>   0.0800 
 22 H       -2.5430    -6.9360    -0.1770 H     1 <1>   0.0800 
 23 H       -1.4560   -10.7660     0.9030 H     1 <1>   0.0800 
 24 H       -2.1710   -11.8440    -0.2640 H     1 <1>   0.0800 
 25 H       -4.3850    -8.3580     0.7240 H     1 <1>   0.0800 
 26 H       -2.8660    -8.5810     1.5450 H     1 <1>   0.0800 
 27 H       -3.8430   -10.7240     1.1460 H     1 <1>   0.4500 
 28 H       -4.0620   -10.4000    -0.4630 H     1 <1>   0.4500 
@<TRIPOS>BOND
  1   1   2  1   
  2   2   3  1   
  3   2   4  1   
  4   2   5  1   
  5   5   6  ar  
  6   5   7  ar  
  7   6   8  ar  
  8   7   9  ar  
  9   7  17  1   
 10   8  10  ar  
 11   8  11  1   
 12   9  10  ar  
 13   9  18  1   
 14  11  12  1   
 15  11  13  1   
 16  12  14  1   
 17  12  19  1   
 18  12  20  1   
 19  13  15  1   
 20  13  21  1   
 21  13  22  1   
 22  14  16  1   
 23  14  23  1   
 24  14  24  1   
 25  15  16  1   
 26  15  25  1   
 27  15  26  1   
 28  16  27  1   
 29  16  28  1   
@<TRIPOS>SUBSTRUCTURE
  1 ****   8 GROUP 4 **** **** 0

# MOE 2024.06 (io_trps.svl 2023.06)
