@<TRIPOS>MOLECULE
NONAME
50 52 1 0 0 
SMALL
USER_CHARGES


@<TRIPOS>ATOM
  1 F       -0.8580    -1.0500     0.6720 F     1 <1>  -0.3400 
  2 C        0.1880    -1.5740     0.0520 C.3   1 <1>   1.1640 
  3 F        1.2620    -1.1970     0.7360 F     1 <1>  -0.3400 
  4 F        0.2680    -0.9850    -1.1310 F     1 <1>  -0.3400 
  5 C        0.0750    -3.1080    -0.0710 C.ar  1 <1>  -0.1440 
  6 C        1.0050    -3.9740     0.4680 C.ar  1 <1>  -0.1500 
  7 C       -1.0130    -3.6610    -0.7590 C.ar  1 <1>  -0.1500 
  8 C        0.8800    -5.3660     0.3400 C.ar  1 <1>   0.3610 
  9 C       -1.1520    -5.0180    -0.8950 C.ar  1 <1>  -0.1500 
 10 N        1.8200    -6.2090     0.8890 N.ar  1 <1>  -0.1790 
 11 C       -0.2150    -5.9190    -0.3550 C.ar  1 <1>   0.0000 
 12 C        1.7360    -7.5470     0.7890 C.ar  1 <1>   0.2180 
 13 C       -0.3150    -7.3420    -0.4810 C.ar  1 <1>   0.1000 
 14 C        0.6840    -8.1150     0.1160 C.ar  1 <1>  -0.1500 
 15 C        2.8270    -8.3890     1.4300 C.3   1 <1>  -0.0970 
 16 N       -1.3330    -7.9050    -1.1750 N.pl3 1 <1>  -0.8690 
 17 C       -1.5200    -9.3400    -1.5660 C.3   1 <1>   0.2090 
 18 C       -2.2440   -10.1600    -0.4750 C.3   1 <1>   0.1900 
 19 N       -2.5860   -11.5270    -0.9630 N.3   1 <1>  -0.8100 
 20 C       -3.5190    -9.3960    -0.0370 C.3   1 <1>   0.3430 
 21 C       -3.4130   -12.2820     0.0040 C.3   1 <1>   0.1100 
 22 C       -1.4100   -12.3350    -1.3390 C.3   1 <1>   0.0300 
 23 N       -4.3660   -10.1580     0.9480 N.4   1 <1>  -0.9590 
 24 C       -4.6910   -11.5170     0.3980 C.3   1 <1>   0.3430 
 25 C       -5.6080    -9.4040     1.2920 C.3   1 <1>   0.2630 
 26 H        1.8530    -3.5790     1.0020 H     1 <1>   0.1500 
 27 H       -1.7530    -3.0020    -1.1900 H     1 <1>   0.1500 
 28 H       -2.0030    -5.3940    -1.4350 H     1 <1>   0.1500 
 29 H        2.6060    -5.7850     1.3860 H     1 <1>   0.4570 
 30 H        0.6320    -9.1850     0.0390 H     1 <1>   0.1500 
 31 H        2.8700    -8.2090     2.4900 H     1 <1>   0.0800 
 32 H        3.7840    -8.1580     0.9960 H     1 <1>   0.0800 
 33 H        2.6390    -9.4380     1.2780 H     1 <1>   0.0800 
 34 H       -1.9720    -7.2820    -1.6890 H     1 <1>   0.4000 
 35 H       -0.5580    -9.7730    -1.7750 H     1 <1>   0.0800 
 36 H       -2.0970    -9.3780    -2.4750 H     1 <1>   0.0800 
 37 H       -1.5870   -10.2460     0.3720 H     1 <1>   0.0800 
 38 H       -4.0990    -9.1870    -0.9200 H     1 <1>   0.0800 
 39 H       -3.2240    -8.4520     0.3910 H     1 <1>   0.0800 
 40 H       -2.8390   -12.5020     0.8880 H     1 <1>   0.0800 
 41 H       -3.7040   -13.2200    -0.4390 H     1 <1>   0.0800 
 42 H       -0.8920   -11.8930    -2.1720 H     1 <1>   0.0800 
 43 H       -1.7220   -13.3200    -1.6450 H     1 <1>   0.0800 
 44 H       -0.7300   -12.4320    -0.5090 H     1 <1>   0.0800 
 45 H       -3.8080   -10.2950     1.8010 H     1 <1>   0.4500 
 46 H       -5.2360   -12.0900     1.1300 H     1 <1>   0.0800 
 47 H       -5.3110   -11.4180    -0.4780 H     1 <1>   0.0800 
 48 H       -6.2080    -9.2480     0.4100 H     1 <1>   0.0800 
 49 H       -5.3590    -8.4430     1.7140 H     1 <1>   0.0800 
 50 H       -6.1920    -9.9530     2.0130 H     1 <1>   0.0800 
@<TRIPOS>BOND
  1   1   2  1   
  2   2   3  1   
  3   2   4  1   
  4   2   5  1   
  5   5   6  ar  
  6   5   7  ar  
  7   6   8  ar  
  8   6  26  1   
  9   7   9  ar  
 10   7  27  1   
 11   8  10  ar  
 12   8  11  ar  
 13   9  11  ar  
 14   9  28  1   
 15  10  12  ar  
 16  10  29  1   
 17  11  13  ar  
 18  12  14  ar  
 19  12  15  1   
 20  13  14  ar  
 21  13  16  1   
 22  14  30  1   
 23  15  31  1   
 24  15  32  1   
 25  15  33  1   
 26  16  17  1   
 27  16  34  1   
 28  17  18  1   
 29  17  35  1   
 30  17  36  1   
 31  18  19  1   
 32  18  20  1   
 33  18  37  1   
 34  19  21  1   
 35  19  22  1   
 36  20  23  1   
 37  20  38  1   
 38  20  39  1   
 39  21  24  1   
 40  21  40  1   
 41  21  41  1   
 42  22  42  1   
 43  22  43  1   
 44  22  44  1   
 45  23  24  1   
 46  23  25  1   
 47  23  45  1   
 48  24  46  1   
 49  24  47  1   
 50  25  48  1   
 51  25  49  1   
 52  25  50  1   
@<TRIPOS>SUBSTRUCTURE
  1 ****  13 GROUP 4 **** **** 0

# MOE 2024.06 (io_trps.svl 2023.06)
