@<TRIPOS>MOLECULE
NONAME
43 45 1 0 0 
SMALL
USER_CHARGES


@<TRIPOS>ATOM
  1 O        1.8210     0.2190     1.8230 O.3   1 <1>  -0.6800 
  2 C        1.7380    -0.8190     0.9220 C.3   1 <1>   0.2000 
  3 C        2.4470    -2.0410     1.4870 C.3   1 <1>  -0.1600 
  4 C        2.5140    -0.4560    -0.3330 C.3   1 <1>  -0.1600 
  5 C        3.0070    -2.7910     0.2680 C.3   1 <1>  -0.0800 
  6 C        3.0060    -1.7930    -0.9040 C.3   1 <1>  -0.0800 
  7 C        4.4640    -3.2370     0.4520 C.3   1 <1>  -0.1600 
  8 C        4.4500    -1.7240    -1.4150 C.3   1 <1>  -0.1600 
  9 C        5.2750    -2.1170    -0.1980 C.3   1 <1>   0.4230 
 10 N        6.6870    -2.4730    -0.5330 N.4   1 <1>  -0.9590 
 11 C        7.5160    -2.5800     0.7000 C.3   1 <1>   0.4860 
 12 C        6.8550    -3.6840    -1.4000 C.3   1 <1>   0.2630 
 13 C        7.6340    -1.2030     1.3320 C.ar  1 <1>  -0.1430 
 14 C        6.8620    -0.8620     2.4330 C.ar  1 <1>  -0.1500 
 15 C        8.5180    -0.2680     0.8120 C.ar  1 <1>  -0.1500 
 16 C        6.9680     0.3970     2.9980 C.ar  1 <1>  -0.1500 
 17 C        8.6190     0.9890     1.3830 C.ar  1 <1>  -0.1500 
 18 C        7.8470     1.3430     2.4840 C.ar  1 <1>   0.0730 
 19 C        7.9590     2.6470     3.0740 C.1   1 <1>   0.4840 
 20 N        8.0540     3.6830     3.5410 N.1   1 <1>  -0.5570 
 21 H        1.2370     0.0520     2.5880 H     1 <1>   0.4000 
 22 H        0.7040    -1.0240     0.6940 H     1 <1>   0.0800 
 23 H        3.2450    -1.7190     2.1340 H     1 <1>   0.0800 
 24 H        1.7650    -2.6600     2.0440 H     1 <1>   0.0800 
 25 H        1.8880     0.0660    -1.0360 H     1 <1>   0.0800 
 26 H        3.3450     0.1740    -0.0640 H     1 <1>   0.0800 
 27 H        2.3740    -3.6340     0.0400 H     1 <1>   0.0800 
 28 H        2.3340    -2.1230    -1.6800 H     1 <1>   0.0800 
 29 H        4.5920    -4.1650    -0.0750 H     1 <1>   0.0800 
 30 H        4.7150    -3.3780     1.4880 H     1 <1>   0.0800 
 31 H        4.7010    -0.7430    -1.7780 H     1 <1>   0.0800 
 32 H        4.5590    -2.4400    -2.2080 H     1 <1>   0.0800 
 33 H        5.2670    -1.2710     0.4730 H     1 <1>   0.0800 
 34 H        7.0560    -1.6580    -1.0390 H     1 <1>   0.4500 
 35 H        7.0680    -3.2720     1.3950 H     1 <1>   0.0800 
 36 H        8.5020    -2.9370     0.4530 H     1 <1>   0.0800 
 37 H        6.5070    -4.5670    -0.8890 H     1 <1>   0.0800 
 38 H        7.8940    -3.8220    -1.6520 H     1 <1>   0.0800 
 39 H        6.2980    -3.5740    -2.3160 H     1 <1>   0.0800 
 40 H        6.1730    -1.5680     2.8680 H     1 <1>   0.1500 
 41 H        9.1410    -0.5030    -0.0350 H     1 <1>   0.1500 
 42 H        6.3610     0.6510     3.8520 H     1 <1>   0.1500 
 43 H        9.3110     1.7070     0.9730 H     1 <1>   0.1500 
@<TRIPOS>BOND
  1   1   2  1   
  2   1  21  1   
  3   2   3  1   
  4   2   4  1   
  5   2  22  1   
  6   3   5  1   
  7   3  23  1   
  8   3  24  1   
  9   4   6  1   
 10   4  25  1   
 11   4  26  1   
 12   5   6  1   
 13   5   7  1   
 14   5  27  1   
 15   6   8  1   
 16   6  28  1   
 17   7   9  1   
 18   7  29  1   
 19   7  30  1   
 20   8   9  1   
 21   8  31  1   
 22   8  32  1   
 23   9  10  1   
 24   9  33  1   
 25  10  11  1   
 26  10  12  1   
 27  10  34  1   
 28  11  13  1   
 29  11  35  1   
 30  11  36  1   
 31  12  37  1   
 32  12  38  1   
 33  12  39  1   
 34  13  14  ar  
 35  13  15  ar  
 36  14  16  ar  
 37  14  40  1   
 38  15  17  ar  
 39  15  41  1   
 40  16  18  ar  
 41  16  42  1   
 42  17  18  ar  
 43  17  43  1   
 44  18  19  1   
 45  19  20  3   
@<TRIPOS>SUBSTRUCTURE
  1 ****   9 GROUP 4 **** **** 0

# MOE 2024.06 (io_trps.svl 2023.06)
