@<TRIPOS>MOLECULE
NONAME
53 57 1 0 0 
SMALL
USER_CHARGES


@<TRIPOS>ATOM
  1 O        1.8500    -0.1660     0.7380 O.3   1 <1>  -0.5600 
  2 C        2.5930    -1.1100    -0.0120 C.3   1 <1>   0.4600 
  3 C        0.4730    -0.0230     0.4550 C.3   1 <1>   0.1200 
  4 C        1.7470    -2.3480    -0.2710 C.2   1 <1>  -0.3320 
  5 C        3.8130    -1.4630     0.8420 C.3   1 <1>  -0.1600 
  6 C        3.0620    -0.4420    -1.3130 C.3   1 <1>  -0.1600 
  7 C       -0.2930    -1.3240     0.7380 C.3   1 <1>   0.0210 
  8 N        2.1490    -3.5180    -0.8620 N.pl3 1 <1>   0.0330 
  9 C        0.4480    -2.4540     0.0720 C.2   1 <1>  -0.1810 
 10 C        4.6630    -0.2390     1.1980 C.3   1 <1>   0.3430 
 11 C        4.1910     0.5760    -1.1080 C.3   1 <1>   0.3430 
 12 C        1.0770    -4.3740    -0.8830 C.ar  1 <1>  -0.1520 
 13 C       -0.0120    -3.7340    -0.2980 C.ar  1 <1>   0.0000 
 14 N        4.3220     0.9260     0.3340 N.4   1 <1>  -0.9590 
 15 C        0.9630    -5.6790    -1.3700 C.ar  1 <1>  -0.1500 
 16 C       -1.2350    -4.4030    -0.1940 C.ar  1 <1>  -0.1500 
 17 C        5.1590     2.1230     0.5880 C.3   1 <1>   0.5240 
 18 C       -0.2460    -6.3250    -1.2630 C.ar  1 <1>  -0.1500 
 19 C       -1.3460    -5.6880    -0.6750 C.ar  1 <1>  -0.1500 
 20 C        4.5050     3.2920    -0.1070 C.2   1 <1>  -0.1810 
 21 C        5.0350     3.9930    -1.1830 C.2   1 <1>   0.1390 
 22 C        3.3120     3.8830     0.1330 C.2   1 <1>  -0.3020 
 23 N        4.2380     4.9270    -1.5910 N.2   1 <1>  -0.7070 
 24 N        3.1740     4.8740    -0.7710 N.pl3 1 <1>   0.3140 
 25 C        2.0390     5.8140    -0.9020 C.3   1 <1>   0.0960 
 26 C        2.0780     6.8870     0.1930 C.3   1 <1>  -0.2400 
 27 H        0.3600     0.2520    -0.5790 H     1 <1>   0.0800 
 28 H        0.0880     0.7710     1.0690 H     1 <1>   0.0800 
 29 H        4.4260    -2.1670     0.3110 H     1 <1>   0.0800 
 30 H        3.4870    -1.9520     1.7430 H     1 <1>   0.0800 
 31 H        2.2300     0.0270    -1.8050 H     1 <1>   0.0800 
 32 H        3.4220    -1.1960    -1.9880 H     1 <1>   0.0800 
 33 H       -1.2900    -1.2510     0.3430 H     1 <1>   0.0800 
 34 H       -0.3540    -1.4990     1.7970 H     1 <1>   0.0800 
 35 H        3.0760    -3.7560    -1.2260 H     1 <1>   0.2700 
 36 H        5.7080    -0.4870     1.0980 H     1 <1>   0.0800 
 37 H        4.4770     0.0220     2.2280 H     1 <1>   0.0800 
 38 H        3.9740     1.4590    -1.6900 H     1 <1>   0.0800 
 39 H        5.1200     0.1610    -1.4630 H     1 <1>   0.0800 
 40 H        3.3570     1.1830     0.6160 H     1 <1>   0.4500 
 41 H        1.8110    -6.1640    -1.8200 H     1 <1>   0.1500 
 42 H       -2.0710    -3.9040     0.2600 H     1 <1>   0.1500 
 43 H        6.1580     1.9730     0.2120 H     1 <1>   0.0800 
 44 H        5.2110     2.3230     1.6460 H     1 <1>   0.0800 
 45 H       -0.3600    -7.3300    -1.6310 H     1 <1>   0.1500 
 46 H       -2.2800    -6.2160    -0.6030 H     1 <1>   0.1500 
 47 H        5.9900     3.8040    -1.6480 H     1 <1>   0.1500 
 48 H        2.5640     3.6750     0.8770 H     1 <1>   0.1500 
 49 H        1.1230     5.2560    -0.8460 H     1 <1>   0.0800 
 50 H        2.0980     6.2780    -1.8700 H     1 <1>   0.0800 
 51 H        2.0010     6.4400     1.1680 H     1 <1>   0.0800 
 52 H        1.2570     7.5690     0.0630 H     1 <1>   0.0800 
 53 H        2.9960     7.4460     0.1280 H     1 <1>   0.0800 
@<TRIPOS>BOND
  1   1   2  1   
  2   1   3  1   
  3   2   4  1   
  4   2   5  1   
  5   2   6  1   
  6   3   7  1   
  7   3  27  1   
  8   3  28  1   
  9   4   8  1   
 10   4   9  2   
 11   5  10  1   
 12   5  29  1   
 13   5  30  1   
 14   6  11  1   
 15   6  31  1   
 16   6  32  1   
 17   7   9  1   
 18   7  33  1   
 19   7  34  1   
 20   8  12  1   
 21   8  35  1   
 22   9  13  1   
 23  10  14  1   
 24  10  36  1   
 25  10  37  1   
 26  11  14  1   
 27  11  38  1   
 28  11  39  1   
 29  12  13  ar  
 30  12  15  ar  
 31  13  16  ar  
 32  14  17  1   
 33  14  40  1   
 34  15  18  ar  
 35  15  41  1   
 36  16  19  ar  
 37  16  42  1   
 38  17  20  1   
 39  17  43  1   
 40  17  44  1   
 41  18  19  ar  
 42  18  45  1   
 43  19  46  1   
 44  20  21  1   
 45  20  22  2   
 46  21  23  2   
 47  21  47  1   
 48  22  24  1   
 49  22  48  1   
 50  23  24  1   
 51  24  25  1   
 52  25  26  1   
 53  25  49  1   
 54  25  50  1   
 55  26  51  1   
 56  26  52  1   
 57  26  53  1   
@<TRIPOS>SUBSTRUCTURE
  1 ****   2 GROUP 4 **** **** 0

# MOE 2024.06 (io_trps.svl 2023.06)
