@<TRIPOS>MOLECULE
NONAME
46 47 1 0 0 
SMALL
USER_CHARGES


@<TRIPOS>ATOM
  1 O       -0.7170     0.3180    -1.8670 O.2   1 <1>  -0.5700 
  2 C       -1.6710     0.8590    -1.3440 C.2   1 <1>   0.6160 
  3 N       -2.8000     0.1190    -1.0480 N.am  1 <1>  -0.6600 
  4 C       -1.5910     2.2690    -1.0340 C.2   1 <1>   0.0140 
  5 C       -2.8640    -1.3500    -1.3410 C.3   1 <1>   0.1400 
  6 C       -4.0250     0.7430    -0.4610 C.3   1 <1>   0.1400 
  7 C       -2.3490     3.2210    -1.6610 C.2   1 <1>  -0.1360 
  8 C       -0.6800     2.7130    -0.0290 C.2   1 <1>  -0.1500 
  9 C       -3.2780    -2.2130    -0.1150 C.3   1 <1>   0.0000 
 10 C       -4.9800    -0.3000     0.1290 C.3   1 <1>  -0.1600 
 11 C       -2.2610     4.5890    -1.3120 C.2   1 <1>   0.6160 
 12 C       -0.5880     4.0260     0.3100 C.2   1 <1>  -0.0290 
 13 C       -4.1690    -1.3720     0.8530 C.3   1 <1>   0.2000 
 14 C       -4.0810    -3.4290    -0.6540 C.3   1 <1>   0.1200 
 15 C       -2.0390    -2.7530     0.6600 C.3   1 <1>  -0.1600 
 16 O       -2.9400     5.4580    -1.8340 O.2   1 <1>  -0.5700 
 17 N       -1.3830     4.9450    -0.3300 N.am  1 <1>  -0.5390 
 18 C        0.3600     4.5550     1.3670 C.3   1 <1>  -0.1020 
 19 O       -5.0490    -2.1560     1.5860 O.3   1 <1>  -0.6800 
 20 O       -3.3660    -4.1530    -1.6040 O.3   1 <1>  -0.6800 
 21 C       -0.9850    -1.7110     1.0800 C.3   1 <1>  -0.1600 
 22 C        0.1050    -2.3570     1.9400 C.3   1 <1>  -0.2400 
 23 H       -3.5870    -1.4750    -2.1280 H     1 <1>   0.0800 
 24 H       -1.9240    -1.7080    -1.7240 H     1 <1>   0.0800 
 25 H       -3.7270     1.4170     0.3250 H     1 <1>   0.0800 
 26 H       -4.5370     1.3130    -1.2170 H     1 <1>   0.0800 
 27 H       -3.0380     2.9720    -2.4440 H     1 <1>   0.1500 
 28 H       -0.0680     1.9640     0.4450 H     1 <1>   0.1500 
 29 H       -5.5680    -0.7350    -0.6590 H     1 <1>   0.0800 
 30 H       -5.6420     0.1930     0.8180 H     1 <1>   0.0800 
 31 H       -3.5480    -0.8750     1.5760 H     1 <1>   0.0800 
 32 H       -5.0000    -3.1090    -1.1130 H     1 <1>   0.0800 
 33 H       -4.3150    -4.1100     0.1470 H     1 <1>   0.0800 
 34 H       -2.3910    -3.2650     1.5400 H     1 <1>   0.0800 
 35 H       -1.5360    -3.4880     0.0560 H     1 <1>   0.0800 
 36 H       -1.3510     5.9430    -0.1200 H     1 <1>   0.3700 
 37 H        1.0400     5.2640     0.9290 H     1 <1>   0.0800 
 38 H        0.9320     3.7530     1.7970 H     1 <1>   0.0800 
 39 H       -0.1950     5.0380     2.1500 H     1 <1>   0.0800 
 40 H       -5.7630    -2.5010     1.0190 H     1 <1>   0.4000 
 41 H       -3.1080    -3.6000    -2.3650 H     1 <1>   0.4000 
 42 H       -0.5190    -1.2910     0.2060 H     1 <1>   0.0800 
 43 H       -1.4310    -0.9080     1.6370 H     1 <1>   0.0800 
 44 H        0.5930    -3.1470     1.3970 H     1 <1>   0.0800 
 45 H       -0.3190    -2.7650     2.8410 H     1 <1>   0.0800 
 46 H        0.8430    -1.6230     2.2110 H     1 <1>   0.0800 
@<TRIPOS>BOND
  1   1   2  2   
  2   2   3  am  
  3   2   4  1   
  4   3   5  1   
  5   3   6  1   
  6   4   7  2   
  7   4   8  1   
  8   5   9  1   
  9   5  23  1   
 10   5  24  1   
 11   6  10  1   
 12   6  25  1   
 13   6  26  1   
 14   7  11  1   
 15   7  27  1   
 16   8  12  2   
 17   8  28  1   
 18   9  13  1   
 19   9  14  1   
 20   9  15  1   
 21  10  13  1   
 22  10  29  1   
 23  10  30  1   
 24  11  16  2   
 25  11  17  am  
 26  12  17  1   
 27  12  18  1   
 28  13  19  1   
 29  13  31  1   
 30  14  20  1   
 31  14  32  1   
 32  14  33  1   
 33  15  21  1   
 34  15  34  1   
 35  15  35  1   
 36  17  36  1   
 37  18  37  1   
 38  18  38  1   
 39  18  39  1   
 40  19  40  1   
 41  20  41  1   
 42  21  22  1   
 43  21  42  1   
 44  21  43  1   
 45  22  44  1   
 46  22  45  1   
 47  22  46  1   
@<TRIPOS>SUBSTRUCTURE
  1 ****   3 GROUP 4 **** **** 0

# MOE 2024.06 (io_trps.svl 2023.06)
