@<TRIPOS>MOLECULE
NONAME
47 49 1 0 0 
SMALL
USER_CHARGES


@<TRIPOS>ATOM
  1 S       -0.3760     0.8020     1.2480 S.o2  1 <1>   1.4470 
  2 O        0.4220     0.1650     2.2660 O.2   1 <1>  -0.6500 
  3 O       -1.8130     0.6890     1.2640 O.2   1 <1>  -0.6500 
  4 N        0.0280    -0.0400    -0.1170 N.am  1 <1>  -0.9780 
  5 C        0.1730     2.5010     0.9170 C.ar  1 <1>  -0.0090 
  6 C        1.5210     2.8360     0.9450 C.ar  1 <1>  -0.1500 
  7 C       -0.7360     3.5080     0.6170 C.ar  1 <1>  -0.1500 
  8 C        1.9480     4.1290     0.6900 C.ar  1 <1>  -0.1500 
  9 C       -0.3180     4.8030     0.3610 C.ar  1 <1>  -0.1500 
 10 C        1.0290     5.1230     0.3970 C.ar  1 <1>  -0.1430 
 11 C        1.4920     6.5450     0.1210 C.3   1 <1>  -0.0170 
 12 C        1.7210     6.7550    -1.3770 C.3   1 <1>   0.2090 
 13 N        2.1580     8.1490    -1.6390 N.pl3 1 <1>  -0.8690 
 14 C        3.4530     8.5390    -1.4220 C.ar  1 <1>   0.4100 
 15 N        3.5510     9.6080    -0.6630 N.ar  1 <1>  -0.6200 
 16 C        4.5650     7.8660    -1.9520 C.ar  1 <1>   0.1600 
 17 C        4.8200     9.9880    -0.4250 C.ar  1 <1>   0.3960 
 18 N        5.8190     8.2040    -1.7340 N.ar  1 <1>  -0.6200 
 19 C        5.1210    11.1550     0.4080 C.2   1 <1>   0.5440 
 20 C        5.9020     9.2760    -0.9550 C.ar  1 <1>   0.1600 
 21 O        6.1530    11.1640     1.0600 O.2   1 <1>  -0.5700 
 22 N        4.3170    12.2770     0.4880 N.am  1 <1>  -0.6600 
 23 C        4.6380    13.4310     1.3570 C.3   1 <1>   0.1400 
 24 C        3.1090    12.5470    -0.3230 C.3   1 <1>   0.1400 
 25 C        3.4440    14.3690     1.2230 C.3   1 <1>  -0.1600 
 26 C        2.8430    14.0360    -0.1400 C.3   1 <1>  -0.1600 
 27 H       -0.8750    -0.2800    -0.5170 H     1 <1>   0.4200 
 28 H        0.4130    -0.9060     0.2520 H     1 <1>   0.4200 
 29 H        2.2480     2.0740     1.1720 H     1 <1>   0.1500 
 30 H       -1.7890     3.2790     0.5860 H     1 <1>   0.1500 
 31 H        3.0010     4.3550     0.7240 H     1 <1>   0.1500 
 32 H       -1.0500     5.5600     0.1360 H     1 <1>   0.1500 
 33 H        2.4070     6.7360     0.6550 H     1 <1>   0.0800 
 34 H        0.7490     7.2390     0.4730 H     1 <1>   0.0800 
 35 H        0.8070     6.5660    -1.9130 H     1 <1>   0.0800 
 36 H        2.4630     6.0590    -1.7310 H     1 <1>   0.0800 
 37 H        1.5120     8.8450    -1.2560 H     1 <1>   0.4000 
 38 H        4.3820     7.0170    -2.5830 H     1 <1>   0.1500 
 39 H        6.8940     9.6200    -0.7190 H     1 <1>   0.1500 
 40 H        5.5360    13.9030     0.9940 H     1 <1>   0.0800 
 41 H        4.7860    13.1130     2.3750 H     1 <1>   0.0800 
 42 H        2.2890    11.9690     0.0680 H     1 <1>   0.0800 
 43 H        3.2700    12.2980    -1.3580 H     1 <1>   0.0800 
 44 H        3.7350    15.4010     1.3040 H     1 <1>   0.0800 
 45 H        2.7350    14.1420     2.0010 H     1 <1>   0.0800 
 46 H        1.7930    14.2650    -0.1940 H     1 <1>   0.0800 
 47 H        3.3610    14.5810    -0.9100 H     1 <1>   0.0800 
@<TRIPOS>BOND
  1   1   2  2   
  2   1   3  2   
  3   1   4  am  
  4   1   5  1   
  5   4  27  1   
  6   4  28  1   
  7   5   6  ar  
  8   5   7  ar  
  9   6   8  ar  
 10   6  29  1   
 11   7   9  ar  
 12   7  30  1   
 13   8  10  ar  
 14   8  31  1   
 15   9  10  ar  
 16   9  32  1   
 17  10  11  1   
 18  11  12  1   
 19  11  33  1   
 20  11  34  1   
 21  12  13  1   
 22  12  35  1   
 23  12  36  1   
 24  13  14  1   
 25  13  37  1   
 26  14  15  ar  
 27  14  16  ar  
 28  15  17  ar  
 29  16  18  ar  
 30  16  38  1   
 31  17  19  1   
 32  17  20  ar  
 33  18  20  ar  
 34  19  21  2   
 35  19  22  am  
 36  20  39  1   
 37  22  23  1   
 38  22  24  1   
 39  23  25  1   
 40  23  40  1   
 41  23  41  1   
 42  24  26  1   
 43  24  42  1   
 44  24  43  1   
 45  25  26  1   
 46  25  44  1   
 47  25  45  1   
 48  26  46  1   
 49  26  47  1   
@<TRIPOS>SUBSTRUCTURE
  1 ****  11 GROUP 4 **** **** 0

# MOE 2024.06 (io_trps.svl 2023.06)
