@<TRIPOS>MOLECULE
NONAME
48 51 1 0 0 
SMALL
USER_CHARGES


@<TRIPOS>ATOM
  1 O        0.3580    -1.2330    -0.6410 O.2   1 <1>  -0.5700 
  2 C        1.2330    -1.1970     0.2150 C.2   1 <1>   0.5440 
  3 N        1.0710    -1.8770     1.4160 N.am  1 <1>  -0.2980 
  4 C        2.4340    -0.4270     0.0350 C.ar  1 <1>   0.0860 
  5 N        1.9310    -1.7670     2.4850 N.2   1 <1>  -0.5120 
  6 C       -0.0730    -2.8210     1.5680 C.3   1 <1>   0.2010 
  7 C        3.3240    -0.3550     1.1150 C.ar  1 <1>   0.0860 
  8 C        2.7490     0.2480    -1.1480 C.ar  1 <1>  -0.1500 
  9 C        2.9830    -1.0490     2.3170 C.2   1 <1>   0.3040 
 10 C        0.0150    -4.0300     0.6250 C.2   1 <1>   0.5690 
 11 C        4.5010     0.3890     0.9790 C.ar  1 <1>  -0.1500 
 12 C        3.9130     0.9770    -1.2650 C.ar  1 <1>  -0.1500 
 13 O        1.0520    -4.6580     0.6220 O.2   1 <1>  -0.5700 
 14 N       -1.0400    -4.4180    -0.1790 N.am  1 <1>  -0.6600 
 15 C        4.7940     1.0480    -0.1950 C.ar  1 <1>  -0.1500 
 16 C       -2.4220    -3.8610    -0.0570 C.3   1 <1>   0.2200 
 17 C       -0.7860    -5.4020    -1.2770 C.3   1 <1>   0.0600 
 18 C       -3.5510    -4.8720    -0.2750 C.3   1 <1>  -0.1600 
 19 C       -2.6930    -2.7610    -1.0780 C.3   1 <1>  -0.1600 
 20 C       -4.7690    -4.0180    -0.6480 C.3   1 <1>  -0.0800 
 21 C       -4.2220    -2.6810    -1.1770 C.3   1 <1>  -0.0800 
 22 C       -5.6730    -3.6750     0.5440 C.3   1 <1>  -0.1600 
 23 C       -4.8390    -1.5820    -0.2980 C.3   1 <1>  -0.1600 
 24 C       -6.0760    -2.2290     0.3050 C.3   1 <1>   0.2000 
 25 O       -6.4050    -1.6210     1.4960 O.3   1 <1>  -0.6800 
 26 H       -0.0890    -3.1870     2.5780 H     1 <1>   0.0800 
 27 H       -0.9700    -2.2630     1.3990 H     1 <1>   0.0800 
 28 H        2.0630     0.1900    -1.9770 H     1 <1>   0.1500 
 29 H        3.6720    -0.9530     3.1370 H     1 <1>   0.0600 
 30 H        5.1870     0.4460     1.8070 H     1 <1>   0.1500 
 31 H        4.1420     1.4910    -2.1830 H     1 <1>   0.1500 
 32 H        5.7030     1.6180    -0.2910 H     1 <1>   0.1500 
 33 H       -2.5670    -3.4540     0.9270 H     1 <1>   0.0800 
 34 H       -1.2990    -5.1050    -2.1730 H     1 <1>   0.0800 
 35 H       -1.1230    -6.3770    -0.9750 H     1 <1>   0.0800 
 36 H        0.2660    -5.4590    -1.5020 H     1 <1>   0.0800 
 37 H       -3.3440    -5.5160    -1.1080 H     1 <1>   0.0800 
 38 H       -3.7210    -5.4740     0.6000 H     1 <1>   0.0800 
 39 H       -2.2500    -1.8250    -0.7860 H     1 <1>   0.0800 
 40 H       -2.2950    -3.0460    -2.0350 H     1 <1>   0.0800 
 41 H       -5.3530    -4.5050    -1.4120 H     1 <1>   0.0800 
 42 H       -4.5240    -2.5360    -2.2020 H     1 <1>   0.0800 
 43 H       -5.1200    -3.7510     1.4650 H     1 <1>   0.0800 
 44 H       -6.5330    -4.3190     0.5840 H     1 <1>   0.0800 
 45 H       -5.0970    -0.7140    -0.8790 H     1 <1>   0.0800 
 46 H       -4.1550    -1.3030     0.4840 H     1 <1>   0.0800 
 47 H       -6.9160    -2.1660    -0.3670 H     1 <1>   0.0800 
 48 H       -5.6470    -1.6540     2.1080 H     1 <1>   0.4000 
@<TRIPOS>BOND
  1   1   2  2   
  2   2   3  am  
  3   2   4  1   
  4   3   5  1   
  5   3   6  1   
  6   4   7  ar  
  7   4   8  ar  
  8   5   9  2   
  9   6  10  1   
 10   6  26  1   
 11   6  27  1   
 12   7   9  1   
 13   7  11  ar  
 14   8  12  ar  
 15   8  28  1   
 16   9  29  1   
 17  10  13  2   
 18  10  14  am  
 19  11  15  ar  
 20  11  30  1   
 21  12  15  ar  
 22  12  31  1   
 23  14  16  1   
 24  14  17  1   
 25  15  32  1   
 26  16  18  1   
 27  16  19  1   
 28  16  33  1   
 29  17  34  1   
 30  17  35  1   
 31  17  36  1   
 32  18  20  1   
 33  18  37  1   
 34  18  38  1   
 35  19  21  1   
 36  19  39  1   
 37  19  40  1   
 38  20  21  1   
 39  20  22  1   
 40  20  41  1   
 41  21  23  1   
 42  21  42  1   
 43  22  24  1   
 44  22  43  1   
 45  22  44  1   
 46  23  24  1   
 47  23  45  1   
 48  23  46  1   
 49  24  25  1   
 50  24  47  1   
 51  25  48  1   
@<TRIPOS>SUBSTRUCTURE
  1 ****   1 GROUP 4 **** **** 0

# MOE 2024.06 (io_trps.svl 2023.06)
