@<TRIPOS>MOLECULE
NONAME
54 55 1 0 0 
SMALL
USER_CHARGES


@<TRIPOS>ATOM
  1 O       -1.3300     0.1950     2.7650 O.2   1 <1>  -0.5700 
  2 C       -1.4740     0.3470     1.5730 C.2   1 <1>   0.5690 
  3 N       -1.7520    -0.7240     0.7540 N.am  1 <1>  -0.6600 
  4 C       -1.3460     1.7900     1.0650 C.3   1 <1>  -0.0190 
  5 C       -1.9880    -2.0720     1.3450 C.3   1 <1>   0.2840 
  6 C       -1.9820    -0.6930    -0.7210 C.3   1 <1>   0.0600 
  7 C       -2.6430     2.3410     0.4330 C.3   1 <1>  -0.1600 
  8 C       -0.0890     2.0240     0.1900 C.3   1 <1>  -0.1600 
  9 C       -3.4810    -2.3720     1.3580 C.ar  1 <1>  -0.1430 
 10 C       -2.5450     3.8490     0.1210 C.3   1 <1>   0.2000 
 11 C       -0.2500     3.1880    -0.8060 C.3   1 <1>  -0.1600 
 12 C       -4.0710    -3.1850     0.3950 C.ar  1 <1>   0.0820 
 13 C       -4.2600    -1.8150     2.3590 C.ar  1 <1>  -0.1500 
 14 O       -3.3760     4.1200    -0.9830 O.3   1 <1>  -0.5600 
 15 C       -1.0970     4.3100    -0.2020 C.3   1 <1>   0.2000 
 16 O       -3.2550    -3.7030    -0.5660 O.3   1 <1>  -0.3630 
 17 C       -5.4540    -3.4250     0.4280 C.ar  1 <1>   0.0820 
 18 C       -5.6190    -2.0620     2.4090 C.ar  1 <1>  -0.1500 
 19 C       -4.7340     4.2330    -0.6890 C.3   1 <1>   0.0400 
 20 O       -1.1420     5.3460    -1.1130 O.3   1 <1>  -0.6800 
 21 C       -3.3070    -5.0860    -0.8330 C.3   1 <1>   0.1200 
 22 O       -6.0230    -4.1890    -0.5500 O.3   1 <1>  -0.3630 
 23 C       -6.2140    -2.8610     1.4500 C.ar  1 <1>  -0.1500 
 24 C       -1.9340    -5.5190    -1.3350 C.3   1 <1>  -0.2400 
 25 C       -7.4220    -4.3120    -0.6800 C.3   1 <1>   0.0400 
 26 H       -1.1960     2.3860     1.9490 H     1 <1>   0.0800 
 27 H       -1.4500    -2.8110     0.7780 H     1 <1>   0.0800 
 28 H       -1.6100    -2.1180     2.3520 H     1 <1>   0.0800 
 29 H       -1.5140    -1.5470    -1.1800 H     1 <1>   0.0800 
 30 H       -1.5790     0.1910    -1.1730 H     1 <1>   0.0800 
 31 H       -3.0390    -0.7370    -0.9190 H     1 <1>   0.0800 
 32 H       -3.4610     2.1710     1.1100 H     1 <1>   0.0800 
 33 H       -2.8530     1.8170    -0.4800 H     1 <1>   0.0800 
 34 H        0.7370     2.2370     0.8480 H     1 <1>   0.0800 
 35 H        0.1770     1.1360    -0.3530 H     1 <1>   0.0800 
 36 H       -2.8900     4.4230     0.9640 H     1 <1>   0.0800 
 37 H       -0.7360     2.8290    -1.6970 H     1 <1>   0.0800 
 38 H        0.7210     3.5660    -1.0770 H     1 <1>   0.0800 
 39 H       -3.8020    -1.1830     3.1030 H     1 <1>   0.1500 
 40 H       -0.6160     4.6760     0.6890 H     1 <1>   0.0800 
 41 H       -6.2130    -1.6270     3.1950 H     1 <1>   0.1500 
 42 H       -5.2560     4.4560    -1.6040 H     1 <1>   0.0800 
 43 H       -4.8810     5.0350     0.0140 H     1 <1>   0.0800 
 44 H       -5.0970     3.3040    -0.2870 H     1 <1>   0.0800 
 45 H       -1.9820     5.2200    -1.6120 H     1 <1>   0.4000 
 46 H       -3.5680    -5.6060     0.0730 H     1 <1>   0.0800 
 47 H       -4.0590    -5.2580    -1.5840 H     1 <1>   0.0800 
 48 H       -7.2710    -3.0290     1.5200 H     1 <1>   0.1500 
 49 H       -1.1890    -5.3320    -0.5830 H     1 <1>   0.0800 
 50 H       -1.6840    -4.9830    -2.2330 H     1 <1>   0.0800 
 51 H       -1.9440    -6.5710    -1.5550 H     1 <1>   0.0800 
 52 H       -7.6250    -4.8950    -1.5610 H     1 <1>   0.0800 
 53 H       -7.8510    -3.3310    -0.7850 H     1 <1>   0.0800 
 54 H       -7.8110    -4.8150     0.1870 H     1 <1>   0.0800 
@<TRIPOS>BOND
  1   1   2  2   
  2   2   3  am  
  3   2   4  1   
  4   3   5  1   
  5   3   6  1   
  6   4   7  1   
  7   4   8  1   
  8   4  26  1   
  9   5   9  1   
 10   5  27  1   
 11   5  28  1   
 12   6  29  1   
 13   6  30  1   
 14   6  31  1   
 15   7  10  1   
 16   7  32  1   
 17   7  33  1   
 18   8  11  1   
 19   8  34  1   
 20   8  35  1   
 21   9  12  ar  
 22   9  13  ar  
 23  10  14  1   
 24  10  15  1   
 25  10  36  1   
 26  11  15  1   
 27  11  37  1   
 28  11  38  1   
 29  12  16  1   
 30  12  17  ar  
 31  13  18  ar  
 32  13  39  1   
 33  14  19  1   
 34  15  20  1   
 35  15  40  1   
 36  16  21  1   
 37  17  22  1   
 38  17  23  ar  
 39  18  23  ar  
 40  18  41  1   
 41  19  42  1   
 42  19  43  1   
 43  19  44  1   
 44  20  45  1   
 45  21  24  1   
 46  21  46  1   
 47  21  47  1   
 48  22  25  1   
 49  23  48  1   
 50  24  49  1   
 51  24  50  1   
 52  24  51  1   
 53  25  52  1   
 54  25  53  1   
 55  25  54  1   
@<TRIPOS>SUBSTRUCTURE
  1 ****   3 GROUP 4 **** **** 0

# MOE 2024.06 (io_trps.svl 2023.06)
