@<TRIPOS>MOLECULE
NONAME
59 62 1 0 0 
SMALL
USER_CHARGES


@<TRIPOS>ATOM
  1 O       -0.1690     0.2090    -1.1890 O.3   1 <1>  -0.0190 
  2 N       -1.1130     0.7830    -0.5030 N.2   1 <1>  -0.4100 
  3 C        0.9090     0.0250    -0.4740 C.2   1 <1>  -0.0400 
  4 C       -0.6350     0.9730     0.6750 C.2   1 <1>   0.1080 
  5 C        0.6740     0.5050     0.7570 C.2   1 <1>  -0.1500 
  6 C        2.1280    -0.6290    -1.0970 C.3   1 <1>   0.2900 
  7 C       -1.4000     1.6200     1.8140 C.3   1 <1>   0.0210 
  8 N        2.2220    -2.0780    -0.7740 N.3   1 <1>  -0.8100 
  9 C       -0.9560     3.0700     2.0310 C.3   1 <1>  -0.2400 
 10 C        3.4720    -2.7250    -1.2680 C.3   1 <1>   0.1900 
 11 C        1.0200    -2.7830    -1.2760 C.3   1 <1>   0.1100 
 12 C        3.5670    -4.2040    -0.7880 C.3   1 <1>   0.0000 
 13 C        4.7500    -1.9340    -0.8820 C.3   1 <1>   0.3430 
 14 C        1.0240    -4.2570    -0.8730 C.3   1 <1>  -0.1600 
 15 C        4.8270    -4.8800    -1.4060 C.3   1 <1>  -0.1600 
 16 C        2.3190    -4.9560    -1.3060 C.3   1 <1>  -0.1600 
 17 C        3.5710    -4.3090     0.7710 C.3   1 <1>   0.1200 
 18 N        5.9860    -2.7790    -0.7940 N.4   1 <1>  -0.9590 
 19 C        5.9960    -3.9330    -1.7180 C.3   1 <1>   0.3430 
 20 O        4.8270    -4.0830     1.3300 O.3   1 <1>  -0.6800 
 21 C        7.2490    -1.9900    -0.7590 C.3   1 <1>   0.5230 
 22 C        7.2950    -1.0650     0.4550 C.2   1 <1>   0.0060 
 23 N        6.5270    -1.1920     1.4940 N.2   1 <1>  -0.5650 
 24 N        8.1650    -0.0260     0.5520 N.pl3 1 <1>   0.0480 
 25 C        6.9070    -0.1900     2.3060 C.2   1 <1>   0.0770 
 26 C        7.9010     0.5290     1.7470 C.2   1 <1>  -0.3020 
 27 C        9.2020     0.4370    -0.3930 C.3   1 <1>   0.0160 
 28 H        1.3130     0.5330     1.6190 H     1 <1>   0.1500 
 29 H        2.9850    -0.1120    -0.7050 H     1 <1>   0.0800 
 30 H        2.1030    -0.4840    -2.1640 H     1 <1>   0.0800 
 31 H       -2.4520     1.5960     1.5870 H     1 <1>   0.0800 
 32 H       -1.2420     1.0510     2.7130 H     1 <1>   0.0800 
 33 H       -1.1220     3.6410     1.1340 H     1 <1>   0.0800 
 34 H        0.0900     3.1090     2.2770 H     1 <1>   0.0800 
 35 H       -1.5190     3.5140     2.8320 H     1 <1>   0.0800 
 36 H        3.4260    -2.7330    -2.3440 H     1 <1>   0.0800 
 37 H        0.1270    -2.3380    -0.8670 H     1 <1>   0.0800 
 38 H        0.9690    -2.7000    -2.3490 H     1 <1>   0.0800 
 39 H        4.5800    -1.4850     0.0830 H     1 <1>   0.0800 
 40 H        4.8980    -1.1470    -1.6000 H     1 <1>   0.0800 
 41 H        0.8870    -4.3290     0.1920 H     1 <1>   0.0800 
 42 H        0.1830    -4.7460    -1.3330 H     1 <1>   0.0800 
 43 H        4.5770    -5.3670    -2.3310 H     1 <1>   0.0800 
 44 H        5.1750    -5.6600    -0.7510 H     1 <1>   0.0800 
 45 H        2.3300    -4.9900    -2.3820 H     1 <1>   0.0800 
 46 H        2.3150    -5.9720    -0.9500 H     1 <1>   0.0800 
 47 H        3.2700    -5.2980     1.0740 H     1 <1>   0.0800 
 48 H        2.8830    -3.6020     1.2030 H     1 <1>   0.0800 
 49 H        5.8960    -3.1810     0.1680 H     1 <1>   0.4500 
 50 H        5.9070    -3.5760    -2.7310 H     1 <1>   0.0800 
 51 H        6.9240    -4.4760    -1.6290 H     1 <1>   0.0800 
 52 H        4.7580    -4.0510     2.3100 H     1 <1>   0.4000 
 53 H        8.0890    -2.6610    -0.7040 H     1 <1>   0.0800 
 54 H        7.3360    -1.4060    -1.6590 H     1 <1>   0.0800 
 55 H        6.4420    -0.0350     3.2670 H     1 <1>   0.1500 
 56 H        8.4230     1.3860     2.1360 H     1 <1>   0.1500 
 57 H        9.7280     1.2710     0.0350 H     1 <1>   0.0800 
 58 H        8.7420     0.7480    -1.3130 H     1 <1>   0.0800 
 59 H        9.9010    -0.3570    -0.5800 H     1 <1>   0.0800 
@<TRIPOS>BOND
  1   1   2  1   
  2   1   3  1   
  3   2   4  2   
  4   3   5  2   
  5   3   6  1   
  6   4   5  1   
  7   4   7  1   
  8   5  28  1   
  9   6   8  1   
 10   6  29  1   
 11   6  30  1   
 12   7   9  1   
 13   7  31  1   
 14   7  32  1   
 15   8  10  1   
 16   8  11  1   
 17   9  33  1   
 18   9  34  1   
 19   9  35  1   
 20  10  12  1   
 21  10  13  1   
 22  10  36  1   
 23  11  14  1   
 24  11  37  1   
 25  11  38  1   
 26  12  15  1   
 27  12  16  1   
 28  12  17  1   
 29  13  18  1   
 30  13  39  1   
 31  13  40  1   
 32  14  16  1   
 33  14  41  1   
 34  14  42  1   
 35  15  19  1   
 36  15  43  1   
 37  15  44  1   
 38  16  45  1   
 39  16  46  1   
 40  17  20  1   
 41  17  47  1   
 42  17  48  1   
 43  18  19  1   
 44  18  21  1   
 45  18  49  1   
 46  19  50  1   
 47  19  51  1   
 48  20  52  1   
 49  21  22  1   
 50  21  53  1   
 51  21  54  1   
 52  22  23  2   
 53  22  24  1   
 54  23  25  1   
 55  24  26  1   
 56  24  27  1   
 57  25  26  2   
 58  25  55  1   
 59  26  56  1   
 60  27  57  1   
 61  27  58  1   
 62  27  59  1   
@<TRIPOS>SUBSTRUCTURE
  1 ****  13 GROUP 4 **** **** 0

# MOE 2024.06 (io_trps.svl 2023.06)
