@<TRIPOS>MOLECULE
NONAME
44 47 1 0 0 
SMALL
USER_CHARGES


@<TRIPOS>ATOM
  1 O       -1.2260     0.5370     2.3450 O.2   1 <1>  -0.5700 
  2 C       -1.6070     1.0590     1.3170 C.2   1 <1>   0.6160 
  3 N       -2.2540     0.2820     0.3850 N.am  1 <1>  -0.6600 
  4 C       -1.4050     2.4690     1.1170 C.2   1 <1>   0.0290 
  5 C       -3.0730     0.7910    -0.7470 C.3   1 <1>   0.1400 
  6 C       -2.4870    -1.1730     0.5740 C.3   1 <1>   0.1400 
  7 C       -0.6970     3.0430     0.0900 C.2   1 <1>  -0.1690 
  8 C       -2.0130     3.3210     2.0900 C.2   1 <1>   0.3760 
  9 C       -4.1490    -0.2750    -0.9400 C.3   1 <1>   0.2000 
 10 C       -3.4400    -1.5800    -0.5580 C.3   1 <1>  -0.0800 
 11 N       -0.6600     4.4250     0.0350 N.pl3 1 <1>   0.6010 
 12 C        0.0730     2.2790    -0.9880 C.3   1 <1>  -0.1020 
 13 N       -1.9880     4.6120     2.0510 N.2   1 <1>  -0.5760 
 14 O       -5.1740    -0.0220    -0.0400 O.3   1 <1>  -0.6800 
 15 C       -4.3770    -2.7470    -0.1950 C.3   1 <1>   0.0200 
 16 N       -0.0770     5.2220    -0.8910 N.2   1 <1>  -0.7070 
 17 C       -1.3050     5.1700     0.9970 C.2   1 <1>  -0.0260 
 18 C       -3.6390    -4.0550     0.0400 C.2   1 <1>  -0.0400 
 19 C       -0.3520     6.4340    -0.4980 C.2   1 <1>   0.1390 
 20 C       -1.1080     6.4690     0.6620 C.2   1 <1>  -0.1500 
 21 O       -4.3100    -5.0750     0.5040 O.3   1 <1>  -0.0190 
 22 C       -2.3660    -4.4480    -0.1300 C.2   1 <1>  -0.1500 
 23 N       -3.5570    -6.1260     0.6570 N.2   1 <1>  -0.4100 
 24 C       -2.3790    -5.7770     0.2840 C.2   1 <1>   0.1080 
 25 C       -1.1770    -6.6950     0.2960 C.3   1 <1>  -0.0590 
 26 H       -3.5030     1.7570    -0.5430 H     1 <1>   0.0800 
 27 H       -2.4580     0.8480    -1.6280 H     1 <1>   0.0800 
 28 H       -1.5560    -1.7110     0.5270 H     1 <1>   0.0800 
 29 H       -2.9390    -1.3370     1.5380 H     1 <1>   0.0800 
 30 H       -2.5320     2.8440     2.9030 H     1 <1>   0.0600 
 31 H       -4.5620    -0.2850    -1.9350 H     1 <1>   0.0800 
 32 H       -2.8400    -1.8770    -1.4000 H     1 <1>   0.0800 
 33 H        1.1000     2.6010    -0.9970 H     1 <1>   0.0800 
 34 H       -0.3510     2.4820    -1.9560 H     1 <1>   0.0800 
 35 H        0.0600     1.2180    -0.8180 H     1 <1>   0.0800 
 36 H       -4.7980     0.0850     0.8560 H     1 <1>   0.4000 
 37 H       -5.0870    -2.8970    -0.9900 H     1 <1>   0.0800 
 38 H       -4.9340    -2.5100     0.6940 H     1 <1>   0.0800 
 39 H       -0.0200     7.3110    -1.0310 H     1 <1>   0.1500 
 40 H       -1.4620     7.3380     1.1830 H     1 <1>   0.1500 
 41 H       -1.5100    -3.9130    -0.4930 H     1 <1>   0.1500 
 42 H       -0.3990    -6.2700     0.9020 H     1 <1>   0.0800 
 43 H       -0.8140    -6.8330    -0.7050 H     1 <1>   0.0800 
 44 H       -1.4510    -7.6520     0.7020 H     1 <1>   0.0800 
@<TRIPOS>BOND
  1   1   2  2   
  2   2   3  am  
  3   2   4  1   
  4   3   5  1   
  5   3   6  1   
  6   4   7  2   
  7   4   8  1   
  8   5   9  1   
  9   5  26  1   
 10   5  27  1   
 11   6  10  1   
 12   6  28  1   
 13   6  29  1   
 14   7  11  1   
 15   7  12  1   
 16   8  13  2   
 17   8  30  1   
 18   9  10  1   
 19   9  14  1   
 20   9  31  1   
 21  10  15  1   
 22  10  32  1   
 23  11  16  1   
 24  11  17  1   
 25  12  33  1   
 26  12  34  1   
 27  12  35  1   
 28  13  17  1   
 29  14  36  1   
 30  15  18  1   
 31  15  37  1   
 32  15  38  1   
 33  16  19  2   
 34  17  20  2   
 35  18  21  1   
 36  18  22  2   
 37  19  20  1   
 38  19  39  1   
 39  20  40  1   
 40  21  23  1   
 41  22  24  1   
 42  22  41  1   
 43  23  24  2   
 44  24  25  1   
 45  25  42  1   
 46  25  43  1   
 47  25  44  1   
@<TRIPOS>SUBSTRUCTURE
  1 ****   3 GROUP 4 **** **** 0

# MOE 2024.06 (io_trps.svl 2023.06)
