@<TRIPOS>MOLECULE
NONAME
43 46 1 0 0 
SMALL
USER_CHARGES


@<TRIPOS>ATOM
  1 CL       3.1120     1.0740    -3.1860 Cl    1 <1>  -0.1770 
  2 C        3.2040     0.6800    -1.4850 C.ar  1 <1>   0.1770 
  3 C        3.3040     1.7140    -0.5560 C.ar  1 <1>  -0.1520 
  4 C        3.1770    -0.6290    -1.0680 C.ar  1 <1>  -0.1500 
  5 N        3.3510     3.0710    -0.7190 N.pl3 1 <1>   0.0330 
  6 C        3.3790     1.4310     0.8010 C.ar  1 <1>   0.0000 
  7 C        3.2520    -0.9200     0.3010 C.ar  1 <1>  -0.1500 
  8 C        3.4580     3.6520     0.5130 C.2   1 <1>  -0.3320 
  9 C        3.4760     2.6780     1.4610 C.2   1 <1>  -0.1810 
 10 C        3.3520     0.0960     1.2270 C.ar  1 <1>  -0.1500 
 11 C        3.5350     5.1650     0.6760 C.3   1 <1>   0.2900 
 12 C        3.5820     2.8060     2.9680 C.3   1 <1>  -0.0590 
 13 N        4.7970     5.7160     0.1570 N.3   1 <1>  -0.8100 
 14 C        5.9870     5.0080     0.7020 C.3   1 <1>   0.1100 
 15 C        4.8030     5.9180    -1.3070 C.3   1 <1>   0.1100 
 16 C        7.3540     5.7110     0.4890 C.3   1 <1>   0.2200 
 17 C        5.9410     6.8300    -1.8150 C.3   1 <1>  -0.0190 
 18 N        7.2230     7.1780     0.2790 N.am  1 <1>  -0.7300 
 19 C        8.1630     5.0710    -0.6610 C.3   1 <1>   0.1200 
 20 C        6.5220     7.7240    -0.7370 C.2   1 <1>   0.5690 
 21 C        7.0600     6.0520    -2.5250 C.3   1 <1>   0.1200 
 22 O        7.4190     4.8930    -1.8350 O.3   1 <1>  -0.5600 
 23 O        6.3850     8.9200    -0.8090 O.2   1 <1>  -0.5700 
 24 H        3.1000    -1.4240    -1.7860 H     1 <1>   0.1500 
 25 H        3.3400     3.5520    -1.6240 H     1 <1>   0.2700 
 26 H        3.2300    -1.9470     0.6200 H     1 <1>   0.1500 
 27 H        3.4090    -0.1160     2.2790 H     1 <1>   0.1500 
 28 H        3.4640     5.4160     1.7190 H     1 <1>   0.0800 
 29 H        2.6990     5.6320     0.1840 H     1 <1>   0.0800 
 30 H        4.4370     2.2570     3.3190 H     1 <1>   0.0800 
 31 H        2.6970     2.4050     3.4280 H     1 <1>   0.0800 
 32 H        3.6890     3.8320     3.2640 H     1 <1>   0.0800 
 33 H        5.8490     4.8980     1.7630 H     1 <1>   0.0800 
 34 H        6.0350     4.0130     0.2920 H     1 <1>   0.0800 
 35 H        4.8520     4.9680    -1.8080 H     1 <1>   0.0800 
 36 H        3.8720     6.3860    -1.5800 H     1 <1>   0.0800 
 37 H        7.9340     5.5660     1.3820 H     1 <1>   0.0800 
 38 H        5.5180     7.4820    -2.5560 H     1 <1>   0.0800 
 39 H        7.4610     7.7980     1.0510 H     1 <1>   0.3700 
 40 H        8.4820     4.0910    -0.3560 H     1 <1>   0.0800 
 41 H        9.0390     5.6550    -0.8850 H     1 <1>   0.0800 
 42 H        7.9340     6.6650    -2.6660 H     1 <1>   0.0800 
 43 H        6.7110     5.7350    -3.4920 H     1 <1>   0.0800 
@<TRIPOS>BOND
  1   1   2  1   
  2   2   3  ar  
  3   2   4  ar  
  4   3   5  1   
  5   3   6  ar  
  6   4   7  ar  
  7   4  24  1   
  8   5   8  1   
  9   5  25  1   
 10   6   9  1   
 11   6  10  ar  
 12   7  10  ar  
 13   7  26  1   
 14   8   9  2   
 15   8  11  1   
 16   9  12  1   
 17  10  27  1   
 18  11  13  1   
 19  11  28  1   
 20  11  29  1   
 21  12  30  1   
 22  12  31  1   
 23  12  32  1   
 24  13  14  1   
 25  13  15  1   
 26  14  16  1   
 27  14  33  1   
 28  14  34  1   
 29  15  17  1   
 30  15  35  1   
 31  15  36  1   
 32  16  18  1   
 33  16  19  1   
 34  16  37  1   
 35  17  20  1   
 36  17  21  1   
 37  17  38  1   
 38  18  20  am  
 39  18  39  1   
 40  19  22  1   
 41  19  40  1   
 42  19  41  1   
 43  20  23  2   
 44  21  22  1   
 45  21  42  1   
 46  21  43  1   
@<TRIPOS>SUBSTRUCTURE
  1 ****   8 GROUP 4 **** **** 0

# MOE 2024.06 (io_trps.svl 2023.06)
