@<TRIPOS>MOLECULE
NONAME
43 45 1 0 0 
SMALL
USER_CHARGES


@<TRIPOS>ATOM
  1 CL      -2.1020     0.3380     2.3180 Cl    1 <1>  -0.1400 
  2 C       -2.8060    -0.0720     0.7680 C.2   1 <1>   0.1540 
  3 C       -2.5190     0.7630    -0.3570 C.2   1 <1>   0.6160 
  4 C       -3.6040    -1.1670     0.6610 C.2   1 <1>  -0.1500 
  5 O       -1.8260     1.7670    -0.3380 O.2   1 <1>  -0.5700 
  6 N       -3.0810     0.3950    -1.5510 N.am  1 <1>  -0.5390 
  7 C       -4.1920    -1.5090    -0.5980 C.2   1 <1>   0.0140 
  8 C       -3.8870    -0.7100    -1.6730 C.2   1 <1>  -0.0410 
  9 C       -5.0510    -2.6630    -0.7310 C.2   1 <1>   0.6160 
 10 O       -4.9050    -3.3950    -1.6930 O.2   1 <1>  -0.5700 
 11 N       -6.0430    -2.9620     0.1840 N.am  1 <1>  -0.6600 
 12 C       -6.6390    -4.3360     0.2050 C.3   1 <1>   0.1400 
 13 C       -6.6620    -1.9330     1.0740 C.3   1 <1>   0.1400 
 14 C       -7.7710    -4.4660    -0.8220 C.3   1 <1>   0.1400 
 15 C       -8.1980    -1.9130     1.0620 C.3   1 <1>  -0.1600 
 16 N       -8.9930    -3.7340    -0.3800 N.am  1 <1>  -0.6600 
 17 C       -8.8490    -2.2590    -0.2820 C.3   1 <1>   0.1400 
 18 C      -10.1370    -4.3780     0.0700 C.2   1 <1>   0.7160 
 19 O      -11.1580    -3.7140     0.1700 O.2   1 <1>  -0.5700 
 20 C      -10.1630    -5.7960     0.4330 C.2   1 <1>   0.1410 
 21 N       -9.1450    -6.4270     1.1030 N.2   1 <1>  -0.5650 
 22 C      -11.1600    -6.7110     0.2140 C.2   1 <1>  -0.3320 
 23 C       -9.5460    -7.6410     1.2620 C.2   1 <1>   0.0360 
 24 N      -10.7660    -7.8760     0.7430 N.pl3 1 <1>   0.0330 
 25 C      -12.5040    -6.5460    -0.4800 C.3   1 <1>  -0.0600 
 26 H       -3.8020    -1.7970     1.5110 H     1 <1>   0.1500 
 27 H       -2.8390     1.0000    -2.3400 H     1 <1>   0.3700 
 28 H       -4.2810    -0.9390    -2.6520 H     1 <1>   0.1500 
 29 H       -7.0040    -4.5760     1.1880 H     1 <1>   0.0800 
 30 H       -5.8730    -5.0510    -0.0410 H     1 <1>   0.0800 
 31 H       -6.3260    -0.9580     0.7680 H     1 <1>   0.0800 
 32 H       -6.3200    -2.0930     2.0830 H     1 <1>   0.0800 
 33 H       -7.9960    -5.5070    -0.9680 H     1 <1>   0.0800 
 34 H       -7.4440    -4.0810    -1.7720 H     1 <1>   0.0800 
 35 H       -8.5090    -0.9220     1.3410 H     1 <1>   0.0800 
 36 H       -8.5760    -2.5730     1.8230 H     1 <1>   0.0800 
 37 H       -8.2620    -1.8860    -1.1040 H     1 <1>   0.0800 
 38 H       -9.8200    -1.7970    -0.3380 H     1 <1>   0.0800 
 39 H       -8.9800    -8.4090     1.7590 H     1 <1>   0.1500 
 40 H      -11.2780    -8.7620     0.7590 H     1 <1>   0.2700 
 41 H      -12.5990    -5.5630    -0.9050 H     1 <1>   0.0800 
 42 H      -13.3030    -6.6860     0.2260 H     1 <1>   0.0800 
 43 H      -12.6050    -7.2650    -1.2730 H     1 <1>   0.0800 
@<TRIPOS>BOND
  1   1   2  1   
  2   2   3  1   
  3   2   4  2   
  4   3   5  2   
  5   3   6  am  
  6   4   7  1   
  7   4  26  1   
  8   6   8  1   
  9   6  27  1   
 10   7   8  2   
 11   7   9  1   
 12   8  28  1   
 13   9  10  2   
 14   9  11  am  
 15  11  12  1   
 16  11  13  1   
 17  12  14  1   
 18  12  29  1   
 19  12  30  1   
 20  13  15  1   
 21  13  31  1   
 22  13  32  1   
 23  14  16  1   
 24  14  33  1   
 25  14  34  1   
 26  15  17  1   
 27  15  35  1   
 28  15  36  1   
 29  16  17  1   
 30  16  18  am  
 31  17  37  1   
 32  17  38  1   
 33  18  19  2   
 34  18  20  1   
 35  20  21  1   
 36  20  22  2   
 37  21  23  2   
 38  22  24  1   
 39  22  25  1   
 40  23  24  1   
 41  23  39  1   
 42  24  40  1   
 43  25  41  1   
 44  25  42  1   
 45  25  43  1   
@<TRIPOS>SUBSTRUCTURE
  1 ****  11 GROUP 4 **** **** 0

# MOE 2024.06 (io_trps.svl 2023.06)
