@<TRIPOS>MOLECULE
NONAME
36 37 1 0 0 
SMALL
USER_CHARGES


@<TRIPOS>ATOM
  1 O       -0.7910     0.7560     1.6720 O.2   1 <1>  -0.5700 
  2 C       -1.2950     0.5500     0.5880 C.2   1 <1>   0.7800 
  3 O       -1.2500     1.4400    -0.4010 O.3   1 <1>  -0.4300 
  4 N       -1.9400    -0.5970     0.3040 N.am  1 <1>  -0.7300 
  5 C       -0.6380     2.7120    -0.3720 C.3   1 <1>   0.2800 
  6 C       -2.2110    -1.6770     1.2620 C.3   1 <1>   0.2840 
  7 C       -1.3090     3.6000     0.6830 C.3   1 <1>  -0.2400 
  8 C       -0.8830     3.3050    -1.7600 C.3   1 <1>  -0.2400 
  9 C        0.8710     2.5690    -0.1420 C.3   1 <1>  -0.2400 
 10 C       -3.6090    -2.2010     0.9960 C.ar  1 <1>  -0.1440 
 11 C       -3.7930    -3.3180     0.1990 C.ar  1 <1>  -0.1500 
 12 C       -4.7120    -1.5650     1.5410 C.ar  1 <1>  -0.1500 
 13 C       -5.0620    -3.8340    -0.0760 C.ar  1 <1>   0.0410 
 14 C       -5.9830    -2.0510     1.2900 C.ar  1 <1>  -0.1500 
 15 C       -5.2360    -5.0040    -0.9170 C.2   1 <1>   0.6960 
 16 C       -6.1510    -3.1690     0.4940 C.ar  1 <1>  -0.1500 
 17 N       -4.2640    -5.6470    -1.4910 N.2   1 <1>  -0.6190 
 18 N       -6.3850    -5.5490    -1.2020 N.2   1 <1>  -0.6190 
 19 N       -4.8080    -6.6080    -2.1440 N.2   1 <1>  -0.2500 
 20 N       -6.0980    -6.5490    -1.9690 N.2   1 <1>  -0.2500 
 21 H       -2.3990    -0.6830    -0.6010 H     1 <1>   0.3700 
 22 H       -2.1360    -1.3090     2.2710 H     1 <1>   0.0800 
 23 H       -1.4860    -2.4610     1.1290 H     1 <1>   0.0800 
 24 H       -2.3730     3.6220     0.5320 H     1 <1>   0.0800 
 25 H       -0.9340     4.6050     0.6080 H     1 <1>   0.0800 
 26 H       -1.0990     3.2500     1.6760 H     1 <1>   0.0800 
 27 H       -1.9380     3.3910    -1.9480 H     1 <1>   0.0800 
 28 H       -0.4410     2.6810    -2.5150 H     1 <1>   0.0800 
 29 H       -0.4450     4.2850    -1.8310 H     1 <1>   0.0800 
 30 H        1.0810     2.2200     0.8520 H     1 <1>   0.0800 
 31 H        1.3510     3.5240    -0.2580 H     1 <1>   0.0800 
 32 H        1.2950     1.8850    -0.8550 H     1 <1>   0.0800 
 33 H       -2.9420    -3.8180    -0.2330 H     1 <1>   0.1500 
 34 H       -4.5850    -0.6910     2.1570 H     1 <1>   0.1500 
 35 H       -6.8420    -1.5600     1.7120 H     1 <1>   0.1500 
 36 H       -7.1410    -3.5460     0.2990 H     1 <1>   0.1500 
@<TRIPOS>BOND
  1   1   2  2   
  2   2   3  1   
  3   2   4  am  
  4   3   5  1   
  5   4   6  1   
  6   4  21  1   
  7   5   7  1   
  8   5   8  1   
  9   5   9  1   
 10   6  10  1   
 11   6  22  1   
 12   6  23  1   
 13   7  24  1   
 14   7  25  1   
 15   7  26  1   
 16   8  27  1   
 17   8  28  1   
 18   8  29  1   
 19   9  30  1   
 20   9  31  1   
 21   9  32  1   
 22  10  11  ar  
 23  10  12  ar  
 24  11  13  ar  
 25  11  33  1   
 26  12  14  ar  
 27  12  34  1   
 28  13  15  1   
 29  13  16  ar  
 30  14  16  ar  
 31  14  35  1   
 32  15  17  1   
 33  15  18  2   
 34  16  36  1   
 35  17  19  1   
 36  18  20  1   
 37  19  20  2   
@<TRIPOS>SUBSTRUCTURE
  1 ****  10 GROUP 4 **** **** 0

# MOE 2024.06 (io_trps.svl 2023.06)
