@<TRIPOS>MOLECULE
NONAME
60 63 1 0 0 
SMALL
USER_CHARGES


@<TRIPOS>ATOM
  1 O       -5.4360    -1.1630    -0.8970 O.2   1 <1>  -0.5700 
  2 C       -4.3520    -0.7320    -0.5820 C.2   1 <1>   0.5690 
  3 N       -4.1300     0.2590     0.3090 N.am  1 <1>  -0.6600 
  4 C       -3.0570    -1.2440    -1.1470 C.3   1 <1>  -0.0990 
  5 C       -2.6990     0.5410     0.5090 C.3   1 <1>   0.1400 
  6 C       -5.1740     0.8700     1.1590 C.3   1 <1>   0.1400 
  7 C       -2.0090    -0.2520    -0.6100 C.3   1 <1>  -0.1600 
  8 C       -5.9450     1.9100     0.3420 C.3   1 <1>  -0.0990 
  9 C       -7.1950     2.4000     1.0480 C.2   1 <1>   0.5690 
 10 O       -7.5850     1.8180     2.0330 O.2   1 <1>  -0.5700 
 11 N       -7.9610     3.4150     0.5330 N.am  1 <1>  -0.6600 
 12 C       -9.0800     3.9780     1.3650 C.3   1 <1>   0.1400 
 13 C       -8.0520     3.7120    -0.9270 C.3   1 <1>   0.1400 
 14 C      -10.3950     3.1550     1.2410 C.3   1 <1>   0.4230 
 15 C       -9.4300     3.3270    -1.5130 C.3   1 <1>  -0.0800 
 16 N      -10.1370     1.8710     0.4940 N.4   1 <1>  -0.9590 
 17 C      -11.5560     4.0040     0.6590 C.3   1 <1>   0.1200 
 18 C      -10.4710     4.4630    -1.4160 C.3   1 <1>   0.1200 
 19 C       -9.9910     1.9790    -1.0060 C.3   1 <1>   0.3430 
 20 C      -11.0170     0.7440     0.8820 C.3   1 <1>   0.4860 
 21 O      -11.6120     4.0290    -0.7410 O.3   1 <1>  -0.5600 
 22 C      -10.4700    -0.5130     0.2340 C.ar  1 <1>  -0.1440 
 23 C       -9.2080    -0.9840     0.5720 C.ar  1 <1>  -0.1500 
 24 C      -11.2070    -1.1780    -0.7350 C.ar  1 <1>  -0.1500 
 25 C       -8.6800    -2.0850    -0.0760 C.ar  1 <1>  -0.1500 
 26 C      -10.6790    -2.2870    -1.3720 C.ar  1 <1>  -0.1500 
 27 C       -9.4100    -2.7400    -1.0520 C.ar  1 <1>  -0.1440 
 28 C       -8.8130    -3.9430    -1.7590 C.3   1 <1>  -0.0970 
 29 H       -2.8830    -2.2350    -0.7740 H     1 <1>   0.0800 
 30 H       -3.0900    -1.2530    -2.2210 H     1 <1>   0.0800 
 31 H       -2.5010     1.5960     0.4260 H     1 <1>   0.0800 
 32 H       -2.3940     0.1830     1.4780 H     1 <1>   0.0800 
 33 H       -5.8430     0.0890     1.4830 H     1 <1>   0.0800 
 34 H       -4.7320     1.3210     2.0310 H     1 <1>   0.0800 
 35 H       -1.7220     0.4300    -1.3920 H     1 <1>   0.0800 
 36 H       -1.1280    -0.7520    -0.2500 H     1 <1>   0.0800 
 37 H       -6.2420     1.4520    -0.5830 H     1 <1>   0.0800 
 38 H       -5.3040     2.7460     0.1340 H     1 <1>   0.0800 
 39 H       -8.7800     3.9760     2.4000 H     1 <1>   0.0800 
 40 H       -9.2410     5.0090     1.1040 H     1 <1>   0.0800 
 41 H       -7.8560     4.7590    -1.0890 H     1 <1>   0.0800 
 42 H       -7.2930     3.1690    -1.4610 H     1 <1>   0.0800 
 43 H      -10.6740     2.9090     2.2510 H     1 <1>   0.0800 
 44 H       -9.2610     3.2000    -2.5680 H     1 <1>   0.0800 
 45 H       -9.1970     1.6010     0.8340 H     1 <1>   0.4500 
 46 H      -11.5060     5.0190     1.0140 H     1 <1>   0.0800 
 47 H      -12.4910     3.5930     0.9950 H     1 <1>   0.0800 
 48 H      -10.7900     4.7410    -2.4070 H     1 <1>   0.0800 
 49 H      -10.0870     5.3480    -0.9370 H     1 <1>   0.0800 
 50 H       -9.3530     1.1800    -1.3510 H     1 <1>   0.0800 
 51 H      -10.9580     1.8340    -1.4600 H     1 <1>   0.0800 
 52 H      -11.0190     0.6220     1.9530 H     1 <1>   0.0800 
 53 H      -12.0240     0.9260     0.5460 H     1 <1>   0.0800 
 54 H       -8.6150    -0.5050     1.3310 H     1 <1>   0.1500 
 55 H      -12.1930    -0.8430    -1.0090 H     1 <1>   0.1500 
 56 H       -7.6910    -2.4300     0.1780 H     1 <1>   0.1500 
 57 H      -11.2570    -2.7980    -2.1230 H     1 <1>   0.1500 
 58 H       -7.7600    -3.7910    -1.9200 H     1 <1>   0.0800 
 59 H       -9.2830    -4.0980    -2.7130 H     1 <1>   0.0800 
 60 H       -8.9480    -4.8230    -1.1570 H     1 <1>   0.0800 
@<TRIPOS>BOND
  1   1   2  2   
  2   2   3  am  
  3   2   4  1   
  4   3   5  1   
  5   3   6  1   
  6   4   7  1   
  7   4  29  1   
  8   4  30  1   
  9   5   7  1   
 10   5  31  1   
 11   5  32  1   
 12   6   8  1   
 13   6  33  1   
 14   6  34  1   
 15   7  35  1   
 16   7  36  1   
 17   8   9  1   
 18   8  37  1   
 19   8  38  1   
 20   9  10  2   
 21   9  11  am  
 22  11  12  1   
 23  11  13  1   
 24  12  14  1   
 25  12  39  1   
 26  12  40  1   
 27  13  15  1   
 28  13  41  1   
 29  13  42  1   
 30  14  16  1   
 31  14  17  1   
 32  14  43  1   
 33  15  18  1   
 34  15  19  1   
 35  15  44  1   
 36  16  19  1   
 37  16  20  1   
 38  16  45  1   
 39  17  21  1   
 40  17  46  1   
 41  17  47  1   
 42  18  21  1   
 43  18  48  1   
 44  18  49  1   
 45  19  50  1   
 46  19  51  1   
 47  20  22  1   
 48  20  52  1   
 49  20  53  1   
 50  22  23  ar  
 51  22  24  ar  
 52  23  25  ar  
 53  23  54  1   
 54  24  26  ar  
 55  24  55  1   
 56  25  27  ar  
 57  25  56  1   
 58  26  27  ar  
 59  26  57  1   
 60  27  28  1   
 61  28  58  1   
 62  28  59  1   
 63  28  60  1   
@<TRIPOS>SUBSTRUCTURE
  1 ****   9 GROUP 4 **** **** 0

# MOE 2024.06 (io_trps.svl 2023.06)
