@<TRIPOS>MOLECULE
NONAME
43 44 1 0 0 
SMALL
USER_CHARGES


@<TRIPOS>ATOM
  1 CL      -0.6020    -1.3450     0.3930 Cl    1 <1>  -0.1770 
  2 C       -2.2530    -1.7700     0.0200 C.ar  1 <1>   0.1770 
  3 C       -2.6360    -3.0960     0.0750 C.ar  1 <1>  -0.1500 
  4 C       -3.1450    -0.7700    -0.3230 C.ar  1 <1>  -0.1500 
  5 C       -3.9540    -3.4300    -0.2200 C.ar  1 <1>   0.0830 
  6 C       -4.4550    -1.1050    -0.6190 C.ar  1 <1>  -0.1500 
  7 O       -4.4410    -4.6950    -0.1970 O.3   1 <1>  -0.3630 
  8 C       -4.8530    -2.4310    -0.5660 C.ar  1 <1>  -0.1500 
  9 C       -3.7560    -5.7990     0.3810 C.3   1 <1>   0.2610 
 10 C       -4.3400    -7.1400    -0.1130 C.2   1 <1>   0.5690 
 11 C       -3.7840    -5.6770     1.9140 C.3   1 <1>  -0.2400 
 12 O       -3.5250    -7.9920    -0.3940 O.2   1 <1>  -0.5700 
 13 N       -5.6900    -7.3970    -0.2300 N.am  1 <1>  -0.6600 
 14 C       -6.1610    -8.7240    -0.7510 C.3   1 <1>   0.3210 
 15 C       -6.7890    -6.4470     0.1380 C.3   1 <1>   0.1400 
 16 C       -7.0030    -9.4730     0.2770 C.2   1 <1>   0.0460 
 17 C       -7.3900    -5.7940    -1.1110 C.3   1 <1>   0.1200 
 18 N       -8.3520    -9.4050     0.2570 N.2   1 <1>  -0.5650 
 19 C       -6.5760   -10.2660     1.2890 C.2   1 <1>  -0.3320 
 20 O       -8.4360    -4.9610    -0.7370 O.3   1 <1>  -0.6800 
 21 C       -8.7140   -10.1540     1.2470 C.2   1 <1>   0.0360 
 22 N       -7.6810   -10.7070     1.9150 N.pl3 1 <1>   0.0330 
 23 C       -5.1680   -10.6420     1.7190 C.3   1 <1>  -0.0600 
 24 H       -1.9020    -3.8290     0.3430 H     1 <1>   0.1500 
 25 H       -2.8150     0.2530    -0.3570 H     1 <1>   0.1500 
 26 H       -5.1630    -0.3400    -0.8880 H     1 <1>   0.1500 
 27 H       -5.8710    -2.7000    -0.7930 H     1 <1>   0.1500 
 28 H       -2.7400    -5.7660     0.0340 H     1 <1>   0.0800 
 29 H       -4.7910    -5.7150     2.2830 H     1 <1>   0.0800 
 30 H       -3.3210    -4.7630     2.2360 H     1 <1>   0.0800 
 31 H       -3.2390    -6.4990     2.3440 H     1 <1>   0.0800 
 32 H       -5.3290    -9.3460    -1.0230 H     1 <1>   0.0800 
 33 H       -6.7470    -8.5740    -1.6400 H     1 <1>   0.0800 
 34 H       -6.4230    -5.6770     0.7890 H     1 <1>   0.0800 
 35 H       -7.5580    -6.9740     0.6720 H     1 <1>   0.0800 
 36 H       -7.7810    -6.5340    -1.7870 H     1 <1>   0.0800 
 37 H       -6.6520    -5.1930    -1.6130 H     1 <1>   0.0800 
 38 H       -9.1780    -5.4890    -0.3810 H     1 <1>   0.4000 
 39 H       -9.7370   -10.3340     1.5280 H     1 <1>   0.1500 
 40 H       -7.7330   -11.3300     2.7260 H     1 <1>   0.2700 
 41 H       -4.4390   -10.1620     1.0890 H     1 <1>   0.0800 
 42 H       -5.0290   -11.7060     1.6490 H     1 <1>   0.0800 
 43 H       -4.9940   -10.3300     2.7330 H     1 <1>   0.0800 
@<TRIPOS>BOND
  1   1   2  1   
  2   2   3  ar  
  3   2   4  ar  
  4   3   5  ar  
  5   3  24  1   
  6   4   6  ar  
  7   4  25  1   
  8   5   7  1   
  9   5   8  ar  
 10   6   8  ar  
 11   6  26  1   
 12   7   9  1   
 13   8  27  1   
 14   9  10  1   
 15   9  11  1   
 16   9  28  1   
 17  10  12  2   
 18  10  13  am  
 19  11  29  1   
 20  11  30  1   
 21  11  31  1   
 22  13  14  1   
 23  13  15  1   
 24  14  16  1   
 25  14  32  1   
 26  14  33  1   
 27  15  17  1   
 28  15  34  1   
 29  15  35  1   
 30  16  18  1   
 31  16  19  2   
 32  17  20  1   
 33  17  36  1   
 34  17  37  1   
 35  18  21  2   
 36  19  22  1   
 37  19  23  1   
 38  20  38  1   
 39  21  22  1   
 40  21  39  1   
 41  22  40  1   
 42  23  41  1   
 43  23  42  1   
 44  23  43  1   
@<TRIPOS>SUBSTRUCTURE
  1 ****  10 GROUP 4 **** **** 0

# MOE 2024.06 (io_trps.svl 2023.06)
