@<TRIPOS>MOLECULE
NONAME
57 59 1 0 0 
SMALL
USER_CHARGES


@<TRIPOS>ATOM
  1 O       -2.1820     0.6650    -2.7600 O.2   1 <1>  -0.5700 
  2 C       -2.2700     1.1970    -1.6770 C.2   1 <1>   0.5690 
  3 N       -2.5410     0.4400    -0.5580 N.am  1 <1>  -0.6600 
  4 C       -2.0960     2.7140    -1.6220 C.3   1 <1>   0.1810 
  5 C       -2.6000    -1.0500    -0.7050 C.3   1 <1>   0.1400 
  6 C       -2.7210     1.0170     0.8170 C.3   1 <1>   0.1400 
  7 O       -1.0760     3.0840    -0.7030 O.3   1 <1>  -0.3620 
  8 C       -3.2880    -1.7340     0.4940 C.3   1 <1>   0.4230 
  9 C       -3.9060     0.3970     1.5940 C.3   1 <1>  -0.1600 
 10 C       -0.7990     4.3910    -0.4600 C.ar  1 <1>   0.0820 
 11 N       -3.5540    -3.2320     0.3600 N.4   1 <1>  -0.9590 
 12 C       -4.5040    -0.8950     0.9770 C.3   1 <1>   0.0000 
 13 C        0.2000     4.6530     0.4650 C.ar  1 <1>  -0.1500 
 14 C       -1.4550     5.4530    -1.0780 C.ar  1 <1>  -0.1500 
 15 C       -4.9960    -3.6040     0.2910 C.3   1 <1>   0.3430 
 16 C       -2.7830    -3.9120    -0.7330 C.3   1 <1>   0.2630 
 17 C       -5.2340    -1.7210     2.0620 C.3   1 <1>  -0.1600 
 18 C       -5.4800    -0.4950    -0.1760 C.3   1 <1>   0.1200 
 19 C        0.5470     5.9550     0.7810 C.ar  1 <1>  -0.1500 
 20 C       -1.1080     6.7550    -0.7600 C.ar  1 <1>  -0.1500 
 21 C       -5.7560    -3.0650     1.5130 C.3   1 <1>  -0.1600 
 22 O       -6.5880     0.1760     0.3180 O.3   1 <1>  -0.6800 
 23 C       -0.1120     7.0170     0.1660 C.ar  1 <1>   0.0820 
 24 O        0.1600     8.3250     0.4140 O.3   1 <1>  -0.3620 
 25 C        1.1660     8.7000     1.3260 C.3   1 <1>   0.1200 
 26 C        1.2200    10.2240     1.3680 C.3   1 <1>  -0.2400 
 27 H       -3.0190     3.1690    -1.3140 H     1 <1>   0.0800 
 28 H       -1.8160     3.0780    -2.5940 H     1 <1>   0.0800 
 29 H       -3.1440    -1.2820    -1.6050 H     1 <1>   0.0800 
 30 H       -1.5930    -1.4150    -0.8080 H     1 <1>   0.0800 
 31 H       -1.8090     0.8550     1.3670 H     1 <1>   0.0800 
 32 H       -2.8710     2.0810     0.7670 H     1 <1>   0.0800 
 33 H       -2.5640    -1.6520     1.2880 H     1 <1>   0.0800 
 34 H       -3.5580     0.2010     2.5930 H     1 <1>   0.0800 
 35 H       -4.6730     1.1460     1.7000 H     1 <1>   0.0800 
 36 H       -3.2270    -3.6360     1.2490 H     1 <1>   0.4500 
 37 H        0.7070     3.8300     0.9340 H     1 <1>   0.1500 
 38 H       -2.2300     5.2950    -1.8030 H     1 <1>   0.1500 
 39 H       -5.4240    -3.2010    -0.6120 H     1 <1>   0.0800 
 40 H       -5.1040    -4.6760     0.2500 H     1 <1>   0.0800 
 41 H       -3.1010    -3.5510    -1.6990 H     1 <1>   0.0800 
 42 H       -2.9430    -4.9780    -0.6970 H     1 <1>   0.0800 
 43 H       -1.7270    -3.7230    -0.6240 H     1 <1>   0.0800 
 44 H       -4.5440    -1.9290     2.8630 H     1 <1>   0.0800 
 45 H       -6.0440    -1.1600     2.4980 H     1 <1>   0.0800 
 46 H       -5.8410    -1.3380    -0.7310 H     1 <1>   0.0800 
 47 H       -5.0130     0.1750    -0.8760 H     1 <1>   0.0800 
 48 H        1.3250     6.1210     1.5010 H     1 <1>   0.1500 
 49 H       -1.6090     7.5810    -1.2310 H     1 <1>   0.1500 
 50 H       -6.7900    -2.9570     1.2310 H     1 <1>   0.0800 
 51 H       -5.7320    -3.8000     2.2990 H     1 <1>   0.0800 
 52 H       -7.1370    -0.3910     0.8940 H     1 <1>   0.4000 
 53 H        0.9150     8.3020     2.2940 H     1 <1>   0.0800 
 54 H        2.1040     8.2960     0.9850 H     1 <1>   0.0800 
 55 H        0.2730    10.6170     1.6930 H     1 <1>   0.0800 
 56 H        1.4540    10.6110     0.3930 H     1 <1>   0.0800 
 57 H        1.9800    10.5430     2.0570 H     1 <1>   0.0800 
@<TRIPOS>BOND
  1   1   2  2   
  2   2   3  am  
  3   2   4  1   
  4   3   5  1   
  5   3   6  1   
  6   4   7  1   
  7   4  27  1   
  8   4  28  1   
  9   5   8  1   
 10   5  29  1   
 11   5  30  1   
 12   6   9  1   
 13   6  31  1   
 14   6  32  1   
 15   7  10  1   
 16   8  11  1   
 17   8  12  1   
 18   8  33  1   
 19   9  12  1   
 20   9  34  1   
 21   9  35  1   
 22  10  13  ar  
 23  10  14  ar  
 24  11  15  1   
 25  11  16  1   
 26  11  36  1   
 27  12  17  1   
 28  12  18  1   
 29  13  19  ar  
 30  13  37  1   
 31  14  20  ar  
 32  14  38  1   
 33  15  21  1   
 34  15  39  1   
 35  15  40  1   
 36  16  41  1   
 37  16  42  1   
 38  16  43  1   
 39  17  21  1   
 40  17  44  1   
 41  17  45  1   
 42  18  22  1   
 43  18  46  1   
 44  18  47  1   
 45  19  23  ar  
 46  19  48  1   
 47  20  23  ar  
 48  20  49  1   
 49  21  50  1   
 50  21  51  1   
 51  22  52  1   
 52  23  24  1   
 53  24  25  1   
 54  25  26  1   
 55  25  53  1   
 56  25  54  1   
 57  26  55  1   
 58  26  56  1   
 59  26  57  1   
@<TRIPOS>SUBSTRUCTURE
  1 ****   6 GROUP 4 **** **** 0

# MOE 2024.06 (io_trps.svl 2023.06)
