@<TRIPOS>MOLECULE
NONAME
44 47 1 0 0 
SMALL
USER_CHARGES


@<TRIPOS>ATOM
  1 F       -0.1770     2.0630     1.5520 F     1 <1>  -0.1900 
  2 C       -0.9830     2.0140     0.5150 C.ar  1 <1>   0.1900 
  3 C       -1.3660     3.1980    -0.1060 C.ar  1 <1>   0.1000 
  4 C       -1.4210     0.7850     0.0640 C.ar  1 <1>   0.1600 
  5 N       -0.9400     4.4550     0.3170 N.pl3 1 <1>  -0.8690 
  6 C       -2.2250     3.0230    -1.1800 C.ar  1 <1>  -0.1500 
  7 N       -2.2330     0.6230    -0.9760 N.ar  1 <1>  -0.6200 
  8 C       -0.4430     5.4670    -0.6400 C.3   1 <1>   0.2890 
  9 C       -2.6150     1.7510    -1.5640 C.ar  1 <1>   0.1600 
 10 C        1.0820     5.7360    -0.4300 C.3   1 <1>   0.0000 
 11 C       -1.3580     6.6830    -0.4810 C.3   1 <1>  -0.2400 
 12 C        1.5980     6.7810    -1.4560 C.3   1 <1>  -0.1600 
 13 C        1.8820     4.4230    -0.6580 C.3   1 <1>  -0.1600 
 14 C        1.4150     6.2600     0.9950 C.3   1 <1>  -0.1600 
 15 C        3.1070     7.0010    -1.2830 C.3   1 <1>   0.2800 
 16 C        3.3970     4.6460    -0.4970 C.3   1 <1>  -0.0800 
 17 C        2.9300     6.4920     1.1630 C.3   1 <1>  -0.0800 
 18 O        3.5270     7.9350    -2.1980 O.3   1 <1>  -0.6800 
 19 C        3.8660     5.6910    -1.5250 C.3   1 <1>  -0.1600 
 20 C        3.4000     7.5290     0.1260 C.3   1 <1>  -0.1600 
 21 C        3.6770     5.1660     0.9260 C.3   1 <1>  -0.1600 
 22 H       -1.0910    -0.1000     0.5780 H     1 <1>   0.1500 
 23 H       -0.3600     4.4380     1.1630 H     1 <1>   0.4000 
 24 H       -2.5940     3.8800    -1.7090 H     1 <1>   0.1500 
 25 H       -0.5700     5.0900    -1.6410 H     1 <1>   0.0800 
 26 H       -3.2820     1.6520    -2.4040 H     1 <1>   0.1500 
 27 H       -1.2770     7.1020     0.5040 H     1 <1>   0.0800 
 28 H       -2.3790     6.3850    -0.6410 H     1 <1>   0.0800 
 29 H       -1.1220     7.4400    -1.2040 H     1 <1>   0.0800 
 30 H        1.1030     7.7230    -1.3070 H     1 <1>   0.0800 
 31 H        1.3920     6.4390    -2.4540 H     1 <1>   0.0800 
 32 H        1.6790     4.0370    -1.6420 H     1 <1>   0.0800 
 33 H        1.5730     3.6730     0.0470 H     1 <1>   0.0800 
 34 H        1.0890     5.5550     1.7390 H     1 <1>   0.0800 
 35 H        0.9030     7.1870     1.1810 H     1 <1>   0.0800 
 36 H        3.9210     3.7180    -0.6540 H     1 <1>   0.0800 
 37 H        3.1350     6.8530     2.1560 H     1 <1>   0.0800 
 38 H        3.4070     7.5850    -3.0980 H     1 <1>   0.4000 
 39 H        4.9240     5.8560    -1.4140 H     1 <1>   0.0800 
 40 H        3.6780     5.3270    -2.5190 H     1 <1>   0.0800 
 41 H        2.8860     8.4610     0.2820 H     1 <1>   0.0800 
 42 H        4.4560     7.7020     0.2370 H     1 <1>   0.0800 
 43 H        4.7350     5.3160     1.0570 H     1 <1>   0.0800 
 44 H        3.3610     4.4350     1.6500 H     1 <1>   0.0800 
@<TRIPOS>BOND
  1   1   2  1   
  2   2   3  ar  
  3   2   4  ar  
  4   3   5  1   
  5   3   6  ar  
  6   4   7  ar  
  7   4  22  1   
  8   5   8  1   
  9   5  23  1   
 10   6   9  ar  
 11   6  24  1   
 12   7   9  ar  
 13   8  10  1   
 14   8  11  1   
 15   8  25  1   
 16   9  26  1   
 17  10  12  1   
 18  10  13  1   
 19  10  14  1   
 20  11  27  1   
 21  11  28  1   
 22  11  29  1   
 23  12  15  1   
 24  12  30  1   
 25  12  31  1   
 26  13  16  1   
 27  13  32  1   
 28  13  33  1   
 29  14  17  1   
 30  14  34  1   
 31  14  35  1   
 32  15  18  1   
 33  15  19  1   
 34  15  20  1   
 35  16  19  1   
 36  16  21  1   
 37  16  36  1   
 38  17  20  1   
 39  17  21  1   
 40  17  37  1   
 41  18  38  1   
 42  19  39  1   
 43  19  40  1   
 44  20  41  1   
 45  20  42  1   
 46  21  43  1   
 47  21  44  1   
@<TRIPOS>SUBSTRUCTURE
  1 ****  10 GROUP 4 **** **** 0

# MOE 2024.06 (io_trps.svl 2023.06)
