@<TRIPOS>MOLECULE
NONAME
38 40 1 0 0 
SMALL
USER_CHARGES


@<TRIPOS>ATOM
  1 S        0.1500    -0.2730     1.9580 S.3   1 <1>  -0.0800 
  2 C        1.2520    -1.0160     0.7890 C.2   1 <1>  -0.0450 
  3 C        0.7630     1.3310     1.6360 C.2   1 <1>  -0.1100 
  4 C        2.0170    -0.0350     0.2350 C.2   1 <1>  -0.1810 
  5 C        1.2220    -2.4500     0.6150 C.2   1 <1>   0.7150 
  6 C        1.7370     1.2810     0.7100 C.2   1 <1>  -0.1500 
  7 C        3.1050    -0.2370    -0.8070 C.3   1 <1>  -0.0590 
  8 O        2.2670    -3.0710     0.5400 O.2   1 <1>  -0.5700 
  9 N        0.0420    -3.1560     0.5000 N.am  1 <1>  -0.6600 
 10 C       -1.2690    -2.5620     0.1390 C.3   1 <1>   0.1400 
 11 C        0.0190    -4.6270     0.3030 C.3   1 <1>   0.1400 
 12 C       -2.0690    -3.7140    -0.4670 C.3   1 <1>   0.2000 
 13 C       -1.4570    -4.9850     0.1160 C.3   1 <1>  -0.0800 
 14 O       -3.4120    -3.6380    -0.1340 O.3   1 <1>  -0.6800 
 15 C       -1.7020    -6.2190    -0.7690 C.3   1 <1>  -0.0170 
 16 C       -1.1290    -7.4820    -0.1470 C.ar  1 <1>   0.1670 
 17 N        0.1630    -7.7000    -0.3350 N.ar  1 <1>  -0.6200 
 18 C       -1.9560    -8.3390     0.5780 C.ar  1 <1>   0.1600 
 19 C        0.5690    -8.8170     0.2460 C.ar  1 <1>   0.1600 
 20 N       -1.5520    -9.4550     1.1610 N.ar  1 <1>  -0.6200 
 21 C       -0.2600    -9.6650     0.9700 C.ar  1 <1>   0.1600 
 22 H        0.3290     2.1510     2.1790 H     1 <1>   0.1500 
 23 H        2.2780     2.1340     0.3400 H     1 <1>   0.1500 
 24 H        2.8980     0.3610    -1.6750 H     1 <1>   0.0800 
 25 H        3.1660    -1.2660    -1.1090 H     1 <1>   0.0800 
 26 H        4.0560     0.0540    -0.4000 H     1 <1>   0.0800 
 27 H       -1.7480    -2.1970     1.0300 H     1 <1>   0.0800 
 28 H       -1.1440    -1.7630    -0.5720 H     1 <1>   0.0800 
 29 H        0.5900    -4.8730    -0.5780 H     1 <1>   0.0800 
 30 H        0.4470    -5.1340     1.1510 H     1 <1>   0.0800 
 31 H       -1.9820    -3.6940    -1.5410 H     1 <1>   0.0800 
 32 H       -1.8660    -5.1610     1.0960 H     1 <1>   0.0800 
 33 H       -3.5230    -3.6230     0.8370 H     1 <1>   0.4000 
 34 H       -1.2550    -6.0720    -1.7370 H     1 <1>   0.0800 
 35 H       -2.7600    -6.3410    -0.9190 H     1 <1>   0.0800 
 36 H       -2.9960    -8.0890     0.6830 H     1 <1>   0.1500 
 37 H        1.6080    -9.0740     0.1450 H     1 <1>   0.1500 
 38 H        0.1630   -10.5520     1.4060 H     1 <1>   0.1500 
@<TRIPOS>BOND
  1   1   2  1   
  2   1   3  1   
  3   2   4  2   
  4   2   5  1   
  5   3   6  2   
  6   3  22  1   
  7   4   6  1   
  8   4   7  1   
  9   5   8  2   
 10   5   9  am  
 11   6  23  1   
 12   7  24  1   
 13   7  25  1   
 14   7  26  1   
 15   9  10  1   
 16   9  11  1   
 17  10  12  1   
 18  10  27  1   
 19  10  28  1   
 20  11  13  1   
 21  11  29  1   
 22  11  30  1   
 23  12  13  1   
 24  12  14  1   
 25  12  31  1   
 26  13  15  1   
 27  13  32  1   
 28  14  33  1   
 29  15  16  1   
 30  15  34  1   
 31  15  35  1   
 32  16  17  ar  
 33  16  18  ar  
 34  17  19  ar  
 35  18  20  ar  
 36  18  36  1   
 37  19  21  ar  
 38  19  37  1   
 39  20  21  ar  
 40  21  38  1   
@<TRIPOS>SUBSTRUCTURE
  1 ****  11 GROUP 4 **** **** 0

# MOE 2024.06 (io_trps.svl 2023.06)
