@<TRIPOS>MOLECULE
NONAME
49 52 1 0 0 
SMALL
USER_CHARGES


@<TRIPOS>ATOM
  1 O        1.0040    -1.2750    -0.5340 O.3   1 <1>  -0.3630 
  2 C        0.6480    -2.4770    -0.0720 C.ar  1 <1>   0.0830 
  3 C        0.0880    -0.3330     0.0230 C.3   1 <1>   0.4000 
  4 C       -0.4440    -2.3640     0.7350 C.ar  1 <1>   0.0830 
  5 C        1.2400    -3.6960    -0.3240 C.ar  1 <1>  -0.1500 
  6 O       -0.8280    -1.0860     0.8190 O.3   1 <1>  -0.3630 
  7 C       -1.0120    -3.4650     1.3410 C.ar  1 <1>  -0.1500 
  8 C        0.6820    -4.8280     0.2730 C.ar  1 <1>   0.0830 
  9 C       -0.4390    -4.7110     1.1020 C.ar  1 <1>  -0.1440 
 10 O        1.1790    -6.0790     0.0780 O.3   1 <1>  -0.3630 
 11 C       -1.0460    -5.9450     1.7420 C.3   1 <1>   0.4870 
 12 C        2.1870    -6.3130    -0.8850 C.3   1 <1>   0.0400 
 13 N       -1.6410    -6.8140     0.6960 N.4   1 <1>  -0.9590 
 14 C       -2.4890    -6.1290    -0.3310 C.3   1 <1>   0.3430 
 15 C       -2.3960    -7.9890     1.1870 C.3   1 <1>   0.3430 
 16 C       -3.6820    -7.0640    -0.5870 C.3   1 <1>   0.2000 
 17 C       -3.2450    -8.4140    -0.0160 C.3   1 <1>  -0.0800 
 18 O       -4.7920    -6.6170     0.1220 O.3   1 <1>  -0.6800 
 19 C       -2.4600    -9.2280    -1.0800 C.3   1 <1>   0.0210 
 20 C       -1.1270    -9.7660    -0.5920 C.2   1 <1>   0.1080 
 21 N       -0.0820    -9.0090    -0.4360 N.2   1 <1>  -0.7070 
 22 C       -0.8750   -11.0900    -0.2550 C.2   1 <1>  -0.1500 
 23 N        0.8830    -9.8510    -0.0060 N.pl3 1 <1>   0.3000 
 24 C        0.4210   -11.1110     0.1200 C.2   1 <1>  -0.3320 
 25 C        1.2630   -12.2850     0.5880 C.3   1 <1>  -0.0600 
 26 H        0.6200     0.3630     0.6470 H     1 <1>   0.0800 
 27 H       -0.4440     0.1660    -0.7670 H     1 <1>   0.0800 
 28 H        2.1020    -3.7280    -0.9620 H     1 <1>   0.1500 
 29 H       -1.8710    -3.3290     1.9750 H     1 <1>   0.1500 
 30 H       -1.8040    -5.6460     2.4470 H     1 <1>   0.0800 
 31 H       -0.2780    -6.4860     2.2710 H     1 <1>   0.0800 
 32 H        2.3640    -7.3710    -0.9390 H     1 <1>   0.0800 
 33 H        3.0870    -5.8070    -0.5810 H     1 <1>   0.0800 
 34 H        1.8500    -5.9550    -1.8420 H     1 <1>   0.0800 
 35 H       -0.8260    -7.2240     0.1810 H     1 <1>   0.4500 
 36 H       -2.8340    -5.1670     0.0100 H     1 <1>   0.0800 
 37 H       -1.9160    -6.0000    -1.2340 H     1 <1>   0.0800 
 38 H       -1.7370    -8.7750     1.5200 H     1 <1>   0.0800 
 39 H       -3.0410    -7.6990     1.9990 H     1 <1>   0.0800 
 40 H       -3.9570    -7.1020    -1.6280 H     1 <1>   0.0800 
 41 H       -4.0890    -8.9990     0.3090 H     1 <1>   0.0800 
 42 H       -4.6340    -6.5460     1.0820 H     1 <1>   0.4000 
 43 H       -2.2540    -8.6280    -1.9490 H     1 <1>   0.0800 
 44 H       -3.0670   -10.0520    -1.4140 H     1 <1>   0.0800 
 45 H       -1.5740   -11.9070    -0.2970 H     1 <1>   0.1500 
 46 H        1.8450    -9.5450     0.1910 H     1 <1>   0.2700 
 47 H        0.6720   -13.1840     0.6010 H     1 <1>   0.0800 
 48 H        1.6360   -12.1080     1.5810 H     1 <1>   0.0800 
 49 H        2.0960   -12.4360    -0.0770 H     1 <1>   0.0800 
@<TRIPOS>BOND
  1   1   2  1   
  2   1   3  1   
  3   2   4  ar  
  4   2   5  ar  
  5   3   6  1   
  6   3  26  1   
  7   3  27  1   
  8   4   6  1   
  9   4   7  ar  
 10   5   8  ar  
 11   5  28  1   
 12   7   9  ar  
 13   7  29  1   
 14   8   9  ar  
 15   8  10  1   
 16   9  11  1   
 17  10  12  1   
 18  11  13  1   
 19  11  30  1   
 20  11  31  1   
 21  12  32  1   
 22  12  33  1   
 23  12  34  1   
 24  13  14  1   
 25  13  15  1   
 26  13  35  1   
 27  14  16  1   
 28  14  36  1   
 29  14  37  1   
 30  15  17  1   
 31  15  38  1   
 32  15  39  1   
 33  16  17  1   
 34  16  18  1   
 35  16  40  1   
 36  17  19  1   
 37  17  41  1   
 38  18  42  1   
 39  19  20  1   
 40  19  43  1   
 41  19  44  1   
 42  20  21  2   
 43  20  22  1   
 44  21  23  1   
 45  22  24  2   
 46  22  45  1   
 47  23  24  1   
 48  23  46  1   
 49  24  25  1   
 50  25  47  1   
 51  25  48  1   
 52  25  49  1   
@<TRIPOS>SUBSTRUCTURE
  1 ****  13 GROUP 4 **** **** 0

# MOE 2024.06 (io_trps.svl 2023.06)
