@<TRIPOS>MOLECULE
NONAME
44 46 1 0 0 
SMALL
USER_CHARGES


@<TRIPOS>ATOM
  1 O        0.1170    -1.3690    -1.5380 O.2   1 <1>  -0.5700 
  2 C        1.1120    -1.9530    -1.1610 C.2   1 <1>   0.6900 
  3 N        1.2080    -2.5120     0.1030 N.am  1 <1>  -0.4690 
  4 N        2.1620    -2.0870    -2.0130 N.am  1 <1>  -0.4900 
  5 C        2.3530    -3.2120     0.4750 C.2   1 <1>  -0.0410 
  6 C        0.0200    -2.5420     1.0170 C.3   1 <1>   0.2010 
  7 C        3.2900    -2.7780    -1.6990 C.2   1 <1>   0.6160 
  8 C        3.3750    -3.3470    -0.3980 C.2   1 <1>  -0.1360 
  9 C       -0.4370    -3.9780     1.2590 C.2   1 <1>   0.5690 
 10 O        4.1600    -2.8880    -2.5360 O.2   1 <1>  -0.5700 
 11 O       -0.1250    -4.4870     2.3120 O.2   1 <1>  -0.5700 
 12 N       -1.1140    -4.6750     0.2940 N.am  1 <1>  -0.6600 
 13 C       -0.9540    -6.1660     0.2600 C.3   1 <1>   0.3640 
 14 C       -1.9420    -4.0150    -0.7640 C.3   1 <1>   0.1400 
 15 C        0.4520    -6.4890    -0.2590 C.ar  1 <1>  -0.1430 
 16 C       -2.0240    -6.9370    -0.5690 C.3   1 <1>   0.2000 
 17 C       -2.6110    -4.9990    -1.7340 C.3   1 <1>   0.1200 
 18 C        0.9510    -5.9270    -1.4290 C.ar  1 <1>  -0.1500 
 19 C        1.2580    -7.3620     0.4570 C.ar  1 <1>  -0.1500 
 20 O       -3.0610    -6.1180    -1.0420 O.3   1 <1>  -0.5600 
 21 C       -2.6750    -8.0670     0.2390 C.3   1 <1>   0.1200 
 22 C        2.2260    -6.2330    -1.8730 C.ar  1 <1>  -0.1500 
 23 C        2.5340    -7.6700     0.0160 C.ar  1 <1>  -0.1500 
 24 O       -1.7180    -8.9880     0.6600 O.3   1 <1>  -0.6800 
 25 C        3.0190    -7.1060    -1.1500 C.ar  1 <1>  -0.1500 
 26 H        2.0960    -1.6640    -2.9310 H     1 <1>   0.3700 
 27 H        2.3770    -3.6470     1.4640 H     1 <1>   0.1500 
 28 H        0.2990    -2.1070     1.9590 H     1 <1>   0.0800 
 29 H       -0.7910    -1.9640     0.6180 H     1 <1>   0.0800 
 30 H        4.2740    -3.8860    -0.1650 H     1 <1>   0.1500 
 31 H       -1.0160    -6.5200     1.2750 H     1 <1>   0.0800 
 32 H       -2.7140    -3.4390    -0.2840 H     1 <1>   0.0800 
 33 H       -1.3370    -3.3380    -1.3370 H     1 <1>   0.0800 
 34 H       -1.5570    -7.3740    -1.4340 H     1 <1>   0.0800 
 35 H       -1.9270    -5.3140    -2.5030 H     1 <1>   0.0800 
 36 H       -3.4600    -4.5340    -2.2030 H     1 <1>   0.0800 
 37 H        0.3550    -5.2410    -2.0000 H     1 <1>   0.1500 
 38 H        0.8940    -7.8060     1.3700 H     1 <1>   0.1500 
 39 H       -3.4020    -8.5880    -0.3600 H     1 <1>   0.0800 
 40 H       -3.1540    -7.6670     1.1170 H     1 <1>   0.0800 
 41 H        2.6050    -5.7910    -2.7790 H     1 <1>   0.1500 
 42 H        3.1480    -8.3480     0.5830 H     1 <1>   0.1500 
 43 H       -1.3220    -9.4560    -0.1020 H     1 <1>   0.4000 
 44 H        4.0100    -7.3440    -1.4940 H     1 <1>   0.1500 
@<TRIPOS>BOND
  1   1   2  2   
  2   2   3  am  
  3   2   4  am  
  4   3   5  1   
  5   3   6  1   
  6   4   7  am  
  7   4  26  1   
  8   5   8  2   
  9   5  27  1   
 10   6   9  1   
 11   6  28  1   
 12   6  29  1   
 13   7   8  1   
 14   7  10  2   
 15   8  30  1   
 16   9  11  2   
 17   9  12  am  
 18  12  13  1   
 19  12  14  1   
 20  13  15  1   
 21  13  16  1   
 22  13  31  1   
 23  14  17  1   
 24  14  32  1   
 25  14  33  1   
 26  15  18  ar  
 27  15  19  ar  
 28  16  20  1   
 29  16  21  1   
 30  16  34  1   
 31  17  20  1   
 32  17  35  1   
 33  17  36  1   
 34  18  22  ar  
 35  18  37  1   
 36  19  23  ar  
 37  19  38  1   
 38  21  24  1   
 39  21  39  1   
 40  21  40  1   
 41  22  25  ar  
 42  22  41  1   
 43  23  25  ar  
 44  23  42  1   
 45  24  43  1   
 46  25  44  1   
@<TRIPOS>SUBSTRUCTURE
  1 ****  18 GROUP 4 **** **** 0

# MOE 2024.06 (io_trps.svl 2023.06)
