@<TRIPOS>MOLECULE
NONAME
57 59 1 0 0 
SMALL
USER_CHARGES


@<TRIPOS>ATOM
  1 O       -0.1750     1.0010     2.5860 O.2   1 <1>  -0.5700 
  2 C       -0.1360     2.1330     2.1650 C.2   1 <1>   0.5690 
  3 N       -1.2500     2.9270     2.0990 N.am  1 <1>  -0.6600 
  4 C        1.2110     2.6660     1.6630 C.3   1 <1>   0.1810 
  5 C       -1.1680     4.3210     1.5560 C.3   1 <1>   0.3640 
  6 C       -2.5460     2.5420     2.7310 C.3   1 <1>   0.0600 
  7 O        1.2660     4.0700     1.5910 O.3   1 <1>  -0.5600 
  8 C       -2.3080     4.6290     0.5710 C.ar  1 <1>  -0.1430 
  9 C        0.1850     4.6520     0.8890 C.3   1 <1>   0.2610 
 10 C       -2.6860     3.8110    -0.5000 C.ar  1 <1>  -0.1430 
 11 C       -2.9770     5.8320     0.7650 C.ar  1 <1>  -0.1500 
 12 C        0.3400     6.1780     0.7830 C.2   1 <1>   0.5690 
 13 C       -3.7190     4.2160    -1.3330 C.ar  1 <1>  -0.1500 
 14 C       -2.0320     2.4690    -0.8190 C.3   1 <1>  -0.0960 
 15 C       -4.0020     6.2250    -0.0740 C.ar  1 <1>  -0.1500 
 16 O        0.2640     6.8310     1.8030 O.2   1 <1>  -0.5700 
 17 N        0.5420     6.7940    -0.4330 N.am  1 <1>  -0.6600 
 18 C       -4.3750     5.4140    -1.1260 C.ar  1 <1>  -0.1500 
 19 C        1.0220     8.2080    -0.4910 C.3   1 <1>   0.1400 
 20 C        0.0300     6.2470    -1.7190 C.3   1 <1>   0.1400 
 21 C        2.4250     8.3760     0.1250 C.3   1 <1>  -0.0800 
 22 C        1.1650     5.5940    -2.5010 C.3   1 <1>  -0.2400 
 23 C        2.8900     9.8360     0.0190 C.3   1 <1>  -0.1600 
 24 C        3.4830     7.4670    -0.5240 C.3   1 <1>  -0.1600 
 25 C        4.3230     9.9920     0.5430 C.3   1 <1>   0.1200 
 26 C        4.8760     7.7680     0.0360 C.3   1 <1>   0.1200 
 27 O        5.1640     9.1200    -0.1470 O.3   1 <1>  -0.5600 
 28 H        1.4120     2.2660     0.6870 H     1 <1>   0.0800 
 29 H        1.9870     2.3460     2.3340 H     1 <1>   0.0800 
 30 H       -1.2720     4.9760     2.4050 H     1 <1>   0.0800 
 31 H       -3.3310     2.5420     1.9950 H     1 <1>   0.0800 
 32 H       -2.7940     3.2440     3.5080 H     1 <1>   0.0800 
 33 H       -2.4810     1.5590     3.1630 H     1 <1>   0.0800 
 34 H        0.2040     4.2350    -0.0960 H     1 <1>   0.0800 
 35 H       -2.6990     6.4850     1.5760 H     1 <1>   0.1500 
 36 H       -4.0280     3.5950    -2.1560 H     1 <1>   0.1500 
 37 H       -2.2690     2.1550    -1.8190 H     1 <1>   0.0800 
 38 H       -2.3930     1.7170    -0.1410 H     1 <1>   0.0800 
 39 H       -0.9650     2.5200    -0.7400 H     1 <1>   0.0800 
 40 H       -4.5080     7.1600     0.0940 H     1 <1>   0.1500 
 41 H       -5.1750     5.7130    -1.7810 H     1 <1>   0.1500 
 42 H        1.0490     8.5410    -1.5140 H     1 <1>   0.0800 
 43 H        0.3230     8.8300     0.0420 H     1 <1>   0.0800 
 44 H       -0.7510     5.5310    -1.5350 H     1 <1>   0.0800 
 45 H       -0.4070     7.0410    -2.3020 H     1 <1>   0.0800 
 46 H        2.3690     8.1330     1.1720 H     1 <1>   0.0800 
 47 H        1.6500     4.8380    -1.9090 H     1 <1>   0.0800 
 48 H        1.8870     6.3330    -2.7960 H     1 <1>   0.0800 
 49 H        0.7730     5.1350    -3.3900 H     1 <1>   0.0800 
 50 H        2.2350    10.4710     0.5890 H     1 <1>   0.0800 
 51 H        2.8640    10.1640    -1.0050 H     1 <1>   0.0800 
 52 H        3.5020     7.6190    -1.5880 H     1 <1>   0.0800 
 53 H        3.2480     6.4350    -0.3360 H     1 <1>   0.0800 
 54 H        4.3820     9.7670     1.5950 H     1 <1>   0.0800 
 55 H        4.6800    10.9930     0.3780 H     1 <1>   0.0800 
 56 H        5.6250     7.1990    -0.4860 H     1 <1>   0.0800 
 57 H        4.9310     7.5420     1.0880 H     1 <1>   0.0800 
@<TRIPOS>BOND
  1   1   2  2   
  2   2   3  am  
  3   2   4  1   
  4   3   5  1   
  5   3   6  1   
  6   4   7  1   
  7   4  28  1   
  8   4  29  1   
  9   5   8  1   
 10   5   9  1   
 11   5  30  1   
 12   6  31  1   
 13   6  32  1   
 14   6  33  1   
 15   7   9  1   
 16   8  10  ar  
 17   8  11  ar  
 18   9  12  1   
 19   9  34  1   
 20  10  13  ar  
 21  10  14  1   
 22  11  15  ar  
 23  11  35  1   
 24  12  16  2   
 25  12  17  am  
 26  13  18  ar  
 27  13  36  1   
 28  14  37  1   
 29  14  38  1   
 30  14  39  1   
 31  15  18  ar  
 32  15  40  1   
 33  17  19  1   
 34  17  20  1   
 35  18  41  1   
 36  19  21  1   
 37  19  42  1   
 38  19  43  1   
 39  20  22  1   
 40  20  44  1   
 41  20  45  1   
 42  21  23  1   
 43  21  24  1   
 44  21  46  1   
 45  22  47  1   
 46  22  48  1   
 47  22  49  1   
 48  23  25  1   
 49  23  50  1   
 50  23  51  1   
 51  24  26  1   
 52  24  52  1   
 53  24  53  1   
 54  25  27  1   
 55  25  54  1   
 56  25  55  1   
 57  26  27  1   
 58  26  56  1   
 59  26  57  1   
@<TRIPOS>SUBSTRUCTURE
  1 ****  12 GROUP 4 **** **** 0

# MOE 2024.06 (io_trps.svl 2023.06)
