@<TRIPOS>MOLECULE
NONAME
50 53 1 0 0 
SMALL
USER_CHARGES


@<TRIPOS>ATOM
  1 O        3.8860    -2.8550    -0.8720 O.2   1 <1>  -0.5700 
  2 C        3.0570    -1.9770    -0.8520 C.2   1 <1>   0.5690 
  3 N        3.2540    -0.8760    -0.0520 N.am  1 <1>  -0.6600 
  4 C        1.8330    -2.1370    -1.7500 C.3   1 <1>   0.0440 
  5 C        4.2450    -0.9650     1.0590 C.3   1 <1>   0.1400 
  6 C        2.5710     0.4340    -0.2230 C.3   1 <1>   0.1400 
  7 C        0.5220    -1.8200    -1.0380 C.ar  1 <1>  -0.1440 
  8 C        5.6620    -0.7040     0.5280 C.3   1 <1>   0.3430 
  9 C        3.5780     1.5920    -0.2300 C.3   1 <1>  -0.1600 
 10 C       -0.3580    -0.8770    -1.5520 C.ar  1 <1>   0.1600 
 11 C        0.1910    -2.4610     0.1400 C.ar  1 <1>  -0.1500 
 12 N        5.8960     0.7130     0.0760 N.4   1 <1>  -0.9590 
 13 C        4.9070     1.2490    -0.9130 C.3   1 <1>   0.3430 
 14 N       -1.4940    -0.5100    -0.9840 N.ar  1 <1>  -0.6200 
 15 C       -0.9970    -2.1010     0.7380 C.ar  1 <1>  -0.1500 
 16 C        7.2860     0.8690    -0.4320 C.3   1 <1>   0.5230 
 17 C       -1.7890    -1.1330     0.1450 C.ar  1 <1>   0.1600 
 18 C        7.6090     2.3500    -0.4540 C.2   1 <1>  -0.0400 
 19 O        7.3470     3.0490     0.6480 O.3   1 <1>  -0.2800 
 20 C        8.1150     3.1380    -1.4230 C.2   1 <1>  -0.1500 
 21 C        7.6890     4.3160     0.4030 C.ar  1 <1>   0.1400 
 22 C        8.1780     4.4390    -0.8850 C.ar  1 <1>   0.0000 
 23 C        7.5940     5.4040     1.2610 C.ar  1 <1>  -0.1500 
 24 C        8.5890     5.6900    -1.3460 C.ar  1 <1>  -0.1500 
 25 C        8.0020     6.6380     0.7980 C.ar  1 <1>  -0.1500 
 26 C        8.4970     6.7780    -0.5020 C.ar  1 <1>  -0.1500 
 27 H        1.7940    -3.1550    -2.0950 H     1 <1>   0.0800 
 28 H        1.9590    -1.5110    -2.6130 H     1 <1>   0.0800 
 29 H        4.2110    -1.9590     1.4730 H     1 <1>   0.0800 
 30 H        3.9960    -0.2790     1.8500 H     1 <1>   0.0800 
 31 H        1.8460     0.5700     0.5640 H     1 <1>   0.0800 
 32 H        2.0410     0.4440    -1.1590 H     1 <1>   0.0800 
 33 H        5.8380    -1.3850    -0.2900 H     1 <1>   0.0800 
 34 H        6.3640    -0.9460     1.3090 H     1 <1>   0.0800 
 35 H        3.7450     1.9500     0.7690 H     1 <1>   0.0800 
 36 H        3.1210     2.4030    -0.7700 H     1 <1>   0.0800 
 37 H       -0.1170    -0.3880    -2.4810 H     1 <1>   0.1500 
 38 H        0.8290    -3.2100     0.5790 H     1 <1>   0.1500 
 39 H        5.8610     1.3410     0.8920 H     1 <1>   0.4500 
 40 H        5.2980     2.1560    -1.3460 H     1 <1>   0.0800 
 41 H        4.7460     0.5390    -1.7090 H     1 <1>   0.0800 
 42 H       -1.3100    -2.5650     1.6560 H     1 <1>   0.1500 
 43 H        7.3850     0.4440    -1.4170 H     1 <1>   0.0800 
 44 H        7.9780     0.3770     0.2310 H     1 <1>   0.0800 
 45 H       -2.7140    -0.8580     0.6230 H     1 <1>   0.1500 
 46 H        8.4280     2.8940    -2.4230 H     1 <1>   0.1500 
 47 H        7.2130     5.2740     2.2580 H     1 <1>   0.1500 
 48 H        8.9720     5.7940    -2.3460 H     1 <1>   0.1500 
 49 H        7.9430     7.5040     1.4360 H     1 <1>   0.1500 
 50 H        8.8110     7.7510    -0.8410 H     1 <1>   0.1500 
@<TRIPOS>BOND
  1   1   2  2   
  2   2   3  am  
  3   2   4  1   
  4   3   5  1   
  5   3   6  1   
  6   4   7  1   
  7   4  27  1   
  8   4  28  1   
  9   5   8  1   
 10   5  29  1   
 11   5  30  1   
 12   6   9  1   
 13   6  31  1   
 14   6  32  1   
 15   7  10  ar  
 16   7  11  ar  
 17   8  12  1   
 18   8  33  1   
 19   8  34  1   
 20   9  13  1   
 21   9  35  1   
 22   9  36  1   
 23  10  14  ar  
 24  10  37  1   
 25  11  15  ar  
 26  11  38  1   
 27  12  13  1   
 28  12  16  1   
 29  12  39  1   
 30  13  40  1   
 31  13  41  1   
 32  14  17  ar  
 33  15  17  ar  
 34  15  42  1   
 35  16  18  1   
 36  16  43  1   
 37  16  44  1   
 38  17  45  1   
 39  18  19  1   
 40  18  20  2   
 41  19  21  1   
 42  20  22  1   
 43  20  46  1   
 44  21  22  ar  
 45  21  23  ar  
 46  22  24  ar  
 47  23  25  ar  
 48  23  47  1   
 49  24  26  ar  
 50  24  48  1   
 51  25  26  ar  
 52  25  49  1   
 53  26  50  1   
@<TRIPOS>SUBSTRUCTURE
  1 ****  13 GROUP 4 **** **** 0

# MOE 2024.06 (io_trps.svl 2023.06)
