@<TRIPOS>MOLECULE
NONAME
46 47 1 0 0 
SMALL
USER_CHARGES


@<TRIPOS>ATOM
  1 S        0.4890     0.2620    -1.4940 S.o2  1 <1>   1.3330 
  2 O        0.8020    -1.0370    -2.0460 O.2   1 <1>  -0.6500 
  3 O       -0.4680     1.1140    -2.1620 O.2   1 <1>  -0.6500 
  4 N       -0.0700     0.0290     0.0940 N.am  1 <1>  -0.8490 
  5 C        2.0300     1.1580    -1.2810 C.3   1 <1>  -0.0550 
  6 C       -0.9330    -1.1510     0.2070 C.3   1 <1>   0.1160 
  7 C       -0.7620     1.2010     0.6440 C.3   1 <1>   0.1160 
  8 C        3.1540     0.3370    -0.6130 C.3   1 <1>  -0.0800 
  9 C        4.5180     1.0100    -0.6070 C.3   1 <1>   0.2200 
 10 C        2.9320     0.0060     0.8690 C.3   1 <1>   0.1200 
 11 N        4.3970     2.4460    -0.2560 N.am  1 <1>  -0.7300 
 12 C        5.1830     0.2810     0.5510 C.3   1 <1>   0.1200 
 13 O        4.1750     0.1290     1.5020 O.3   1 <1>  -0.5600 
 14 C        4.4650     3.4850    -1.1370 C.2   1 <1>   0.5440 
 15 O        4.5400     3.2310    -2.3210 O.2   1 <1>  -0.5700 
 16 C        4.3920     4.8540    -0.6740 C.ar  1 <1>   0.0860 
 17 C        5.2610     5.3920     0.2850 C.ar  1 <1>   0.1670 
 18 C        3.4110     5.6940    -1.1820 C.ar  1 <1>  -0.1500 
 19 N        5.1820     6.6220     0.7660 N.ar  1 <1>  -0.6200 
 20 C        6.4090     4.5770     0.8600 C.3   1 <1>  -0.0970 
 21 C        3.3330     6.9800    -0.6960 C.ar  1 <1>  -0.1500 
 22 C        4.2300     7.3930     0.2740 C.ar  1 <1>   0.1670 
 23 C        4.1620     8.7980     0.8310 C.3   1 <1>  -0.0970 
 24 H        2.3760     1.4610    -2.2510 H     1 <1>   0.0800 
 25 H        1.8460     2.0500    -0.7170 H     1 <1>   0.0800 
 26 H       -1.2620    -1.2790     1.2230 H     1 <1>   0.0800 
 27 H       -0.3890    -2.0350    -0.0830 H     1 <1>   0.0800 
 28 H       -1.7930    -1.0490    -0.4360 H     1 <1>   0.0800 
 29 H       -1.0140     1.0300     1.6760 H     1 <1>   0.0800 
 30 H       -1.6660     1.3990     0.0900 H     1 <1>   0.0800 
 31 H       -0.1270     2.0680     0.5890 H     1 <1>   0.0800 
 32 H        3.2530    -0.5960    -1.1420 H     1 <1>   0.0800 
 33 H        5.0520     0.8850    -1.5340 H     1 <1>   0.0800 
 34 H        2.5670    -0.9980     1.0040 H     1 <1>   0.0800 
 35 H        2.2600     0.7020     1.3400 H     1 <1>   0.0800 
 36 H        4.2410     2.6170     0.7410 H     1 <1>   0.3700 
 37 H        6.0070     0.8270     0.9740 H     1 <1>   0.0800 
 38 H        5.5060    -0.7010     0.2510 H     1 <1>   0.0800 
 39 H        2.7320     5.3410    -1.9390 H     1 <1>   0.1500 
 40 H        6.7990     3.8860     0.1360 H     1 <1>   0.0800 
 41 H        6.0740     4.0370     1.7260 H     1 <1>   0.0800 
 42 H        7.2100     5.2310     1.1560 H     1 <1>   0.0800 
 43 H        2.5830     7.6530    -1.0690 H     1 <1>   0.1500 
 44 H        3.3620     9.3580     0.3830 H     1 <1>   0.0800 
 45 H        5.0910     9.3040     0.6400 H     1 <1>   0.0800 
 46 H        4.0060     8.7550     1.8940 H     1 <1>   0.0800 
@<TRIPOS>BOND
  1   1   2  2   
  2   1   3  2   
  3   1   4  am  
  4   1   5  1   
  5   4   6  1   
  6   4   7  1   
  7   5   8  1   
  8   5  24  1   
  9   5  25  1   
 10   6  26  1   
 11   6  27  1   
 12   6  28  1   
 13   7  29  1   
 14   7  30  1   
 15   7  31  1   
 16   8   9  1   
 17   8  10  1   
 18   8  32  1   
 19   9  11  1   
 20   9  12  1   
 21   9  33  1   
 22  10  13  1   
 23  10  34  1   
 24  10  35  1   
 25  11  14  am  
 26  11  36  1   
 27  12  13  1   
 28  12  37  1   
 29  12  38  1   
 30  14  15  2   
 31  14  16  1   
 32  16  17  ar  
 33  16  18  ar  
 34  17  19  ar  
 35  17  20  1   
 36  18  21  ar  
 37  18  39  1   
 38  19  22  ar  
 39  20  40  1   
 40  20  41  1   
 41  20  42  1   
 42  21  22  ar  
 43  21  43  1   
 44  22  23  1   
 45  23  44  1   
 46  23  45  1   
 47  23  46  1   
@<TRIPOS>SUBSTRUCTURE
  1 ****  11 GROUP 4 **** **** 0

# MOE 2024.06 (io_trps.svl 2023.06)
