@<TRIPOS>MOLECULE
NONAME
46 47 1 0 0 
SMALL
USER_CHARGES


@<TRIPOS>ATOM
  1 O        0.6740    -0.3780    -2.4430 O.2   1 <1>  -0.5700 
  2 C        1.4790    -1.0390    -1.8280 C.2   1 <1>   0.5690 
  3 N        2.0530    -0.6300    -0.6530 N.am  1 <1>  -0.4940 
  4 C        1.8890    -2.4050    -2.3980 C.3   1 <1>   0.2610 
  5 C        1.9590     0.5720     0.0890 C.2   1 <1>  -0.0880 
  6 O        2.4650    -3.2350    -1.3960 O.3   1 <1>  -0.3630 
  7 C        2.9350    -2.2690    -3.5090 C.3   1 <1>  -0.2400 
  8 N        0.8810     1.3960     0.2190 N.pl3 1 <1>   0.3140 
  9 C        2.9460     1.1190     0.8390 C.2   1 <1>  -0.1810 
 10 C        1.7250    -3.7790    -0.3950 C.ar  1 <1>   0.0830 
 11 N        1.1600     2.4470     1.0210 N.2   1 <1>  -0.7070 
 12 C       -0.4830     1.2150    -0.2940 C.3   1 <1>   0.0160 
 13 C        2.3910     2.2760     1.3790 C.2   1 <1>   0.1080 
 14 C        4.3580     0.5980     1.0500 C.3   1 <1>   0.0210 
 15 C        0.3510    -3.6090    -0.2580 C.ar  1 <1>  -0.1500 
 16 C        2.4130    -4.5380     0.5390 C.ar  1 <1>  -0.1500 
 17 C        3.0970     3.2550     2.2890 C.3   1 <1>  -0.0590 
 18 C        5.2900     1.1300    -0.0390 C.3   1 <1>  -0.2400 
 19 C       -0.3230    -4.1850     0.8050 C.ar  1 <1>   0.0830 
 20 C        1.7440    -5.1170     1.6020 C.ar  1 <1>  -0.1500 
 21 O       -1.6610    -3.9640     0.8660 O.3   1 <1>  -0.3630 
 22 C        0.3780    -4.9420     1.7390 C.ar  1 <1>  -0.1500 
 23 C       -2.4410    -4.4760     1.9220 C.3   1 <1>   0.0400 
 24 H        2.7060    -1.3170    -0.2690 H     1 <1>   0.3700 
 25 H        1.0230    -2.9060    -2.7920 H     1 <1>   0.0800 
 26 H        3.8200    -1.7870    -3.1330 H     1 <1>   0.0800 
 27 H        2.5350    -1.6730    -4.3100 H     1 <1>   0.0800 
 28 H        3.1900    -3.2380    -3.8980 H     1 <1>   0.0800 
 29 H       -0.7360     0.1720    -0.2710 H     1 <1>   0.0800 
 30 H       -0.5280     1.5820    -1.3010 H     1 <1>   0.0800 
 31 H       -1.1670     1.7660     0.3230 H     1 <1>   0.0800 
 32 H        4.3520    -0.4770     1.0240 H     1 <1>   0.0800 
 33 H        4.7150     0.8980     2.0190 H     1 <1>   0.0800 
 34 H       -0.2280    -3.0350    -0.9550 H     1 <1>   0.1500 
 35 H        3.4740    -4.6740     0.4290 H     1 <1>   0.1500 
 36 H        4.0830     3.4600     1.9200 H     1 <1>   0.0800 
 37 H        3.1610     2.8440     3.2790 H     1 <1>   0.0800 
 38 H        2.5430     4.1750     2.3300 H     1 <1>   0.0800 
 39 H        4.9400     0.8180    -1.0070 H     1 <1>   0.0800 
 40 H        6.2870     0.7570     0.1080 H     1 <1>   0.0800 
 41 H        5.3130     2.2050    -0.0150 H     1 <1>   0.0800 
 42 H        2.2870    -5.7040     2.3230 H     1 <1>   0.1500 
 43 H       -0.1180    -5.4010     2.5730 H     1 <1>   0.1500 
 44 H       -3.4590    -4.1660     1.7660 H     1 <1>   0.0800 
 45 H       -2.0770    -4.0760     2.8520 H     1 <1>   0.0800 
 46 H       -2.3810    -5.5500     1.9130 H     1 <1>   0.0800 
@<TRIPOS>BOND
  1   1   2  2   
  2   2   3  am  
  3   2   4  1   
  4   3   5  1   
  5   3  24  1   
  6   4   6  1   
  7   4   7  1   
  8   4  25  1   
  9   5   8  1   
 10   5   9  2   
 11   6  10  1   
 12   7  26  1   
 13   7  27  1   
 14   7  28  1   
 15   8  11  1   
 16   8  12  1   
 17   9  13  1   
 18   9  14  1   
 19  10  15  ar  
 20  10  16  ar  
 21  11  13  2   
 22  12  29  1   
 23  12  30  1   
 24  12  31  1   
 25  13  17  1   
 26  14  18  1   
 27  14  32  1   
 28  14  33  1   
 29  15  19  ar  
 30  15  34  1   
 31  16  20  ar  
 32  16  35  1   
 33  17  36  1   
 34  17  37  1   
 35  17  38  1   
 36  18  39  1   
 37  18  40  1   
 38  18  41  1   
 39  19  21  1   
 40  19  22  ar  
 41  20  22  ar  
 42  20  42  1   
 43  21  23  1   
 44  22  43  1   
 45  23  44  1   
 46  23  45  1   
 47  23  46  1   
@<TRIPOS>SUBSTRUCTURE
  1 ****   3 GROUP 4 **** **** 0

# MOE 2024.06 (io_trps.svl 2023.06)
