@<TRIPOS>MOLECULE
NONAME
45 47 1 0 0 
SMALL
USER_CHARGES


@<TRIPOS>ATOM
  1 S        0.5400     0.3110    -1.6770 S.o2  1 <1>   1.3330 
  2 O        0.8200    -1.0140    -2.1830 O.2   1 <1>  -0.6500 
  3 O       -0.2280     1.2370    -2.4790 O.2   1 <1>  -0.6500 
  4 N       -0.2750     0.1380    -0.1950 N.am  1 <1>  -0.8490 
  5 C        2.0990     1.0750    -1.2210 C.3   1 <1>  -0.0550 
  6 C       -1.2460    -0.9600    -0.2260 C.3   1 <1>   0.1160 
  7 C       -0.9370     1.3700     0.2490 C.3   1 <1>   0.1160 
  8 C        3.0440     0.1570    -0.4160 C.3   1 <1>  -0.0800 
  9 C        4.4340     0.7240    -0.1730 C.3   1 <1>   0.2200 
 10 C        2.5690    -0.1940     1.0000 C.3   1 <1>   0.1200 
 11 N        4.3630     2.1510     0.2240 N.am  1 <1>  -0.7300 
 12 C        4.8580    -0.0960     1.0360 C.3   1 <1>   0.1200 
 13 O        3.7060    -0.2010     1.8170 O.3   1 <1>  -0.5600 
 14 C        4.6260     3.2160    -0.5880 C.2   1 <1>   0.5440 
 15 O        4.8180     2.9900    -1.7680 O.2   1 <1>  -0.5700 
 16 C        4.6440     4.5740    -0.0720 C.ar  1 <1>   0.0860 
 17 C        4.5030     5.6630    -0.9220 C.ar  1 <1>  -0.1500 
 18 C        4.8040     4.8400     1.3090 C.ar  1 <1>  -0.1500 
 19 C        4.5090     6.9630    -0.4190 C.ar  1 <1>  -0.1520 
 20 C        4.8080     6.1190     1.8110 C.ar  1 <1>  -0.1500 
 21 N        4.3880     8.1730    -1.0570 N.pl3 1 <1>   0.0330 
 22 C        4.6560     7.2020     0.9420 C.ar  1 <1>   0.0000 
 23 C        4.4540     9.1580    -0.1140 C.2   1 <1>  -0.3020 
 24 C        4.6160     8.6010     1.1110 C.2   1 <1>  -0.1500 
 25 H        2.6070     1.3600    -2.1230 H     1 <1>   0.0800 
 26 H        1.9060     1.9730    -0.6710 H     1 <1>   0.0800 
 27 H       -1.7380    -1.0520     0.7270 H     1 <1>   0.0800 
 28 H       -0.7450    -1.8910    -0.4360 H     1 <1>   0.0800 
 29 H       -1.9840    -0.7860    -0.9920 H     1 <1>   0.0800 
 30 H       -1.3600     1.2290     1.2300 H     1 <1>   0.0800 
 31 H       -1.7240     1.6430    -0.4350 H     1 <1>   0.0800 
 32 H       -0.2280     2.1780     0.2980 H     1 <1>   0.0800 
 33 H        3.1580    -0.7670    -0.9570 H     1 <1>   0.0800 
 34 H        5.0950     0.5920    -1.0140 H     1 <1>   0.0800 
 35 H        2.1030    -1.1640     1.0370 H     1 <1>   0.0800 
 36 H        1.8950     0.5470     1.3920 H     1 <1>   0.0800 
 37 H        4.0820     2.2920     1.1960 H     1 <1>   0.3700 
 38 H        5.6440     0.3690     1.6040 H     1 <1>   0.0800 
 39 H        5.1520    -1.0890     0.7430 H     1 <1>   0.0800 
 40 H        4.3890     5.5040    -1.9800 H     1 <1>   0.1500 
 41 H        4.9350     4.0170     1.9870 H     1 <1>   0.1500 
 42 H        4.9310     6.3110     2.8620 H     1 <1>   0.1500 
 43 H        4.2750     8.3020    -2.0680 H     1 <1>   0.2700 
 44 H        4.3820    10.2000    -0.3710 H     1 <1>   0.1500 
 45 H        4.7040     9.0980     2.0610 H     1 <1>   0.1500 
@<TRIPOS>BOND
  1   1   2  2   
  2   1   3  2   
  3   1   4  am  
  4   1   5  1   
  5   4   6  1   
  6   4   7  1   
  7   5   8  1   
  8   5  25  1   
  9   5  26  1   
 10   6  27  1   
 11   6  28  1   
 12   6  29  1   
 13   7  30  1   
 14   7  31  1   
 15   7  32  1   
 16   8   9  1   
 17   8  10  1   
 18   8  33  1   
 19   9  11  1   
 20   9  12  1   
 21   9  34  1   
 22  10  13  1   
 23  10  35  1   
 24  10  36  1   
 25  11  14  am  
 26  11  37  1   
 27  12  13  1   
 28  12  38  1   
 29  12  39  1   
 30  14  15  2   
 31  14  16  1   
 32  16  17  ar  
 33  16  18  ar  
 34  17  19  ar  
 35  17  40  1   
 36  18  20  ar  
 37  18  41  1   
 38  19  21  1   
 39  19  22  ar  
 40  20  22  ar  
 41  20  42  1   
 42  21  23  1   
 43  21  43  1   
 44  22  24  1   
 45  23  24  2   
 46  23  44  1   
 47  24  45  1   
@<TRIPOS>SUBSTRUCTURE
  1 ****  11 GROUP 4 **** **** 0

# MOE 2024.06 (io_trps.svl 2023.06)
