@<TRIPOS>MOLECULE
NONAME
49 51 1 0 0 
SMALL
USER_CHARGES


@<TRIPOS>ATOM
  1 O        1.1750     2.3810    -0.7090 O.co2 1 <1>  -0.9000 
  2 C        0.2640     3.1810    -0.9420 C.2   1 <1>   0.9060 
  3 O        0.3460     3.9610    -1.8990 O.co2 1 <1>  -0.9000 
  4 C       -0.7750     3.4410     0.1570 C.3   1 <1>   0.0380 
  5 C       -1.7560     2.2890     0.4470 C.ar  1 <1>  -0.1440 
  6 C        0.1050     3.7570     1.3550 C.3   1 <1>   0.3430 
  7 C       -1.4970     4.7840    -0.0330 C.3   1 <1>  -0.1600 
  8 C       -1.8090     1.1700    -0.3750 C.ar  1 <1>  -0.1500 
  9 C       -2.6120     2.3440     1.5430 C.ar  1 <1>  -0.1500 
 10 N        0.5680     5.1760     1.1700 N.4   1 <1>  -0.9590 
 11 C       -0.4070     5.8170     0.2200 C.3   1 <1>   0.3430 
 12 C       -2.6900     0.1360    -0.1110 C.ar  1 <1>  -0.1500 
 13 C       -3.4950     1.3110     1.8080 C.ar  1 <1>  -0.1500 
 14 C        1.9560     5.1670     0.5890 C.3   1 <1>   0.4860 
 15 C       -3.5350     0.2050     0.9810 C.ar  1 <1>  -0.1500 
 16 C        2.4010     6.5790     0.2930 C.ar  1 <1>  -0.1430 
 17 C        2.8150     7.4420     1.2810 C.ar  1 <1>   0.1600 
 18 C        2.4020     7.0550    -0.9980 C.ar  1 <1>   0.1600 
 19 N        3.1690     8.6750     1.0250 N.ar  1 <1>  -0.6200 
 20 N        2.7520     8.2860    -1.2820 N.ar  1 <1>  -0.6200 
 21 C        3.1110     9.0380    -0.2530 C.ar  1 <1>   0.7200 
 22 N        3.4520    10.3020    -0.5790 N.pl3 1 <1>  -0.8690 
 23 C        4.2670    11.1850     0.2730 C.3   1 <1>   0.2090 
 24 C        4.3660    12.5590    -0.3890 C.3   1 <1>  -0.1600 
 25 C        5.1950    13.5320     0.4570 C.3   1 <1>  -0.2400 
 26 H        0.9290     3.0640     1.4230 H     1 <1>   0.0800 
 27 H       -0.4850     3.6810     2.2520 H     1 <1>   0.0800 
 28 H       -2.2900     4.9180     0.6780 H     1 <1>   0.0800 
 29 H       -1.9050     4.8800    -1.0250 H     1 <1>   0.0800 
 30 H       -1.1630     1.0800    -1.2330 H     1 <1>   0.1500 
 31 H       -2.6120     3.1890     2.2050 H     1 <1>   0.1500 
 32 H        0.5700     5.6730     2.0640 H     1 <1>   0.4500 
 33 H       -0.8130     6.7310     0.6190 H     1 <1>   0.0800 
 34 H        0.0780     6.0280    -0.7200 H     1 <1>   0.0800 
 35 H       -2.7140    -0.7220    -0.7600 H     1 <1>   0.1500 
 36 H       -4.1530     1.3660     2.6580 H     1 <1>   0.1500 
 37 H        1.9830     4.6000    -0.3280 H     1 <1>   0.0800 
 38 H        2.6420     4.7030     1.2770 H     1 <1>   0.0800 
 39 H       -4.2200    -0.6000     1.1840 H     1 <1>   0.1500 
 40 H        2.8560     7.1210     2.3080 H     1 <1>   0.1500 
 41 H        2.1020     6.4130    -1.8160 H     1 <1>   0.1500 
 42 H        3.5420    10.4330    -1.5850 H     1 <1>   0.4000 
 43 H        5.2480    10.7570     0.3970 H     1 <1>   0.0800 
 44 H        3.8050    11.2740     1.2430 H     1 <1>   0.0800 
 45 H        3.3750    12.9590    -0.5160 H     1 <1>   0.0800 
 46 H        4.8240    12.4570    -1.3570 H     1 <1>   0.0800 
 47 H        4.7460    13.6660     1.4260 H     1 <1>   0.0800 
 48 H        5.2470    14.4900    -0.0300 H     1 <1>   0.0800 
 49 H        6.1970    13.1600     0.5870 H     1 <1>   0.0800 
@<TRIPOS>BOND
  1   1   2  ar  
  2   2   3  ar  
  3   2   4  1   
  4   4   5  1   
  5   4   6  1   
  6   4   7  1   
  7   5   8  ar  
  8   5   9  ar  
  9   6  10  1   
 10   6  26  1   
 11   6  27  1   
 12   7  11  1   
 13   7  28  1   
 14   7  29  1   
 15   8  12  ar  
 16   8  30  1   
 17   9  13  ar  
 18   9  31  1   
 19  10  11  1   
 20  10  14  1   
 21  10  32  1   
 22  11  33  1   
 23  11  34  1   
 24  12  15  ar  
 25  12  35  1   
 26  13  15  ar  
 27  13  36  1   
 28  14  16  1   
 29  14  37  1   
 30  14  38  1   
 31  15  39  1   
 32  16  17  ar  
 33  16  18  ar  
 34  17  19  ar  
 35  17  40  1   
 36  18  20  ar  
 37  18  41  1   
 38  19  21  ar  
 39  20  21  ar  
 40  21  22  1   
 41  22  23  1   
 42  22  42  1   
 43  23  24  1   
 44  23  43  1   
 45  23  44  1   
 46  24  25  1   
 47  24  45  1   
 48  24  46  1   
 49  25  47  1   
 50  25  48  1   
 51  25  49  1   
@<TRIPOS>SUBSTRUCTURE
  1 ****  10 GROUP 4 **** **** 0

# MOE 2024.06 (io_trps.svl 2023.06)
