@<TRIPOS>MOLECULE
NONAME
47 50 1 0 0 
SMALL
USER_CHARGES


@<TRIPOS>ATOM
  1 O       -0.5400     0.3830    -0.1960 O.2   1 <1>  -0.5700 
  2 C       -1.5820     0.9420     0.0920 C.2   1 <1>   0.7030 
  3 N       -2.7270     0.1840     0.2160 N.am  1 <1>  -0.6600 
  4 C       -1.5490     2.3850     0.2790 C.2   1 <1>   0.2770 
  5 C       -4.1150     0.6450    -0.0600 C.3   1 <1>   0.1400 
  6 C       -2.6760    -1.3060     0.1720 C.3   1 <1>   0.1400 
  7 N       -0.5130     3.1970    -0.1530 N.pl3 1 <1>  -0.7000 
  8 C       -2.4290     3.2160     0.8900 C.2   1 <1>   0.2000 
  9 C       -4.8570    -0.5960    -0.5520 C.3   1 <1>   0.2000 
 10 C       -4.1310    -1.7690     0.0940 C.3   1 <1>  -0.0800 
 11 C       -0.7650     4.4680     0.1820 C.cat 1 <1>   0.7910 
 12 N       -1.9570     4.5090     0.8250 N.pl3 1 <1>  -0.6290 
 13 O       -6.1850    -0.5690    -0.1650 O.3   1 <1>  -0.6800 
 14 C       -4.3150    -3.0940    -0.6620 C.3   1 <1>   0.0210 
 15 C       -0.0110     5.6430    -0.0320 C.2   1 <1>  -0.1290 
 16 C       -2.4580     5.7070     1.2870 C.2   1 <1>   0.2290 
 17 C       -3.4770    -4.1940    -0.0390 C.2   1 <1>   0.1080 
 18 C       -0.5090     6.8350     0.4250 C.2   1 <1>  -0.1500 
 19 C        1.3300     5.5800    -0.7560 C.3   1 <1>  -0.1020 
 20 C       -1.7510     6.8570     1.0930 C.2   1 <1>  -0.1500 
 21 N       -3.5480    -4.5050     1.2180 N.2   1 <1>  -0.7070 
 22 C       -2.5490    -4.9720    -0.7220 C.2   1 <1>  -0.1500 
 23 N       -2.6600    -5.5060     1.3710 N.pl3 1 <1>   0.3000 
 24 C       -2.0390    -5.8040     0.2100 C.2   1 <1>  -0.3320 
 25 C       -0.9830    -6.8830     0.0610 C.3   1 <1>  -0.0600 
 26 H       -4.5620     0.9980     0.8530 H     1 <1>   0.0800 
 27 H       -4.1310     1.4130    -0.8140 H     1 <1>   0.0800 
 28 H       -2.1290    -1.6200    -0.7030 H     1 <1>   0.0800 
 29 H       -2.1900    -1.7030     1.0480 H     1 <1>   0.0800 
 30 H        0.3270     2.8370    -0.6150 H     1 <1>   0.4500 
 31 H       -3.3570     2.9660     1.3750 H     1 <1>   0.1500 
 32 H       -4.8160    -0.6440    -1.6280 H     1 <1>   0.0800 
 33 H       -4.4750    -1.8940     1.1070 H     1 <1>   0.0800 
 34 H       -6.2910    -0.9420     0.7340 H     1 <1>   0.4000 
 35 H       -4.0360    -2.9770    -1.6940 H     1 <1>   0.0800 
 36 H       -5.3480    -3.3890    -0.6270 H     1 <1>   0.0800 
 37 H       -3.4100     5.7020     1.7970 H     1 <1>   0.1500 
 38 H        0.0220     7.7640     0.2910 H     1 <1>   0.1500 
 39 H        2.0170     4.9490    -0.2190 H     1 <1>   0.0800 
 40 H        1.7690     6.5600    -0.8350 H     1 <1>   0.0800 
 41 H        1.2020     5.1910    -1.7510 H     1 <1>   0.0800 
 42 H       -2.1280     7.8020     1.4470 H     1 <1>   0.1500 
 43 H       -2.3070    -4.9060    -1.7680 H     1 <1>   0.1500 
 44 H       -2.5010    -5.9640     2.2770 H     1 <1>   0.2700 
 45 H       -0.6410    -6.9270    -0.9580 H     1 <1>   0.0800 
 46 H       -1.3890    -7.8420     0.3280 H     1 <1>   0.0800 
 47 H       -0.1400    -6.6690     0.6950 H     1 <1>   0.0800 
@<TRIPOS>BOND
  1   1   2  2   
  2   2   3  am  
  3   2   4  1   
  4   3   5  1   
  5   3   6  1   
  6   4   7  1   
  7   4   8  2   
  8   5   9  1   
  9   5  26  1   
 10   5  27  1   
 11   6  10  1   
 12   6  28  1   
 13   6  29  1   
 14   7  11  ar  
 15   7  30  1   
 16   8  12  1   
 17   8  31  1   
 18   9  10  1   
 19   9  13  1   
 20   9  32  1   
 21  10  14  1   
 22  10  33  1   
 23  11  12  ar  
 24  11  15  1   
 25  12  16  1   
 26  13  34  1   
 27  14  17  1   
 28  14  35  1   
 29  14  36  1   
 30  15  18  2   
 31  15  19  1   
 32  16  20  2   
 33  16  37  1   
 34  17  21  2   
 35  17  22  1   
 36  18  20  1   
 37  18  38  1   
 38  19  39  1   
 39  19  40  1   
 40  19  41  1   
 41  20  42  1   
 42  21  23  1   
 43  22  24  2   
 44  22  43  1   
 45  23  24  1   
 46  23  44  1   
 47  24  25  1   
 48  25  45  1   
 49  25  46  1   
 50  25  47  1   
@<TRIPOS>SUBSTRUCTURE
  1 ****   3 GROUP 4 **** **** 0

# MOE 2024.06 (io_trps.svl 2023.06)
