@<TRIPOS>MOLECULE
NONAME
44 46 1 0 0 
SMALL
USER_CHARGES


@<TRIPOS>ATOM
  1 O        0.2940    -1.8690    -2.1090 O.3   1 <1>  -0.6800 
  2 C        0.0140    -2.3490    -0.8380 C.3   1 <1>   0.1200 
  3 C        1.1320    -1.9710     0.1740 C.3   1 <1>   0.0000 
  4 C        2.5800    -2.2530    -0.3010 C.3   1 <1>   0.4230 
  5 C        0.9800    -0.4500     0.4910 C.3   1 <1>  -0.1600 
  6 C        0.9410    -2.8270     1.4530 C.3   1 <1>  -0.1600 
  7 N        2.8360    -3.6630    -0.7810 N.4   1 <1>  -0.9590 
  8 C        3.1590    -1.0830    -1.1100 C.3   1 <1>   0.2090 
  9 C        2.2880     0.2770     0.8600 C.3   1 <1>   0.2090 
 10 C        1.7050    -4.1780     1.4110 C.3   1 <1>  -0.1600 
 11 C        2.0510    -4.6780    -0.0040 C.3   1 <1>   0.3430 
 12 C        2.6520    -3.8390    -2.2550 C.3   1 <1>   0.2630 
 13 N        3.3800     0.0390    -0.1430 N.pl3 1 <1>  -0.8380 
 14 C        4.6580     0.1840     0.3520 C.ar  1 <1>   0.4100 
 15 N        5.3060    -0.9180     0.6980 N.ar  1 <1>  -0.6200 
 16 C        5.2220     1.4260     0.5020 C.ar  1 <1>  -0.1500 
 17 C        6.5170    -0.7190     1.1900 C.ar  1 <1>   0.4700 
 18 C        6.4890     1.4930     1.0230 C.ar  1 <1>   0.4100 
 19 N        7.1550     0.4190     1.3730 N.ar  1 <1>  -0.6200 
 20 N        7.1480     2.6630     1.2040 N.pl3 1 <1>  -0.9000 
 21 H       -0.5270    -1.7960    -2.6420 H     1 <1>   0.4000 
 22 H       -0.9230    -1.9210    -0.5220 H     1 <1>   0.0800 
 23 H       -0.1190    -3.4120    -0.9160 H     1 <1>   0.0800 
 24 H        3.1550    -2.1900     0.6080 H     1 <1>   0.0800 
 25 H        0.2600    -0.3030     1.2770 H     1 <1>   0.0800 
 26 H        0.5920     0.0660    -0.3710 H     1 <1>   0.0800 
 27 H        1.2950    -2.2810     2.3120 H     1 <1>   0.0800 
 28 H       -0.1090    -3.0070     1.6180 H     1 <1>   0.0800 
 29 H        3.8330    -3.8190    -0.5710 H     1 <1>   0.4500 
 30 H        2.4890    -0.7610    -1.8860 H     1 <1>   0.0800 
 31 H        4.0970    -1.3620    -1.5570 H     1 <1>   0.0800 
 32 H        2.6210    -0.0570     1.8300 H     1 <1>   0.0800 
 33 H        2.1020     1.3360     0.9260 H     1 <1>   0.0800 
 34 H        1.1210    -4.9290     1.9150 H     1 <1>   0.0800 
 35 H        2.6240    -4.0820     1.9660 H     1 <1>   0.0800 
 36 H        1.1320    -4.8940    -0.5230 H     1 <1>   0.0800 
 37 H        2.6100    -5.5980     0.0620 H     1 <1>   0.0800 
 38 H        1.6170    -3.7140    -2.5240 H     1 <1>   0.0800 
 39 H        2.9660    -4.8250    -2.5560 H     1 <1>   0.0800 
 40 H        3.2360    -3.1140    -2.7990 H     1 <1>   0.0800 
 41 H        4.6860     2.3080     0.2220 H     1 <1>   0.1500 
 42 H        7.0590    -1.6030     1.4800 H     1 <1>   0.1500 
 43 H        8.1310     2.5470     1.4600 H     1 <1>   0.4000 
 44 H        6.9780     3.4250     0.5490 H     1 <1>   0.4000 
@<TRIPOS>BOND
  1   1   2  1   
  2   1  21  1   
  3   2   3  1   
  4   2  22  1   
  5   2  23  1   
  6   3   4  1   
  7   3   5  1   
  8   3   6  1   
  9   4   7  1   
 10   4   8  1   
 11   4  24  1   
 12   5   9  1   
 13   5  25  1   
 14   5  26  1   
 15   6  10  1   
 16   6  27  1   
 17   6  28  1   
 18   7  11  1   
 19   7  12  1   
 20   7  29  1   
 21   8  13  1   
 22   8  30  1   
 23   8  31  1   
 24   9  13  1   
 25   9  32  1   
 26   9  33  1   
 27  10  11  1   
 28  10  34  1   
 29  10  35  1   
 30  11  36  1   
 31  11  37  1   
 32  12  38  1   
 33  12  39  1   
 34  12  40  1   
 35  13  14  1   
 36  14  15  ar  
 37  14  16  ar  
 38  15  17  ar  
 39  16  18  ar  
 40  16  41  1   
 41  17  19  ar  
 42  17  42  1   
 43  18  19  ar  
 44  18  20  1   
 45  20  43  1   
 46  20  44  1   
@<TRIPOS>SUBSTRUCTURE
  1 ****   8 GROUP 4 **** **** 0

# MOE 2024.06 (io_trps.svl 2023.06)
