@<TRIPOS>MOLECULE
NONAME
54 56 1 0 0 
SMALL
USER_CHARGES


@<TRIPOS>ATOM
  1 O        1.2080    -1.6470    -2.2050 O.3   1 <1>  -0.6800 
  2 C        0.4260    -1.9660    -1.1030 C.3   1 <1>   0.1200 
  3 C        1.2170    -1.8190     0.2290 C.3   1 <1>   0.0000 
  4 C        2.6140    -2.5080     0.2100 C.3   1 <1>   0.4230 
  5 C        1.4040    -0.3120     0.5520 C.3   1 <1>  -0.1600 
  6 C        0.3720    -2.4570     1.3680 C.3   1 <1>  -0.1600 
  7 N        2.5450    -4.0110    -0.0630 N.4   1 <1>  -0.9590 
  8 C        3.6590    -1.7130    -0.6410 C.3   1 <1>   0.3430 
  9 C        2.3850     0.4120    -0.3750 C.3   1 <1>   0.3430 
 10 C        0.7760    -3.9070     1.7080 C.3   1 <1>  -0.1600 
 11 C        1.3160    -4.6740     0.5000 C.3   1 <1>   0.3430 
 12 C        2.6830    -4.4060    -1.5070 C.3   1 <1>   0.2630 
 13 N        3.7320    -0.2410    -0.3030 N.4   1 <1>  -0.9590 
 14 C        4.7100     0.4740    -1.1860 C.3   1 <1>   0.4860 
 15 C        4.9330     1.8610    -0.6370 C.ar  1 <1>  -0.1440 
 16 C        4.3440     2.9670    -1.2050 C.ar  1 <1>   0.1600 
 17 C        5.7230     2.0790     0.4680 C.ar  1 <1>   0.1600 
 18 N        4.4830     4.1630    -0.7010 N.ar  1 <1>  -0.6200 
 19 N        5.8770     3.2660     0.9880 N.ar  1 <1>  -0.6200 
 20 C        5.2470     4.2740     0.3860 C.ar  1 <1>   0.7200 
 21 N        5.3900     5.5280     0.9360 N.pl3 1 <1>  -0.8380 
 22 C        6.4440     5.8420     1.9440 C.3   1 <1>   0.1290 
 23 C        4.5650     6.6910     0.5000 C.3   1 <1>   0.1290 
 24 H        0.6470    -1.6020    -3.0150 H     1 <1>   0.4000 
 25 H       -0.4320    -1.3110    -1.1040 H     1 <1>   0.0800 
 26 H        0.0680    -2.9710    -1.2410 H     1 <1>   0.0800 
 27 H        2.9690    -2.4180     1.2230 H     1 <1>   0.0800 
 28 H        1.7530    -0.1810     1.5630 H     1 <1>   0.0800 
 29 H        0.4520     0.1890     0.4920 H     1 <1>   0.0800 
 30 H        0.4540    -1.8860     2.2790 H     1 <1>   0.0800 
 31 H       -0.6730    -2.4350     1.1030 H     1 <1>   0.0800 
 32 H        3.3330    -4.4450     0.4410 H     1 <1>   0.4500 
 33 H        3.4030    -1.8140    -1.6820 H     1 <1>   0.0800 
 34 H        4.6300    -2.1560    -0.4930 H     1 <1>   0.0800 
 35 H        2.4570     1.4460    -0.0720 H     1 <1>   0.0800 
 36 H        2.0140     0.3880    -1.3880 H     1 <1>   0.0800 
 37 H       -0.0830    -4.4280     2.0980 H     1 <1>   0.0800 
 38 H        1.5200    -3.9130     2.4860 H     1 <1>   0.0800 
 39 H        0.5440    -4.7150    -0.2520 H     1 <1>   0.0800 
 40 H        1.5450    -5.6900     0.7860 H     1 <1>   0.0800 
 41 H        1.8860    -3.9790    -2.0950 H     1 <1>   0.0800 
 42 H        2.6380    -5.4790    -1.6060 H     1 <1>   0.0800 
 43 H        3.6250    -4.0720    -1.9100 H     1 <1>   0.0800 
 44 H        4.0700    -0.1110     0.6620 H     1 <1>   0.4500 
 45 H        5.6510    -0.0520    -1.2050 H     1 <1>   0.0800 
 46 H        4.3320     0.5310    -2.1950 H     1 <1>   0.0800 
 47 H        3.7350     2.8810    -2.0900 H     1 <1>   0.1500 
 48 H        6.2450     1.2690     0.9500 H     1 <1>   0.1500 
 49 H        6.8100     6.8420     1.7980 H     1 <1>   0.0800 
 50 H        7.2750     5.1640     1.8520 H     1 <1>   0.0800 
 51 H        6.0310     5.7570     2.9340 H     1 <1>   0.0800 
 52 H        4.4130     7.3650     1.3240 H     1 <1>   0.0800 
 53 H        3.6020     6.3650     0.1490 H     1 <1>   0.0800 
 54 H        5.0690     7.2110    -0.2960 H     1 <1>   0.0800 
@<TRIPOS>BOND
  1   1   2  1   
  2   1  24  1   
  3   2   3  1   
  4   2  25  1   
  5   2  26  1   
  6   3   4  1   
  7   3   5  1   
  8   3   6  1   
  9   4   7  1   
 10   4   8  1   
 11   4  27  1   
 12   5   9  1   
 13   5  28  1   
 14   5  29  1   
 15   6  10  1   
 16   6  30  1   
 17   6  31  1   
 18   7  11  1   
 19   7  12  1   
 20   7  32  1   
 21   8  13  1   
 22   8  33  1   
 23   8  34  1   
 24   9  13  1   
 25   9  35  1   
 26   9  36  1   
 27  10  11  1   
 28  10  37  1   
 29  10  38  1   
 30  11  39  1   
 31  11  40  1   
 32  12  41  1   
 33  12  42  1   
 34  12  43  1   
 35  13  14  1   
 36  13  44  1   
 37  14  15  1   
 38  14  45  1   
 39  14  46  1   
 40  15  16  ar  
 41  15  17  ar  
 42  16  18  ar  
 43  16  47  1   
 44  17  19  ar  
 45  17  48  1   
 46  18  20  ar  
 47  19  20  ar  
 48  20  21  1   
 49  21  22  1   
 50  21  23  1   
 51  22  49  1   
 52  22  50  1   
 53  22  51  1   
 54  23  52  1   
 55  23  53  1   
 56  23  54  1   
@<TRIPOS>SUBSTRUCTURE
  1 ****  13 GROUP 4 **** **** 0

# MOE 2024.06 (io_trps.svl 2023.06)
