@<TRIPOS>MOLECULE
NONAME
36 37 1 0 0 
SMALL
USER_CHARGES


@<TRIPOS>ATOM
  1 F       -1.2320    -0.6000    -0.7990 F     1 <1>  -0.1900 
  2 C       -2.0690     0.2950    -0.3460 C.ar  1 <1>   0.1900 
  3 C       -3.2150    -0.1330     0.3120 C.ar  1 <1>  -0.1440 
  4 C       -1.7770     1.6290    -0.5540 C.ar  1 <1>  -0.1500 
  5 C       -4.1070     0.8260     0.7830 C.ar  1 <1>  -0.1500 
  6 C       -3.4810    -1.6130     0.5170 C.3   1 <1>   0.4870 
  7 C       -2.6880     2.5490    -0.0750 C.ar  1 <1>   0.1900 
  8 C       -3.8440     2.1740     0.5880 C.ar  1 <1>  -0.1500 
  9 N       -3.6680    -2.2790    -0.8050 N.4   1 <1>  -0.9590 
 10 F       -2.4510     3.8190    -0.2550 F     1 <1>  -0.1900 
 11 C       -3.7050    -3.7730    -0.6270 C.3   1 <1>   0.3430 
 12 C       -4.8400    -1.7370    -1.5580 C.3   1 <1>   0.3430 
 13 C       -5.0950    -4.3930    -0.8420 C.3   1 <1>  -0.0800 
 14 C       -6.1750    -2.0970    -0.8880 C.3   1 <1>  -0.1600 
 15 C       -6.1980    -3.4990    -0.2590 C.3   1 <1>   0.2000 
 16 C       -5.1350    -5.8090    -0.2560 C.3   1 <1>   0.1200 
 17 O       -5.9800    -3.3650     1.1030 O.3   1 <1>  -0.6800 
 18 O       -4.0600    -6.5130    -0.7700 O.3   1 <1>  -0.6800 
 19 H       -0.8850     1.9420    -1.0650 H     1 <1>   0.1500 
 20 H       -5.0050     0.5380     1.3070 H     1 <1>   0.1500 
 21 H       -4.3550    -1.7460     1.1310 H     1 <1>   0.0800 
 22 H       -2.6410    -2.0530     1.0310 H     1 <1>   0.0800 
 23 H       -4.5200     2.9320     0.9460 H     1 <1>   0.1500 
 24 H       -2.8150    -2.0510    -1.3360 H     1 <1>   0.4500 
 25 H       -3.0180    -4.2420    -1.3130 H     1 <1>   0.0800 
 26 H       -3.3760    -4.0220     0.3690 H     1 <1>   0.0800 
 27 H       -4.7600    -0.6660    -1.6590 H     1 <1>   0.0800 
 28 H       -4.8320    -2.1590    -2.5500 H     1 <1>   0.0800 
 29 H       -5.2660    -4.4890    -1.8990 H     1 <1>   0.0800 
 30 H       -6.9290    -2.0580    -1.6540 H     1 <1>   0.0800 
 31 H       -6.4390    -1.3480    -0.1620 H     1 <1>   0.0800 
 32 H       -7.1650    -3.9590    -0.3910 H     1 <1>   0.0800 
 33 H       -6.0430    -6.3180    -0.5350 H     1 <1>   0.0800 
 34 H       -5.0460    -5.7960     0.8180 H     1 <1>   0.0800 
 35 H       -6.8200    -3.1560     1.5660 H     1 <1>   0.4000 
 36 H       -4.0890    -7.4520    -0.4870 H     1 <1>   0.4000 
@<TRIPOS>BOND
  1   1   2  1   
  2   2   3  ar  
  3   2   4  ar  
  4   3   5  ar  
  5   3   6  1   
  6   4   7  ar  
  7   4  19  1   
  8   5   8  ar  
  9   5  20  1   
 10   6   9  1   
 11   6  21  1   
 12   6  22  1   
 13   7   8  ar  
 14   7  10  1   
 15   8  23  1   
 16   9  11  1   
 17   9  12  1   
 18   9  24  1   
 19  11  13  1   
 20  11  25  1   
 21  11  26  1   
 22  12  14  1   
 23  12  27  1   
 24  12  28  1   
 25  13  15  1   
 26  13  16  1   
 27  13  29  1   
 28  14  15  1   
 29  14  30  1   
 30  14  31  1   
 31  15  17  1   
 32  15  32  1   
 33  16  18  1   
 34  16  33  1   
 35  16  34  1   
 36  17  35  1   
 37  18  36  1   
@<TRIPOS>SUBSTRUCTURE
  1 ****   6 GROUP 4 **** **** 0

# MOE 2024.06 (io_trps.svl 2023.06)
