@<TRIPOS>MOLECULE
NONAME
59 62 1 0 0 
SMALL
USER_CHARGES


@<TRIPOS>ATOM
  1 O        2.8520    -0.7310     1.4910 O.2   1 <1>  -0.5700 
  2 C        2.4220    -0.9800     0.3910 C.2   1 <1>   0.5690 
  3 N        2.2120    -0.0150    -0.5520 N.am  1 <1>  -0.4940 
  4 C        2.0520    -2.4110     0.0310 C.3   1 <1>  -0.0190 
  5 C        2.1740     1.3810    -0.3580 C.2   1 <1>  -0.0880 
  6 C        0.5990    -2.6530     0.4450 C.3   1 <1>   0.2090 
  7 C        2.9840    -3.4680     0.6640 C.3   1 <1>  -0.1600 
  8 N        3.2060     2.2580    -0.1470 N.pl3 1 <1>   0.3140 
  9 C        1.0180     2.1040    -0.3720 C.2   1 <1>  -0.0540 
 10 N        0.1930    -4.0370     0.0780 N.pl3 1 <1>  -0.8380 
 11 C        2.4890    -4.8880     0.3420 C.3   1 <1>  -0.1600 
 12 N        2.7120     3.5270    -0.0290 N.2   1 <1>  -0.7070 
 13 C        4.7090     2.0270    -0.0510 C.3   1 <1>   0.2560 
 14 C       -0.3300     1.6300    -0.5490 C.ar  1 <1>   0.0540 
 15 C        1.4320     3.4160    -0.1620 C.2   1 <1>   0.1390 
 16 C       -1.1570    -4.3020    -0.0570 C.ar  1 <1>   0.4100 
 17 C        1.0190    -5.0800     0.7360 C.3   1 <1>   0.2090 
 18 C        5.1760     0.7660    -0.8030 C.3   1 <1>  -0.2400 
 19 C        5.1080     1.9170     1.4290 C.3   1 <1>  -0.2400 
 20 C        5.4690     3.2210    -0.6700 C.3   1 <1>  -0.2400 
 21 C       -0.8510     0.6520     0.2920 C.ar  1 <1>  -0.1500 
 22 C       -1.1390     2.1130    -1.5730 C.ar  1 <1>  -0.1500 
 23 N       -1.9980    -3.6160     0.7110 N.ar  1 <1>  -0.6200 
 24 C       -1.5750    -5.2680    -0.9690 C.ar  1 <1>  -0.1500 
 25 C       -2.1240     0.1470     0.1030 C.ar  1 <1>  -0.1500 
 26 C       -2.4180     1.6200    -1.7620 C.ar  1 <1>  -0.1500 
 27 C       -3.2800    -3.9080     0.5670 C.ar  1 <1>   0.1600 
 28 C       -2.9110    -5.5600    -1.1100 C.ar  1 <1>  -0.1500 
 29 C       -2.9110     0.6320    -0.9270 C.ar  1 <1>  -0.1500 
 30 C       -3.7840    -4.8520    -0.3090 C.ar  1 <1>  -0.1500 
 31 H        1.7130    -0.3330    -1.3850 H     1 <1>   0.3700 
 32 H        2.1070    -2.5130    -1.0370 H     1 <1>   0.0800 
 33 H       -0.0460    -1.9530    -0.0580 H     1 <1>   0.0800 
 34 H        0.4850    -2.5160     1.5080 H     1 <1>   0.0800 
 35 H        2.9990    -3.3370     1.7330 H     1 <1>   0.0800 
 36 H        3.9880    -3.3360     0.3000 H     1 <1>   0.0800 
 37 H        3.0920    -5.6080     0.8650 H     1 <1>   0.0800 
 38 H        2.5890    -5.0790    -0.7120 H     1 <1>   0.0800 
 39 H        0.7560     4.2520    -0.1100 H     1 <1>   0.1500 
 40 H        0.6840    -6.0590     0.4380 H     1 <1>   0.0800 
 41 H        0.9080    -4.9950     1.8040 H     1 <1>   0.0800 
 42 H        4.8640    -0.1240    -0.2910 H     1 <1>   0.0800 
 43 H        6.2490     0.7360    -0.8520 H     1 <1>   0.0800 
 44 H        4.7910     0.7620    -1.8060 H     1 <1>   0.0800 
 45 H        4.6160     1.0810     1.8910 H     1 <1>   0.0800 
 46 H        4.8290     2.8130     1.9550 H     1 <1>   0.0800 
 47 H        6.1700     1.7810     1.5260 H     1 <1>   0.0800 
 48 H        5.1790     3.3540    -1.6970 H     1 <1>   0.0800 
 49 H        6.5310     3.0590    -0.6320 H     1 <1>   0.0800 
 50 H        5.2580     4.1280    -0.1310 H     1 <1>   0.0800 
 51 H       -0.2460     0.2850     1.1030 H     1 <1>   0.1500 
 52 H       -0.7570     2.8740    -2.2290 H     1 <1>   0.1500 
 53 H       -0.8350    -5.7710    -1.5600 H     1 <1>   0.1500 
 54 H       -2.5000    -0.6240     0.7550 H     1 <1>   0.1500 
 55 H       -3.0300     2.0010    -2.5610 H     1 <1>   0.1500 
 56 H       -3.9710    -3.3620     1.1870 H     1 <1>   0.1500 
 57 H       -3.2590    -6.3010    -1.8080 H     1 <1>   0.1500 
 58 H       -3.9020     0.2400    -1.0770 H     1 <1>   0.1500 
 59 H       -4.8420    -5.0290    -0.3650 H     1 <1>   0.1500 
@<TRIPOS>BOND
  1   1   2  2   
  2   2   3  am  
  3   2   4  1   
  4   3   5  1   
  5   3  31  1   
  6   4   6  1   
  7   4   7  1   
  8   4  32  1   
  9   5   8  1   
 10   5   9  2   
 11   6  10  1   
 12   6  33  1   
 13   6  34  1   
 14   7  11  1   
 15   7  35  1   
 16   7  36  1   
 17   8  12  1   
 18   8  13  1   
 19   9  14  1   
 20   9  15  1   
 21  10  16  1   
 22  10  17  1   
 23  11  17  1   
 24  11  37  1   
 25  11  38  1   
 26  12  15  2   
 27  13  18  1   
 28  13  19  1   
 29  13  20  1   
 30  14  21  ar  
 31  14  22  ar  
 32  15  39  1   
 33  16  23  ar  
 34  16  24  ar  
 35  17  40  1   
 36  17  41  1   
 37  18  42  1   
 38  18  43  1   
 39  18  44  1   
 40  19  45  1   
 41  19  46  1   
 42  19  47  1   
 43  20  48  1   
 44  20  49  1   
 45  20  50  1   
 46  21  25  ar  
 47  21  51  1   
 48  22  26  ar  
 49  22  52  1   
 50  23  27  ar  
 51  24  28  ar  
 52  24  53  1   
 53  25  29  ar  
 54  25  54  1   
 55  26  29  ar  
 56  26  55  1   
 57  27  30  ar  
 58  27  56  1   
 59  28  30  ar  
 60  28  57  1   
 61  29  58  1   
 62  30  59  1   
@<TRIPOS>SUBSTRUCTURE
  1 ****   3 GROUP 4 **** **** 0

# MOE 2024.06 (io_trps.svl 2023.06)
