@<TRIPOS>MOLECULE
NONAME
30 30 1 0 0 
SMALL
USER_CHARGES


@<TRIPOS>ATOM
  1 O       -1.1970    -0.1990    -1.3120 O.2   1 <1>  -0.5700 
  2 C       -1.6830     0.0140    -0.2290 C.2   1 <1>   0.5940 
  3 C       -2.2130     1.2900     0.2000 C.2   1 <1>   0.1010 
  4 C       -1.7280    -1.1630     0.7270 C.3   1 <1>  -0.1790 
  5 N       -2.7820     1.4790     1.4220 N.pl3 1 <1>   0.0330 
  6 N       -2.2220     2.4070    -0.4970 N.2   1 <1>  -0.5650 
  7 C       -3.1570     2.7600     1.4790 C.2   1 <1>  -0.3020 
  8 C       -2.8060     3.3270     0.3010 C.2   1 <1>   0.0460 
  9 C       -2.9920     4.7740    -0.2020 C.3   1 <1>   0.7410 
 10 O       -3.8250     4.6710    -1.2950 O.3   1 <1>  -0.6800 
 11 O       -1.7940     5.1380    -0.7730 O.3   1 <1>  -0.6800 
 12 C       -3.5440     5.8470     0.8550 C.3   1 <1>   0.5600 
 13 O       -4.8650     5.6140     1.1710 O.3   1 <1>  -0.6800 
 14 O       -2.9610     5.7470     2.0920 O.3   1 <1>  -0.6800 
 15 C       -3.4240     7.3310     0.4330 C.3   1 <1>  -0.1600 
 16 C       -4.2760     7.7720    -0.7730 C.3   1 <1>  -0.2400 
 17 H       -1.1810    -0.9330     1.6220 H     1 <1>   0.0800 
 18 H       -1.2760    -2.0220     0.2630 H     1 <1>   0.0800 
 19 H       -2.7460    -1.4030     0.9680 H     1 <1>   0.0800 
 20 H       -2.9010     0.7770     2.1590 H     1 <1>   0.2700 
 21 H       -3.6430     3.2070     2.3310 H     1 <1>   0.1500 
 22 H       -3.5020     3.8860    -1.7770 H     1 <1>   0.4000 
 23 H       -1.3810     4.2890    -1.0310 H     1 <1>   0.4000 
 24 H       -5.3370     5.5120     0.3200 H     1 <1>   0.4000 
 25 H       -3.6080     6.1390     2.7040 H     1 <1>   0.4000 
 26 H       -2.3910     7.5300     0.2050 H     1 <1>   0.0800 
 27 H       -3.6890     7.9500     1.2720 H     1 <1>   0.0800 
 28 H       -3.9780     7.2480    -1.6640 H     1 <1>   0.0800 
 29 H       -4.1380     8.8250    -0.9470 H     1 <1>   0.0800 
 30 H       -5.3210     7.5950    -0.5940 H     1 <1>   0.0800 
@<TRIPOS>BOND
  1   1   2  2   
  2   2   3  1   
  3   2   4  1   
  4   3   5  1   
  5   3   6  2   
  6   4  17  1   
  7   4  18  1   
  8   4  19  1   
  9   5   7  1   
 10   5  20  1   
 11   6   8  1   
 12   7   8  2   
 13   7  21  1   
 14   8   9  1   
 15   9  10  1   
 16   9  11  1   
 17   9  12  1   
 18  10  22  1   
 19  11  23  1   
 20  12  13  1   
 21  12  14  1   
 22  12  15  1   
 23  13  24  1   
 24  14  25  1   
 25  15  16  1   
 26  15  26  1   
 27  15  27  1   
 28  16  28  1   
 29  16  29  1   
 30  16  30  1   
@<TRIPOS>SUBSTRUCTURE
  1 ****   8 GROUP 4 **** **** 0

# MOE 2024.06 (io_trps.svl 2023.06)
