@<TRIPOS>MOLECULE
F2198-8634
20 21 1 0 0 
SMALL
USER_CHARGES


@<TRIPOS>ATOM
  1 N       -2.5310     1.0020     0.2750 N.1   1 <1>  -0.5570 
  2 C       -3.6490     1.2110     0.1740 C.1   1 <1>   0.5380 
  3 C       -5.0830     1.2790     0.0520 C.2   1 <1>   0.3080 
  4 N       -5.8020     2.3650    -0.0840 N.2   1 <1>  -0.7070 
  5 C       -5.9100     0.1530     0.0610 C.2   1 <1>  -0.1810 
  6 N       -7.0830     1.9610    -0.1600 N.pl3 1 <1>   0.3000 
  7 C       -7.1660     0.6170    -0.0700 C.2   1 <1>  -0.3320 
  8 C       -5.5350    -1.3090     0.1930 C.3   1 <1>   0.5240 
  9 C       -8.3990    -0.2680    -0.1070 C.3   1 <1>   0.0200 
 10 N       -6.6920    -2.1210    -0.3000 N.4   1 <1>  -0.9060 
 11 C       -8.0120    -1.7080     0.2970 C.3   1 <1>   0.3430 
 12 H       -7.8600     2.6290    -0.2690 H     1 <1>   0.2700 
 13 H       -5.3300    -1.5360     1.2270 H     1 <1>   0.0800 
 14 H       -4.6520    -1.5210    -0.3900 H     1 <1>   0.0800 
 15 H       -8.8200    -0.2670    -1.0970 H     1 <1>   0.0800 
 16 H       -9.1480     0.1010     0.5730 H     1 <1>   0.0800 
 17 H       -6.5110    -3.1180    -0.1300 H     1 <1>   0.4500 
 18 H       -6.7430    -1.9840    -1.3160 H     1 <1>   0.4500 
 19 H       -8.7910    -2.3860    -0.0150 H     1 <1>   0.0800 
 20 H       -7.9420    -1.7570     1.3720 H     1 <1>   0.0800 
@<TRIPOS>BOND
  1   1   2  3   
  2   2   3  1   
  3   3   4  2   
  4   3   5  1   
  5   4   6  1   
  6   5   7  2   
  7   5   8  1   
  8   6   7  1   
  9   6  12  1   
 10   7   9  1   
 11   8  10  1   
 12   8  13  1   
 13   8  14  1   
 14   9  11  1   
 15   9  15  1   
 16   9  16  1   
 17  10  11  1   
 18  10  17  1   
 19  10  18  1   
 20  11  19  1   
 21  11  20  1   
@<TRIPOS>SUBSTRUCTURE
  1 ****   5 GROUP 4 **** **** 0

# MOE 2024.06 (io_trps.svl 2023.06)
