@<TRIPOS>MOLECULE
NONAME
46 48 1 0 0 
SMALL
USER_CHARGES


@<TRIPOS>ATOM
  1 O       -3.6400     1.4470    -1.9100 O.2   1 <1>  -0.5700 
  2 C       -2.6570     1.3920    -1.1930 C.2   1 <1>   0.5440 
  3 N       -2.0880     0.1680    -1.0090 N.am  1 <1>  -0.7300 
  4 C       -2.1170     2.5910    -0.5670 C.ar  1 <1>   0.0860 
  5 C       -2.6290    -1.1170    -1.4980 C.3   1 <1>   0.2200 
  6 C       -1.3020     2.5830     0.5820 C.ar  1 <1>   0.0820 
  7 C       -2.4150     3.8360    -1.1310 C.ar  1 <1>  -0.1500 
  8 C       -3.5920    -1.6760    -0.4660 C.3   1 <1>  -0.0800 
  9 C       -1.5240    -2.1730    -1.5100 C.3   1 <1>   0.1200 
 10 O       -1.0020     1.3950     1.1710 O.3   1 <1>  -0.3630 
 11 C       -0.8190     3.7820     1.1050 C.ar  1 <1>  -0.1500 
 12 C       -1.9380     5.0230    -0.6080 C.ar  1 <1>  -0.1430 
 13 C       -2.6340    -2.3700     0.5030 C.3   1 <1>   0.1200 
 14 C       -4.5950    -2.6550    -1.1040 C.3   1 <1>  -0.0170 
 15 O       -1.5330    -2.7860    -0.2510 O.3   1 <1>  -0.5600 
 16 C       -0.2160     1.2850     2.3380 C.3   1 <1>   0.0400 
 17 C       -1.1340     4.9900     0.5160 C.ar  1 <1>  -0.1500 
 18 C       -2.2850     6.3540    -1.2500 C.3   1 <1>  -0.0970 
 19 C       -5.5720    -3.2030    -0.0740 C.ar  1 <1>  -0.1430 
 20 C       -6.6070    -2.4370     0.4210 C.ar  1 <1>  -0.1500 
 21 C       -5.4770    -4.4900     0.4160 C.ar  1 <1>  -0.1500 
 22 C       -7.4720    -2.9780     1.3580 C.ar  1 <1>   0.1600 
 23 C       -6.3950    -4.9340     1.3540 C.ar  1 <1>   0.1600 
 24 N       -7.3900    -4.2080     1.8380 N.ar  1 <1>  -0.6200 
 25 H       -1.3810     0.0960    -0.2690 H     1 <1>   0.3700 
 26 H       -3.0750    -0.9810    -2.4690 H     1 <1>   0.0800 
 27 H       -3.0410     3.8620    -2.0060 H     1 <1>   0.1500 
 28 H       -4.1390    -0.8890     0.0240 H     1 <1>   0.0800 
 29 H       -0.5530    -1.7490    -1.6980 H     1 <1>   0.0800 
 30 H       -1.7370    -2.9330    -2.2400 H     1 <1>   0.0800 
 31 H       -0.1940     3.8020     1.9770 H     1 <1>   0.1500 
 32 H       -3.0680    -3.2200     0.9980 H     1 <1>   0.0800 
 33 H       -2.2760    -1.6710     1.2390 H     1 <1>   0.0800 
 34 H       -4.0740    -3.4700    -1.5750 H     1 <1>   0.0800 
 35 H       -5.1540    -2.1420    -1.8670 H     1 <1>   0.0800 
 36 H       -0.1420     0.2430     2.5960 H     1 <1>   0.0800 
 37 H       -0.6960     1.8240     3.1360 H     1 <1>   0.0800 
 38 H        0.7650     1.6800     2.1400 H     1 <1>   0.0800 
 39 H       -0.7540     5.9060     0.9330 H     1 <1>   0.1500 
 40 H       -2.8100     6.9740    -0.5450 H     1 <1>   0.0800 
 41 H       -2.9090     6.2150    -2.1140 H     1 <1>   0.0800 
 42 H       -1.3860     6.8590    -1.5550 H     1 <1>   0.0800 
 43 H       -6.7490    -1.4250     0.0860 H     1 <1>   0.1500 
 44 H       -4.6990    -5.1500     0.0810 H     1 <1>   0.1500 
 45 H       -8.2730    -2.3640     1.7330 H     1 <1>   0.1500 
 46 H       -6.3040    -5.9400     1.7260 H     1 <1>   0.1500 
@<TRIPOS>BOND
  1   1   2  2   
  2   2   3  am  
  3   2   4  1   
  4   3   5  1   
  5   3  25  1   
  6   4   6  ar  
  7   4   7  ar  
  8   5   8  1   
  9   5   9  1   
 10   5  26  1   
 11   6  10  1   
 12   6  11  ar  
 13   7  12  ar  
 14   7  27  1   
 15   8  13  1   
 16   8  14  1   
 17   8  28  1   
 18   9  15  1   
 19   9  29  1   
 20   9  30  1   
 21  10  16  1   
 22  11  17  ar  
 23  11  31  1   
 24  12  17  ar  
 25  12  18  1   
 26  13  15  1   
 27  13  32  1   
 28  13  33  1   
 29  14  19  1   
 30  14  34  1   
 31  14  35  1   
 32  16  36  1   
 33  16  37  1   
 34  16  38  1   
 35  17  39  1   
 36  18  40  1   
 37  18  41  1   
 38  18  42  1   
 39  19  20  ar  
 40  19  21  ar  
 41  20  22  ar  
 42  20  43  1   
 43  21  23  ar  
 44  21  44  1   
 45  22  24  ar  
 46  22  45  1   
 47  23  24  ar  
 48  23  46  1   
@<TRIPOS>SUBSTRUCTURE
  1 ****   3 GROUP 4 **** **** 0

# MOE 2024.06 (io_trps.svl 2023.06)
