@<TRIPOS>MOLECULE
NONAME
38 39 1 0 0 
SMALL
USER_CHARGES


@<TRIPOS>ATOM
  1 S        0.0850    -0.1550    -0.7680 S.o2  1 <1>   1.3330 
  2 O        0.8460    -0.2100    -1.9960 O.2   1 <1>  -0.6500 
  3 O       -0.7500    -1.2710    -0.3890 O.2   1 <1>  -0.6500 
  4 N        1.1820     0.1090     0.5020 N.am  1 <1>  -0.8490 
  5 C       -0.9080     1.3410    -0.8150 C.3   1 <1>  -0.0550 
  6 C        0.5930    -0.0590     1.8360 C.3   1 <1>   0.1160 
  7 C        2.3740    -0.7360     0.3820 C.3   1 <1>   0.1160 
  8 C       -0.1220     2.6220    -1.1760 C.3   1 <1>  -0.0800 
  9 C       -0.9960     3.8640    -1.3570 C.3   1 <1>   0.2000 
 10 C        0.9090     3.0420    -0.1210 C.3   1 <1>   0.2090 
 11 O       -1.9220     3.9190    -0.3250 O.3   1 <1>  -0.6800 
 12 C       -0.0100     5.0140    -1.1720 C.3   1 <1>   0.2090 
 13 N        0.9210     4.5340    -0.1060 N.pl3 1 <1>  -0.8380 
 14 C        2.0920     5.2300     0.2030 C.ar  1 <1>   0.4100 
 15 N        2.5080     6.0640    -0.7480 N.ar  1 <1>  -0.6200 
 16 C        2.7900     5.0750     1.4310 C.ar  1 <1>   0.3830 
 17 C        3.6180     6.7030    -0.4400 C.ar  1 <1>   0.1600 
 18 N        3.9170     5.7290     1.7200 N.ar  1 <1>  -0.6200 
 19 C        2.2660     4.1800     2.4240 C.1   1 <1>   0.4840 
 20 C        4.3030     6.5410     0.7530 C.ar  1 <1>   0.1600 
 21 N        1.8370     3.4380     3.1840 N.1   1 <1>  -0.5570 
 22 H       -1.6790     1.2070    -1.5490 H     1 <1>   0.0800 
 23 H       -1.3950     1.4700     0.1310 H     1 <1>   0.0800 
 24 H        1.3110     0.2090     2.5940 H     1 <1>   0.0800 
 25 H        0.2870    -1.0820     1.9880 H     1 <1>   0.0800 
 26 H       -0.2660     0.5780     1.9510 H     1 <1>   0.0800 
 27 H        3.0600    -0.5310     1.1870 H     1 <1>   0.0800 
 28 H        2.8780    -0.5350    -0.5490 H     1 <1>   0.0800 
 29 H        2.0980    -1.7770     0.4070 H     1 <1>   0.0800 
 30 H        0.4080     2.4550    -2.0990 H     1 <1>   0.0800 
 31 H       -1.5190     3.8940    -2.2980 H     1 <1>   0.0800 
 32 H        1.8850     2.6460    -0.3540 H     1 <1>   0.0800 
 33 H        0.6020     2.6890     0.8480 H     1 <1>   0.0800 
 34 H       -1.4430     4.1780     0.4910 H     1 <1>   0.4000 
 35 H       -0.5030     5.9280    -0.8860 H     1 <1>   0.0800 
 36 H        0.5330     5.1720    -2.0880 H     1 <1>   0.0800 
 37 H        4.0080     7.3920    -1.1700 H     1 <1>   0.1500 
 38 H        5.2050     7.1060     0.9140 H     1 <1>   0.1500 
@<TRIPOS>BOND
  1   1   2  2   
  2   1   3  2   
  3   1   4  am  
  4   1   5  1   
  5   4   6  1   
  6   4   7  1   
  7   5   8  1   
  8   5  22  1   
  9   5  23  1   
 10   6  24  1   
 11   6  25  1   
 12   6  26  1   
 13   7  27  1   
 14   7  28  1   
 15   7  29  1   
 16   8   9  1   
 17   8  10  1   
 18   8  30  1   
 19   9  11  1   
 20   9  12  1   
 21   9  31  1   
 22  10  13  1   
 23  10  32  1   
 24  10  33  1   
 25  11  34  1   
 26  12  13  1   
 27  12  35  1   
 28  12  36  1   
 29  13  14  1   
 30  14  15  ar  
 31  14  16  ar  
 32  15  17  ar  
 33  16  18  ar  
 34  16  19  1   
 35  17  20  ar  
 36  17  37  1   
 37  18  20  ar  
 38  19  21  3   
 39  20  38  1   
@<TRIPOS>SUBSTRUCTURE
  1 ****  10 GROUP 4 **** **** 0

# MOE 2024.06 (io_trps.svl 2023.06)
