@<TRIPOS>MOLECULE
NONAME
54 56 1 0 0 
SMALL
USER_CHARGES


@<TRIPOS>ATOM
  1 CL      -1.7790    -2.3700    -1.2050 Cl    1 <1>  -0.1770 
  2 C       -3.0220    -1.1900    -0.8880 C.ar  1 <1>   0.1770 
  3 C       -3.9500    -1.4280     0.1080 C.ar  1 <1>  -0.1500 
  4 C       -3.0650    -0.0290    -1.6360 C.ar  1 <1>  -0.1500 
  5 C       -4.9350    -0.4890     0.3540 C.ar  1 <1>  -0.1500 
  6 C       -4.0580     0.9010    -1.3840 C.ar  1 <1>  -0.1500 
  7 C       -5.0180     0.6900    -0.3910 C.ar  1 <1>   0.0530 
  8 C       -6.0600     1.6570    -0.1580 C.2   1 <1>   0.0870 
  9 O       -5.8590     2.9330    -0.3690 O.3   1 <1>  -0.0190 
 10 C       -7.3460     1.5260     0.2560 C.2   1 <1>  -0.0860 
 11 N       -6.9160     3.6630    -0.1220 N.2   1 <1>  -0.4100 
 12 C       -7.8220     2.8390     0.2600 C.2   1 <1>   0.3720 
 13 C       -8.0830     0.3480     0.5750 C.2   1 <1>   0.7160 
 14 N       -9.0890     3.2910     0.6050 N.pl3 1 <1>  -0.8520 
 15 O       -8.1920     0.0020     1.7370 O.2   1 <1>  -0.5700 
 16 N       -8.6610    -0.4200    -0.4150 N.am  1 <1>  -0.6600 
 17 C      -10.2560     2.6820    -0.0880 C.3   1 <1>   0.2090 
 18 C       -9.5730    -1.5600    -0.1040 C.3   1 <1>   0.1400 
 19 C       -8.4510    -0.2030    -1.8710 C.3   1 <1>   0.1400 
 20 C      -11.1070     1.8880     0.9050 C.3   1 <1>   0.1200 
 21 C       -9.0370    -2.8890    -0.6840 C.3   1 <1>   0.0000 
 22 C       -7.8630    -1.4740    -2.4900 C.3   1 <1>  -0.1600 
 23 O      -12.0530     1.1470     0.1940 O.3   1 <1>  -0.5600 
 24 C       -8.7340    -2.7090    -2.1940 C.3   1 <1>  -0.1600 
 25 C      -10.1370    -3.9560    -0.4800 C.3   1 <1>   0.1200 
 26 C       -7.7610    -3.3100     0.0790 C.3   1 <1>  -0.2400 
 27 C      -12.8780     0.3780     1.0080 C.3   1 <1>   0.0400 
 28 O       -9.7510    -5.1890    -0.9860 O.3   1 <1>  -0.6800 
 29 H       -3.8950    -2.3350     0.6830 H     1 <1>   0.1500 
 30 H       -2.3300     0.1380    -2.4020 H     1 <1>   0.1500 
 31 H       -5.6450    -0.6750     1.1410 H     1 <1>   0.1500 
 32 H       -4.0920     1.8070    -1.9660 H     1 <1>   0.1500 
 33 H       -9.1020     4.3130     0.5200 H     1 <1>   0.4000 
 34 H       -9.9210     2.0300    -0.8740 H     1 <1>   0.0800 
 35 H      -10.8570     3.4610    -0.5250 H     1 <1>   0.0800 
 36 H      -10.5370    -1.3400    -0.5280 H     1 <1>   0.0800 
 37 H       -9.7060    -1.6590     0.9600 H     1 <1>   0.0800 
 38 H       -7.7900     0.6250    -2.0570 H     1 <1>   0.0800 
 39 H       -9.4000     0.0190    -2.3310 H     1 <1>   0.0800 
 40 H      -11.6180     2.5580     1.5730 H     1 <1>   0.0800 
 41 H      -10.4930     1.2080     1.4670 H     1 <1>   0.0800 
 42 H       -6.8670    -1.6200    -2.1100 H     1 <1>   0.0800 
 43 H       -7.7820    -1.3420    -3.5540 H     1 <1>   0.0800 
 44 H       -9.6630    -2.5990    -2.7260 H     1 <1>   0.0800 
 45 H       -8.2380    -3.5830    -2.5790 H     1 <1>   0.0800 
 46 H      -11.0460    -3.6670    -0.9790 H     1 <1>   0.0800 
 47 H      -10.3470    -4.0880     0.5680 H     1 <1>   0.0800 
 48 H       -6.9990    -2.5560     0.0120 H     1 <1>   0.0800 
 49 H       -7.3630    -4.2260    -0.3180 H     1 <1>   0.0800 
 50 H       -7.9820    -3.4630     1.1200 H     1 <1>   0.0800 
 51 H      -13.5630    -0.1610     0.3780 H     1 <1>   0.0800 
 52 H      -13.4270     1.0260     1.6700 H     1 <1>   0.0800 
 53 H      -12.2760    -0.3150     1.5700 H     1 <1>   0.0800 
 54 H       -9.4710    -5.1020    -1.9170 H     1 <1>   0.4000 
@<TRIPOS>BOND
  1   1   2  1   
  2   2   3  ar  
  3   2   4  ar  
  4   3   5  ar  
  5   3  29  1   
  6   4   6  ar  
  7   4  30  1   
  8   5   7  ar  
  9   5  31  1   
 10   6   7  ar  
 11   6  32  1   
 12   7   8  1   
 13   8   9  1   
 14   8  10  2   
 15   9  11  1   
 16  10  12  1   
 17  10  13  1   
 18  11  12  2   
 19  12  14  1   
 20  13  15  2   
 21  13  16  am  
 22  14  17  1   
 23  14  33  1   
 24  16  18  1   
 25  16  19  1   
 26  17  20  1   
 27  17  34  1   
 28  17  35  1   
 29  18  21  1   
 30  18  36  1   
 31  18  37  1   
 32  19  22  1   
 33  19  38  1   
 34  19  39  1   
 35  20  23  1   
 36  20  40  1   
 37  20  41  1   
 38  21  24  1   
 39  21  25  1   
 40  21  26  1   
 41  22  24  1   
 42  22  42  1   
 43  22  43  1   
 44  23  27  1   
 45  24  44  1   
 46  24  45  1   
 47  25  28  1   
 48  25  46  1   
 49  25  47  1   
 50  26  48  1   
 51  26  49  1   
 52  26  50  1   
 53  27  51  1   
 54  27  52  1   
 55  27  53  1   
 56  28  54  1   
@<TRIPOS>SUBSTRUCTURE
  1 ****  13 GROUP 4 **** **** 0

# MOE 2024.06 (io_trps.svl 2023.06)
