@<TRIPOS>MOLECULE
NONAME
42 43 1 0 0 
SMALL
USER_CHARGES


@<TRIPOS>ATOM
  1 O       -0.6710    -0.4620     0.6750 O.co2 1 <1>  -0.9000 
  2 C       -0.6280    -1.7000     0.6110 C.2   1 <1>   1.0330 
  3 O       -1.6960    -2.3130     0.4070 O.co2 1 <1>  -0.9000 
  4 C        0.6060    -2.4150     0.7540 C.2   1 <1>  -0.2330 
  5 C        0.6850    -3.7780     1.0360 C.2   1 <1>   0.3720 
  6 C        1.9130    -2.0400     0.6710 C.2   1 <1>   0.0870 
  7 N        1.9010    -4.1820     1.1150 N.2   1 <1>  -0.4100 
  8 N       -0.4180    -4.6000     1.2010 N.pl3 1 <1>  -0.8520 
  9 O        2.6290    -3.1190     0.8980 O.3   1 <1>  -0.0190 
 10 C        2.5990    -0.8020     0.3870 C.ar  1 <1>   0.0530 
 11 C       -0.4260    -5.8120     0.3450 C.3   1 <1>   0.2090 
 12 C        2.0690     0.1700    -0.4620 C.ar  1 <1>  -0.1500 
 13 C        3.8520    -0.5400     0.9450 C.ar  1 <1>  -0.1500 
 14 C       -1.8300    -6.4330     0.2750 C.3   1 <1>   0.2000 
 15 C        2.7440     1.3440    -0.7390 C.ar  1 <1>  -0.1500 
 16 C        4.5380     0.6290     0.6710 C.ar  1 <1>  -0.1500 
 17 O       -1.7290    -7.6470    -0.4110 O.3   1 <1>  -0.5600 
 18 C       -2.8330    -5.5450    -0.4710 C.3   1 <1>  -0.2400 
 19 C        3.9920     1.5830    -0.1720 C.ar  1 <1>   0.0820 
 20 C       -2.6510    -8.6160    -0.0360 C.3   1 <1>   0.1200 
 21 O        4.7200     2.7050    -0.3890 O.3   1 <1>  -0.3630 
 22 C       -2.3870    -9.8510    -0.8880 C.3   1 <1>  -0.2400 
 23 C        4.2110     3.7650    -1.1670 C.3   1 <1>   0.0400 
 24 H       -1.2380    -3.9990     0.9650 H     1 <1>   0.4000 
 25 H        0.2590    -6.5290     0.7620 H     1 <1>   0.0800 
 26 H       -0.0980    -5.5530    -0.6470 H     1 <1>   0.0800 
 27 H        1.1060     0.0010    -0.9100 H     1 <1>   0.1500 
 28 H        4.2910    -1.2660     1.6050 H     1 <1>   0.1500 
 29 H       -2.1630    -6.6270     1.2810 H     1 <1>   0.0800 
 30 H        2.2790     2.0550    -1.3940 H     1 <1>   0.1500 
 31 H        5.5010     0.8120     1.1110 H     1 <1>   0.1500 
 32 H       -2.4830    -5.3460    -1.4680 H     1 <1>   0.0800 
 33 H       -2.9400    -4.6030     0.0380 H     1 <1>   0.0800 
 34 H       -3.8010    -6.0050    -0.5140 H     1 <1>   0.0800 
 35 H       -3.6460    -8.2430    -0.2080 H     1 <1>   0.0800 
 36 H       -2.5140    -8.8390     1.0080 H     1 <1>   0.0800 
 37 H       -2.5110    -9.6120    -1.9290 H     1 <1>   0.0800 
 38 H       -3.0820   -10.6280    -0.6280 H     1 <1>   0.0800 
 39 H       -1.3880   -10.2090    -0.7190 H     1 <1>   0.0800 
 40 H        4.9410     4.5540    -1.1770 H     1 <1>   0.0800 
 41 H        3.2970     4.1160    -0.7200 H     1 <1>   0.0800 
 42 H        4.0390     3.4110    -2.1680 H     1 <1>   0.0800 
@<TRIPOS>BOND
  1   1   2  ar  
  2   2   3  ar  
  3   2   4  1   
  4   4   5  1   
  5   4   6  2   
  6   5   7  2   
  7   5   8  1   
  8   6   9  1   
  9   6  10  1   
 10   7   9  1   
 11   8  11  1   
 12   8  24  1   
 13  10  12  ar  
 14  10  13  ar  
 15  11  14  1   
 16  11  25  1   
 17  11  26  1   
 18  12  15  ar  
 19  12  27  1   
 20  13  16  ar  
 21  13  28  1   
 22  14  17  1   
 23  14  18  1   
 24  14  29  1   
 25  15  19  ar  
 26  15  30  1   
 27  16  19  ar  
 28  16  31  1   
 29  17  20  1   
 30  18  32  1   
 31  18  33  1   
 32  18  34  1   
 33  19  21  1   
 34  20  22  1   
 35  20  35  1   
 36  20  36  1   
 37  21  23  1   
 38  22  37  1   
 39  22  38  1   
 40  22  39  1   
 41  23  40  1   
 42  23  41  1   
 43  23  42  1   
@<TRIPOS>SUBSTRUCTURE
  1 ****   4 GROUP 4 **** **** 0

# MOE 2024.06 (io_trps.svl 2023.06)
