@<TRIPOS>MOLECULE
NONAME
56 59 1 0 0 
SMALL
USER_CHARGES


@<TRIPOS>ATOM
  1 O       -0.5530    -1.5870     0.5250 O.2   1 <1>  -0.5700 
  2 C       -0.8930    -0.4760     0.8640 C.2   1 <1>   0.5690 
  3 N       -2.0110     0.1260     0.3350 N.am  1 <1>  -0.6600 
  4 C       -0.0380     0.2060     1.9260 C.3   1 <1>   0.0440 
  5 C       -2.4560     1.5290     0.6280 C.3   1 <1>   0.1400 
  6 C       -2.9320    -0.6250    -0.5680 C.3   1 <1>   0.1400 
  7 C        0.8790     1.2870     1.3610 C.ar  1 <1>  -0.1440 
  8 C       -2.6890     2.3390    -0.6640 C.3   1 <1>   0.1440 
  9 C       -3.1550     0.1490    -1.8710 C.3   1 <1>  -0.1600 
 10 C        0.9160     2.5520     1.9280 C.ar  1 <1>  -0.1500 
 11 C        1.6920     1.0090     0.2730 C.ar  1 <1>  -0.1500 
 12 C       -3.2330     3.7020    -0.2800 C.ar  1 <1>   0.1660 
 13 C       -3.6530     1.5780    -1.5980 C.3   1 <1>  -0.1600 
 14 C       -1.3550     2.6920    -1.3790 C.3   1 <1>  -0.1600 
 15 C        1.7440     3.5280     1.4040 C.ar  1 <1>  -0.1500 
 16 C        2.5180     1.9860    -0.2520 C.ar  1 <1>  -0.1500 
 17 N       -4.4260     3.9270     0.2130 N.ar  1 <1>  -0.6200 
 18 C       -2.3190     4.6890    -0.4890 C.ar  1 <1>  -0.1430 
 19 C       -1.0220     4.1560    -1.0400 C.3   1 <1>  -0.0170 
 20 C        2.5450     3.2540     0.3070 C.ar  1 <1>  -0.1430 
 21 C       -4.6990     5.2060     0.4860 C.ar  1 <1>   0.7200 
 22 C       -2.6840     5.9720    -0.1740 C.ar  1 <1>   0.1600 
 23 C        3.4330     4.3340    -0.2820 C.3   1 <1>   0.2630 
 24 N       -3.8720     6.2430     0.3140 N.ar  1 <1>  -0.6200 
 25 N       -5.9530     5.4820     0.9970 N.pl3 1 <1>  -0.8380 
 26 O        2.7020     4.9730    -1.2630 O.3   1 <1>  -0.6800 
 27 C       -6.8720     4.4110     1.4690 C.3   1 <1>   0.1290 
 28 C       -6.4870     6.8710     1.0690 C.3   1 <1>   0.1290 
 29 H        0.5730    -0.5400     2.3990 H     1 <1>   0.0800 
 30 H       -0.6820     0.6100     2.6830 H     1 <1>   0.0800 
 31 H       -1.7400     2.0470     1.2360 H     1 <1>   0.0800 
 32 H       -3.3800     1.4850     1.1790 H     1 <1>   0.0800 
 33 H       -3.8730    -0.7650    -0.0640 H     1 <1>   0.0800 
 34 H       -2.5330    -1.5990    -0.7970 H     1 <1>   0.0800 
 35 H       -3.8790    -0.3740    -2.4710 H     1 <1>   0.0800 
 36 H       -2.2330     0.1730    -2.4240 H     1 <1>   0.0800 
 37 H        0.3010     2.7870     2.7790 H     1 <1>   0.1500 
 38 H        1.6830     0.0260    -0.1700 H     1 <1>   0.1500 
 39 H       -3.7740     2.1150    -2.5230 H     1 <1>   0.0800 
 40 H       -4.6210     1.5240    -1.1300 H     1 <1>   0.0800 
 41 H       -1.4830     2.6180    -2.4440 H     1 <1>   0.0800 
 42 H       -0.5560     2.0320    -1.0940 H     1 <1>   0.0800 
 43 H        1.7590     4.5080     1.8500 H     1 <1>   0.1500 
 44 H        3.1390     1.7500    -1.0990 H     1 <1>   0.1500 
 45 H       -0.7090     4.7030    -1.9120 H     1 <1>   0.0800 
 46 H       -0.2610     4.2100    -0.2850 H     1 <1>   0.0800 
 47 H       -1.9940     6.7850    -0.3210 H     1 <1>   0.1500 
 48 H        4.3130     3.9100    -0.7340 H     1 <1>   0.0800 
 49 H        3.7220     5.0610     0.4570 H     1 <1>   0.0800 
 50 H        2.2060     4.3000    -1.7660 H     1 <1>   0.4000 
 51 H       -6.3120     3.5750     1.8540 H     1 <1>   0.0800 
 52 H       -7.4840     4.0750     0.6500 H     1 <1>   0.0800 
 53 H       -7.5040     4.7840     2.2560 H     1 <1>   0.0800 
 54 H       -6.0710     7.4760     0.2820 H     1 <1>   0.0800 
 55 H       -6.2280     7.3050     2.0180 H     1 <1>   0.0800 
 56 H       -7.5570     6.8640     0.9590 H     1 <1>   0.0800 
@<TRIPOS>BOND
  1   1   2  2   
  2   2   3  am  
  3   2   4  1   
  4   3   5  1   
  5   3   6  1   
  6   4   7  1   
  7   4  29  1   
  8   4  30  1   
  9   5   8  1   
 10   5  31  1   
 11   5  32  1   
 12   6   9  1   
 13   6  33  1   
 14   6  34  1   
 15   7  10  ar  
 16   7  11  ar  
 17   8  12  1   
 18   8  13  1   
 19   8  14  1   
 20   9  13  1   
 21   9  35  1   
 22   9  36  1   
 23  10  15  ar  
 24  10  37  1   
 25  11  16  ar  
 26  11  38  1   
 27  12  17  ar  
 28  12  18  ar  
 29  13  39  1   
 30  13  40  1   
 31  14  19  1   
 32  14  41  1   
 33  14  42  1   
 34  15  20  ar  
 35  15  43  1   
 36  16  20  ar  
 37  16  44  1   
 38  17  21  ar  
 39  18  19  1   
 40  18  22  ar  
 41  19  45  1   
 42  19  46  1   
 43  20  23  1   
 44  21  24  ar  
 45  21  25  1   
 46  22  24  ar  
 47  22  47  1   
 48  23  26  1   
 49  23  48  1   
 50  23  49  1   
 51  25  27  1   
 52  25  28  1   
 53  26  50  1   
 54  27  51  1   
 55  27  52  1   
 56  27  53  1   
 57  28  54  1   
 58  28  55  1   
 59  28  56  1   
@<TRIPOS>SUBSTRUCTURE
  1 ****   8 GROUP 4 **** **** 0

# MOE 2024.06 (io_trps.svl 2023.06)
