@<TRIPOS>MOLECULE
NONAME
50 54 1 0 0 
SMALL
USER_CHARGES


@<TRIPOS>ATOM
  1 O       -0.8370     0.0240     0.7300 O.3   1 <1>  -0.0190 
  2 N       -1.6930    -0.8470     1.1410 N.2   1 <1>  -0.4100 
  3 C       -1.4470     1.1200     0.3690 C.2   1 <1>   0.4250 
  4 C       -2.8150    -0.2390     1.0100 C.2   1 <1>   0.5990 
  5 N       -2.7160     1.0040     0.5260 N.2   1 <1>  -0.5650 
  6 C       -0.7080     2.2580    -0.1340 C.ar  1 <1>   0.0530 
  7 N       -4.0580    -0.7760     1.3430 N.pl3 1 <1>  -0.8210 
  8 C        0.6840     2.2400    -0.2540 C.ar  1 <1>  -0.1500 
  9 C       -1.3670     3.4250    -0.5230 C.ar  1 <1>  -0.1500 
 10 C       -5.2560    -0.2030     0.6840 C.3   1 <1>   0.2090 
 11 C       -4.1770    -2.2530     1.4320 C.3   1 <1>   0.2090 
 12 C        1.3810     3.3320    -0.7380 C.ar  1 <1>  -0.1500 
 13 C       -0.6760     4.5210    -1.0070 C.ar  1 <1>  -0.1500 
 14 C       -6.3290    -1.2870     0.7770 C.3   1 <1>  -0.0800 
 15 C       -5.5750    -2.6210     0.9240 C.3   1 <1>  -0.0800 
 16 C        0.7020     4.4760    -1.1160 C.ar  1 <1>  -0.1500 
 17 C       -7.4090    -1.2430    -0.3360 C.3   1 <1>   0.4240 
 18 C       -5.5420    -3.4300    -0.3840 C.3   1 <1>  -0.1600 
 19 O       -6.8150    -0.9500    -1.5520 O.3   1 <1>  -0.6800 
 20 C       -8.4770    -0.1760    -0.0190 C.ar  1 <1>  -0.1430 
 21 C       -8.0080    -2.6480    -0.5250 C.3   1 <1>  -0.1600 
 22 C       -6.9610    -3.7200    -0.9170 C.3   1 <1>  -0.1600 
 23 C       -9.3800    -0.3800     1.0210 C.ar  1 <1>  -0.1500 
 24 C       -8.5680     1.0170    -0.7320 C.ar  1 <1>  -0.1500 
 25 C      -10.3410     0.5650     1.3330 C.ar  1 <1>  -0.1500 
 26 C       -9.5280     1.9650    -0.4230 C.ar  1 <1>  -0.1500 
 27 C      -10.4180     1.7400     0.6100 C.ar  1 <1>  -0.1500 
 28 H        1.2330     1.3610     0.0350 H     1 <1>   0.1500 
 29 H       -2.4400     3.4730    -0.4420 H     1 <1>   0.1500 
 30 H       -5.5700     0.6960     1.1870 H     1 <1>   0.0800 
 31 H       -5.0130     0.0380    -0.3360 H     1 <1>   0.0800 
 32 H       -3.4140    -2.7380     0.8460 H     1 <1>   0.0800 
 33 H       -4.0630    -2.5460     2.4610 H     1 <1>   0.0800 
 34 H        2.4540     3.2940    -0.8210 H     1 <1>   0.1500 
 35 H       -1.2100     5.4080    -1.3000 H     1 <1>   0.1500 
 36 H       -6.8270    -1.1270     1.7160 H     1 <1>   0.0800 
 37 H       -6.0610    -3.2260     1.6710 H     1 <1>   0.0800 
 38 H        1.2420     5.3270    -1.4930 H     1 <1>   0.1500 
 39 H       -4.9810    -2.8780    -1.1200 H     1 <1>   0.0800 
 40 H       -5.0250    -4.3610    -0.2270 H     1 <1>   0.0800 
 41 H       -6.2570    -1.7090    -1.7960 H     1 <1>   0.4000 
 42 H       -8.4590    -2.9530     0.4010 H     1 <1>   0.0800 
 43 H       -8.7950    -2.6090    -1.2580 H     1 <1>   0.0800 
 44 H       -7.2950    -4.6710    -0.5400 H     1 <1>   0.0800 
 45 H       -6.9180    -3.8050    -1.9900 H     1 <1>   0.0800 
 46 H       -9.3440    -1.2800     1.6080 H     1 <1>   0.1500 
 47 H       -7.8890     1.2250    -1.5410 H     1 <1>   0.1500 
 48 H      -11.0310     0.3870     2.1400 H     1 <1>   0.1500 
 49 H       -9.5810     2.8780    -0.9900 H     1 <1>   0.1500 
 50 H      -11.1650     2.4760     0.8500 H     1 <1>   0.1500 
@<TRIPOS>BOND
  1   1   2  1   
  2   1   3  1   
  3   2   4  2   
  4   3   5  2   
  5   3   6  1   
  6   4   5  1   
  7   4   7  1   
  8   6   8  ar  
  9   6   9  ar  
 10   7  10  1   
 11   7  11  1   
 12   8  12  ar  
 13   8  28  1   
 14   9  13  ar  
 15   9  29  1   
 16  10  14  1   
 17  10  30  1   
 18  10  31  1   
 19  11  15  1   
 20  11  32  1   
 21  11  33  1   
 22  12  16  ar  
 23  12  34  1   
 24  13  16  ar  
 25  13  35  1   
 26  14  15  1   
 27  14  17  1   
 28  14  36  1   
 29  15  18  1   
 30  15  37  1   
 31  16  38  1   
 32  17  19  1   
 33  17  20  1   
 34  17  21  1   
 35  18  22  1   
 36  18  39  1   
 37  18  40  1   
 38  19  41  1   
 39  20  23  ar  
 40  20  24  ar  
 41  21  22  1   
 42  21  42  1   
 43  21  43  1   
 44  22  44  1   
 45  22  45  1   
 46  23  25  ar  
 47  23  46  1   
 48  24  26  ar  
 49  24  47  1   
 50  25  27  ar  
 51  25  48  1   
 52  26  27  ar  
 53  26  49  1   
 54  27  50  1   
@<TRIPOS>SUBSTRUCTURE
  1 ****  10 GROUP 4 **** **** 0

# MOE 2024.06 (io_trps.svl 2023.06)
