@<TRIPOS>MOLECULE
NONAME
49 51 1 0 0 
SMALL
USER_CHARGES


@<TRIPOS>ATOM
  1 O       -0.2790     0.7160     0.7830 O.2   1 <1>  -0.5700 
  2 C       -0.2190     1.9150     0.6450 C.2   1 <1>   0.5690 
  3 N       -1.2430     2.7570     0.9890 N.am  1 <1>  -0.6600 
  4 C        1.0580     2.5000     0.0500 C.3   1 <1>   0.1810 
  5 C       -1.1420     4.2330     0.6810 C.3   1 <1>   0.3640 
  6 C       -2.4300     2.2200     1.7250 C.3   1 <1>   0.2200 
  7 O        1.3050     3.7940     0.5340 O.3   1 <1>  -0.5600 
  8 C       -2.1480     4.6190    -0.4050 C.ar  1 <1>  -0.1440 
  9 C        0.2690     4.7200     0.2420 C.3   1 <1>   0.2610 
 10 C       -3.5870     1.9460     0.7660 C.3   1 <1>  -0.2400 
 11 C       -2.8660     3.1330     2.8720 C.3   1 <1>  -0.2400 
 12 C       -2.2470     3.8910    -1.5850 C.ar  1 <1>  -0.1500 
 13 C       -2.9710     5.7210    -0.2260 C.ar  1 <1>  -0.1500 
 14 C        0.5770     6.0760     0.8910 C.2   1 <1>   0.5690 
 15 C       -3.1540     4.2570    -2.5640 C.ar  1 <1>  -0.1500 
 16 C       -3.8790     6.0880    -1.2040 C.ar  1 <1>  -0.1500 
 17 O       -0.1910     7.0010     0.7570 O.2   1 <1>  -0.5700 
 18 N        1.7270     6.2270     1.5960 N.am  1 <1>  -0.7300 
 19 C       -3.9710     5.3560    -2.3740 C.ar  1 <1>  -0.1500 
 20 C        2.1870     7.4650     2.2680 C.3   1 <1>   0.3200 
 21 C        2.6420     8.4940     1.2500 C.2   1 <1>   0.0060 
 22 N        3.8120     9.0300     1.1890 N.2   1 <1>  -0.3380 
 23 N        1.8430     8.9620     0.2950 N.pl3 1 <1>   0.0330 
 24 N        3.7940     9.8830     0.1600 N.2   1 <1>  -0.3380 
 25 C        2.6150     9.8270    -0.3590 C.2   1 <1>   0.0060 
 26 C        2.1540    10.6300    -1.5560 C.3   1 <1>  -0.0600 
 27 H        0.9850     2.5340    -1.0220 H     1 <1>   0.0800 
 28 H        1.8940     1.8820     0.3250 H     1 <1>   0.0800 
 29 H       -1.3890     4.7740     1.5770 H     1 <1>   0.0800 
 30 H       -2.1530     1.2760     2.1660 H     1 <1>   0.0800 
 31 H        0.2760     4.8690    -0.8230 H     1 <1>   0.0800 
 32 H       -4.0070     2.8590     0.3860 H     1 <1>   0.0800 
 33 H       -4.3650     1.4130     1.2820 H     1 <1>   0.0800 
 34 H       -3.2500     1.3370    -0.0530 H     1 <1>   0.0800 
 35 H       -3.2990     4.0450     2.5030 H     1 <1>   0.0800 
 36 H       -2.0300     3.3520     3.5110 H     1 <1>   0.0800 
 37 H       -3.6130     2.6310     3.4610 H     1 <1>   0.0800 
 38 H       -1.6260     3.0270    -1.7460 H     1 <1>   0.1500 
 39 H       -2.9090     6.3080     0.6750 H     1 <1>   0.1500 
 40 H       -3.2270     3.6840    -3.4720 H     1 <1>   0.1500 
 41 H       -4.5140     6.9440    -1.0550 H     1 <1>   0.1500 
 42 H        2.3850     5.4390     1.5970 H     1 <1>   0.3700 
 43 H       -4.6780     5.6400    -3.1340 H     1 <1>   0.1500 
 44 H        1.3820     7.8760     2.8520 H     1 <1>   0.0800 
 45 H        3.0030     7.2330     2.9300 H     1 <1>   0.0800 
 46 H        0.8710     8.6770     0.1290 H     1 <1>   0.2700 
 47 H        1.3270    11.2590    -1.2820 H     1 <1>   0.0800 
 48 H        1.8530     9.9700    -2.3490 H     1 <1>   0.0800 
 49 H        2.9580    11.2510    -1.9090 H     1 <1>   0.0800 
@<TRIPOS>BOND
  1   1   2  2   
  2   2   3  am  
  3   2   4  1   
  4   3   5  1   
  5   3   6  1   
  6   4   7  1   
  7   4  27  1   
  8   4  28  1   
  9   5   8  1   
 10   5   9  1   
 11   5  29  1   
 12   6  10  1   
 13   6  11  1   
 14   6  30  1   
 15   7   9  1   
 16   8  12  ar  
 17   8  13  ar  
 18   9  14  1   
 19   9  31  1   
 20  10  32  1   
 21  10  33  1   
 22  10  34  1   
 23  11  35  1   
 24  11  36  1   
 25  11  37  1   
 26  12  15  ar  
 27  12  38  1   
 28  13  16  ar  
 29  13  39  1   
 30  14  17  2   
 31  14  18  am  
 32  15  19  ar  
 33  15  40  1   
 34  16  19  ar  
 35  16  41  1   
 36  18  20  1   
 37  18  42  1   
 38  19  43  1   
 39  20  21  1   
 40  20  44  1   
 41  20  45  1   
 42  21  22  2   
 43  21  23  1   
 44  22  24  1   
 45  23  25  1   
 46  23  46  1   
 47  24  25  2   
 48  25  26  1   
 49  26  47  1   
 50  26  48  1   
 51  26  49  1   
@<TRIPOS>SUBSTRUCTURE
  1 ****   9 GROUP 4 **** **** 0

# MOE 2024.06 (io_trps.svl 2023.06)
