@<TRIPOS>MOLECULE
NONAME
56 60 1 0 0 
SMALL
USER_CHARGES


@<TRIPOS>ATOM
  1 O        1.7400     2.3180     1.9260 O.2   1 <1>  -0.5700 
  2 C        1.1590     3.0400     1.1550 C.2   1 <1>   0.5690 
  3 N        1.8320     3.9320     0.3910 N.am  1 <1>  -0.5470 
  4 C       -0.3640     2.9870     1.0360 C.3   1 <1>   0.1810 
  5 C        1.1900     4.7310    -0.5570 C.ar  1 <1>   0.1170 
  6 O       -0.8650     3.5380    -0.1860 O.3   1 <1>  -0.3630 
  7 C       -0.1630     4.5090    -0.8280 C.ar  1 <1>   0.0830 
  8 C        1.8640     5.7310    -1.2360 C.ar  1 <1>  -0.1500 
  9 C       -0.8110     5.2780    -1.7760 C.ar  1 <1>  -0.1500 
 10 C        1.2220     6.5330    -2.1780 C.ar  1 <1>   0.0860 
 11 C       -0.1240     6.2760    -2.4440 C.ar  1 <1>  -0.1500 
 12 C        1.9460     7.5970    -2.8440 C.2   1 <1>   0.5440 
 13 O        3.0080     7.3830    -3.3850 O.2   1 <1>  -0.5700 
 14 N        1.5180     8.8890    -2.8590 N.am  1 <1>  -0.7300 
 15 C        0.4870     9.5180    -1.9780 C.3   1 <1>   0.1400 
 16 C        1.0410    10.1570    -0.6730 C.3   1 <1>   0.3000 
 17 N       -0.1300    10.8020     0.0250 N.am  1 <1>  -0.6600 
 18 C        1.6780     9.0790     0.2410 C.3   1 <1>  -0.1600 
 19 C        2.1530    11.1940    -1.0000 C.3   1 <1>  -0.1600 
 20 C       -1.2540    10.1470     0.4670 C.2   1 <1>   0.5440 
 21 C       -0.4370    12.2640    -0.0820 C.3   1 <1>   0.2840 
 22 C        2.3140     9.6640     1.5110 C.3   1 <1>  -0.1600 
 23 C        2.8870    11.7660     0.2320 C.3   1 <1>  -0.1600 
 24 O       -1.3770     8.9400     0.5200 O.2   1 <1>  -0.5700 
 25 C       -2.2930    11.0860     0.7730 C.ar  1 <1>   0.0860 
 26 C       -1.8530    12.3530     0.4530 C.ar  1 <1>  -0.1430 
 27 C        3.4220    10.6550     1.1410 C.3   1 <1>  -0.1600 
 28 C       -3.5720    10.9110     1.2870 C.ar  1 <1>  -0.1500 
 29 C       -2.6570    13.4630     0.6350 C.ar  1 <1>  -0.1500 
 30 C       -4.3880    12.0150     1.4740 C.ar  1 <1>  -0.1500 
 31 C       -3.9320    13.2850     1.1490 C.ar  1 <1>  -0.1500 
 32 H        2.8440     3.9650     0.5070 H     1 <1>   0.3700 
 33 H       -0.7970     3.5460     1.8440 H     1 <1>   0.0800 
 34 H       -0.6960     1.9680     1.0960 H     1 <1>   0.0800 
 35 H        2.9060     5.9040    -1.0370 H     1 <1>   0.1500 
 36 H       -1.8510     5.0940    -1.9840 H     1 <1>   0.1500 
 37 H       -0.6350     6.8710    -3.1810 H     1 <1>   0.1500 
 38 H        2.1400     9.5300    -3.3550 H     1 <1>   0.3700 
 39 H       -0.2450     8.7790    -1.7110 H     1 <1>   0.0800 
 40 H       -0.0170    10.2790    -2.5470 H     1 <1>   0.0800 
 41 H        2.4570     8.5790    -0.3040 H     1 <1>   0.0800 
 42 H        0.9640     8.3240     0.5070 H     1 <1>   0.0800 
 43 H        1.7660    11.9900    -1.6090 H     1 <1>   0.0800 
 44 H        2.9040    10.7030    -1.5930 H     1 <1>   0.0800 
 45 H       -0.3980    12.5910    -1.1060 H     1 <1>   0.0800 
 46 H        0.2200    12.8490     0.5330 H     1 <1>   0.0800 
 47 H        2.7280     8.8670     2.1040 H     1 <1>   0.0800 
 48 H        1.5610    10.1560     2.1020 H     1 <1>   0.0800 
 49 H        2.2360    12.3900     0.8110 H     1 <1>   0.0800 
 50 H        3.7090    12.3800    -0.0960 H     1 <1>   0.0800 
 51 H        4.2140    10.1290     0.6340 H     1 <1>   0.0800 
 52 H        3.8350    11.0860     2.0360 H     1 <1>   0.0800 
 53 H       -3.9100     9.9190     1.5320 H     1 <1>   0.1500 
 54 H       -2.3050    14.4490     0.3850 H     1 <1>   0.1500 
 55 H       -5.3800    11.8860     1.8730 H     1 <1>   0.1500 
 56 H       -4.5740    14.1370     1.2980 H     1 <1>   0.1500 
@<TRIPOS>BOND
  1   1   2  2   
  2   2   3  am  
  3   2   4  1   
  4   3   5  1   
  5   3  32  1   
  6   4   6  1   
  7   4  33  1   
  8   4  34  1   
  9   5   7  ar  
 10   5   8  ar  
 11   6   7  1   
 12   7   9  ar  
 13   8  10  ar  
 14   8  35  1   
 15   9  11  ar  
 16   9  36  1   
 17  10  11  ar  
 18  10  12  1   
 19  11  37  1   
 20  12  13  2   
 21  12  14  am  
 22  14  15  1   
 23  14  38  1   
 24  15  16  1   
 25  15  39  1   
 26  15  40  1   
 27  16  17  1   
 28  16  18  1   
 29  16  19  1   
 30  17  20  am  
 31  17  21  1   
 32  18  22  1   
 33  18  41  1   
 34  18  42  1   
 35  19  23  1   
 36  19  43  1   
 37  19  44  1   
 38  20  24  2   
 39  20  25  1   
 40  21  26  1   
 41  21  45  1   
 42  21  46  1   
 43  22  27  1   
 44  22  47  1   
 45  22  48  1   
 46  23  27  1   
 47  23  49  1   
 48  23  50  1   
 49  25  26  ar  
 50  25  28  ar  
 51  26  29  ar  
 52  27  51  1   
 53  27  52  1   
 54  28  30  ar  
 55  28  53  1   
 56  29  31  ar  
 57  29  54  1   
 58  30  31  ar  
 59  30  55  1   
 60  31  56  1   
@<TRIPOS>SUBSTRUCTURE
  1 ****  18 GROUP 4 **** **** 0

# MOE 2024.06 (io_trps.svl 2023.06)
