@<TRIPOS>MOLECULE
NONAME
55 58 1 0 0 
SMALL
USER_CHARGES


@<TRIPOS>ATOM
  1 F       -0.4760     0.4200    -0.4990 F     1 <1>  -0.1900 
  2 C       -1.7520     0.6960    -0.4070 C.ar  1 <1>   0.1900 
  3 C       -2.2560     1.5620     0.5700 C.ar  1 <1>   0.0830 
  4 C       -2.5790     0.0890    -1.3320 C.ar  1 <1>  -0.1500 
  5 O       -1.5450     2.2190     1.5320 O.3   1 <1>  -0.3630 
  6 C       -3.6220     1.7910     0.5810 C.ar  1 <1>  -0.1500 
  7 C       -3.9380     0.3410    -1.2920 C.ar  1 <1>  -0.1500 
  8 C       -0.1520     2.0680     1.6970 C.3   1 <1>   0.0400 
  9 C       -4.4900     1.1920    -0.3330 C.ar  1 <1>   0.0530 
 10 C       -5.9040     1.4680    -0.2860 C.2   1 <1>   0.0870 
 11 O       -6.3080     2.6930    -0.0580 O.3   1 <1>  -0.0190 
 12 C       -7.0200     0.7030    -0.4380 C.2   1 <1>  -0.0860 
 13 N       -7.6080     2.8110    -0.0560 N.2   1 <1>  -0.4100 
 14 C       -8.0620     1.6300    -0.2830 C.2   1 <1>   0.3720 
 15 C       -7.1730    -0.7030    -0.6690 C.2   1 <1>   0.7160 
 16 N       -9.4350     1.3460    -0.3480 N.pl3 1 <1>  -0.8210 
 17 O       -6.2380    -1.4760    -0.5790 O.2   1 <1>  -0.5700 
 18 N       -8.3960    -1.2130    -0.9770 N.am  1 <1>  -0.7300 
 19 C      -10.1100     1.4810     0.9730 C.3   1 <1>   0.1290 
 20 C      -10.1440     2.1390    -1.3920 C.3   1 <1>   0.1290 
 21 C       -8.7550    -2.6420    -1.0810 C.3   1 <1>   0.1400 
 22 C       -9.0600    -3.2120     0.3130 C.3   1 <1>  -0.0800 
 23 C       -9.4410    -4.6980     0.1950 C.3   1 <1>   0.1400 
 24 C      -10.2920    -2.5420     0.9570 C.3   1 <1>  -0.0990 
 25 N      -10.9110    -4.6940     0.2490 N.am  1 <1>  -0.5090 
 26 C      -11.4080    -3.4990     0.6490 C.2   1 <1>   0.5690 
 27 C      -11.6700    -5.8940    -0.1520 C.3   1 <1>   0.0490 
 28 O      -12.5700    -3.1860     0.7460 O.2   1 <1>  -0.5700 
 29 C      -12.7820    -6.3790     0.7210 C.3   1 <1>  -0.2000 
 30 C      -11.4970    -7.1430     0.6520 C.3   1 <1>  -0.2000 
 31 H       -2.1640    -0.5730    -2.0710 H     1 <1>   0.1500 
 32 H       -4.0220     2.4550     1.3270 H     1 <1>   0.1500 
 33 H       -4.5810    -0.1310    -2.0140 H     1 <1>   0.1500 
 34 H        0.1520     2.6700     2.5330 H     1 <1>   0.0800 
 35 H        0.3450     2.4060     0.8050 H     1 <1>   0.0800 
 36 H        0.0670     1.0330     1.8940 H     1 <1>   0.0800 
 37 H       -9.1660    -0.5290    -0.9190 H     1 <1>   0.3700 
 38 H       -9.5760     0.9150     1.7160 H     1 <1>   0.0800 
 39 H      -11.1190     1.1100     0.9130 H     1 <1>   0.0800 
 40 H      -10.1300     2.5150     1.2750 H     1 <1>   0.0800 
 41 H       -9.6090     2.0770    -2.3240 H     1 <1>   0.0800 
 42 H      -10.2050     3.1730    -1.0970 H     1 <1>   0.0800 
 43 H      -11.1380     1.7520    -1.5370 H     1 <1>   0.0800 
 44 H       -7.9310    -3.1790    -1.5220 H     1 <1>   0.0800 
 45 H       -9.6110    -2.7470    -1.7280 H     1 <1>   0.0800 
 46 H       -8.1830    -3.1050     0.9290 H     1 <1>   0.0800 
 47 H       -9.0610    -5.2570     1.0330 H     1 <1>   0.0800 
 48 H       -9.0930    -5.1400    -0.7230 H     1 <1>   0.0800 
 49 H      -10.5110    -1.5680     0.5610 H     1 <1>   0.0800 
 50 H      -10.1790    -2.4810     2.0230 H     1 <1>   0.0800 
 51 H      -11.7930    -5.9710    -1.2200 H     1 <1>   0.1000 
 52 H      -13.6560    -6.7960     0.2540 H     1 <1>   0.1000 
 53 H      -13.0160    -5.8130     1.6050 H     1 <1>   0.1000 
 54 H      -10.8550    -7.1310     1.5140 H     1 <1>   0.1000 
 55 H      -11.5020    -8.0930     0.1480 H     1 <1>   0.1000 
@<TRIPOS>BOND
  1   1   2  1   
  2   2   3  ar  
  3   2   4  ar  
  4   3   5  1   
  5   3   6  ar  
  6   4   7  ar  
  7   4  31  1   
  8   5   8  1   
  9   6   9  ar  
 10   6  32  1   
 11   7   9  ar  
 12   7  33  1   
 13   8  34  1   
 14   8  35  1   
 15   8  36  1   
 16   9  10  1   
 17  10  11  1   
 18  10  12  2   
 19  11  13  1   
 20  12  14  1   
 21  12  15  1   
 22  13  14  2   
 23  14  16  1   
 24  15  17  2   
 25  15  18  am  
 26  16  19  1   
 27  16  20  1   
 28  18  21  1   
 29  18  37  1   
 30  19  38  1   
 31  19  39  1   
 32  19  40  1   
 33  20  41  1   
 34  20  42  1   
 35  20  43  1   
 36  21  22  1   
 37  21  44  1   
 38  21  45  1   
 39  22  23  1   
 40  22  24  1   
 41  22  46  1   
 42  23  25  1   
 43  23  47  1   
 44  23  48  1   
 45  24  26  1   
 46  24  49  1   
 47  24  50  1   
 48  25  26  am  
 49  25  27  1   
 50  26  28  2   
 51  27  29  1   
 52  27  30  1   
 53  27  51  1   
 54  29  30  1   
 55  29  52  1   
 56  29  53  1   
 57  30  54  1   
 58  30  55  1   
@<TRIPOS>SUBSTRUCTURE
  1 ****  15 GROUP 4 **** **** 0

# MOE 2024.06 (io_trps.svl 2023.06)
