@<TRIPOS>MOLECULE
NONAME
52 54 1 0 0 
SMALL
USER_CHARGES


@<TRIPOS>ATOM
  1 O       -1.0100     0.4110    -1.6580 O.2   1 <1>  -0.5700 
  2 C       -1.7860     0.9720    -0.9060 C.2   1 <1>   0.5440 
  3 N       -2.8990     0.2880    -0.4670 N.am  1 <1>  -0.6600 
  4 C       -1.5080     2.3290    -0.5070 C.ar  1 <1>   0.0860 
  5 C       -3.3170    -0.9910    -1.1420 C.3   1 <1>   0.1400 
  6 C       -3.7570     0.7320     0.6800 C.3   1 <1>   0.1400 
  7 C       -0.2950     2.6520     0.0910 C.ar  1 <1>   0.1600 
  8 C       -2.4110     3.3690    -0.7000 C.ar  1 <1>  -0.1500 
  9 C       -4.3820    -1.7350    -0.3240 C.3   1 <1>   0.2000 
 10 C       -5.2180     0.6030     0.2580 C.3   1 <1>  -0.1600 
 11 N        0.0700     3.8510     0.5110 N.ar  1 <1>  -0.6200 
 12 C       -2.0480     4.6230    -0.2740 C.ar  1 <1>  -0.1500 
 13 O       -4.7570    -2.9080    -0.9590 O.3   1 <1>  -0.6800 
 14 C       -5.6350    -0.8810     0.0000 C.3   1 <1>  -0.1060 
 15 C       -0.8060     4.8340     0.3240 C.ar  1 <1>   0.4100 
 16 C       -6.1930    -1.5720     1.2490 C.2   1 <1>   0.9060 
 17 C       -6.6870    -0.9110    -1.1490 C.3   1 <1>  -0.0160 
 18 N       -0.4430     6.0980     0.7440 N.pl3 1 <1>  -0.8380 
 19 O       -6.1130    -1.0270     2.3550 O.co2 1 <1>  -0.9000 
 20 O       -6.6350    -2.7240     1.1220 O.co2 1 <1>  -0.9000 
 21 C       -7.8200     0.1050    -1.0050 C.ar  1 <1>  -0.1430 
 22 C       -0.5250     7.2500    -0.1920 C.3   1 <1>   0.1290 
 23 C        0.5450     6.2590     1.8460 C.3   1 <1>   0.1290 
 24 C       -8.7700    -0.0400    -0.0060 C.ar  1 <1>  -0.1500 
 25 C       -7.9140     1.1820    -1.8750 C.ar  1 <1>  -0.1500 
 26 C       -9.7960     0.8790     0.1260 C.ar  1 <1>  -0.1500 
 27 C       -8.9410     2.1020    -1.7460 C.ar  1 <1>  -0.1500 
 28 C       -9.8830     1.9510    -0.7440 C.ar  1 <1>  -0.1500 
 29 H       -3.7120    -0.7560    -2.1130 H     1 <1>   0.0800 
 30 H       -2.4580    -1.6280    -1.2610 H     1 <1>   0.0800 
 31 H       -3.5710     0.1080     1.5400 H     1 <1>   0.0800 
 32 H       -3.5500     1.7470     0.9630 H     1 <1>   0.0800 
 33 H        0.4150     1.8540     0.2260 H     1 <1>   0.1500 
 34 H       -3.3630     3.1820    -1.1660 H     1 <1>   0.1500 
 35 H       -3.9120    -2.0360     0.5980 H     1 <1>   0.0800 
 36 H       -5.8540     1.0370     1.0110 H     1 <1>   0.0800 
 37 H       -5.3440     1.1920    -0.6310 H     1 <1>   0.0800 
 38 H       -2.7150     5.4550    -0.3870 H     1 <1>   0.1500 
 39 H       -5.4790    -3.2930    -0.3940 H     1 <1>   0.4000 
 40 H       -6.1820    -0.7360    -2.0820 H     1 <1>   0.0800 
 41 H       -7.1290    -1.8900    -1.2210 H     1 <1>   0.0800 
 42 H       -1.1210     8.0310     0.2470 H     1 <1>   0.0800 
 43 H       -0.9700     6.9510    -1.1250 H     1 <1>   0.0800 
 44 H        0.4620     7.6280    -0.3940 H     1 <1>   0.0800 
 45 H        0.3940     7.2010     2.3420 H     1 <1>   0.0800 
 46 H        1.5430     6.2170     1.4470 H     1 <1>   0.0800 
 47 H        0.4250     5.4670     2.5650 H     1 <1>   0.0800 
 48 H       -8.7100    -0.8730     0.6770 H     1 <1>   0.1500 
 49 H       -7.1860     1.3070    -2.6560 H     1 <1>   0.1500 
 50 H      -10.5210     0.7530     0.9110 H     1 <1>   0.1500 
 51 H       -9.0070     2.9330    -2.4250 H     1 <1>   0.1500 
 52 H      -10.6810     2.6640    -0.6390 H     1 <1>   0.1500 
@<TRIPOS>BOND
  1   1   2  2   
  2   2   3  am  
  3   2   4  1   
  4   3   5  1   
  5   3   6  1   
  6   4   7  ar  
  7   4   8  ar  
  8   5   9  1   
  9   5  29  1   
 10   5  30  1   
 11   6  10  1   
 12   6  31  1   
 13   6  32  1   
 14   7  11  ar  
 15   7  33  1   
 16   8  12  ar  
 17   8  34  1   
 18   9  13  1   
 19   9  14  1   
 20   9  35  1   
 21  10  14  1   
 22  10  36  1   
 23  10  37  1   
 24  11  15  ar  
 25  12  15  ar  
 26  12  38  1   
 27  13  39  1   
 28  14  16  1   
 29  14  17  1   
 30  15  18  1   
 31  16  19  ar  
 32  16  20  ar  
 33  17  21  1   
 34  17  40  1   
 35  17  41  1   
 36  18  22  1   
 37  18  23  1   
 38  21  24  ar  
 39  21  25  ar  
 40  22  42  1   
 41  22  43  1   
 42  22  44  1   
 43  23  45  1   
 44  23  46  1   
 45  23  47  1   
 46  24  26  ar  
 47  24  48  1   
 48  25  27  ar  
 49  25  49  1   
 50  26  28  ar  
 51  26  50  1   
 52  27  28  ar  
 53  27  51  1   
 54  28  52  1   
@<TRIPOS>SUBSTRUCTURE
  1 ****   6 GROUP 4 **** **** 0

# MOE 2024.06 (io_trps.svl 2023.06)
