@<TRIPOS>MOLECULE
NONAME
46 50 1 0 0 
SMALL
USER_CHARGES


@<TRIPOS>ATOM
  1 N        0.0790     0.4770    -0.3870 N.ar  1 <1>  -0.6200 
  2 C        1.3790     0.3480    -0.5510 C.ar  1 <1>   0.7710 
  3 C       -0.4730     1.6890    -0.4560 C.ar  1 <1>   0.4100 
  4 N        2.2090     1.3830    -0.7760 N.ar  1 <1>  -0.1260 
  5 N        1.8540    -0.8930    -0.4810 N.pl3 1 <1>  -0.9000 
  6 N       -1.8370     1.7200    -0.3130 N.pl3 1 <1>  -0.8380 
  7 C        0.3510     2.8420    -0.6680 C.ar  1 <1>   0.2270 
  8 C        1.6960     2.6500    -0.8310 C.ar  1 <1>   0.1560 
  9 C       -2.7270     2.8570    -0.7320 C.3   1 <1>   0.2090 
 10 C       -2.6050     0.5350     0.2070 C.3   1 <1>   0.2090 
 11 N        0.1020     4.1910    -0.7370 N.2   1 <1>  -0.5650 
 12 N        2.2710     3.8540    -1.0110 N.pl3 1 <1>   0.0330 
 13 C       -3.5520     3.4010     0.4580 C.3   1 <1>   0.1440 
 14 C       -4.0260     0.9000     0.6720 C.3   1 <1>  -0.1600 
 15 C        1.2470     4.7420    -0.9410 C.2   1 <1>   0.0360 
 16 C       -4.6860     4.2280    -0.1270 C.ar  1 <1>   0.1670 
 17 C       -4.0500     2.2610     1.3840 C.3   1 <1>  -0.1600 
 18 C       -2.7680     4.4670     1.2650 C.3   1 <1>  -0.1600 
 19 N       -5.7760     3.7500    -0.6870 N.ar  1 <1>  -0.6200 
 20 C       -4.4350     5.5640    -0.0220 C.ar  1 <1>  -0.1430 
 21 C       -3.1090     5.8320     0.6460 C.3   1 <1>  -0.0170 
 22 C       -6.6150     4.6760    -1.1300 C.ar  1 <1>   0.4770 
 23 C       -5.3740     6.4340    -0.5160 C.ar  1 <1>   0.1600 
 24 N       -6.4820     5.9950    -1.0770 N.ar  1 <1>  -0.6200 
 25 C       -7.8830     4.1680    -1.7710 C.3   1 <1>  -0.0970 
 26 H        3.1950     1.1730    -0.8910 H     1 <1>   0.4570 
 27 H        2.8130    -1.2330    -0.5750 H     1 <1>   0.4000 
 28 H        1.1720    -1.6410    -0.3110 H     1 <1>   0.4000 
 29 H       -3.4090     2.4800    -1.4760 H     1 <1>   0.0800 
 30 H       -2.1870     3.6520    -1.2050 H     1 <1>   0.0800 
 31 H       -2.0700     0.1200     1.0440 H     1 <1>   0.0800 
 32 H       -2.6590    -0.2200    -0.5600 H     1 <1>   0.0800 
 33 H        3.2550     4.0980    -1.1650 H     1 <1>   0.2700 
 34 H       -4.3890     0.1330     1.3330 H     1 <1>   0.0800 
 35 H       -4.6870     0.9260    -0.1780 H     1 <1>   0.0800 
 36 H        1.4030     5.8050    -1.0480 H     1 <1>   0.1500 
 37 H       -5.0440     2.4780     1.7360 H     1 <1>   0.0800 
 38 H       -3.4070     2.1870     2.2440 H     1 <1>   0.0800 
 39 H       -1.7110     4.2750     1.2780 H     1 <1>   0.0800 
 40 H       -3.1220     4.4750     2.2820 H     1 <1>   0.0800 
 41 H       -2.3770     6.1060    -0.0950 H     1 <1>   0.0800 
 42 H       -3.1830     6.6020     1.3950 H     1 <1>   0.0800 
 43 H       -5.2190     7.4970    -0.4540 H     1 <1>   0.1500 
 44 H       -7.7410     3.1670    -2.1340 H     1 <1>   0.0800 
 45 H       -8.1560     4.8020    -2.5940 H     1 <1>   0.0800 
 46 H       -8.6730     4.1720    -1.0440 H     1 <1>   0.0800 
@<TRIPOS>BOND
  1   1   2  ar  
  2   1   3  ar  
  3   2   4  ar  
  4   2   5  1   
  5   3   6  1   
  6   3   7  ar  
  7   4   8  ar  
  8   4  26  1   
  9   5  27  1   
 10   5  28  1   
 11   6   9  1   
 12   6  10  1   
 13   7   8  ar  
 14   7  11  1   
 15   8  12  1   
 16   9  13  1   
 17   9  29  1   
 18   9  30  1   
 19  10  14  1   
 20  10  31  1   
 21  10  32  1   
 22  11  15  2   
 23  12  15  1   
 24  12  33  1   
 25  13  16  1   
 26  13  17  1   
 27  13  18  1   
 28  14  17  1   
 29  14  34  1   
 30  14  35  1   
 31  15  36  1   
 32  16  19  ar  
 33  16  20  ar  
 34  17  37  1   
 35  17  38  1   
 36  18  21  1   
 37  18  39  1   
 38  18  40  1   
 39  19  22  ar  
 40  20  21  1   
 41  20  23  ar  
 42  21  41  1   
 43  21  42  1   
 44  22  24  ar  
 45  22  25  1   
 46  23  24  ar  
 47  23  43  1   
 48  25  44  1   
 49  25  45  1   
 50  25  46  1   
@<TRIPOS>SUBSTRUCTURE
  1 ****   9 GROUP 4 **** **** 0

# MOE 2024.06 (io_trps.svl 2023.06)
