@<TRIPOS>MOLECULE
NONAME
40 41 1 0 0 
SMALL
USER_CHARGES


@<TRIPOS>ATOM
  1 CL       0.6320    -1.1870     0.7180 Cl    1 <1>  -0.1230 
  2 C       -0.5430    -2.4570     0.4280 C.2   1 <1>   0.1230 
  3 C       -0.3510    -3.5750    -0.3700 C.2   1 <1>   0.1390 
  4 C       -1.7900    -2.5500     0.9220 C.2   1 <1>  -0.3020 
  5 N       -1.4140    -4.3290    -0.3810 N.2   1 <1>  -0.7070 
  6 N       -2.3010    -3.6920     0.4190 N.pl3 1 <1>   0.3140 
  7 C       -3.6460    -4.2380     0.6720 C.3   1 <1>   0.0960 
  8 C       -3.9090    -5.3960    -0.3010 C.3   1 <1>   0.3430 
  9 N       -5.2190    -6.0920    -0.0690 N.4   1 <1>  -0.9590 
 10 C       -5.2880    -7.3480    -0.8730 C.3   1 <1>   0.3430 
 11 C       -6.4040    -5.2110    -0.3480 C.3   1 <1>   0.3430 
 12 C       -6.4350    -8.2430    -0.3570 C.3   1 <1>  -0.0800 
 13 C       -7.6900    -6.0340    -0.5300 C.3   1 <1>  -0.1600 
 14 C       -7.6220    -7.4000     0.1680 C.3   1 <1>  -0.1600 
 15 C       -5.8910    -9.2330     0.7020 C.3   1 <1>  -0.0550 
 16 S       -7.0500   -10.4160     1.4080 S.o2  1 <1>   1.0900 
 17 O       -6.2570   -11.3390     2.1800 O.2   1 <1>  -0.6500 
 18 O       -8.1150    -9.6760     2.0400 O.2   1 <1>  -0.6500 
 19 C       -7.7260   -11.3040     0.0170 C.3   1 <1>  -0.1350 
 20 H        0.5570    -3.7890    -0.9080 H     1 <1>   0.1500 
 21 H       -2.3120    -1.8820     1.5810 H     1 <1>   0.1500 
 22 H       -4.3600    -3.4490     0.5300 H     1 <1>   0.0800 
 23 H       -3.6760    -4.5850     1.6880 H     1 <1>   0.0800 
 24 H       -3.1070    -6.1100    -0.1890 H     1 <1>   0.0800 
 25 H       -3.8700    -5.0190    -1.3110 H     1 <1>   0.0800 
 26 H       -5.2780    -6.3770     0.9190 H     1 <1>   0.4500 
 27 H       -4.3530    -7.8850    -0.8190 H     1 <1>   0.0800 
 28 H       -5.4680    -7.0970    -1.9060 H     1 <1>   0.0800 
 29 H       -6.2350    -4.6300    -1.2410 H     1 <1>   0.0800 
 30 H       -6.5390    -4.5260     0.4730 H     1 <1>   0.0800 
 31 H       -6.7750    -8.8180    -1.2010 H     1 <1>   0.0800 
 32 H       -7.8680    -6.1780    -1.5820 H     1 <1>   0.0800 
 33 H       -8.5250    -5.4690    -0.1490 H     1 <1>   0.0800 
 34 H       -7.5240    -7.2320     1.2290 H     1 <1>   0.0800 
 35 H       -8.5480    -7.9310     0.0170 H     1 <1>   0.0800 
 36 H       -5.4690    -8.6710     1.5140 H     1 <1>   0.0800 
 37 H       -5.0830    -9.7870     0.2620 H     1 <1>   0.0800 
 38 H       -6.9460   -11.7780    -0.5480 H     1 <1>   0.0800 
 39 H       -8.2810   -10.6490    -0.6250 H     1 <1>   0.0800 
 40 H       -8.3940   -12.0680     0.3680 H     1 <1>   0.0800 
@<TRIPOS>BOND
  1   1   2  1   
  2   2   3  1   
  3   2   4  2   
  4   3   5  2   
  5   3  20  1   
  6   4   6  1   
  7   4  21  1   
  8   5   6  1   
  9   6   7  1   
 10   7   8  1   
 11   7  22  1   
 12   7  23  1   
 13   8   9  1   
 14   8  24  1   
 15   8  25  1   
 16   9  10  1   
 17   9  11  1   
 18   9  26  1   
 19  10  12  1   
 20  10  27  1   
 21  10  28  1   
 22  11  13  1   
 23  11  29  1   
 24  11  30  1   
 25  12  14  1   
 26  12  15  1   
 27  12  31  1   
 28  13  14  1   
 29  13  32  1   
 30  13  33  1   
 31  14  34  1   
 32  14  35  1   
 33  15  16  1   
 34  15  36  1   
 35  15  37  1   
 36  16  17  2   
 37  16  18  2   
 38  16  19  1   
 39  19  38  1   
 40  19  39  1   
 41  19  40  1   
@<TRIPOS>SUBSTRUCTURE
  1 ****   9 GROUP 4 **** **** 0

# MOE 2024.06 (io_trps.svl 2023.06)
