@<TRIPOS>MOLECULE
NONAME
43 45 1 0 0 
SMALL
USER_CHARGES


@<TRIPOS>ATOM
  1 O       -0.1900     0.6780    -1.1030 O.3   1 <1>  -0.3630 
  2 C       -0.9050    -0.0520    -0.2090 C.ar  1 <1>   0.0830 
  3 C        0.2590     1.9520    -0.6750 C.3   1 <1>   0.2000 
  4 C       -1.4450     0.5370     0.9370 C.ar  1 <1>   0.0820 
  5 C       -1.0900    -1.4030    -0.4440 C.ar  1 <1>  -0.1500 
  6 C       -0.8650     2.6640     0.0950 C.3   1 <1>   0.1200 
  7 C        0.7160     2.7390    -1.9120 C.3   1 <1>   0.2090 
  8 O       -1.2980     1.8650     1.1790 O.3   1 <1>  -0.3630 
  9 C       -2.1480    -0.2350     1.8450 C.ar  1 <1>  -0.1500 
 10 C       -1.8000    -2.1710     0.4650 C.ar  1 <1>  -0.1500 
 11 N        1.1520     4.1430    -1.5870 N.pl3 1 <1>  -0.8380 
 12 C       -2.3260    -1.5890     1.6080 C.ar  1 <1>  -0.1500 
 13 C        2.0820     4.3990    -0.6280 C.ar  1 <1>   0.4100 
 14 C        0.8990     5.1060    -2.6990 C.3   1 <1>   0.1290 
 15 N        3.0670     3.5250    -0.5340 N.ar  1 <1>  -0.6200 
 16 C        2.0000     5.5350     0.2240 C.ar  1 <1>  -0.1430 
 17 C        4.0160     3.7580     0.3410 C.ar  1 <1>   0.7710 
 18 C        3.0150     5.7300     1.1090 C.ar  1 <1>   0.2110 
 19 C        0.7950     6.4830     0.1530 C.3   1 <1>  -0.0160 
 20 N        4.0250     4.8290     1.1470 N.ar  1 <1>  -0.1790 
 21 N        4.9990     2.8640     0.3990 N.pl3 1 <1>  -0.9000 
 22 C        0.5150     7.2590     1.4470 C.3   1 <1>  -0.2400 
 23 H        1.0970     1.7890    -0.0230 H     1 <1>   0.0800 
 24 H       -0.6770    -1.8470    -1.3310 H     1 <1>   0.1500 
 25 H       -1.7080     2.8430    -0.5490 H     1 <1>   0.0800 
 26 H       -0.5230     3.5990     0.4960 H     1 <1>   0.0800 
 27 H       -0.1050     2.7750    -2.6080 H     1 <1>   0.0800 
 28 H        1.5330     2.2170    -2.3790 H     1 <1>   0.0800 
 29 H       -2.5550     0.2250     2.7270 H     1 <1>   0.1500 
 30 H       -1.9420    -3.2220     0.2820 H     1 <1>   0.1500 
 31 H       -2.8740    -2.1890     2.3130 H     1 <1>   0.1500 
 32 H       -0.1360     5.4000    -2.7000 H     1 <1>   0.0800 
 33 H        1.1330     4.6460    -3.6440 H     1 <1>   0.0800 
 34 H        1.5160     5.9810    -2.5920 H     1 <1>   0.0800 
 35 H        3.0540     6.5640     1.7890 H     1 <1>   0.1500 
 36 H       -0.0900     5.9110    -0.0720 H     1 <1>   0.0800 
 37 H        0.9380     7.1840    -0.6510 H     1 <1>   0.0800 
 38 H        4.8080     4.9210     1.7860 H     1 <1>   0.4570 
 39 H        5.8230     2.8480     1.0000 H     1 <1>   0.4000 
 40 H        4.9420     2.0660    -0.2430 H     1 <1>   0.4000 
 41 H        0.4100     6.5870     2.2800 H     1 <1>   0.0800 
 42 H       -0.4070     7.8050     1.3430 H     1 <1>   0.0800 
 43 H        1.2930     7.9730     1.6520 H     1 <1>   0.0800 
@<TRIPOS>BOND
  1   1   2  1   
  2   1   3  1   
  3   2   4  ar  
  4   2   5  ar  
  5   3   6  1   
  6   3   7  1   
  7   3  23  1   
  8   4   8  1   
  9   4   9  ar  
 10   5  10  ar  
 11   5  24  1   
 12   6   8  1   
 13   6  25  1   
 14   6  26  1   
 15   7  11  1   
 16   7  27  1   
 17   7  28  1   
 18   9  12  ar  
 19   9  29  1   
 20  10  12  ar  
 21  10  30  1   
 22  11  13  1   
 23  11  14  1   
 24  12  31  1   
 25  13  15  ar  
 26  13  16  ar  
 27  14  32  1   
 28  14  33  1   
 29  14  34  1   
 30  15  17  ar  
 31  16  18  ar  
 32  16  19  1   
 33  17  20  ar  
 34  17  21  1   
 35  18  20  ar  
 36  18  35  1   
 37  19  22  1   
 38  19  36  1   
 39  19  37  1   
 40  20  38  1   
 41  21  39  1   
 42  21  40  1   
 43  22  41  1   
 44  22  42  1   
 45  22  43  1   
@<TRIPOS>SUBSTRUCTURE
  1 ****   3 GROUP 4 **** **** 0

# MOE 2024.06 (io_trps.svl 2023.06)
