@<TRIPOS>MOLECULE
NONAME
45 47 1 0 0 
SMALL
USER_CHARGES


@<TRIPOS>ATOM
  1 O        2.6700    -1.8480     2.4860 O.2   1 <1>  -0.5700 
  2 C        2.0880    -1.1480     1.6940 C.2   1 <1>   0.5690 
  3 N        2.6420     0.0360     1.2620 N.am  1 <1>  -0.6600 
  4 C        0.8040    -1.7030     1.0860 C.3   1 <1>   0.0820 
  5 C        4.1350     0.2140     1.4040 C.3   1 <1>   0.2200 
  6 C        1.8930     1.0850     0.5020 C.3   1 <1>   0.1400 
  7 C        1.1050    -2.1010    -0.3570 C.2   1 <1>  -0.1810 
  8 C        4.5670     1.6570     1.7150 C.3   1 <1>   0.1200 
  9 C        4.8530    -0.3200     0.1380 C.3   1 <1>   0.3430 
 10 C        2.7030     1.7950    -0.6010 C.3   1 <1>  -0.0800 
 11 C        1.9780    -3.0350    -0.7710 C.2   1 <1>  -0.0400 
 12 C        0.6140    -1.5700    -1.5540 C.2   1 <1>   0.1080 
 13 O        4.7470     2.3850     0.5360 O.3   1 <1>  -0.5600 
 14 N        3.9550    -0.4150    -1.0740 N.4   1 <1>  -0.9590 
 15 C        3.5950     2.9080    -0.0300 C.3   1 <1>   0.1200 
 16 C        3.4680     0.8980    -1.6010 C.3   1 <1>   0.3430 
 17 O        2.0290    -2.9890    -2.0720 O.3   1 <1>  -0.0190 
 18 C        2.8430    -4.0410    -0.0330 C.3   1 <1>  -0.0600 
 19 N        1.2250    -2.0910    -2.5560 N.2   1 <1>  -0.4100 
 20 C       -0.4970    -0.5560    -1.7360 C.3   1 <1>  -0.0590 
 21 C        4.5890    -1.2060    -2.1670 C.3   1 <1>   0.2630 
 22 H        0.5020    -2.5750     1.6380 H     1 <1>   0.0800 
 23 H        0.0130    -0.9830     1.1560 H     1 <1>   0.0800 
 24 H        4.4770    -0.3690     2.2410 H     1 <1>   0.0800 
 25 H        1.0220     0.6560     0.0510 H     1 <1>   0.0800 
 26 H        1.5400     1.8200     1.2060 H     1 <1>   0.0800 
 27 H        5.5240     1.6370     2.2060 H     1 <1>   0.0800 
 28 H        3.8690     2.1560     2.3650 H     1 <1>   0.0800 
 29 H        5.2260    -1.3030     0.3720 H     1 <1>   0.0800 
 30 H        5.7040     0.3040    -0.0790 H     1 <1>   0.0800 
 31 H        1.9770     2.3260    -1.1900 H     1 <1>   0.0800 
 32 H        3.1130    -0.9320    -0.7630 H     1 <1>   0.4500 
 33 H        3.0790     3.5000     0.7080 H     1 <1>   0.0800 
 34 H        3.9110     3.5680    -0.8210 H     1 <1>   0.0800 
 35 H        4.3050     1.4570    -1.9890 H     1 <1>   0.0800 
 36 H        2.8090     0.6950    -2.4300 H     1 <1>   0.0800 
 37 H        2.6310    -4.0320     1.0200 H     1 <1>   0.0800 
 38 H        3.8840    -3.8200    -0.1810 H     1 <1>   0.0800 
 39 H        2.6430    -5.0290    -0.4080 H     1 <1>   0.0800 
 40 H       -1.0840    -0.4570    -0.8420 H     1 <1>   0.0800 
 41 H       -1.1480    -0.8850    -2.5270 H     1 <1>   0.0800 
 42 H       -0.0910     0.3990    -2.0100 H     1 <1>   0.0800 
 43 H        5.4650    -0.7000    -2.5400 H     1 <1>   0.0800 
 44 H        3.8910    -1.3420    -2.9780 H     1 <1>   0.0800 
 45 H        4.8770    -2.1800    -1.8040 H     1 <1>   0.0800 
@<TRIPOS>BOND
  1   1   2  2   
  2   2   3  am  
  3   2   4  1   
  4   3   5  1   
  5   3   6  1   
  6   4   7  1   
  7   4  22  1   
  8   4  23  1   
  9   5   8  1   
 10   5   9  1   
 11   5  24  1   
 12   6  10  1   
 13   6  25  1   
 14   6  26  1   
 15   7  11  2   
 16   7  12  1   
 17   8  13  1   
 18   8  27  1   
 19   8  28  1   
 20   9  14  1   
 21   9  29  1   
 22   9  30  1   
 23  10  15  1   
 24  10  16  1   
 25  10  31  1   
 26  11  17  1   
 27  11  18  1   
 28  12  19  2   
 29  12  20  1   
 30  13  15  1   
 31  14  16  1   
 32  14  21  1   
 33  14  32  1   
 34  15  33  1   
 35  15  34  1   
 36  16  35  1   
 37  16  36  1   
 38  17  19  1   
 39  18  37  1   
 40  18  38  1   
 41  18  39  1   
 42  20  40  1   
 43  20  41  1   
 44  20  42  1   
 45  21  43  1   
 46  21  44  1   
 47  21  45  1   
@<TRIPOS>SUBSTRUCTURE
  1 ****   3 GROUP 4 **** **** 0

# MOE 2024.06 (io_trps.svl 2023.06)
