@<TRIPOS>MOLECULE
NONAME
51 53 1 0 0 
SMALL
USER_CHARGES


@<TRIPOS>ATOM
  1 CL       1.3100     1.0750    -2.1130 Cl    1 <1>  -0.1770 
  2 C        2.4200    -0.1440    -1.5270 C.ar  1 <1>   0.1770 
  3 C        3.2800     0.1360    -0.4670 C.ar  1 <1>   0.0860 
  4 C        2.4060    -1.3790    -2.1480 C.ar  1 <1>  -0.1500 
  5 C        3.3120     1.4300     0.1740 C.2   1 <1>   0.5440 
  6 C        4.1260    -0.8860    -0.0470 C.ar  1 <1>  -0.1500 
  7 C        3.2630    -2.3710    -1.7120 C.ar  1 <1>  -0.1500 
  8 O        2.9990     1.5020     1.3470 O.2   1 <1>  -0.5700 
  9 N        3.7410     2.5540    -0.5080 N.am  1 <1>  -0.6600 
 10 C        4.1360    -2.1330    -0.6540 C.ar  1 <1>   0.1000 
 11 C        3.5150     3.9790    -0.1060 C.3   1 <1>   0.2200 
 12 C        4.7780     2.4450    -1.5700 C.3   1 <1>   0.1400 
 13 N        5.0120    -3.1080    -0.1890 N.pl3 1 <1>  -0.8380 
 14 C        4.8130     4.5000     0.5320 C.3   1 <1>  -0.1600 
 15 C        2.2740     4.2100     0.7680 C.3   1 <1>  -0.0990 
 16 C        6.1110     2.9480    -1.0040 C.3   1 <1>  -0.1600 
 17 C        4.7300    -3.7070     1.1420 C.3   1 <1>   0.2090 
 18 C        5.6830    -4.0290    -1.1430 C.3   1 <1>   0.2090 
 19 C        5.9950     4.3760    -0.4450 C.3   1 <1>  -0.1600 
 20 C        1.9470     5.6810     0.8870 C.2   1 <1>   0.5690 
 21 C        6.0430    -4.1840     1.7710 C.3   1 <1>  -0.1600 
 22 C        7.0060    -4.5090    -0.5370 C.3   1 <1>  -0.1600 
 23 O        1.8600     6.3680    -0.0970 O.2   1 <1>  -0.5700 
 24 N        1.7520     6.2190     2.1030 N.am  1 <1>  -0.8000 
 25 C        6.8000    -5.1480     0.8450 C.3   1 <1>  -0.1600 
 26 H        1.7270    -1.5580    -2.9620 H     1 <1>   0.1500 
 27 H        4.7990    -0.7050     0.7720 H     1 <1>   0.1500 
 28 H        3.2520    -3.3350    -2.1840 H     1 <1>   0.1500 
 29 H        3.3520     4.5350    -1.0150 H     1 <1>   0.0800 
 30 H        4.4830     3.0430    -2.4160 H     1 <1>   0.0800 
 31 H        4.8920     1.4290    -1.9060 H     1 <1>   0.0800 
 32 H        5.0140     3.9360     1.4270 H     1 <1>   0.0800 
 33 H        4.6970     5.5330     0.8090 H     1 <1>   0.0800 
 34 H        2.4330     3.8170     1.7530 H     1 <1>   0.0800 
 35 H        1.4300     3.7170     0.3240 H     1 <1>   0.0800 
 36 H        6.8590     2.9230    -1.7760 H     1 <1>   0.0800 
 37 H        6.4260     2.2810    -0.2210 H     1 <1>   0.0800 
 38 H        4.0560    -4.5380     1.0200 H     1 <1>   0.0800 
 39 H        4.2600    -2.9800     1.7820 H     1 <1>   0.0800 
 40 H        5.8720    -3.5150    -2.0700 H     1 <1>   0.0800 
 41 H        5.0410    -4.8720    -1.3370 H     1 <1>   0.0800 
 42 H        6.9090     4.6480     0.0530 H     1 <1>   0.0800 
 43 H        5.8470     5.0630    -1.2620 H     1 <1>   0.0800 
 44 H        5.8320    -4.6690     2.7070 H     1 <1>   0.0800 
 45 H        6.6540    -3.3230     1.9770 H     1 <1>   0.0800 
 46 H        7.6660    -3.6640    -0.4500 H     1 <1>   0.0800 
 47 H        7.4650    -5.2180    -1.2010 H     1 <1>   0.0800 
 48 H        1.5170     7.2090     2.1790 H     1 <1>   0.3700 
 49 H        1.7920     5.6860     2.9710 H     1 <1>   0.3700 
 50 H        6.2350    -6.0580     0.7380 H     1 <1>   0.0800 
 51 H        7.7540    -5.3950     1.2780 H     1 <1>   0.0800 
@<TRIPOS>BOND
  1   1   2  1   
  2   2   3  ar  
  3   2   4  ar  
  4   3   5  1   
  5   3   6  ar  
  6   4   7  ar  
  7   4  26  1   
  8   5   8  2   
  9   5   9  am  
 10   6  10  ar  
 11   6  27  1   
 12   7  10  ar  
 13   7  28  1   
 14   9  11  1   
 15   9  12  1   
 16  10  13  1   
 17  11  14  1   
 18  11  15  1   
 19  11  29  1   
 20  12  16  1   
 21  12  30  1   
 22  12  31  1   
 23  13  17  1   
 24  13  18  1   
 25  14  19  1   
 26  14  32  1   
 27  14  33  1   
 28  15  20  1   
 29  15  34  1   
 30  15  35  1   
 31  16  19  1   
 32  16  36  1   
 33  16  37  1   
 34  17  21  1   
 35  17  38  1   
 36  17  39  1   
 37  18  22  1   
 38  18  40  1   
 39  18  41  1   
 40  19  42  1   
 41  19  43  1   
 42  20  23  2   
 43  20  24  am  
 44  21  25  1   
 45  21  44  1   
 46  21  45  1   
 47  22  25  1   
 48  22  46  1   
 49  22  47  1   
 50  24  48  1   
 51  24  49  1   
 52  25  50  1   
 53  25  51  1   
@<TRIPOS>SUBSTRUCTURE
  1 ****   3 GROUP 4 **** **** 0

# MOE 2024.06 (io_trps.svl 2023.06)
