@<TRIPOS>MOLECULE
NONAME
48 50 1 0 0 
SMALL
USER_CHARGES


@<TRIPOS>ATOM
  1 S        1.1170    -0.6050     2.3440 S.3   1 <1>  -0.0800 
  2 C        1.3750    -0.4430     0.6080 C.2   1 <1>   0.3250 
  3 C        0.4340    -2.1790     2.0980 C.2   1 <1>  -0.1100 
  4 N        0.9740    -1.4840    -0.0430 N.2   1 <1>  -0.5650 
  5 C        1.9760     0.7700     0.0930 C.ar  1 <1>   0.3630 
  6 C        0.4480    -2.4550     0.7840 C.2   1 <1>   0.0460 
  7 N        2.3290     1.7580     0.9290 N.ar  1 <1>  -0.6200 
  8 C        2.1780     0.8880    -1.2900 C.ar  1 <1>   0.1600 
  9 C       -0.0490    -3.7180     0.0990 C.3   1 <1>   0.0210 
 10 C        2.8630     2.7980     0.3160 C.ar  1 <1>   0.1600 
 11 N        2.7120     1.9290    -1.9070 N.ar  1 <1>  -0.6200 
 12 C       -0.7120    -4.6990     1.0670 C.3   1 <1>   0.1400 
 13 C        3.0490     2.8830    -1.0570 C.ar  1 <1>   0.1600 
 14 N       -1.1820    -5.8950     0.3330 N.am  1 <1>  -0.7300 
 15 C       -0.8530    -7.1770     0.6190 C.2   1 <1>   0.5690 
 16 O       -0.1290    -7.4610     1.5410 O.2   1 <1>  -0.5700 
 17 C       -1.4210    -8.2840    -0.2360 C.3   1 <1>  -0.0990 
 18 C       -2.9400    -8.4180    -0.0210 C.3   1 <1>   0.2510 
 19 N       -3.2950    -9.8790     0.0090 N.3   1 <1>  -0.8100 
 20 C       -3.7010    -7.5720    -1.0820 C.2   1 <1>   0.5690 
 21 C       -4.7170   -10.1070    -0.3310 C.3   1 <1>   0.1100 
 22 C       -2.9600   -10.4900     1.3070 C.3   1 <1>   0.1100 
 23 O       -3.4340    -6.4030    -1.2420 O.2   1 <1>  -0.5700 
 24 N       -4.6750    -8.1350    -1.8360 N.am  1 <1>  -0.7300 
 25 C       -5.0700    -9.5570    -1.7230 C.3   1 <1>   0.1400 
 26 C       -2.6840   -11.9790     1.1180 C.3   1 <1>  -0.2400 
 27 H        0.1000    -2.7200     2.9640 H     1 <1>   0.1500 
 28 H        1.8750     0.0630    -1.9100 H     1 <1>   0.1500 
 29 H        0.7870    -4.2000    -0.3760 H     1 <1>   0.0800 
 30 H       -0.7580    -3.4370    -0.6590 H     1 <1>   0.0800 
 31 H        3.1690     3.6280     0.9290 H     1 <1>   0.1500 
 32 H       -1.5530    -4.2300     1.5470 H     1 <1>   0.0800 
 33 H       -0.0050    -4.9930     1.8250 H     1 <1>   0.0800 
 34 H        3.4930     3.7740    -1.4670 H     1 <1>   0.1500 
 35 H       -1.8970    -5.7290    -0.3940 H     1 <1>   0.3700 
 36 H       -0.9110    -9.1940     0.0170 H     1 <1>   0.0800 
 37 H       -1.2070    -8.0760    -1.2680 H     1 <1>   0.0800 
 38 H       -3.1960    -7.9990     0.9370 H     1 <1>   0.0800 
 39 H       -5.3490    -9.6370     0.4050 H     1 <1>   0.0800 
 40 H       -4.9290   -11.1610    -0.3240 H     1 <1>   0.0800 
 41 H       -3.7590   -10.3390     2.0150 H     1 <1>   0.0800 
 42 H       -2.0720   -10.0380     1.7170 H     1 <1>   0.0800 
 43 H       -5.1080    -7.5610    -2.5610 H     1 <1>   0.3700 
 44 H       -6.1290    -9.6490    -1.8860 H     1 <1>   0.0800 
 45 H       -4.5560   -10.1310    -2.4750 H     1 <1>   0.0800 
 46 H       -3.5690   -12.5040     0.8100 H     1 <1>   0.0800 
 47 H       -2.3490   -12.4020     2.0470 H     1 <1>   0.0800 
 48 H       -1.9120   -12.1180     0.3830 H     1 <1>   0.0800 
@<TRIPOS>BOND
  1   1   2  1   
  2   1   3  1   
  3   2   4  2   
  4   2   5  1   
  5   3   6  2   
  6   3  27  1   
  7   4   6  1   
  8   5   7  ar  
  9   5   8  ar  
 10   6   9  1   
 11   7  10  ar  
 12   8  11  ar  
 13   8  28  1   
 14   9  12  1   
 15   9  29  1   
 16   9  30  1   
 17  10  13  ar  
 18  10  31  1   
 19  11  13  ar  
 20  12  14  1   
 21  12  32  1   
 22  12  33  1   
 23  13  34  1   
 24  14  15  am  
 25  14  35  1   
 26  15  16  2   
 27  15  17  1   
 28  17  18  1   
 29  17  36  1   
 30  17  37  1   
 31  18  19  1   
 32  18  20  1   
 33  18  38  1   
 34  19  21  1   
 35  19  22  1   
 36  20  23  2   
 37  20  24  am  
 38  21  25  1   
 39  21  39  1   
 40  21  40  1   
 41  22  26  1   
 42  22  41  1   
 43  22  42  1   
 44  24  25  1   
 45  24  43  1   
 46  25  44  1   
 47  25  45  1   
 48  26  46  1   
 49  26  47  1   
 50  26  48  1   
@<TRIPOS>SUBSTRUCTURE
  1 ****   9 GROUP 4 **** **** 0

# MOE 2024.06 (io_trps.svl 2023.06)
