@<TRIPOS>MOLECULE
Untitled Document
45 46 1 0 0 
SMALL
USER_CHARGES


@<TRIPOS>ATOM
  1 CL      -2.5350    -2.4200    -1.2160 Cl    1 <1>  -0.2900 
  2 C       -3.3640    -0.8830    -1.2710 C.3   1 <1>   0.1300 
  3 C       -3.8860    -0.5980     0.1420 C.3   1 <1>   0.3430 
  4 N       -4.6790     0.6750     0.2290 N.4   1 <1>  -0.9590 
  5 C       -3.8370     1.9090     0.0520 C.3   1 <1>   0.3430 
  6 C       -5.4690     0.7210     1.5060 C.3   1 <1>   0.3430 
  7 C       -4.0390     2.5640    -1.3190 C.3   1 <1>   0.1300 
  8 C       -6.8020     1.4750     1.3390 C.3   1 <1>   0.1400 
  9 CL      -2.9290     3.9120    -1.4120 Cl    1 <1>  -0.2900 
 10 N       -7.7520     0.7330     0.4660 N.am  1 <1>  -0.4200 
 11 C       -7.6970     0.6210    -0.8920 C.2   1 <1>   0.6900 
 12 C       -8.9150     0.1710     0.9110 C.2   1 <1>   0.5690 
 13 O       -6.7550     0.9950    -1.5600 O.2   1 <1>  -0.5700 
 14 N       -8.7760    -0.0060    -1.3840 N.am  1 <1>  -0.7300 
 15 O       -9.2280     0.0840     2.0730 O.2   1 <1>  -0.5700 
 16 C       -9.7230    -0.3400    -0.2990 C.3   1 <1>   0.3610 
 17 C       -9.9350    -1.8720    -0.2890 C.3   1 <1>  -0.1600 
 18 C      -11.0260     0.4590    -0.5080 C.3   1 <1>  -0.1600 
 19 C      -11.3780    -2.2530     0.0710 C.3   1 <1>  -0.1600 
 20 C      -11.9860    -0.2650    -1.4630 C.3   1 <1>  -0.1600 
 21 C      -12.3910    -1.6500    -0.9200 C.3   1 <1>  -0.1600 
 22 H       -4.1660    -0.9770    -1.9820 H     1 <1>   0.0800 
 23 H       -2.6470    -0.1510    -1.5960 H     1 <1>   0.0800 
 24 H       -3.0520    -0.5550     0.8240 H     1 <1>   0.0800 
 25 H       -4.5140    -1.4250     0.4320 H     1 <1>   0.0800 
 26 H       -5.3790     0.6630    -0.5440 H     1 <1>   0.4500 
 27 H       -2.7950     1.6610     0.1730 H     1 <1>   0.0800 
 28 H       -4.0940     2.6350     0.8060 H     1 <1>   0.0800 
 29 H       -4.8840     1.1950     2.2770 H     1 <1>   0.0800 
 30 H       -5.6950    -0.2790     1.8400 H     1 <1>   0.0800 
 31 H       -5.0320     2.9610    -1.4330 H     1 <1>   0.0800 
 32 H       -3.8020     1.9000    -2.1300 H     1 <1>   0.0800 
 33 H       -6.6310     2.4560     0.9330 H     1 <1>   0.0800 
 34 H       -7.2500     1.6000     2.3110 H     1 <1>   0.0800 
 35 H       -9.0380    -0.0340    -2.3700 H     1 <1>   0.3700 
 36 H       -9.2640    -2.3320     0.4140 H     1 <1>   0.0800 
 37 H       -9.7230    -2.2790    -1.2630 H     1 <1>   0.0800 
 38 H      -10.8090     1.4480    -0.8700 H     1 <1>   0.0800 
 39 H      -11.5220     0.5690     0.4420 H     1 <1>   0.0800 
 40 H      -11.5950    -1.8950     1.0640 H     1 <1>   0.0800 
 41 H      -11.4850    -3.3250     0.0870 H     1 <1>   0.0800 
 42 H      -11.5060    -0.3870    -2.4190 H     1 <1>   0.0800 
 43 H      -12.8690     0.3310    -1.6190 H     1 <1>   0.0800 
 44 H      -13.3440    -1.5740    -0.4250 H     1 <1>   0.0800 
 45 H      -12.5180    -2.3200    -1.7530 H     1 <1>   0.0800 
@<TRIPOS>BOND
  1   1   2  1   
  2   2   3  1   
  3   2  22  1   
  4   2  23  1   
  5   3   4  1   
  6   3  24  1   
  7   3  25  1   
  8   4   5  1   
  9   4   6  1   
 10   4  26  1   
 11   5   7  1   
 12   5  27  1   
 13   5  28  1   
 14   6   8  1   
 15   6  29  1   
 16   6  30  1   
 17   7   9  1   
 18   7  31  1   
 19   7  32  1   
 20   8  10  1   
 21   8  33  1   
 22   8  34  1   
 23  10  11  am  
 24  10  12  am  
 25  11  13  2   
 26  11  14  am  
 27  12  15  2   
 28  12  16  1   
 29  14  16  1   
 30  14  35  1   
 31  16  17  1   
 32  16  18  1   
 33  17  19  1   
 34  17  36  1   
 35  17  37  1   
 36  18  20  1   
 37  18  38  1   
 38  18  39  1   
 39  19  21  1   
 40  19  40  1   
 41  19  41  1   
 42  20  21  1   
 43  20  42  1   
 44  20  43  1   
 45  21  44  1   
 46  21  45  1   
@<TRIPOS>SUBSTRUCTURE
  1 ****  11 GROUP 4 **** **** 0

# MOE 2024.06 (io_trps.svl 2023.06)
