@<TRIPOS>MOLECULE
NONAME
44 45 1 0 0 
SMALL
USER_CHARGES


@<TRIPOS>ATOM
  1 O        1.2490    -0.4540     2.3770 O.2   1 <1>  -0.5700 
  2 C        1.7390    -1.1240     1.4890 C.2   1 <1>   0.5440 
  3 N        2.6870    -0.5560     0.6690 N.am  1 <1>  -0.6600 
  4 C        1.3100    -2.4960     1.3070 C.ar  1 <1>   0.0860 
  5 C        3.1060    -1.1070    -0.6400 C.3   1 <1>   0.1400 
  6 C        3.1230     0.8520     0.8120 C.3   1 <1>   0.1400 
  7 C       -0.0130    -2.8360     1.1090 C.ar  1 <1>  -0.1500 
  8 C        2.1950    -3.5650     1.3270 C.ar  1 <1>  -0.1500 
  9 C        4.0090    -0.0390    -1.2470 C.3   1 <1>  -0.1600 
 10 C        3.5730     1.2640    -0.5840 C.3   1 <1>  -0.1600 
 11 C       -0.3980    -4.1580     0.9150 C.ar  1 <1>   0.4100 
 12 C        1.7300    -4.8490     1.1380 C.ar  1 <1>   0.1600 
 13 N        0.4660    -5.1680     0.9300 N.ar  1 <1>  -0.6200 
 14 N       -1.7310    -4.4660     0.6950 N.pl3 1 <1>  -0.8380 
 15 C       -2.2450    -5.8260     1.0650 C.3   1 <1>   0.2090 
 16 C       -2.4580    -3.8120    -0.4280 C.3   1 <1>   0.1290 
 17 C       -2.1130    -6.8640    -0.0690 C.3   1 <1>   0.2000 
 18 O       -3.1740    -6.7630    -0.9660 O.3   1 <1>  -0.6800 
 19 C       -2.0950    -8.3000     0.4720 C.3   1 <1>   0.1200 
 20 O       -2.2780    -9.2040    -0.5830 O.3   1 <1>  -0.5600 
 21 C       -2.2470   -10.5380    -0.1910 C.3   1 <1>   0.0400 
 22 H        2.2350    -1.2570    -1.2560 H     1 <1>   0.0800 
 23 H        3.6330    -2.0370    -0.5200 H     1 <1>   0.0800 
 24 H        3.9450     0.8930     1.5050 H     1 <1>   0.0800 
 25 H        2.3200     1.4760     1.1690 H     1 <1>   0.0800 
 26 H       -0.7620    -2.0680     1.1160 H     1 <1>   0.1500 
 27 H        3.2410    -3.3850     1.4970 H     1 <1>   0.1500 
 28 H        3.9220    -0.0030    -2.3190 H     1 <1>   0.0800 
 29 H        5.0300    -0.2560    -0.9860 H     1 <1>   0.0800 
 30 H        4.3620     1.9940    -0.5500 H     1 <1>   0.0800 
 31 H        2.7320     1.6800    -1.1110 H     1 <1>   0.0800 
 32 H        2.4350    -5.6620     1.1600 H     1 <1>   0.1500 
 33 H       -3.2740    -5.7540     1.3700 H     1 <1>   0.0800 
 34 H       -1.6850    -6.1700     1.9160 H     1 <1>   0.0800 
 35 H       -2.2270    -2.7630    -0.4730 H     1 <1>   0.0800 
 36 H       -3.5200    -3.9270    -0.2920 H     1 <1>   0.0800 
 37 H       -2.1760    -4.2720    -1.3590 H     1 <1>   0.0800 
 38 H       -1.1990    -6.6900    -0.6090 H     1 <1>   0.0800 
 39 H       -3.2080    -7.6250    -1.4390 H     1 <1>   0.4000 
 40 H       -2.8900    -8.4380     1.1840 H     1 <1>   0.0800 
 41 H       -1.1490    -8.4990     0.9460 H     1 <1>   0.0800 
 42 H       -2.3970   -11.1480    -1.0650 H     1 <1>   0.0800 
 43 H       -3.0360   -10.7200     0.5180 H     1 <1>   0.0800 
 44 H       -1.2870   -10.7590     0.2430 H     1 <1>   0.0800 
@<TRIPOS>BOND
  1   1   2  2   
  2   2   3  am  
  3   2   4  1   
  4   3   5  1   
  5   3   6  1   
  6   4   7  ar  
  7   4   8  ar  
  8   5   9  1   
  9   5  22  1   
 10   5  23  1   
 11   6  10  1   
 12   6  24  1   
 13   6  25  1   
 14   7  11  ar  
 15   7  26  1   
 16   8  12  ar  
 17   8  27  1   
 18   9  10  1   
 19   9  28  1   
 20   9  29  1   
 21  10  30  1   
 22  10  31  1   
 23  11  13  ar  
 24  11  14  1   
 25  12  13  ar  
 26  12  32  1   
 27  14  15  1   
 28  14  16  1   
 29  15  17  1   
 30  15  33  1   
 31  15  34  1   
 32  16  35  1   
 33  16  36  1   
 34  16  37  1   
 35  17  18  1   
 36  17  19  1   
 37  17  38  1   
 38  18  39  1   
 39  19  20  1   
 40  19  40  1   
 41  19  41  1   
 42  20  21  1   
 43  21  42  1   
 44  21  43  1   
 45  21  44  1   
@<TRIPOS>SUBSTRUCTURE
  1 ****  11 GROUP 4 **** **** 0

# MOE 2024.06 (io_trps.svl 2023.06)
