@<TRIPOS>MOLECULE
NONAME
51 54 1 0 0 
SMALL
USER_CHARGES


@<TRIPOS>ATOM
  1 O       -2.5320     1.2210     2.5860 O.2   1 <1>  -0.5700 
  2 C       -2.7500     1.5110     1.4330 C.2   1 <1>   0.5690 
  3 N       -3.3650     0.6160     0.5930 N.am  1 <1>  -0.6600 
  4 C       -2.3490     2.9130     0.9360 C.3   1 <1>   0.1710 
  5 C       -3.9200     0.8760    -0.7590 C.3   1 <1>   0.1400 
  6 C       -3.5920    -0.7980     0.9820 C.3   1 <1>   0.1400 
  7 N       -0.9480     3.0760     0.4400 N.3   1 <1>  -0.8100 
  8 C       -4.8500    -0.3090    -1.0200 C.3   1 <1>   0.2000 
  9 C       -4.2170    -1.4710    -0.2510 C.3   1 <1>  -0.0800 
 10 C       -0.7350     4.4560    -0.0320 C.3   1 <1>   0.2530 
 11 C       -0.5850     2.0730    -0.5850 C.3   1 <1>   0.1100 
 12 O       -6.0800    -0.0350    -0.4470 O.3   1 <1>  -0.6800 
 13 C       -3.1680    -2.1900    -1.1250 C.3   1 <1>  -0.0170 
 14 C        0.7310     4.8630     0.0010 C.ar  1 <1>  -0.1440 
 15 C        0.9120     2.0420    -0.9170 C.3   1 <1>   0.1200 
 16 C       -2.5200    -3.3620    -0.4050 C.ar  1 <1>   0.1670 
 17 C        1.6640     4.2470    -0.8230 C.ar  1 <1>   0.0820 
 18 C        1.1490     5.8940     0.8310 C.ar  1 <1>  -0.1500 
 19 O        1.3170     3.2070    -1.6050 O.3   1 <1>  -0.3630 
 20 N       -1.3120    -3.1540     0.0920 N.ar  1 <1>  -0.6200 
 21 C       -3.1970    -4.5760    -0.2990 C.ar  1 <1>   0.1600 
 22 C        2.9800     4.6790    -0.8490 C.ar  1 <1>  -0.1500 
 23 C        2.4690     6.3170     0.8190 C.ar  1 <1>  -0.1500 
 24 C       -0.8340    -4.2260     0.7040 C.ar  1 <1>   0.1600 
 25 N       -2.7210    -5.6490     0.3110 N.ar  1 <1>  -0.6200 
 26 C        3.3850     5.7150    -0.0260 C.ar  1 <1>  -0.1500 
 27 C       -1.5160    -5.4320     0.8090 C.ar  1 <1>   0.1600 
 28 H       -2.4860     3.5810     1.7680 H     1 <1>   0.0800 
 29 H       -3.0330     3.2200     0.1680 H     1 <1>   0.0800 
 30 H       -4.4530     1.8090    -0.8070 H     1 <1>   0.0800 
 31 H       -3.1180     0.8760    -1.4750 H     1 <1>   0.0800 
 32 H       -2.6650    -1.2550     1.2870 H     1 <1>   0.0800 
 33 H       -4.2760    -0.8250     1.8130 H     1 <1>   0.0800 
 34 H       -5.0040    -0.5060    -2.0680 H     1 <1>   0.0800 
 35 H       -4.9640    -2.1870     0.0460 H     1 <1>   0.0800 
 36 H       -1.1110     4.5630    -1.0350 H     1 <1>   0.0800 
 37 H       -1.2830     5.1350     0.5970 H     1 <1>   0.0800 
 38 H       -0.8290     1.0930    -0.2130 H     1 <1>   0.0800 
 39 H       -1.1470     2.2360    -1.4870 H     1 <1>   0.0800 
 40 H       -5.9450     0.2320     0.4850 H     1 <1>   0.4000 
 41 H       -2.4000    -1.5000    -1.4270 H     1 <1>   0.0800 
 42 H       -3.6400    -2.5590    -2.0180 H     1 <1>   0.0800 
 43 H        1.1200     1.2080    -1.5610 H     1 <1>   0.0800 
 44 H        1.4970     1.9390    -0.0180 H     1 <1>   0.0800 
 45 H        0.4500     6.3770     1.4890 H     1 <1>   0.1500 
 46 H       -4.1760    -4.6630    -0.7350 H     1 <1>   0.1500 
 47 H        3.6790     4.1960    -1.5080 H     1 <1>   0.1500 
 48 H        2.7820     7.1170     1.4670 H     1 <1>   0.1500 
 49 H        0.1440    -4.1460     1.1430 H     1 <1>   0.1500 
 50 H        4.4070     6.0480    -0.0410 H     1 <1>   0.1500 
 51 H       -1.0440    -6.2480     1.3270 H     1 <1>   0.1500 
@<TRIPOS>BOND
  1   1   2  2   
  2   2   3  am  
  3   2   4  1   
  4   3   5  1   
  5   3   6  1   
  6   4   7  1   
  7   4  28  1   
  8   4  29  1   
  9   5   8  1   
 10   5  30  1   
 11   5  31  1   
 12   6   9  1   
 13   6  32  1   
 14   6  33  1   
 15   7  10  1   
 16   7  11  1   
 17   8   9  1   
 18   8  12  1   
 19   8  34  1   
 20   9  13  1   
 21   9  35  1   
 22  10  14  1   
 23  10  36  1   
 24  10  37  1   
 25  11  15  1   
 26  11  38  1   
 27  11  39  1   
 28  12  40  1   
 29  13  16  1   
 30  13  41  1   
 31  13  42  1   
 32  14  17  ar  
 33  14  18  ar  
 34  15  19  1   
 35  15  43  1   
 36  15  44  1   
 37  16  20  ar  
 38  16  21  ar  
 39  17  19  1   
 40  17  22  ar  
 41  18  23  ar  
 42  18  45  1   
 43  20  24  ar  
 44  21  25  ar  
 45  21  46  1   
 46  22  26  ar  
 47  22  47  1   
 48  23  26  ar  
 49  23  48  1   
 50  24  27  ar  
 51  24  49  1   
 52  25  27  ar  
 53  26  50  1   
 54  27  51  1   
@<TRIPOS>SUBSTRUCTURE
  1 ****  11 GROUP 4 **** **** 0

# MOE 2024.06 (io_trps.svl 2023.06)
