@<TRIPOS>MOLECULE
NONAME
50 53 1 0 0 
SMALL
USER_CHARGES


@<TRIPOS>ATOM
  1 F       -3.3680    -3.8080    -0.6440 F     1 <1>  -0.3400 
  2 C       -3.0070    -2.6280    -1.1370 C.3   1 <1>   1.3000 
  3 F       -2.2220    -2.0270    -0.2520 F     1 <1>  -0.3400 
  4 F       -2.2950    -2.8480    -2.2320 F     1 <1>  -0.3400 
  5 O       -4.1390    -1.8390    -1.4460 O.3   1 <1>  -0.3630 
  6 C       -4.9830    -1.5430    -0.4370 C.ar  1 <1>   0.0830 
  7 C       -6.0640    -2.3720    -0.1810 C.ar  1 <1>  -0.1500 
  8 C       -4.7770    -0.4050     0.3260 C.ar  1 <1>  -0.1500 
  9 C       -6.9400    -2.0710     0.8520 C.ar  1 <1>  -0.1440 
 10 C       -5.6440    -0.1080     1.3610 C.ar  1 <1>  -0.1500 
 11 C       -6.7190    -0.9390     1.6260 C.ar  1 <1>  -0.1500 
 12 C       -8.1330    -2.9650     1.1350 C.3   1 <1>   0.4870 
 13 N       -9.1580    -2.7720     0.0680 N.4   1 <1>  -0.9590 
 14 C       -9.6290    -1.3380    -0.0670 C.3   1 <1>   0.3430 
 15 C      -10.3100    -3.7090     0.2190 C.3   1 <1>   0.3430 
 16 C      -10.8680    -0.9590     0.7830 C.3   1 <1>   0.1440 
 17 C      -11.1140    -3.4190     1.4970 C.3   1 <1>  -0.1600 
 18 C      -12.0940    -0.8870    -0.1100 C.ar  1 <1>   0.1670 
 19 C      -11.1050    -1.9440     1.9500 C.3   1 <1>  -0.1600 
 20 C      -10.7760     0.4960     1.3150 C.3   1 <1>  -0.1600 
 21 N      -12.4370    -1.7840    -1.0090 N.ar  1 <1>  -0.6200 
 22 C      -12.8130     0.2480     0.1170 C.ar  1 <1>  -0.1430 
 23 C      -12.1830     1.1070     1.1830 C.3   1 <1>  -0.0170 
 24 C      -13.5540    -1.4970    -1.6680 C.ar  1 <1>   0.4770 
 25 C      -13.9520     0.4450    -0.6220 C.ar  1 <1>   0.1600 
 26 N      -14.3320    -0.4340    -1.5250 N.ar  1 <1>  -0.6200 
 27 C      -13.9980    -2.5020    -2.7030 C.3   1 <1>  -0.0970 
 28 H       -6.2000    -3.2460    -0.7940 H     1 <1>   0.1500 
 29 H       -3.9420     0.2420     0.1150 H     1 <1>   0.1500 
 30 H       -5.4760     0.7710     1.9620 H     1 <1>   0.1500 
 31 H       -7.3760    -0.6900     2.4430 H     1 <1>   0.1500 
 32 H       -8.5440    -2.7250     2.1000 H     1 <1>   0.0800 
 33 H       -7.8090    -3.9930     1.1530 H     1 <1>   0.0800 
 34 H       -8.6870    -2.9960    -0.8170 H     1 <1>   0.4500 
 35 H       -9.8820    -1.1520    -1.0980 H     1 <1>   0.0800 
 36 H       -8.8200    -0.6720     0.1790 H     1 <1>   0.0800 
 37 H       -9.9680    -4.7320     0.2290 H     1 <1>   0.0800 
 38 H      -10.9630    -3.5950    -0.6310 H     1 <1>   0.0800 
 39 H      -10.7610    -4.0440     2.2990 H     1 <1>   0.0800 
 40 H      -12.1310    -3.7160     1.3040 H     1 <1>   0.0800 
 41 H      -12.0390    -1.7170     2.4370 H     1 <1>   0.0800 
 42 H      -10.3310    -1.8090     2.6830 H     1 <1>   0.0800 
 43 H      -10.1110     1.0690     0.6910 H     1 <1>   0.0800 
 44 H      -10.4180     0.5520     2.3290 H     1 <1>   0.0800 
 45 H      -12.1430     2.1430     0.8910 H     1 <1>   0.0800 
 46 H      -12.7350     1.0080     2.1020 H     1 <1>   0.0800 
 47 H      -14.5580     1.3240    -0.4780 H     1 <1>   0.1500 
 48 H      -13.1490    -3.0130    -3.1170 H     1 <1>   0.0800 
 49 H      -14.5230    -2.0040    -3.4980 H     1 <1>   0.0800 
 50 H      -14.6550    -3.2160    -2.2450 H     1 <1>   0.0800 
@<TRIPOS>BOND
  1   1   2  1   
  2   2   3  1   
  3   2   4  1   
  4   2   5  1   
  5   5   6  1   
  6   6   7  ar  
  7   6   8  ar  
  8   7   9  ar  
  9   7  28  1   
 10   8  10  ar  
 11   8  29  1   
 12   9  11  ar  
 13   9  12  1   
 14  10  11  ar  
 15  10  30  1   
 16  11  31  1   
 17  12  13  1   
 18  12  32  1   
 19  12  33  1   
 20  13  14  1   
 21  13  15  1   
 22  13  34  1   
 23  14  16  1   
 24  14  35  1   
 25  14  36  1   
 26  15  17  1   
 27  15  37  1   
 28  15  38  1   
 29  16  18  1   
 30  16  19  1   
 31  16  20  1   
 32  17  19  1   
 33  17  39  1   
 34  17  40  1   
 35  18  21  ar  
 36  18  22  ar  
 37  19  41  1   
 38  19  42  1   
 39  20  23  1   
 40  20  43  1   
 41  20  44  1   
 42  21  24  ar  
 43  22  23  1   
 44  22  25  ar  
 45  23  45  1   
 46  23  46  1   
 47  24  26  ar  
 48  24  27  1   
 49  25  26  ar  
 50  25  47  1   
 51  27  48  1   
 52  27  49  1   
 53  27  50  1   
@<TRIPOS>SUBSTRUCTURE
  1 ****  14 GROUP 4 **** **** 0

# MOE 2024.06 (io_trps.svl 2023.06)
