@<TRIPOS>MOLECULE
NONAME
59 62 1 0 0 
SMALL
USER_CHARGES


@<TRIPOS>ATOM
  1 O       -0.5880     0.5690     0.1810 O.2   1 <1>  -0.5700 
  2 C       -1.5590     1.0880    -0.3440 C.2   1 <1>   0.7150 
  3 N       -2.6350     0.2870    -0.6590 N.am  1 <1>  -0.6600 
  4 C       -1.5490     2.5120    -0.6180 C.2   1 <1>   0.0550 
  5 C       -4.0480     0.7480    -0.7220 C.3   1 <1>   0.1400 
  6 C       -2.6010    -1.1950    -0.5080 C.3   1 <1>   0.1400 
  7 O       -0.7360     3.3120     0.0660 O.3   1 <1>  -0.2800 
  8 C       -2.2300     3.2820    -1.5140 C.2   1 <1>  -0.1500 
  9 C       -4.8470    -0.3870    -0.0850 C.3   1 <1>   0.2000 
 10 C       -4.0690    -1.6380    -0.4950 C.3   1 <1>  -0.0800 
 11 C       -0.8600     4.5450    -0.3650 C.2   1 <1>  -0.0400 
 12 C       -1.7850     4.5950    -1.3490 C.2   1 <1>  -0.1500 
 13 O       -4.7910    -0.2310     1.2930 O.3   1 <1>  -0.6800 
 14 C       -4.3310    -2.8940     0.3570 C.3   1 <1>   0.0210 
 15 C        0.0030     5.6280     0.2580 C.3   1 <1>   0.5230 
 16 C       -3.5200    -4.0690    -0.1520 C.2   1 <1>   0.1080 
 17 N        1.4430     5.3030     0.0380 N.4   1 <1>  -0.9590 
 18 N       -3.6790    -4.5740    -1.3360 N.2   1 <1>  -0.7070 
 19 C       -2.5260    -4.7220     0.5690 C.2   1 <1>  -0.1500 
 20 C        1.9300     4.2720     1.0060 C.3   1 <1>   0.3430 
 21 C        2.2960     6.5230     0.0430 C.3   1 <1>   0.3430 
 22 N       -2.7830    -5.5770    -1.4010 N.pl3 1 <1>   0.3000 
 23 C       -2.0710    -5.6850    -0.2590 C.2   1 <1>  -0.3320 
 24 C        3.3600     3.8660     0.6480 C.3   1 <1>  -0.1600 
 25 C        3.7300     6.1520    -0.3350 C.3   1 <1>  -0.1600 
 26 C       -0.9840    -6.7180    -0.0260 C.3   1 <1>  -0.0600 
 27 C        4.3020     5.0770     0.6010 C.3   1 <1>  -0.0800 
 28 C        5.7020     4.6540     0.1450 C.3   1 <1>  -0.2400 
 29 H       -4.2020     1.6770    -0.2000 H     1 <1>   0.0800 
 30 H       -4.3340     0.8570    -1.7540 H     1 <1>   0.0800 
 31 H       -2.0660    -1.6500    -1.3240 H     1 <1>   0.0800 
 32 H       -2.1160    -1.4530     0.4190 H     1 <1>   0.0800 
 33 H       -2.9620     2.9620    -2.2350 H     1 <1>   0.1500 
 34 H       -5.8800    -0.4040    -0.3890 H     1 <1>   0.0800 
 35 H       -4.3380    -1.8700    -1.5110 H     1 <1>   0.0800 
 36 H       -2.1340     5.4410    -1.9190 H     1 <1>   0.1500 
 37 H       -3.8560    -0.1370     1.5640 H     1 <1>   0.4000 
 38 H       -5.3740    -3.1500     0.3070 H     1 <1>   0.0800 
 39 H       -4.0820    -2.7140     1.3870 H     1 <1>   0.0800 
 40 H       -0.2080     5.7040     1.3120 H     1 <1>   0.0800 
 41 H       -0.2380     6.5690    -0.2090 H     1 <1>   0.0800 
 42 H        1.4960     4.8680    -0.8920 H     1 <1>   0.4500 
 43 H       -2.2090    -4.4880     1.5700 H     1 <1>   0.1500 
 44 H        1.9080     4.6690     2.0080 H     1 <1>   0.0800 
 45 H        1.3020     3.3960     0.9770 H     1 <1>   0.0800 
 46 H        1.9170     7.2450    -0.6640 H     1 <1>   0.0800 
 47 H        2.2890     6.9700     1.0240 H     1 <1>   0.0800 
 48 H       -2.6840    -6.1690    -2.2340 H     1 <1>   0.2700 
 49 H        3.7130     3.1650     1.3850 H     1 <1>   0.0800 
 50 H        3.3540     3.3570    -0.3000 H     1 <1>   0.0800 
 51 H        3.7500     5.8060    -1.3550 H     1 <1>   0.0800 
 52 H        4.3430     7.0350    -0.2820 H     1 <1>   0.0800 
 53 H       -0.5660    -6.6000     0.9580 H     1 <1>   0.0800 
 54 H       -0.1960    -6.5990    -0.7490 H     1 <1>   0.0800 
 55 H       -1.3900    -7.7110    -0.1090 H     1 <1>   0.0800 
 56 H        4.3830     5.4910     1.5940 H     1 <1>   0.0800 
 57 H        5.6750     4.2300    -0.8440 H     1 <1>   0.0800 
 58 H        6.1090     3.9190     0.8180 H     1 <1>   0.0800 
 59 H        6.3660     5.5000     0.1350 H     1 <1>   0.0800 
@<TRIPOS>BOND
  1   1   2  2   
  2   2   3  am  
  3   2   4  1   
  4   3   5  1   
  5   3   6  1   
  6   4   7  1   
  7   4   8  2   
  8   5   9  1   
  9   5  29  1   
 10   5  30  1   
 11   6  10  1   
 12   6  31  1   
 13   6  32  1   
 14   7  11  1   
 15   8  12  1   
 16   8  33  1   
 17   9  10  1   
 18   9  13  1   
 19   9  34  1   
 20  10  14  1   
 21  10  35  1   
 22  11  12  2   
 23  11  15  1   
 24  12  36  1   
 25  13  37  1   
 26  14  16  1   
 27  14  38  1   
 28  14  39  1   
 29  15  17  1   
 30  15  40  1   
 31  15  41  1   
 32  16  18  2   
 33  16  19  1   
 34  17  20  1   
 35  17  21  1   
 36  17  42  1   
 37  18  22  1   
 38  19  23  2   
 39  19  43  1   
 40  20  24  1   
 41  20  44  1   
 42  20  45  1   
 43  21  25  1   
 44  21  46  1   
 45  21  47  1   
 46  22  23  1   
 47  22  48  1   
 48  23  26  1   
 49  24  27  1   
 50  24  49  1   
 51  24  50  1   
 52  25  27  1   
 53  25  51  1   
 54  25  52  1   
 55  26  53  1   
 56  26  54  1   
 57  26  55  1   
 58  27  28  1   
 59  27  56  1   
 60  28  57  1   
 61  28  58  1   
 62  28  59  1   
@<TRIPOS>SUBSTRUCTURE
  1 ****   2 GROUP 4 **** **** 0

# MOE 2024.06 (io_trps.svl 2023.06)
