@<TRIPOS>MOLECULE
NONAME
47 49 1 0 0 
SMALL
USER_CHARGES


@<TRIPOS>ATOM
  1 CL      -0.0260    -0.3530    -0.1730 Cl    1 <1>  -0.1770 
  2 C       -1.6120    -1.0710    -0.0650 C.ar  1 <1>   0.1770 
  3 C       -2.3790    -1.1950    -1.2080 C.ar  1 <1>  -0.1500 
  4 C       -2.0780    -1.5060     1.1610 C.ar  1 <1>  -0.1500 
  5 C       -3.6380    -1.7650    -1.1190 C.ar  1 <1>  -0.1500 
  6 C       -3.3380    -2.0750     1.2430 C.ar  1 <1>  -0.1500 
  7 C       -4.1230    -2.2050     0.1050 C.ar  1 <1>  -0.1440 
  8 C       -5.5050    -2.8310     0.1990 C.3   1 <1>  -0.0160 
  9 C       -5.4260    -4.3470    -0.0110 C.3   1 <1>  -0.1600 
 10 C       -6.8150    -5.0100     0.0710 C.3   1 <1>  -0.0990 
 11 C       -6.8060    -6.5200    -0.1410 C.2   1 <1>   0.5690 
 12 O       -5.7510    -7.0990    -0.2440 O.2   1 <1>  -0.5700 
 13 N       -7.9950    -7.1920    -0.2060 N.am  1 <1>  -0.6600 
 14 C       -9.3490    -6.6140    -0.0310 C.3   1 <1>   0.1400 
 15 C       -8.0720    -8.6600    -0.3980 C.3   1 <1>   0.1400 
 16 C      -10.3060    -7.8050    -0.1270 C.3   1 <1>   0.2000 
 17 C       -9.4570    -9.0500     0.1210 C.3   1 <1>  -0.0800 
 18 O      -11.3140    -7.7250     0.8220 O.3   1 <1>  -0.6800 
 19 C      -10.0490   -10.3090    -0.5370 C.3   1 <1>  -0.0160 
 20 C       -9.2080   -11.5440    -0.2540 C.ar  1 <1>   0.1670 
 21 N       -8.1620   -11.7380    -1.0400 N.ar  1 <1>  -0.6200 
 22 C       -9.5560   -12.3990     0.7900 C.ar  1 <1>   0.1600 
 23 C       -7.4900   -12.8290    -0.7130 C.ar  1 <1>   0.1600 
 24 N       -8.8860   -13.4920     1.1190 N.ar  1 <1>  -0.6200 
 25 C       -7.8400   -13.6770     0.3320 C.ar  1 <1>   0.1600 
 26 H       -1.9950    -0.8510    -2.1500 H     1 <1>   0.1500 
 27 H       -1.4610    -1.4010     2.0350 H     1 <1>   0.1500 
 28 H       -4.2380    -1.8670    -2.0070 H     1 <1>   0.1500 
 29 H       -3.7030    -2.4190     2.1950 H     1 <1>   0.1500 
 30 H       -5.9300    -2.6170     1.1640 H     1 <1>   0.0800 
 31 H       -6.1470    -2.3920    -0.5450 H     1 <1>   0.0800 
 32 H       -4.7810    -4.7770     0.7370 H     1 <1>   0.0800 
 33 H       -4.9900    -4.5520    -0.9740 H     1 <1>   0.0800 
 34 H       -7.4510    -4.5720    -0.6760 H     1 <1>   0.0800 
 35 H       -7.2410    -4.8140     1.0370 H     1 <1>   0.0800 
 36 H       -9.4160    -6.1420     0.9330 H     1 <1>   0.0800 
 37 H       -9.5550    -5.9030    -0.8120 H     1 <1>   0.0800 
 38 H       -7.9760    -8.8820    -1.4480 H     1 <1>   0.0800 
 39 H       -7.2880    -9.1660     0.1420 H     1 <1>   0.0800 
 40 H      -10.7610    -7.8270    -1.1030 H     1 <1>   0.0800 
 41 H       -9.3600    -9.2140     1.1800 H     1 <1>   0.0800 
 42 H      -10.9360    -7.7330     1.7230 H     1 <1>   0.4000 
 43 H      -10.1170   -10.1700    -1.6020 H     1 <1>   0.0800 
 44 H      -11.0470   -10.4630    -0.1680 H     1 <1>   0.0800 
 45 H      -10.4240   -12.1700     1.3810 H     1 <1>   0.1500 
 46 H       -6.6190   -13.0640    -1.2990 H     1 <1>   0.1500 
 47 H       -7.2290   -14.5420     0.5210 H     1 <1>   0.1500 
@<TRIPOS>BOND
  1   1   2  1   
  2   2   3  ar  
  3   2   4  ar  
  4   3   5  ar  
  5   3  26  1   
  6   4   6  ar  
  7   4  27  1   
  8   5   7  ar  
  9   5  28  1   
 10   6   7  ar  
 11   6  29  1   
 12   7   8  1   
 13   8   9  1   
 14   8  30  1   
 15   8  31  1   
 16   9  10  1   
 17   9  32  1   
 18   9  33  1   
 19  10  11  1   
 20  10  34  1   
 21  10  35  1   
 22  11  12  2   
 23  11  13  am  
 24  13  14  1   
 25  13  15  1   
 26  14  16  1   
 27  14  36  1   
 28  14  37  1   
 29  15  17  1   
 30  15  38  1   
 31  15  39  1   
 32  16  17  1   
 33  16  18  1   
 34  16  40  1   
 35  17  19  1   
 36  17  41  1   
 37  18  42  1   
 38  19  20  1   
 39  19  43  1   
 40  19  44  1   
 41  20  21  ar  
 42  20  22  ar  
 43  21  23  ar  
 44  22  24  ar  
 45  22  45  1   
 46  23  25  ar  
 47  23  46  1   
 48  24  25  ar  
 49  25  47  1   
@<TRIPOS>SUBSTRUCTURE
  1 ****  11 GROUP 4 **** **** 0

# MOE 2024.06 (io_trps.svl 2023.06)
