@<TRIPOS>MOLECULE
NONAME
41 42 1 0 0 
SMALL
USER_CHARGES


@<TRIPOS>ATOM
  1 O        0.8250    -0.3590     2.1160 O.2   1 <1>  -0.5700 
  2 C        1.4390    -0.6600     1.1230 C.2   1 <1>   0.5690 
  3 N        2.1910     0.2210     0.3990 N.am  1 <1>  -0.4940 
  4 C        1.3710    -2.1070     0.6420 C.3   1 <1>  -0.0190 
  5 C        2.4430     1.5800     0.6210 C.2   1 <1>   0.2040 
  6 C        2.7540    -2.7860     0.6540 C.3   1 <1>  -0.1600 
  7 C        0.7520    -2.2220    -0.7610 C.3   1 <1>  -0.1600 
  8 O        1.9750     2.2230     1.6650 O.3   1 <1>  -0.0190 
  9 C        3.1640     2.4540    -0.1080 C.2   1 <1>  -0.1810 
 10 C        2.7260    -4.2030     0.0500 C.3   1 <1>   0.2800 
 11 C        0.7790    -3.6720    -1.2470 C.3   1 <1>   0.1200 
 12 N        2.3490     3.4780     1.6700 N.2   1 <1>  -0.4100 
 13 C        3.0640     3.6410     0.6160 C.2   1 <1>   0.1080 
 14 C        3.9150     2.2280    -1.4090 C.3   1 <1>   0.0210 
 15 O        2.0870    -4.1620    -1.1890 O.3   1 <1>  -0.5600 
 16 C        2.0380    -5.2320     0.9580 C.3   1 <1>  -0.2400 
 17 C        4.1510    -4.6730    -0.2420 C.3   1 <1>  -0.2400 
 18 C        3.6960     4.9650     0.2420 C.3   1 <1>  -0.0590 
 19 C        5.3800     1.8860    -1.1310 C.3   1 <1>  -0.2400 
 20 H        2.6510    -0.1710    -0.4170 H     1 <1>   0.3700 
 21 H        0.7320    -2.6340     1.3280 H     1 <1>   0.0800 
 22 H        3.1230    -2.8330     1.6630 H     1 <1>   0.0800 
 23 H        3.4490    -2.1940     0.0870 H     1 <1>   0.0800 
 24 H        1.2910    -1.6190    -1.4690 H     1 <1>   0.0800 
 25 H       -0.2660    -1.8730    -0.7380 H     1 <1>   0.0800 
 26 H        0.4590    -3.7280    -2.2730 H     1 <1>   0.0800 
 27 H        0.1370    -4.3010    -0.6570 H     1 <1>   0.0800 
 28 H        3.8540     3.1110    -2.0220 H     1 <1>   0.0800 
 29 H        3.4570     1.4220    -1.9550 H     1 <1>   0.0800 
 30 H        1.0520    -4.9230     1.2460 H     1 <1>   0.0800 
 31 H        2.6110    -5.3630     1.8580 H     1 <1>   0.0800 
 32 H        1.9770    -6.1810     0.4570 H     1 <1>   0.0800 
 33 H        4.6340    -4.0020    -0.9280 H     1 <1>   0.0800 
 34 H        4.1330    -5.6570    -0.6760 H     1 <1>   0.0800 
 35 H        4.7270    -4.7110     0.6650 H     1 <1>   0.0800 
 36 H        4.7620     4.8560     0.1720 H     1 <1>   0.0800 
 37 H        3.4720     5.7020     0.9910 H     1 <1>   0.0800 
 38 H        3.3080     5.3020    -0.7010 H     1 <1>   0.0800 
 39 H        5.8590     2.6930    -0.6050 H     1 <1>   0.0800 
 40 H        5.9040     1.7190    -2.0560 H     1 <1>   0.0800 
 41 H        5.4470     0.9980    -0.5290 H     1 <1>   0.0800 
@<TRIPOS>BOND
  1   1   2  2   
  2   2   3  am  
  3   2   4  1   
  4   3   5  1   
  5   3  20  1   
  6   4   6  1   
  7   4   7  1   
  8   4  21  1   
  9   5   8  1   
 10   5   9  2   
 11   6  10  1   
 12   6  22  1   
 13   6  23  1   
 14   7  11  1   
 15   7  24  1   
 16   7  25  1   
 17   8  12  1   
 18   9  13  1   
 19   9  14  1   
 20  10  15  1   
 21  10  16  1   
 22  10  17  1   
 23  11  15  1   
 24  11  26  1   
 25  11  27  1   
 26  12  13  2   
 27  13  18  1   
 28  14  19  1   
 29  14  28  1   
 30  14  29  1   
 31  16  30  1   
 32  16  31  1   
 33  16  32  1   
 34  17  33  1   
 35  17  34  1   
 36  17  35  1   
 37  18  36  1   
 38  18  37  1   
 39  18  38  1   
 40  19  39  1   
 41  19  40  1   
 42  19  41  1   
@<TRIPOS>SUBSTRUCTURE
  1 ****   3 GROUP 4 **** **** 0

# MOE 2024.06 (io_trps.svl 2023.06)
