@<TRIPOS>MOLECULE
NONAME
55 56 1 0 0 
SMALL
USER_CHARGES


@<TRIPOS>ATOM
  1 S       -0.4420    -1.4550     1.0810 S.o2  1 <1>   1.0900 
  2 O        0.0230    -2.6230     0.3710 O.2   1 <1>  -0.6500 
  3 O       -0.5940    -1.4950     2.5160 O.2   1 <1>  -0.6500 
  4 C       -2.0000    -0.9540     0.3730 C.3   1 <1>  -0.0550 
  5 C        0.6450    -0.1010     0.6810 C.3   1 <1>  -0.1350 
  6 C       -3.0520    -2.0400     0.5730 C.3   1 <1>   0.1100 
  7 N       -4.3230    -1.6120    -0.0290 N.3   1 <1>  -0.8100 
  8 C       -5.0810    -2.7990    -0.4900 C.3   1 <1>   0.1100 
  9 C       -5.0960    -0.7680     0.9040 C.3   1 <1>   0.1100 
 10 C       -6.3910    -2.4650    -1.2230 C.3   1 <1>   0.1400 
 11 C       -6.0890     0.1070     0.1320 C.3   1 <1>  -0.1600 
 12 N       -7.4380    -1.9890    -0.2700 N.am  1 <1>  -0.6600 
 13 C       -7.4810    -0.5160    -0.0410 C.3   1 <1>   0.1400 
 14 C       -8.2090    -2.8590     0.4770 C.2   1 <1>   0.5440 
 15 O       -8.9450    -2.4190     1.3390 O.2   1 <1>  -0.5700 
 16 C       -8.1470    -4.2930     0.2710 C.ar  1 <1>   0.0860 
 17 C       -7.5070    -5.1190     1.1910 C.ar  1 <1>  -0.1500 
 18 C       -8.7180    -4.8920    -0.8490 C.ar  1 <1>  -0.1500 
 19 C       -7.4200    -6.4850     0.9910 C.ar  1 <1>  -0.1500 
 20 C       -8.6350    -6.2570    -1.0540 C.ar  1 <1>  -0.1500 
 21 C       -7.9810    -7.0630    -0.1360 C.ar  1 <1>  -0.1430 
 22 C       -7.8890    -8.5650    -0.3580 C.3   1 <1>  -0.0170 
 23 C       -9.0870    -9.2760     0.2810 C.3   1 <1>  -0.1600 
 24 C       -9.0180   -10.7940     0.0730 C.3   1 <1>  -0.1600 
 25 C      -10.2210   -11.4910     0.7150 C.3   1 <1>  -0.2400 
 26 H       -1.8860    -0.7850    -0.6800 H     1 <1>   0.0800 
 27 H       -2.3300    -0.0460     0.8360 H     1 <1>   0.0800 
 28 H        1.6270    -0.2980     1.0660 H     1 <1>   0.0800 
 29 H        0.2880     0.8120     1.1170 H     1 <1>   0.0800 
 30 H        0.7170     0.0240    -0.3820 H     1 <1>   0.0800 
 31 H       -3.1830    -2.2580     1.6210 H     1 <1>   0.0800 
 32 H       -2.6960    -2.9370     0.0910 H     1 <1>   0.0800 
 33 H       -5.2910    -3.4480     0.3420 H     1 <1>   0.0800 
 34 H       -4.4610    -3.3450    -1.1800 H     1 <1>   0.0800 
 35 H       -4.4260    -0.1120     1.4310 H     1 <1>   0.0800 
 36 H       -5.6030    -1.3730     1.6390 H     1 <1>   0.0800 
 37 H       -6.7380    -3.3470    -1.7270 H     1 <1>   0.0800 
 38 H       -6.2050    -1.7210    -1.9770 H     1 <1>   0.0800 
 39 H       -5.6760     0.3650    -0.8270 H     1 <1>   0.0800 
 40 H       -6.2200     1.0280     0.6700 H     1 <1>   0.0800 
 41 H       -7.9860    -0.0480    -0.8670 H     1 <1>   0.0800 
 42 H       -8.0540    -0.3050     0.8460 H     1 <1>   0.0800 
 43 H       -7.0760    -4.6760     2.0730 H     1 <1>   0.1500 
 44 H       -9.2340    -4.2730    -1.5630 H     1 <1>   0.1500 
 45 H       -6.9180    -7.0980     1.7190 H     1 <1>   0.1500 
 46 H       -9.0860    -6.6930    -1.9290 H     1 <1>   0.1500 
 47 H       -6.9740    -8.9360     0.0710 H     1 <1>   0.0800 
 48 H       -7.8620    -8.7730    -1.4130 H     1 <1>   0.0800 
 49 H       -9.9950    -8.8940    -0.1520 H     1 <1>   0.0800 
 50 H       -9.1060    -9.0570     1.3350 H     1 <1>   0.0800 
 51 H       -8.1120   -11.1800     0.5100 H     1 <1>   0.0800 
 52 H       -9.0030   -11.0170    -0.9800 H     1 <1>   0.0800 
 53 H      -10.2450   -11.3010     1.7740 H     1 <1>   0.0800 
 54 H      -10.1560   -12.5540     0.5610 H     1 <1>   0.0800 
 55 H      -11.1380   -11.1380     0.2790 H     1 <1>   0.0800 
@<TRIPOS>BOND
  1   1   2  2   
  2   1   3  2   
  3   1   4  1   
  4   1   5  1   
  5   4   6  1   
  6   4  26  1   
  7   4  27  1   
  8   5  28  1   
  9   5  29  1   
 10   5  30  1   
 11   6   7  1   
 12   6  31  1   
 13   6  32  1   
 14   7   8  1   
 15   7   9  1   
 16   8  10  1   
 17   8  33  1   
 18   8  34  1   
 19   9  11  1   
 20   9  35  1   
 21   9  36  1   
 22  10  12  1   
 23  10  37  1   
 24  10  38  1   
 25  11  13  1   
 26  11  39  1   
 27  11  40  1   
 28  12  13  1   
 29  12  14  am  
 30  13  41  1   
 31  13  42  1   
 32  14  15  2   
 33  14  16  1   
 34  16  17  ar  
 35  16  18  ar  
 36  17  19  ar  
 37  17  43  1   
 38  18  20  ar  
 39  18  44  1   
 40  19  21  ar  
 41  19  45  1   
 42  20  21  ar  
 43  20  46  1   
 44  21  22  1   
 45  22  23  1   
 46  22  47  1   
 47  22  48  1   
 48  23  24  1   
 49  23  49  1   
 50  23  50  1   
 51  24  25  1   
 52  24  51  1   
 53  24  52  1   
 54  25  53  1   
 55  25  54  1   
 56  25  55  1   
@<TRIPOS>SUBSTRUCTURE
  1 ****   8 GROUP 4 **** **** 0

# MOE 2024.06 (io_trps.svl 2023.06)
