@<TRIPOS>MOLECULE
NONAME
52 54 1 0 0 
SMALL
USER_CHARGES


@<TRIPOS>ATOM
  1 O       -3.4260     2.1070    -1.8640 O.2   1 <1>  -0.5700 
  2 C       -3.0250     1.1910    -1.1730 C.2   1 <1>   0.5440 
  3 N       -3.5330    -0.0750    -1.3830 N.am  1 <1>  -0.6600 
  4 C       -2.0410     1.4690    -0.1480 C.ar  1 <1>   0.0860 
  5 C       -3.0020    -1.2840    -0.6510 C.3   1 <1>   0.3640 
  6 C       -4.7060    -0.2490    -2.2930 C.3   1 <1>   0.1400 
  7 C       -0.7060     1.6860    -0.4380 C.ar  1 <1>  -0.1500 
  8 C       -2.3690     1.5200     1.1990 C.ar  1 <1>  -0.1500 
  9 C       -1.5040    -1.4180    -0.9400 C.ar  1 <1>  -0.1430 
 10 C       -3.7000    -2.6450    -0.9670 C.3   1 <1>   0.2000 
 11 C       -4.9060    -1.6980    -2.7360 C.3   1 <1>   0.1200 
 12 C        0.2060     1.9020     0.5780 C.ar  1 <1>   0.3920 
 13 C       -1.3900     1.7550     2.1430 C.ar  1 <1>   0.1600 
 14 C       -0.6040    -1.5680     0.1070 C.ar  1 <1>  -0.1500 
 15 C       -1.0210    -1.3720    -2.2420 C.ar  1 <1>  -0.1500 
 16 O       -4.9380    -2.5140    -1.6110 O.3   1 <1>  -0.5600 
 17 C       -3.9630    -3.4760     0.2980 C.3   1 <1>   0.1200 
 18 O        1.4970     2.0690     0.2190 O.3   1 <1>  -0.3630 
 19 N       -0.1110     1.9440     1.8700 N.ar  1 <1>  -0.6200 
 20 C        0.7560    -1.6580    -0.1330 C.ar  1 <1>   0.0830 
 21 C        0.3380    -1.4490    -2.4920 C.ar  1 <1>  -0.1500 
 22 O       -2.7980    -3.6620     1.0360 O.3   1 <1>  -0.6800 
 23 C        2.5090     2.1680     1.2010 C.3   1 <1>   0.0400 
 24 O        1.5680    -1.8260     0.9400 O.3   1 <1>  -0.3630 
 25 C        1.2340    -1.5690    -1.4440 C.ar  1 <1>   0.0830 
 26 C        2.3040    -3.0270     0.9960 C.3   1 <1>   0.0400 
 27 O        2.5540    -1.5750    -1.7480 O.3   1 <1>  -0.3630 
 28 C        3.2820    -0.4440    -1.3230 C.3   1 <1>   0.0400 
 29 H       -3.1260    -1.0950     0.4020 H     1 <1>   0.0800 
 30 H       -5.5920     0.0870    -1.7840 H     1 <1>   0.0800 
 31 H       -4.5790     0.3660    -3.1680 H     1 <1>   0.0800 
 32 H       -0.3670     1.6700    -1.4560 H     1 <1>   0.1500 
 33 H       -3.3900     1.3750     1.5030 H     1 <1>   0.1500 
 34 H       -3.0730    -3.2210    -1.6250 H     1 <1>   0.0800 
 35 H       -4.1150    -2.0200    -3.3910 H     1 <1>   0.0800 
 36 H       -5.8460    -1.8010    -3.2470 H     1 <1>   0.0800 
 37 H       -1.6700     1.7900     3.1830 H     1 <1>   0.1500 
 38 H       -0.9460    -1.6110     1.1260 H     1 <1>   0.1500 
 39 H       -1.7020    -1.2580    -3.0680 H     1 <1>   0.1500 
 40 H       -4.3530    -4.4440     0.0370 H     1 <1>   0.0800 
 41 H       -4.6690    -2.9670     0.9310 H     1 <1>   0.0800 
 42 H        0.7110    -1.4010    -3.4980 H     1 <1>   0.1500 
 43 H       -2.1540    -4.2130     0.5470 H     1 <1>   0.4000 
 44 H        3.4550     2.2800     0.7030 H     1 <1>   0.0800 
 45 H        2.5040     1.2690     1.7920 H     1 <1>   0.0800 
 46 H        2.3120     3.0260     1.8190 H     1 <1>   0.0800 
 47 H        2.7890    -3.0800     1.9530 H     1 <1>   0.0800 
 48 H        3.0400    -3.0320     0.2120 H     1 <1>   0.0800 
 49 H        1.6280    -3.8550     0.8790 H     1 <1>   0.0800 
 50 H        4.2810    -0.5210    -1.7090 H     1 <1>   0.0800 
 51 H        3.3020    -0.4190    -0.2480 H     1 <1>   0.0800 
 52 H        2.8030     0.4410    -1.7050 H     1 <1>   0.0800 
@<TRIPOS>BOND
  1   1   2  2   
  2   2   3  am  
  3   2   4  1   
  4   3   5  1   
  5   3   6  1   
  6   4   7  ar  
  7   4   8  ar  
  8   5   9  1   
  9   5  10  1   
 10   5  29  1   
 11   6  11  1   
 12   6  30  1   
 13   6  31  1   
 14   7  12  ar  
 15   7  32  1   
 16   8  13  ar  
 17   8  33  1   
 18   9  14  ar  
 19   9  15  ar  
 20  10  16  1   
 21  10  17  1   
 22  10  34  1   
 23  11  16  1   
 24  11  35  1   
 25  11  36  1   
 26  12  18  1   
 27  12  19  ar  
 28  13  19  ar  
 29  13  37  1   
 30  14  20  ar  
 31  14  38  1   
 32  15  21  ar  
 33  15  39  1   
 34  17  22  1   
 35  17  40  1   
 36  17  41  1   
 37  18  23  1   
 38  20  24  1   
 39  20  25  ar  
 40  21  25  ar  
 41  21  42  1   
 42  22  43  1   
 43  23  44  1   
 44  23  45  1   
 45  23  46  1   
 46  24  26  1   
 47  25  27  1   
 48  26  47  1   
 49  26  48  1   
 50  26  49  1   
 51  27  28  1   
 52  28  50  1   
 53  28  51  1   
 54  28  52  1   
@<TRIPOS>SUBSTRUCTURE
  1 ****   9 GROUP 4 **** **** 0

# MOE 2024.06 (io_trps.svl 2023.06)
