@<TRIPOS>MOLECULE
NONAME
47 48 1 0 0 
SMALL
USER_CHARGES


@<TRIPOS>ATOM
  1 S        0.3980    -0.0850    -0.8660 S.o2  1 <1>   1.3330 
  2 O        0.3810    -1.3380    -0.1490 O.2   1 <1>  -0.6500 
  3 O        0.9410    -0.0050    -2.2000 O.2   1 <1>  -0.6500 
  4 N        1.2290     1.0620     0.1400 N.am  1 <1>  -0.6930 
  5 C       -1.2580     0.5670    -0.8640 C.3   1 <1>  -0.1350 
  6 C        1.3340     2.4100    -0.1750 C.ar  1 <1>   0.1990 
  7 C        1.8060     0.5440     1.4050 C.3   1 <1>   0.1160 
  8 C        1.8410     2.8420    -1.3970 C.ar  1 <1>  -0.1500 
  9 C        0.9200     3.3800     0.7340 C.ar  1 <1>  -0.1500 
 10 C        1.9190     4.1870    -1.7010 C.ar  1 <1>  -0.1500 
 11 C        1.0020     4.7250     0.4300 C.ar  1 <1>  -0.1500 
 12 C        1.5080     5.1630    -0.7940 C.ar  1 <1>   0.0860 
 13 C        1.5930     6.5700    -1.1220 C.2   1 <1>   0.5440 
 14 O        1.0430     6.9730    -2.1290 O.2   1 <1>  -0.5700 
 15 N        2.2740     7.4680    -0.3270 N.am  1 <1>  -0.6600 
 16 C        2.1770     8.9560    -0.5580 C.3   1 <1>   0.2810 
 17 C        3.2910     7.0780     0.6920 C.3   1 <1>   0.1400 
 18 C        3.5560     9.6610    -0.5870 C.2   1 <1>   0.5690 
 19 C        1.2300     9.5250     0.5210 C.3   1 <1>  -0.1600 
 20 C        4.6830     7.6020     0.3090 C.3   1 <1>   0.1400 
 21 O        3.6260    10.7670    -1.0770 O.2   1 <1>  -0.5700 
 22 N        4.6770     9.0420    -0.0750 N.am  1 <1>  -0.6600 
 23 C        0.7650    10.9620     0.2410 C.3   1 <1>  -0.2400 
 24 C        6.0120     9.7030    -0.0770 C.3   1 <1>   0.0600 
 25 H       -1.9020    -0.0690    -1.4390 H     1 <1>   0.0800 
 26 H       -1.2690     1.5480    -1.2960 H     1 <1>   0.0800 
 27 H       -1.6320     0.6230     0.1380 H     1 <1>   0.0800 
 28 H        2.4490    -0.2930     1.1910 H     1 <1>   0.0800 
 29 H        1.0170     0.2160     2.0590 H     1 <1>   0.0800 
 30 H        2.3850     1.3060     1.8980 H     1 <1>   0.0800 
 31 H        2.1810     2.1170    -2.1150 H     1 <1>   0.1500 
 32 H        0.5190     3.0700     1.6820 H     1 <1>   0.1500 
 33 H        2.3020     4.4990    -2.6580 H     1 <1>   0.1500 
 34 H        0.6640     5.4580     1.1430 H     1 <1>   0.1500 
 35 H        1.7280     9.1360    -1.5180 H     1 <1>   0.0800 
 36 H        3.3450     6.0100     0.7950 H     1 <1>   0.0800 
 37 H        3.0110     7.4860     1.6480 H     1 <1>   0.0800 
 38 H        1.7190     9.4980     1.4780 H     1 <1>   0.0800 
 39 H        0.3550     8.9010     0.5680 H     1 <1>   0.0800 
 40 H        5.0580     7.0270    -0.5200 H     1 <1>   0.0800 
 41 H        5.3490     7.4570     1.1410 H     1 <1>   0.0800 
 42 H        1.5930    11.6480     0.2740 H     1 <1>   0.0800 
 43 H        0.0460    11.2670     0.9810 H     1 <1>   0.0800 
 44 H        0.3050    11.0250    -0.7300 H     1 <1>   0.0800 
 45 H        5.9220    10.7460    -0.3280 H     1 <1>   0.0800 
 46 H        6.6500     9.2290    -0.8020 H     1 <1>   0.0800 
 47 H        6.4600     9.6260     0.8980 H     1 <1>   0.0800 
@<TRIPOS>BOND
  1   1   2  2   
  2   1   3  2   
  3   1   4  am  
  4   1   5  1   
  5   4   6  1   
  6   4   7  1   
  7   5  25  1   
  8   5  26  1   
  9   5  27  1   
 10   6   8  ar  
 11   6   9  ar  
 12   7  28  1   
 13   7  29  1   
 14   7  30  1   
 15   8  10  ar  
 16   8  31  1   
 17   9  11  ar  
 18   9  32  1   
 19  10  12  ar  
 20  10  33  1   
 21  11  12  ar  
 22  11  34  1   
 23  12  13  1   
 24  13  14  2   
 25  13  15  am  
 26  15  16  1   
 27  15  17  1   
 28  16  18  1   
 29  16  19  1   
 30  16  35  1   
 31  17  20  1   
 32  17  36  1   
 33  17  37  1   
 34  18  21  2   
 35  18  22  am  
 36  19  23  1   
 37  19  38  1   
 38  19  39  1   
 39  20  22  1   
 40  20  40  1   
 41  20  41  1   
 42  22  24  1   
 43  23  42  1   
 44  23  43  1   
 45  23  44  1   
 46  24  45  1   
 47  24  46  1   
 48  24  47  1   
@<TRIPOS>SUBSTRUCTURE
  1 ****  12 GROUP 4 **** **** 0

# MOE 2024.06 (io_trps.svl 2023.06)
