@<TRIPOS>MOLECULE
NONAME
41 42 1 0 0 
SMALL
USER_CHARGES


@<TRIPOS>ATOM
  1 O        0.1890    -1.5960    -0.3920 O.2   1 <1>  -0.5700 
  2 C        1.3610    -1.3670    -0.2270 C.2   1 <1>   0.5690 
  3 N        2.0420    -1.6500     0.8910 N.am  1 <1>  -0.7300 
  4 C        2.2410    -0.6670    -1.2350 C.3   1 <1>  -0.0190 
  5 C        3.4370    -1.2000     0.8540 C.3   1 <1>   0.1400 
  6 C        3.6640    -0.8880    -0.6450 C.3   1 <1>   0.0000 
  7 C        1.8140     0.8040    -1.3370 C.3   1 <1>   0.1200 
  8 C        4.6780     0.2460    -0.8250 C.3   1 <1>   0.1400 
  9 C        4.3800    -2.0790    -1.3100 C.3   1 <1>  -0.1600 
 10 O        0.5350     0.8700    -1.8600 O.3   1 <1>  -0.6800 
 11 N        5.9870    -0.4270    -0.7360 N.am  1 <1>  -0.6600 
 12 C        5.8660    -1.8720    -1.0150 C.3   1 <1>   0.1400 
 13 C        7.1150     0.1780    -0.2650 C.2   1 <1>   0.7800 
 14 O        7.1210     1.3490     0.0610 O.2   1 <1>  -0.5700 
 15 O        8.2080    -0.5820    -0.1690 O.3   1 <1>  -0.4300 
 16 C        9.4830    -0.1880     0.2870 C.3   1 <1>   0.2800 
 17 C       10.0600     0.9030    -0.6230 C.3   1 <1>  -0.2400 
 18 C       10.3510    -1.4430     0.1810 C.3   1 <1>  -0.2400 
 19 C        9.4080     0.2510     1.7540 C.3   1 <1>  -0.2400 
 20 H        1.6000    -2.0660     1.7150 H     1 <1>   0.3700 
 21 H        2.1420    -1.1320    -2.1990 H     1 <1>   0.0800 
 22 H        4.1010    -1.9640     1.2220 H     1 <1>   0.0800 
 23 H        3.5390    -0.3140     1.4600 H     1 <1>   0.0800 
 24 H        2.4560     1.3610    -1.9970 H     1 <1>   0.0800 
 25 H        1.8030     1.2730    -0.3670 H     1 <1>   0.0800 
 26 H        4.5790     1.0140    -0.0760 H     1 <1>   0.0800 
 27 H        4.5940     0.6850    -1.8040 H     1 <1>   0.0800 
 28 H        4.2490    -2.0460    -2.3780 H     1 <1>   0.0800 
 29 H        4.0310    -3.0330    -0.9560 H     1 <1>   0.0800 
 30 H       -0.0450     0.2070    -1.4140 H     1 <1>   0.4000 
 31 H        6.4820    -2.1490    -1.8540 H     1 <1>   0.0800 
 32 H        6.1680    -2.4300    -0.1440 H     1 <1>   0.0800 
 33 H       10.0300     0.5870    -1.6500 H     1 <1>   0.0800 
 34 H       11.0820     1.1000    -0.3570 H     1 <1>   0.0800 
 35 H        9.5150     1.8230    -0.5200 H     1 <1>   0.0800 
 36 H       10.3920    -1.7820    -0.8390 H     1 <1>   0.0800 
 37 H        9.9510    -2.2280     0.7970 H     1 <1>   0.0800 
 38 H       11.3530    -1.2330     0.5080 H     1 <1>   0.0800 
 39 H        8.8640     1.1720     1.8560 H     1 <1>   0.0800 
 40 H       10.3980     0.4170     2.1370 H     1 <1>   0.0800 
 41 H        8.9350    -0.5080     2.3490 H     1 <1>   0.0800 
@<TRIPOS>BOND
  1   1   2  2   
  2   2   3  am  
  3   2   4  1   
  4   3   5  1   
  5   3  20  1   
  6   4   6  1   
  7   4   7  1   
  8   4  21  1   
  9   5   6  1   
 10   5  22  1   
 11   5  23  1   
 12   6   8  1   
 13   6   9  1   
 14   7  10  1   
 15   7  24  1   
 16   7  25  1   
 17   8  11  1   
 18   8  26  1   
 19   8  27  1   
 20   9  12  1   
 21   9  28  1   
 22   9  29  1   
 23  10  30  1   
 24  11  12  1   
 25  11  13  am  
 26  12  31  1   
 27  12  32  1   
 28  13  14  2   
 29  13  15  1   
 30  15  16  1   
 31  16  17  1   
 32  16  18  1   
 33  16  19  1   
 34  17  33  1   
 35  17  34  1   
 36  17  35  1   
 37  18  36  1   
 38  18  37  1   
 39  18  38  1   
 40  19  39  1   
 41  19  40  1   
 42  19  41  1   
@<TRIPOS>SUBSTRUCTURE
  1 ****  11 GROUP 4 **** **** 0

# MOE 2024.06 (io_trps.svl 2023.06)
