@<TRIPOS>MOLECULE
NONAME
47 48 1 0 0 
SMALL
USER_CHARGES


@<TRIPOS>ATOM
  1 N        3.6320     2.4560    -0.3110 N.1   1 <1>  -0.5570 
  2 C        3.4050     1.3690    -0.0460 C.1   1 <1>   0.4840 
  3 C        3.3410    -0.0370     0.2380 C.ar  1 <1>   0.0730 
  4 C        4.0410    -0.9700    -0.5350 C.ar  1 <1>  -0.1440 
  5 C        2.5950    -0.4870     1.3210 C.ar  1 <1>  -0.1500 
  6 C        3.9890    -2.3170    -0.2050 C.ar  1 <1>  -0.1500 
  7 C        4.8550    -0.5550    -1.7510 C.3   1 <1>   0.4870 
  8 C        2.5480    -1.8300     1.6420 C.ar  1 <1>  -0.1500 
  9 C        3.2470    -2.7450     0.8800 C.ar  1 <1>  -0.1500 
 10 N        6.1790    -0.0370    -1.2900 N.4   1 <1>  -0.9590 
 11 C        6.3670     1.3990    -1.6750 C.3   1 <1>   0.3430 
 12 C        7.2880    -0.9040    -1.8050 C.3   1 <1>   0.2630 
 13 C        6.8520     2.2530    -0.4870 C.3   1 <1>  -0.0800 
 14 C        6.6400     3.7400    -0.8410 C.3   1 <1>   0.3430 
 15 C        8.3180     1.9560    -0.1140 C.3   1 <1>  -0.2400 
 16 N        6.8080     4.6260     0.3450 N.4   1 <1>  -0.9590 
 17 C        5.6600     4.5820     1.2920 C.3   1 <1>   0.3430 
 18 C        6.9460     6.0570    -0.0260 C.3   1 <1>   0.3430 
 19 C        5.7820     5.8650     2.1020 C.3   1 <1>  -0.1600 
 20 C        6.6380     6.8130     1.2580 C.3   1 <1>  -0.1600 
 21 H        2.0420     0.2120     1.9280 H     1 <1>   0.1500 
 22 H        4.5160    -3.0560    -0.7870 H     1 <1>   0.1500 
 23 H        4.3210     0.1990    -2.3070 H     1 <1>   0.0800 
 24 H        4.9900    -1.4070    -2.3980 H     1 <1>   0.0800 
 25 H        1.9660    -2.1670     2.4860 H     1 <1>   0.1500 
 26 H        3.2070    -3.7930     1.1320 H     1 <1>   0.1500 
 27 H        6.1690    -0.1190    -0.2630 H     1 <1>   0.4500 
 28 H        5.4240     1.7980    -2.0140 H     1 <1>   0.0800 
 29 H        7.0650     1.4760    -2.4950 H     1 <1>   0.0800 
 30 H        7.3120    -0.8880    -2.8830 H     1 <1>   0.0800 
 31 H        7.1490    -1.9230    -1.4790 H     1 <1>   0.0800 
 32 H        8.2410    -0.5590    -1.4370 H     1 <1>   0.0800 
 33 H        6.2290     2.0240     0.3580 H     1 <1>   0.0800 
 34 H        5.6470     3.8800    -1.2420 H     1 <1>   0.0800 
 35 H        7.3490     4.0230    -1.6040 H     1 <1>   0.0800 
 36 H        8.9760     2.1530    -0.9440 H     1 <1>   0.0800 
 37 H        8.4410     0.9290     0.1800 H     1 <1>   0.0800 
 38 H        8.6360     2.5610     0.7170 H     1 <1>   0.0800 
 39 H        7.6570     4.3700     0.8670 H     1 <1>   0.4500 
 40 H        5.6910     3.7090     1.9240 H     1 <1>   0.0800 
 41 H        4.7310     4.5930     0.7430 H     1 <1>   0.0800 
 42 H        6.2140     6.3150    -0.7750 H     1 <1>   0.0800 
 43 H        7.9340     6.2860    -0.3960 H     1 <1>   0.0800 
 44 H        6.2600     5.6620     3.0450 H     1 <1>   0.0800 
 45 H        4.8060     6.2760     2.2970 H     1 <1>   0.0800 
 46 H        6.1230     7.7330     1.0410 H     1 <1>   0.0800 
 47 H        7.5550     7.0490     1.7720 H     1 <1>   0.0800 
@<TRIPOS>BOND
  1   1   2  3   
  2   2   3  1   
  3   3   4  ar  
  4   3   5  ar  
  5   4   6  ar  
  6   4   7  1   
  7   5   8  ar  
  8   5  21  1   
  9   6   9  ar  
 10   6  22  1   
 11   7  10  1   
 12   7  23  1   
 13   7  24  1   
 14   8   9  ar  
 15   8  25  1   
 16   9  26  1   
 17  10  11  1   
 18  10  12  1   
 19  10  27  1   
 20  11  13  1   
 21  11  28  1   
 22  11  29  1   
 23  12  30  1   
 24  12  31  1   
 25  12  32  1   
 26  13  14  1   
 27  13  15  1   
 28  13  33  1   
 29  14  16  1   
 30  14  34  1   
 31  14  35  1   
 32  15  36  1   
 33  15  37  1   
 34  15  38  1   
 35  16  17  1   
 36  16  18  1   
 37  16  39  1   
 38  17  19  1   
 39  17  40  1   
 40  17  41  1   
 41  18  20  1   
 42  18  42  1   
 43  18  43  1   
 44  19  20  1   
 45  19  44  1   
 46  19  45  1   
 47  20  46  1   
 48  20  47  1   
@<TRIPOS>SUBSTRUCTURE
  1 ****  13 GROUP 4 **** **** 0

# MOE 2024.06 (io_trps.svl 2023.06)
