@<TRIPOS>MOLECULE
NONAME
39 41 1 0 0 
SMALL
USER_CHARGES


@<TRIPOS>ATOM
  1 O       -1.6190     0.1210    -2.4300 O.2   1 <1>  -0.5700 
  2 C       -1.8240    -0.4820    -1.3990 C.2   1 <1>   0.5690 
  3 N       -2.2550     0.1400    -0.2560 N.am  1 <1>  -0.6600 
  4 C       -1.5500    -1.9800    -1.3840 C.3   1 <1>  -0.0190 
  5 C       -2.6150    -0.6610     0.9570 C.3   1 <1>   0.2200 
  6 C       -2.4900     1.6050    -0.1860 C.3   1 <1>   0.0600 
  7 C       -0.3500    -2.3040    -0.4740 C.3   1 <1>   0.1200 
  8 C       -2.7740    -2.8800    -1.0960 C.3   1 <1>   0.1100 
  9 C       -1.4660    -1.5550     1.5010 C.3   1 <1>   0.1200 
 10 C       -3.8940    -1.4900     0.7010 C.3   1 <1>   0.1100 
 11 O       -0.3160    -1.5580     0.7070 O.3   1 <1>  -0.5600 
 12 N       -3.9680    -2.1620    -0.6170 N.3   1 <1>  -0.8100 
 13 C       -5.2300    -2.9040    -0.8200 C.3   1 <1>   0.2900 
 14 C       -5.3870    -4.1660     0.0260 C.2   1 <1>  -0.0400 
 15 O       -6.5030    -4.8510    -0.1370 O.3   1 <1>  -0.2800 
 16 C       -4.6080    -4.7740     0.9520 C.2   1 <1>  -0.1500 
 17 C       -6.4660    -5.8950     0.6640 C.2   1 <1>  -0.0400 
 18 C       -5.3160    -5.9070     1.3690 C.2   1 <1>  -0.1500 
 19 C       -7.6390    -6.8490     0.6660 C.3   1 <1>  -0.0600 
 20 H       -1.2320    -2.2440    -2.3750 H     1 <1>   0.0800 
 21 H       -2.8550     0.0230     1.7500 H     1 <1>   0.0800 
 22 H       -1.9120     2.0270     0.6170 H     1 <1>   0.0800 
 23 H       -3.5350     1.7980    -0.0200 H     1 <1>   0.0800 
 24 H       -2.1940     2.0800    -1.1060 H     1 <1>   0.0800 
 25 H        0.5570    -2.0650    -1.0010 H     1 <1>   0.0800 
 26 H       -0.3210    -3.3490    -0.2190 H     1 <1>   0.0800 
 27 H       -2.5110    -3.6550    -0.4000 H     1 <1>   0.0800 
 28 H       -3.0320    -3.3670    -2.0210 H     1 <1>   0.0800 
 29 H       -1.7880    -2.5710     1.6400 H     1 <1>   0.0800 
 30 H       -1.1710    -1.1770     2.4630 H     1 <1>   0.0800 
 31 H       -4.7290    -0.8150     0.7690 H     1 <1>   0.0800 
 32 H       -4.0130    -2.2080     1.4920 H     1 <1>   0.0800 
 33 H       -6.0560    -2.2480    -0.6090 H     1 <1>   0.0800 
 34 H       -5.3070    -3.1800    -1.8580 H     1 <1>   0.0800 
 35 H       -3.6430    -4.4890     1.3250 H     1 <1>   0.1500 
 36 H       -4.9830    -6.6190     2.1020 H     1 <1>   0.1500 
 37 H       -7.4700    -7.6470     1.3650 H     1 <1>   0.0800 
 38 H       -7.7710    -7.2640    -0.3160 H     1 <1>   0.0800 
 39 H       -8.5340    -6.3220     0.9450 H     1 <1>   0.0800 
@<TRIPOS>BOND
  1   1   2  2   
  2   2   3  am  
  3   2   4  1   
  4   3   5  1   
  5   3   6  1   
  6   4   7  1   
  7   4   8  1   
  8   4  20  1   
  9   5   9  1   
 10   5  10  1   
 11   5  21  1   
 12   6  22  1   
 13   6  23  1   
 14   6  24  1   
 15   7  11  1   
 16   7  25  1   
 17   7  26  1   
 18   8  12  1   
 19   8  27  1   
 20   8  28  1   
 21   9  11  1   
 22   9  29  1   
 23   9  30  1   
 24  10  12  1   
 25  10  31  1   
 26  10  32  1   
 27  12  13  1   
 28  13  14  1   
 29  13  33  1   
 30  13  34  1   
 31  14  15  1   
 32  14  16  2   
 33  15  17  1   
 34  16  18  1   
 35  16  35  1   
 36  17  18  2   
 37  17  19  1   
 38  18  36  1   
 39  19  37  1   
 40  19  38  1   
 41  19  39  1   
@<TRIPOS>SUBSTRUCTURE
  1 ****  12 GROUP 4 **** **** 0

# MOE 2024.06 (io_trps.svl 2023.06)
