@<TRIPOS>MOLECULE
NONAME
42 43 1 0 0 
SMALL
USER_CHARGES


@<TRIPOS>ATOM
  1 S       -1.5940     0.3420    -1.1060 S.o2  1 <1>   1.3330 
  2 O       -1.6660    -0.5340    -2.2490 O.2   1 <1>  -0.6500 
  3 O       -0.5380     1.3260    -1.0380 O.2   1 <1>  -0.6500 
  4 N       -1.4540    -0.6130     0.3220 N.am  1 <1>  -0.6930 
  5 C       -3.1240     1.2400    -0.9200 C.3   1 <1>  -0.1350 
  6 C       -2.2240    -1.7310     0.4160 C.ar  1 <1>   0.8190 
  7 C       -0.1680    -0.5130     1.0600 C.3   1 <1>   0.1160 
  8 N       -3.5160    -1.5720     0.2140 N.ar  1 <1>  -0.6200 
  9 N       -1.6150    -2.8620     0.7490 N.ar  1 <1>  -0.6200 
 10 C       -4.2760    -2.6460     0.3230 C.ar  1 <1>   0.3100 
 11 C       -2.3630    -3.9330     0.8720 C.ar  1 <1>   0.1670 
 12 C       -3.7340    -3.8750     0.6710 C.ar  1 <1>  -0.1790 
 13 C       -5.6870    -2.4480     0.0620 C.ar  1 <1>   0.0000 
 14 C       -1.5850    -5.2090     1.2420 C.3   1 <1>   0.0640 
 15 C       -4.6090    -4.9970     0.8170 C.2   1 <1>   0.9790 
 16 C       -6.4270    -1.5400     0.8250 C.ar  1 <1>  -0.1500 
 17 C       -6.3450    -3.1320    -0.9650 C.ar  1 <1>  -0.1500 
 18 C       -1.4660    -6.1760     0.0580 C.3   1 <1>  -0.2400 
 19 C       -2.1020    -5.9280     2.4960 C.3   1 <1>  -0.2400 
 20 O       -4.7970    -5.7780    -0.1300 O.co2 1 <1>  -0.9000 
 21 O       -5.2040    -5.1870     1.8900 O.co2 1 <1>  -0.9000 
 22 C       -7.7680    -1.3130     0.5750 C.ar  1 <1>  -0.1500 
 23 C       -7.6860    -2.9190    -1.2290 C.ar  1 <1>  -0.1500 
 24 C       -8.3750    -2.0070    -0.4530 C.ar  1 <1>   0.1900 
 25 F       -9.6380    -1.7930    -0.7000 F     1 <1>  -0.1900 
 26 H       -3.2010     1.9870    -1.6850 H     1 <1>   0.0800 
 27 H       -3.1560     1.7210     0.0370 H     1 <1>   0.0800 
 28 H       -3.9660     0.5830    -1.0090 H     1 <1>   0.0800 
 29 H        0.0410     0.5160     1.2980 H     1 <1>   0.0800 
 30 H        0.6280    -0.9030     0.4490 H     1 <1>   0.0800 
 31 H       -0.2160    -1.0740     1.9770 H     1 <1>   0.0800 
 32 H       -0.5810    -4.8990     1.4790 H     1 <1>   0.0800 
 33 H       -5.9320    -1.0160     1.6230 H     1 <1>   0.1500 
 34 H       -5.7930    -3.8480    -1.5530 H     1 <1>   0.1500 
 35 H       -2.4240    -6.5950    -0.1910 H     1 <1>   0.0800 
 36 H       -0.7960    -6.9810     0.2980 H     1 <1>   0.0800 
 37 H       -1.0900    -5.6550    -0.8030 H     1 <1>   0.0800 
 38 H       -3.0010    -6.4800     2.2860 H     1 <1>   0.0800 
 39 H       -2.3140    -5.2140     3.2720 H     1 <1>   0.0800 
 40 H       -1.3660    -6.6230     2.8550 H     1 <1>   0.0800 
 41 H       -8.3350    -0.6170     1.1640 H     1 <1>   0.1500 
 42 H       -8.1860    -3.4550    -2.0140 H     1 <1>   0.1500 
@<TRIPOS>BOND
  1   1   2  2   
  2   1   3  2   
  3   1   4  am  
  4   1   5  1   
  5   4   6  1   
  6   4   7  1   
  7   5  26  1   
  8   5  27  1   
  9   5  28  1   
 10   6   8  ar  
 11   6   9  ar  
 12   7  29  1   
 13   7  30  1   
 14   7  31  1   
 15   8  10  ar  
 16   9  11  ar  
 17  10  12  ar  
 18  10  13  1   
 19  11  12  ar  
 20  11  14  1   
 21  12  15  1   
 22  13  16  ar  
 23  13  17  ar  
 24  14  18  1   
 25  14  19  1   
 26  14  32  1   
 27  15  20  ar  
 28  15  21  ar  
 29  16  22  ar  
 30  16  33  1   
 31  17  23  ar  
 32  17  34  1   
 33  18  35  1   
 34  18  36  1   
 35  18  37  1   
 36  19  38  1   
 37  19  39  1   
 38  19  40  1   
 39  22  24  ar  
 40  22  41  1   
 41  23  24  ar  
 42  23  42  1   
 43  24  25  1   
@<TRIPOS>SUBSTRUCTURE
  1 ****  10 GROUP 4 **** **** 0

# MOE 2024.06 (io_trps.svl 2023.06)
