@<TRIPOS>MOLECULE
NONAME
51 53 1 0 0 
SMALL
USER_CHARGES


@<TRIPOS>ATOM
  1 S        0.6650    -0.0440    -0.8000 S.o2  1 <1>   1.3330 
  2 O        0.3550    -0.8890     0.3310 O.2   1 <1>  -0.6500 
  3 O        0.1930    -0.4100    -2.1160 O.2   1 <1>  -0.6500 
  4 N        0.0730     1.5100    -0.4610 N.am  1 <1>  -0.8490 
  5 C        2.4450     0.1700    -0.8560 C.3   1 <1>  -0.0550 
  6 C        0.2190     2.4510    -1.5790 C.3   1 <1>   0.1160 
  7 C       -1.3220     1.4730    -0.0190 C.3   1 <1>   0.1160 
  8 C        3.0360     0.8120     0.4120 C.3   1 <1>  -0.0800 
  9 C        4.4970     1.2080     0.2190 C.3   1 <1>   0.2200 
 10 C        3.0590    -0.1070     1.6330 C.3   1 <1>   0.1200 
 11 N        4.6150     2.6770     0.3110 N.am  1 <1>  -0.7300 
 12 C        5.2190     0.5110     1.3720 C.3   1 <1>   0.1200 
 13 O        4.2330     0.2130     2.3050 O.3   1 <1>  -0.5600 
 14 C        4.2980     3.5390    -0.6910 C.2   1 <1>   0.7150 
 15 O        4.0170     3.0800    -1.7830 O.2   1 <1>  -0.5700 
 16 C        4.2710     4.9530    -0.4150 C.2   1 <1>  -0.2370 
 17 N        4.3090     5.9420    -1.3810 N.pl3 1 <1>   0.0480 
 18 C        4.1990     5.5680     0.8040 C.2   1 <1>  -0.1500 
 19 C        4.2520     7.1670    -0.7570 C.ar  1 <1>  -0.1520 
 20 C        4.4500     5.7460    -2.8400 C.3   1 <1>   0.0160 
 21 C        4.1870     6.9570     0.6140 C.ar  1 <1>   0.0000 
 22 C        4.2500     8.4700    -1.2660 C.ar  1 <1>  -0.1500 
 23 C        4.1240     8.0470     1.4900 C.ar  1 <1>  -0.1500 
 24 C        4.1880     9.5330    -0.3960 C.ar  1 <1>  -0.1500 
 25 C        4.1260     9.3280     0.9890 C.ar  1 <1>  -0.1440 
 26 C        4.0590    10.5320     1.9100 C.3   1 <1>  -0.0970 
 27 H        2.9100    -0.7810    -1.0280 H     1 <1>   0.0800 
 28 H        2.6810     0.7960    -1.6950 H     1 <1>   0.0800 
 29 H       -0.1350     3.4260    -1.2890 H     1 <1>   0.0800 
 30 H       -0.3440     2.1130    -2.4330 H     1 <1>   0.0800 
 31 H        1.2540     2.5440    -1.8580 H     1 <1>   0.0800 
 32 H       -1.6630     2.4650     0.2240 H     1 <1>   0.0800 
 33 H       -1.4130     0.8610     0.8630 H     1 <1>   0.0800 
 34 H       -1.9490     1.0610    -0.7920 H     1 <1>   0.0800 
 35 H        2.4550     1.6800     0.6710 H     1 <1>   0.0800 
 36 H        4.8980     0.8730    -0.7230 H     1 <1>   0.0800 
 37 H        3.1060    -1.1470     1.3540 H     1 <1>   0.0800 
 38 H        2.2180     0.0560     2.2870 H     1 <1>   0.0800 
 39 H        4.6990     3.0540     1.2550 H     1 <1>   0.3700 
 40 H        5.9740     1.1250     1.8290 H     1 <1>   0.0800 
 41 H        5.6490    -0.4190     1.0440 H     1 <1>   0.0800 
 42 H        4.1500     5.1110     1.7760 H     1 <1>   0.1500 
 43 H        5.2390     5.0410    -3.0290 H     1 <1>   0.0800 
 44 H        4.6890     6.6750    -3.3190 H     1 <1>   0.0800 
 45 H        3.5270     5.3620    -3.2340 H     1 <1>   0.0800 
 46 H        4.2950     8.6390    -2.3260 H     1 <1>   0.1500 
 47 H        4.0750     7.8560     2.5460 H     1 <1>   0.1500 
 48 H        4.1870    10.5390    -0.7760 H     1 <1>   0.1500 
 49 H        3.1830    11.1150     1.6860 H     1 <1>   0.0800 
 50 H        4.9310    11.1450     1.7720 H     1 <1>   0.0800 
 51 H        4.0140    10.2260     2.9390 H     1 <1>   0.0800 
@<TRIPOS>BOND
  1   1   2  2   
  2   1   3  2   
  3   1   4  am  
  4   1   5  1   
  5   4   6  1   
  6   4   7  1   
  7   5   8  1   
  8   5  27  1   
  9   5  28  1   
 10   6  29  1   
 11   6  30  1   
 12   6  31  1   
 13   7  32  1   
 14   7  33  1   
 15   7  34  1   
 16   8   9  1   
 17   8  10  1   
 18   8  35  1   
 19   9  11  1   
 20   9  12  1   
 21   9  36  1   
 22  10  13  1   
 23  10  37  1   
 24  10  38  1   
 25  11  14  am  
 26  11  39  1   
 27  12  13  1   
 28  12  40  1   
 29  12  41  1   
 30  14  15  2   
 31  14  16  1   
 32  16  17  1   
 33  16  18  2   
 34  17  19  1   
 35  17  20  1   
 36  18  21  1   
 37  18  42  1   
 38  19  21  ar  
 39  19  22  ar  
 40  20  43  1   
 41  20  44  1   
 42  20  45  1   
 43  21  23  ar  
 44  22  24  ar  
 45  22  46  1   
 46  23  25  ar  
 47  23  47  1   
 48  24  25  ar  
 49  24  48  1   
 50  25  26  1   
 51  26  49  1   
 52  26  50  1   
 53  26  51  1   
@<TRIPOS>SUBSTRUCTURE
  1 ****  14 GROUP 4 **** **** 0

# MOE 2024.06 (io_trps.svl 2023.06)
