@<TRIPOS>MOLECULE
NONAME
35 36 1 0 0 
SMALL
USER_CHARGES


@<TRIPOS>ATOM
  1 CL      -0.1040    -0.7890    -2.3630 Cl    1 <1>  -0.1770 
  2 C        1.2310    -1.3160    -1.3510 C.ar  1 <1>   0.1770 
  3 C        1.2230    -2.5670    -0.7460 C.ar  1 <1>   0.4100 
  4 C        2.3080    -0.4990    -1.1430 C.ar  1 <1>   0.1600 
  5 N        2.2400    -2.9480     0.0070 N.ar  1 <1>  -0.6200 
  6 N        0.1750    -3.4470    -0.9060 N.pl3 1 <1>  -0.8690 
  7 N        3.3290    -0.8720    -0.3900 N.ar  1 <1>  -0.6200 
  8 C        3.2290    -2.0810     0.1400 C.ar  1 <1>   0.4770 
  9 C        0.1870    -4.8530    -0.4530 C.3   1 <1>   0.2090 
 10 C        4.3800    -2.5300     1.0070 C.3   1 <1>  -0.0970 
 11 C       -1.2520    -5.3530    -0.3650 C.3   1 <1>  -0.1600 
 12 C       -1.2900    -6.7920     0.1460 C.3   1 <1>   0.1400 
 13 N       -2.6840    -7.2860     0.1390 N.am  1 <1>  -0.6600 
 14 C       -3.2080    -8.1250    -0.7810 C.2   1 <1>   0.5690 
 15 C       -3.6290    -6.9550     1.2190 C.3   1 <1>   0.1400 
 16 O       -2.6370    -8.5580    -1.7520 O.2   1 <1>  -0.5700 
 17 C       -4.6300    -8.4730    -0.4390 C.3   1 <1>  -0.0990 
 18 C       -4.9670    -7.5270     0.7280 C.3   1 <1>  -0.1600 
 19 H        2.3390     0.4750    -1.5990 H     1 <1>   0.1500 
 20 H       -0.5280    -3.2170    -1.6140 H     1 <1>   0.4000 
 21 H        0.6590    -4.9190     0.5130 H     1 <1>   0.0800 
 22 H        0.7490    -5.4470    -1.1540 H     1 <1>   0.0800 
 23 H        4.7150    -3.4990     0.6880 H     1 <1>   0.0800 
 24 H        4.0550    -2.5870     2.0280 H     1 <1>   0.0800 
 25 H        5.1990    -1.8370     0.9370 H     1 <1>   0.0800 
 26 H       -1.6980    -5.3190    -1.3430 H     1 <1>   0.0800 
 27 H       -1.8030    -4.7190     0.3050 H     1 <1>   0.0800 
 28 H       -0.8920    -6.8520     1.1440 H     1 <1>   0.0800 
 29 H       -0.6940    -7.4210    -0.4950 H     1 <1>   0.0800 
 30 H       -3.6880    -5.8900     1.3640 H     1 <1>   0.0800 
 31 H       -3.3150    -7.4350     2.1300 H     1 <1>   0.0800 
 32 H       -4.6720    -9.5020    -0.1330 H     1 <1>   0.0800 
 33 H       -5.2720    -8.3120    -1.2850 H     1 <1>   0.0800 
 34 H       -5.5800    -6.7190     0.3720 H     1 <1>   0.0800 
 35 H       -5.4900    -8.0350     1.5190 H     1 <1>   0.0800 
@<TRIPOS>BOND
  1   1   2  1   
  2   2   3  ar  
  3   2   4  ar  
  4   3   5  ar  
  5   3   6  1   
  6   4   7  ar  
  7   4  19  1   
  8   5   8  ar  
  9   6   9  1   
 10   6  20  1   
 11   7   8  ar  
 12   8  10  1   
 13   9  11  1   
 14   9  21  1   
 15   9  22  1   
 16  10  23  1   
 17  10  24  1   
 18  10  25  1   
 19  11  12  1   
 20  11  26  1   
 21  11  27  1   
 22  12  13  1   
 23  12  28  1   
 24  12  29  1   
 25  13  14  am  
 26  13  15  1   
 27  14  16  2   
 28  14  17  1   
 29  15  18  1   
 30  15  30  1   
 31  15  31  1   
 32  17  18  1   
 33  17  32  1   
 34  17  33  1   
 35  18  34  1   
 36  18  35  1   
@<TRIPOS>SUBSTRUCTURE
  1 ****   9 GROUP 4 **** **** 0

# MOE 2024.06 (io_trps.svl 2023.06)
