@<TRIPOS>MOLECULE
NONAME
37 38 1 0 0 
SMALL
USER_CHARGES


@<TRIPOS>ATOM
  1 O       -0.9640     0.7480    -0.3470 O.2   1 <1>  -0.5700 
  2 C       -0.9450     1.8970     0.0090 C.2   1 <1>   0.6590 
  3 O       -1.6870     2.3530     1.0010 O.3   1 <1>  -0.4300 
  4 C       -0.1230     3.0210    -0.5950 C.3   1 <1>   0.4250 
  5 C       -1.5290     3.7360     1.2030 C.3   1 <1>   0.4200 
  6 N       -0.6900     4.1970     0.0860 N.am  1 <1>  -0.6600 
  7 C        1.3810     2.9550    -0.3090 C.ar  1 <1>  -0.1440 
  8 C       -0.8900     5.3800    -0.5390 C.2   1 <1>   0.7800 
  9 C        1.9190     2.1450     0.6870 C.ar  1 <1>  -0.1500 
 10 C        2.2380     3.7410    -1.0700 C.ar  1 <1>  -0.1500 
 11 O       -0.4720     5.5890    -1.6590 O.2   1 <1>  -0.5700 
 12 O       -1.5850     6.2980     0.1340 O.3   1 <1>  -0.4300 
 13 C        3.2840     2.1240     0.9130 C.ar  1 <1>  -0.1500 
 14 C        3.6040     3.7240    -0.8470 C.ar  1 <1>  -0.1500 
 15 C       -1.9120     7.6030    -0.2930 C.3   1 <1>   0.2800 
 16 C        4.1220     2.9120     0.1470 C.ar  1 <1>   0.0830 
 17 C       -2.6960     8.2180     0.8660 C.3   1 <1>  -0.2400 
 18 C       -0.6350     8.4180    -0.5290 C.3   1 <1>  -0.2400 
 19 C       -2.8080     7.5460    -1.5360 C.3   1 <1>  -0.2400 
 20 O        5.4430     2.8840     0.3780 O.3   1 <1>  -0.5320 
 21 H       -0.3080     3.0640    -1.6540 H     1 <1>   0.0800 
 22 H       -2.4990     4.2050     1.1960 H     1 <1>   0.0800 
 23 H       -1.0350     3.8980     2.1470 H     1 <1>   0.0800 
 24 H        1.2940     1.5190     1.3000 H     1 <1>   0.1500 
 25 H        1.8420     4.3790    -1.8430 H     1 <1>   0.1500 
 26 H        3.7050     1.4990     1.6800 H     1 <1>   0.1500 
 27 H        4.2500     4.3390    -1.4450 H     1 <1>   0.1500 
 28 H       -2.9880     9.2250     0.6270 H     1 <1>   0.0800 
 29 H       -2.0900     8.2450     1.7550 H     1 <1>   0.0800 
 30 H       -3.5840     7.6460     1.0630 H     1 <1>   0.0800 
 31 H       -0.8860     9.4460    -0.7170 H     1 <1>   0.0800 
 32 H       -0.0940     8.0570    -1.3840 H     1 <1>   0.0800 
 33 H        0.0020     8.3770     0.3360 H     1 <1>   0.0800 
 34 H       -3.1650     8.5310    -1.7740 H     1 <1>   0.0800 
 35 H       -3.6570     6.9110    -1.3570 H     1 <1>   0.0800 
 36 H       -2.2670     7.1830    -2.3900 H     1 <1>   0.0800 
 37 H        5.9450     3.4720    -0.2130 H     1 <1>   0.4500 
@<TRIPOS>BOND
  1   1   2  2   
  2   2   3  1   
  3   2   4  1   
  4   3   5  1   
  5   4   6  1   
  6   4   7  1   
  7   4  21  1   
  8   5   6  1   
  9   5  22  1   
 10   5  23  1   
 11   6   8  am  
 12   7   9  ar  
 13   7  10  ar  
 14   8  11  2   
 15   8  12  1   
 16   9  13  ar  
 17   9  24  1   
 18  10  14  ar  
 19  10  25  1   
 20  12  15  1   
 21  13  16  ar  
 22  13  26  1   
 23  14  16  ar  
 24  14  27  1   
 25  15  17  1   
 26  15  18  1   
 27  15  19  1   
 28  16  20  1   
 29  17  28  1   
 30  17  29  1   
 31  17  30  1   
 32  18  31  1   
 33  18  32  1   
 34  18  33  1   
 35  19  34  1   
 36  19  35  1   
 37  19  36  1   
 38  20  37  1   
@<TRIPOS>SUBSTRUCTURE
  1 ****   6 GROUP 4 **** **** 0

# MOE 2024.06 (io_trps.svl 2023.06)
