@<TRIPOS>MOLECULE
NONAME
53 55 1 0 0 
SMALL
USER_CHARGES


@<TRIPOS>ATOM
  1 S        1.5000     2.4650    -1.7640 S.o2  1 <1>   1.3330 
  2 O        1.6770     3.8890    -1.5710 O.2   1 <1>  -0.6500 
  3 O        2.0130     1.8090    -2.9390 O.2   1 <1>  -0.6500 
  4 N        2.2170     1.7340    -0.4090 N.am  1 <1>  -0.8490 
  5 C       -0.2570     2.0990    -1.5700 C.3   1 <1>  -0.0550 
  6 C        3.6040     2.1960    -0.2320 C.3   1 <1>   0.1160 
  7 C        2.2580     0.2630    -0.5090 C.3   1 <1>   0.1160 
  8 C       -1.0370     2.8600    -0.4620 C.3   1 <1>  -0.0800 
  9 C       -1.3590     4.3100    -0.8680 C.3   1 <1>   0.2000 
 10 C       -0.2980     2.9930     0.8760 C.3   1 <1>   0.3430 
 11 O       -2.7210     4.5340    -0.7210 O.3   1 <1>  -0.6800 
 12 C       -0.5660     5.2240     0.0770 C.3   1 <1>   0.3430 
 13 N        0.3590     4.3160     0.8120 N.4   1 <1>  -0.9590 
 14 C        0.8890     4.8560     2.0890 C.3   1 <1>   0.4860 
 15 C        1.5610     6.1900     1.8170 C.ar  1 <1>  -0.1440 
 16 C        2.5440     6.3080     0.8440 C.ar  1 <1>  -0.1500 
 17 C        1.1890     7.3120     2.5420 C.ar  1 <1>  -0.1500 
 18 C        3.1580     7.5260     0.5620 C.ar  1 <1>   0.0530 
 19 C        1.7940     8.5300     2.2890 C.ar  1 <1>  -0.1500 
 20 C        4.1590     7.6290    -0.4750 C.2   1 <1>   0.0870 
 21 C        2.7650     8.6320     1.3110 C.ar  1 <1>  -0.1500 
 22 O        5.0130     8.6440    -0.4800 O.3   1 <1>  -0.2800 
 23 C        4.4280     6.8310    -1.5430 C.2   1 <1>  -0.1500 
 24 C        5.8180     8.5160    -1.5110 C.2   1 <1>  -0.0400 
 25 C        5.5070     7.4080    -2.2140 C.2   1 <1>  -0.1500 
 26 C        6.8890     9.5610    -1.7310 C.3   1 <1>  -0.0600 
 27 H       -0.7440     2.2940    -2.5070 H     1 <1>   0.0800 
 28 H       -0.3670     1.0470    -1.3980 H     1 <1>   0.0800 
 29 H        4.0470     1.7320     0.6340 H     1 <1>   0.0800 
 30 H        3.6350     3.2620    -0.0930 H     1 <1>   0.0800 
 31 H        4.1960     1.9490    -1.0990 H     1 <1>   0.0800 
 32 H        2.7060    -0.1570     0.3760 H     1 <1>   0.0800 
 33 H        2.8390    -0.0440    -1.3650 H     1 <1>   0.0800 
 34 H        1.2680    -0.1450    -0.6050 H     1 <1>   0.0800 
 35 H       -1.9490     2.3120    -0.2990 H     1 <1>   0.0800 
 36 H       -1.1050     4.5200    -1.8940 H     1 <1>   0.0800 
 37 H        0.4120     2.1970     1.0340 H     1 <1>   0.0800 
 38 H       -1.0160     2.9870     1.6810 H     1 <1>   0.0800 
 39 H       -3.0680     4.2870     0.1580 H     1 <1>   0.4000 
 40 H       -1.2360     5.7180     0.7600 H     1 <1>   0.0800 
 41 H       -0.0080     5.9610    -0.4800 H     1 <1>   0.0800 
 42 H        1.1750     4.2210     0.1740 H     1 <1>   0.4500 
 43 H        0.0870     4.9900     2.7960 H     1 <1>   0.0800 
 44 H        1.6080     4.1730     2.5100 H     1 <1>   0.0800 
 45 H        2.8590     5.4510     0.2790 H     1 <1>   0.1500 
 46 H        0.4340     7.2570     3.3090 H     1 <1>   0.1500 
 47 H        1.5110     9.4030     2.8530 H     1 <1>   0.1500 
 48 H        3.2290     9.5840     1.1190 H     1 <1>   0.1500 
 49 H        3.9250     5.9310    -1.8480 H     1 <1>   0.1500 
 50 H        5.9710     7.0250    -3.1060 H     1 <1>   0.1500 
 51 H        7.4660     9.3260    -2.6070 H     1 <1>   0.0800 
 52 H        7.5430     9.5950    -0.8790 H     1 <1>   0.0800 
 53 H        6.4330    10.5260    -1.8600 H     1 <1>   0.0800 
@<TRIPOS>BOND
  1   1   2  2   
  2   1   3  2   
  3   1   4  am  
  4   1   5  1   
  5   4   6  1   
  6   4   7  1   
  7   5   8  1   
  8   5  27  1   
  9   5  28  1   
 10   6  29  1   
 11   6  30  1   
 12   6  31  1   
 13   7  32  1   
 14   7  33  1   
 15   7  34  1   
 16   8   9  1   
 17   8  10  1   
 18   8  35  1   
 19   9  11  1   
 20   9  12  1   
 21   9  36  1   
 22  10  13  1   
 23  10  37  1   
 24  10  38  1   
 25  11  39  1   
 26  12  13  1   
 27  12  40  1   
 28  12  41  1   
 29  13  14  1   
 30  13  42  1   
 31  14  15  1   
 32  14  43  1   
 33  14  44  1   
 34  15  16  ar  
 35  15  17  ar  
 36  16  18  ar  
 37  16  45  1   
 38  17  19  ar  
 39  17  46  1   
 40  18  20  1   
 41  18  21  ar  
 42  19  21  ar  
 43  19  47  1   
 44  20  22  1   
 45  20  23  2   
 46  21  48  1   
 47  22  24  1   
 48  23  25  1   
 49  23  49  1   
 50  24  25  2   
 51  24  26  1   
 52  25  50  1   
 53  26  51  1   
 54  26  52  1   
 55  26  53  1   
@<TRIPOS>SUBSTRUCTURE
  1 ****  16 GROUP 4 **** **** 0

# MOE 2024.06 (io_trps.svl 2023.06)
