@<TRIPOS>MOLECULE
NONAME
46 49 1 0 0 
SMALL
USER_CHARGES


@<TRIPOS>ATOM
  1 O        2.0780     1.1690     0.6780 O.3   1 <1>  -0.6800 
  2 C        2.1420     0.3920    -0.4840 C.3   1 <1>   0.2000 
  3 C        2.8310    -0.9480    -0.1780 C.3   1 <1>  -0.0800 
  4 C        3.0710     1.0540    -1.5030 C.3   1 <1>   0.1100 
  5 C        4.1460    -0.9010    -0.9850 C.3   1 <1>   0.1100 
  6 C        1.9490    -2.1570    -0.5470 C.3   1 <1>  -0.0170 
  7 N        4.4190     0.5170    -1.2540 N.3   1 <1>  -0.8100 
  8 C        2.5920    -3.4820    -0.1580 C.ar  1 <1>   0.1670 
  9 C        5.1590     1.1040    -0.1090 C.3   1 <1>   0.2780 
 10 N        3.5570    -3.9260    -0.9470 N.ar  1 <1>  -0.6200 
 11 C        2.1550    -4.1650     0.9770 C.ar  1 <1>   0.1600 
 12 C        5.1050     2.6270    -0.0440 C.2   1 <1>   0.1820 
 13 C        4.0480    -5.0830    -0.5330 C.ar  1 <1>   0.1600 
 14 N        2.6480    -5.3180     1.3960 N.ar  1 <1>  -0.6200 
 15 N        4.0320     3.2890     0.4910 N.pl3 1 <1>  -0.7000 
 16 C        5.9960     3.5550    -0.4410 C.2   1 <1>   0.2000 
 17 C        3.6090    -5.7550     0.6000 C.ar  1 <1>   0.1600 
 18 C        4.2610     4.6050     0.4130 C.cat 1 <1>   0.7910 
 19 N        5.4760     4.8030    -0.1520 N.pl3 1 <1>  -0.6290 
 20 C        3.4670     5.6960     0.7980 C.2   1 <1>  -0.1410 
 21 C        5.9510     6.0790    -0.3550 C.2   1 <1>   0.2290 
 22 C        3.9290     6.9700     0.6030 C.2   1 <1>  -0.1500 
 23 C        5.1980     7.1610     0.0140 C.2   1 <1>  -0.1380 
 24 C        5.6850     8.5860    -0.1930 C.3   1 <1>  -0.1020 
 25 H        1.4730     0.7410     1.3200 H     1 <1>   0.4000 
 26 H        1.1460     0.2860    -0.8790 H     1 <1>   0.0800 
 27 H        3.0750    -1.0110     0.8680 H     1 <1>   0.0800 
 28 H        3.0170     2.1260    -1.4960 H     1 <1>   0.0800 
 29 H        2.7710     0.7310    -2.4870 H     1 <1>   0.0800 
 30 H        4.0160    -1.4040    -1.9300 H     1 <1>   0.0800 
 31 H        4.9580    -1.3830    -0.4640 H     1 <1>   0.0800 
 32 H        1.7590    -2.1640    -1.6070 H     1 <1>   0.0800 
 33 H        0.9990    -2.0690    -0.0510 H     1 <1>   0.0800 
 34 H        4.7770     0.7190     0.8210 H     1 <1>   0.0800 
 35 H        6.1870     0.7950    -0.1850 H     1 <1>   0.0800 
 36 H        1.3620    -3.7410     1.5670 H     1 <1>   0.1500 
 37 H        4.8370    -5.5200    -1.1190 H     1 <1>   0.1500 
 38 H        3.1700     2.8050     0.7940 H     1 <1>   0.4500 
 39 H        6.9570     3.4130    -0.9080 H     1 <1>   0.1500 
 40 H        4.0720    -6.6920     0.8570 H     1 <1>   0.1500 
 41 H        2.5090     5.5030     1.2410 H     1 <1>   0.1500 
 42 H        6.9230     6.1880    -0.8090 H     1 <1>   0.1500 
 43 H        3.3430     7.8290     0.8890 H     1 <1>   0.1500 
 44 H        5.0030     9.1200    -0.8320 H     1 <1>   0.0800 
 45 H        6.6600     8.6030    -0.6470 H     1 <1>   0.0800 
 46 H        5.7410     9.0980     0.7520 H     1 <1>   0.0800 
@<TRIPOS>BOND
  1   1   2  1   
  2   1  25  1   
  3   2   3  1   
  4   2   4  1   
  5   2  26  1   
  6   3   5  1   
  7   3   6  1   
  8   3  27  1   
  9   4   7  1   
 10   4  28  1   
 11   4  29  1   
 12   5   7  1   
 13   5  30  1   
 14   5  31  1   
 15   6   8  1   
 16   6  32  1   
 17   6  33  1   
 18   7   9  1   
 19   8  10  ar  
 20   8  11  ar  
 21   9  12  1   
 22   9  34  1   
 23   9  35  1   
 24  10  13  ar  
 25  11  14  ar  
 26  11  36  1   
 27  12  15  1   
 28  12  16  2   
 29  13  17  ar  
 30  13  37  1   
 31  14  17  ar  
 32  15  18  ar  
 33  15  38  1   
 34  16  19  1   
 35  16  39  1   
 36  17  40  1   
 37  18  19  ar  
 38  18  20  1   
 39  19  21  1   
 40  20  22  2   
 41  20  41  1   
 42  21  23  2   
 43  21  42  1   
 44  22  23  1   
 45  22  43  1   
 46  23  24  1   
 47  24  44  1   
 48  24  45  1   
 49  24  46  1   
@<TRIPOS>SUBSTRUCTURE
  1 ****   9 GROUP 4 **** **** 0

# MOE 2024.06 (io_trps.svl 2023.06)
