@<TRIPOS>MOLECULE
NONAME
47 50 1 0 0 
SMALL
USER_CHARGES


@<TRIPOS>ATOM
  1 O       -2.4710     0.5970     1.7460 O.2   1 <1>  -0.5700 
  2 C       -2.5160     1.7640     1.3760 C.2   1 <1>   0.7160 
  3 N       -3.7390     2.4180     1.4410 N.am  1 <1>  -0.6600 
  4 C       -1.3160     2.3860     0.8250 C.2   1 <1>   0.2030 
  5 C       -4.9550     1.7410     1.9950 C.3   1 <1>   0.1400 
  6 C       -4.0110     3.6280     0.6180 C.3   1 <1>   0.1400 
  7 N       -0.8350     3.6040     1.0650 N.2   1 <1>  -0.7070 
  8 C       -0.4780     1.7400    -0.0910 C.2   1 <1>  -0.1810 
  9 C       -5.9460     1.2900     0.9030 C.3   1 <1>   0.1400 
 10 C       -4.0960     3.2690    -0.8750 C.3   1 <1>  -0.1600 
 11 N        0.2860     3.7080     0.3240 N.pl3 1 <1>   0.3000 
 12 C        0.5010     2.5840    -0.3800 C.2   1 <1>  -0.3320 
 13 C       -0.3540     0.4360    -0.8260 C.3   1 <1>   0.0210 
 14 N       -5.3010     1.1240    -0.4390 N.am  1 <1>  -0.6600 
 15 C       -5.2730     2.3620    -1.2630 C.3   1 <1>   0.1400 
 16 C        1.5040     2.0490    -1.3610 C.3   1 <1>   0.0200 
 17 C        0.8930     0.6700    -1.7190 C.3   1 <1>  -0.1600 
 18 C       -4.6120    -0.0020    -0.8260 C.2   1 <1>   0.5690 
 19 O       -4.0390    -0.0580    -1.8920 O.2   1 <1>  -0.5700 
 20 C       -4.5190    -1.2210     0.0660 C.3   1 <1>   0.1570 
 21 N       -5.7520    -2.0120    -0.0450 N.pl3 1 <1>   0.3140 
 22 N       -6.5700    -2.2200     1.0090 N.2   1 <1>  -0.7070 
 23 C       -6.2170    -2.6320    -1.1490 C.2   1 <1>  -0.3020 
 24 C       -7.5280    -2.9640     0.5450 C.2   1 <1>   0.1390 
 25 C       -7.3630    -3.2550    -0.8030 C.2   1 <1>  -0.1500 
 26 H       -5.4540     2.4110     2.6730 H     1 <1>   0.0800 
 27 H       -4.6680     0.8820     2.5750 H     1 <1>   0.0800 
 28 H       -3.2290     4.3510     0.7720 H     1 <1>   0.0800 
 29 H       -4.9320     4.0850     0.9370 H     1 <1>   0.0800 
 30 H       -6.7300     2.0230     0.8260 H     1 <1>   0.0800 
 31 H       -6.4210     0.3750     1.2090 H     1 <1>   0.0800 
 32 H       -3.1790     2.8060    -1.1940 H     1 <1>   0.0800 
 33 H       -4.1860     4.1820    -1.4340 H     1 <1>   0.0800 
 34 H        0.8760     4.5480     0.3200 H     1 <1>   0.2700 
 35 H       -1.2340     0.2460    -1.4150 H     1 <1>   0.0800 
 36 H       -0.1960    -0.3670    -0.1280 H     1 <1>   0.0800 
 37 H       -5.1870     2.0980    -2.3040 H     1 <1>   0.0800 
 38 H       -6.2010     2.8940    -1.1430 H     1 <1>   0.0800 
 39 H        2.4670     1.9390    -0.8950 H     1 <1>   0.0800 
 40 H        1.5780     2.6810    -2.2290 H     1 <1>   0.0800 
 41 H        0.5930     0.6670    -2.7520 H     1 <1>   0.0800 
 42 H        1.6140    -0.1130    -1.5670 H     1 <1>   0.0800 
 43 H       -4.3740    -0.9370     1.0880 H     1 <1>   0.0800 
 44 H       -3.6900    -1.8280    -0.2410 H     1 <1>   0.0800 
 45 H       -5.7130    -2.5890    -2.0980 H     1 <1>   0.1500 
 46 H       -8.3520    -3.3120     1.1450 H     1 <1>   0.1500 
 47 H       -8.0210    -3.8500    -1.4110 H     1 <1>   0.1500 
@<TRIPOS>BOND
  1   1   2  2   
  2   2   3  am  
  3   2   4  1   
  4   3   5  1   
  5   3   6  1   
  6   4   7  2   
  7   4   8  1   
  8   5   9  1   
  9   5  26  1   
 10   5  27  1   
 11   6  10  1   
 12   6  28  1   
 13   6  29  1   
 14   7  11  1   
 15   8  12  2   
 16   8  13  1   
 17   9  14  1   
 18   9  30  1   
 19   9  31  1   
 20  10  15  1   
 21  10  32  1   
 22  10  33  1   
 23  11  12  1   
 24  11  34  1   
 25  12  16  1   
 26  13  17  1   
 27  13  35  1   
 28  13  36  1   
 29  14  15  1   
 30  14  18  am  
 31  15  37  1   
 32  15  38  1   
 33  16  17  1   
 34  16  39  1   
 35  16  40  1   
 36  17  41  1   
 37  17  42  1   
 38  18  19  2   
 39  18  20  1   
 40  20  21  1   
 41  20  43  1   
 42  20  44  1   
 43  21  22  1   
 44  21  23  1   
 45  22  24  2   
 46  23  25  2   
 47  23  45  1   
 48  24  25  1   
 49  24  46  1   
 50  25  47  1   
@<TRIPOS>SUBSTRUCTURE
  1 ****  18 GROUP 4 **** **** 0

# MOE 2024.06 (io_trps.svl 2023.06)
