@<TRIPOS>MOLECULE
NONAME
47 49 1 0 0 
SMALL
USER_CHARGES


@<TRIPOS>ATOM
  1 O        0.0800     0.6130     0.7370 O.2   1 <1>  -0.5700 
  2 C       -0.0330     1.7970     0.4630 C.2   1 <1>   0.7150 
  3 N       -1.2960     2.3610     0.5330 N.am  1 <1>  -0.6600 
  4 C        1.1450     2.5470     0.0720 C.2   1 <1>   0.0550 
  5 C       -2.4330     1.6170     1.1520 C.3   1 <1>   0.1400 
  6 C       -1.6180     3.6920    -0.0620 C.3   1 <1>   0.1400 
  7 O        1.2670     3.8390     0.3560 O.3   1 <1>  -0.2800 
  8 C        2.2640     2.1470    -0.5730 C.2   1 <1>   0.0460 
  9 C       -3.4240     2.5970     1.7860 C.3   1 <1>  -0.1600 
 10 C       -3.0920     3.7560    -0.4630 C.3   1 <1>  -0.1600 
 11 C        2.4530     4.1210    -0.1410 C.2   1 <1>   0.2980 
 12 N        3.0970     3.1720    -0.7080 N.2   1 <1>  -0.5650 
 13 C        2.6570     0.7900    -1.1210 C.3   1 <1>  -0.0590 
 14 C       -4.0230     3.5890     0.7590 C.3   1 <1>   0.2800 
 15 C        2.9530     5.5380    -0.0020 C.3   1 <1>  -0.0600 
 16 O       -4.0150     4.8480     1.4000 O.3   1 <1>  -0.5600 
 17 C       -5.4720     3.1610     0.3590 C.3   1 <1>   0.2000 
 18 C       -5.2110     5.5580     1.5560 C.3   1 <1>   0.1200 
 19 O       -5.4970     1.9630    -0.3650 O.3   1 <1>  -0.6800 
 20 C       -6.2840     4.2840    -0.3530 C.3   1 <1>   0.2800 
 21 C       -5.9080     5.6710     0.1980 C.3   1 <1>  -0.1600 
 22 O       -7.6150     4.0640    -0.0500 O.3   1 <1>  -0.6800 
 23 C       -6.2190     4.2770    -1.8880 C.3   1 <1>  -0.2400 
 24 H       -2.9270     1.0300     0.3950 H     1 <1>   0.0800 
 25 H       -2.0620     0.9450     1.9090 H     1 <1>   0.0800 
 26 H       -1.4060     4.4620     0.6610 H     1 <1>   0.0800 
 27 H       -1.0070     3.8610    -0.9320 H     1 <1>   0.0800 
 28 H       -2.9010     3.1350     2.5570 H     1 <1>   0.0800 
 29 H       -4.2030     2.0310     2.2610 H     1 <1>   0.0800 
 30 H       -3.2720     2.9790    -1.1830 H     1 <1>   0.0800 
 31 H       -3.2850     4.6950    -0.9440 H     1 <1>   0.0800 
 32 H        1.8660     0.0750    -0.9980 H     1 <1>   0.0800 
 33 H        3.5300     0.4340    -0.6040 H     1 <1>   0.0800 
 34 H        2.8850     0.8770    -2.1670 H     1 <1>   0.0800 
 35 H        3.9250     5.6280    -0.4510 H     1 <1>   0.0800 
 36 H        3.0200     5.7960     1.0380 H     1 <1>   0.0800 
 37 H        2.2750     6.2100    -0.4930 H     1 <1>   0.0800 
 38 H       -5.9840     2.9470     1.2820 H     1 <1>   0.0800 
 39 H       -5.8270     5.0500     2.2790 H     1 <1>   0.0800 
 40 H       -4.9620     6.5330     1.9370 H     1 <1>   0.0800 
 41 H       -6.4310     1.7480    -0.5620 H     1 <1>   0.4000 
 42 H       -5.2230     6.1630    -0.4690 H     1 <1>   0.0800 
 43 H       -6.7760     6.2990     0.2840 H     1 <1>   0.0800 
 44 H       -8.1720     4.6980    -0.5390 H     1 <1>   0.4000 
 45 H       -5.2050     4.3790    -2.2220 H     1 <1>   0.0800 
 46 H       -6.7850     5.0950    -2.2960 H     1 <1>   0.0800 
 47 H       -6.6040     3.3550    -2.2840 H     1 <1>   0.0800 
@<TRIPOS>BOND
  1   1   2  2   
  2   2   3  am  
  3   2   4  1   
  4   3   5  1   
  5   3   6  1   
  6   4   7  1   
  7   4   8  2   
  8   5   9  1   
  9   5  24  1   
 10   5  25  1   
 11   6  10  1   
 12   6  26  1   
 13   6  27  1   
 14   7  11  1   
 15   8  12  1   
 16   8  13  1   
 17   9  14  1   
 18   9  28  1   
 19   9  29  1   
 20  10  14  1   
 21  10  30  1   
 22  10  31  1   
 23  11  12  2   
 24  11  15  1   
 25  13  32  1   
 26  13  33  1   
 27  13  34  1   
 28  14  16  1   
 29  14  17  1   
 30  15  35  1   
 31  15  36  1   
 32  15  37  1   
 33  16  18  1   
 34  17  19  1   
 35  17  20  1   
 36  17  38  1   
 37  18  21  1   
 38  18  39  1   
 39  18  40  1   
 40  19  41  1   
 41  20  21  1   
 42  20  22  1   
 43  20  23  1   
 44  21  42  1   
 45  21  43  1   
 46  22  44  1   
 47  23  45  1   
 48  23  46  1   
 49  23  47  1   
@<TRIPOS>SUBSTRUCTURE
  1 ****   6 GROUP 4 **** **** 0

# MOE 2024.06 (io_trps.svl 2023.06)
