@<TRIPOS>MOLECULE
NONAME
41 42 1 0 0 
SMALL
USER_CHARGES


@<TRIPOS>ATOM
  1 S       -0.1730    -0.1560     0.2040 S.o2  1 <1>   1.3330 
  2 O       -0.8620     1.1150     0.1920 O.2   1 <1>  -0.6500 
  3 O       -0.0350    -0.8810     1.4470 O.2   1 <1>  -0.6500 
  4 N       -0.9320    -1.1840    -0.9140 N.am  1 <1>  -0.8490 
  5 C        1.4420     0.0920    -0.5350 C.3   1 <1>  -0.0550 
  6 C       -0.6310    -2.6040    -0.6980 C.3   1 <1>   0.1160 
  7 C       -2.3840    -0.9840    -0.9600 C.3   1 <1>   0.1160 
  8 C        2.3410     1.0670     0.2520 C.3   1 <1>  -0.0800 
  9 C        3.5960     1.4080    -0.5340 C.3   1 <1>   0.2200 
 10 C        2.9190     0.4240     1.5200 C.3   1 <1>   0.1200 
 11 N        4.1300     2.7020    -0.0570 N.am  1 <1>  -0.7300 
 12 C        4.5380     0.2860    -0.1170 C.3   1 <1>   0.1200 
 13 O        4.2070    -0.0190     1.2040 O.3   1 <1>  -0.5600 
 14 C        4.2180     3.8460    -0.7930 C.2   1 <1>   0.7150 
 15 O        3.8070     3.8240    -1.9380 O.2   1 <1>  -0.5700 
 16 C        4.7900     5.0290    -0.2000 C.2   1 <1>  -0.0450 
 17 S        4.9060     6.5030    -1.1690 S.3   1 <1>  -0.0800 
 18 C        5.3020     5.2850     1.0330 C.2   1 <1>  -0.1500 
 19 C        5.6430     7.4000     0.1410 C.2   1 <1>  -0.1400 
 20 C        5.7800     6.6150     1.2240 C.2   1 <1>  -0.1500 
 21 C        5.9980     8.8480    -0.1220 C.3   1 <1>  -0.0600 
 22 H        1.9380    -0.8530    -0.6370 H     1 <1>   0.0800 
 23 H        1.2920     0.4900    -1.5210 H     1 <1>   0.0800 
 24 H       -1.0590    -3.1970    -1.4880 H     1 <1>   0.0800 
 25 H       -1.0340    -2.9350     0.2460 H     1 <1>   0.0800 
 26 H        0.4330    -2.7620    -0.6930 H     1 <1>   0.0800 
 27 H       -2.8290    -1.6390    -1.6880 H     1 <1>   0.0800 
 28 H       -2.6070     0.0320    -1.2420 H     1 <1>   0.0800 
 29 H       -2.8190    -1.1770     0.0070 H     1 <1>   0.0800 
 30 H        1.7740     1.9530     0.4830 H     1 <1>   0.0800 
 31 H        3.4390     1.4300    -1.6000 H     1 <1>   0.0800 
 32 H        2.3470    -0.4130     1.8800 H     1 <1>   0.0800 
 33 H        3.0120     1.1520     2.3080 H     1 <1>   0.0800 
 34 H        4.5060     2.6870     0.8910 H     1 <1>   0.3700 
 35 H        5.5740     0.5690    -0.1760 H     1 <1>   0.0800 
 36 H        4.3670    -0.5950    -0.7090 H     1 <1>   0.0800 
 37 H        5.3630     4.5720     1.8350 H     1 <1>   0.1500 
 38 H        6.2050     6.9220     2.1640 H     1 <1>   0.1500 
 39 H        6.4410     9.2870     0.7530 H     1 <1>   0.0800 
 40 H        5.1120     9.4000    -0.3800 H     1 <1>   0.0800 
 41 H        6.6970     8.9110    -0.9360 H     1 <1>   0.0800 
@<TRIPOS>BOND
  1   1   2  2   
  2   1   3  2   
  3   1   4  am  
  4   1   5  1   
  5   4   6  1   
  6   4   7  1   
  7   5   8  1   
  8   5  22  1   
  9   5  23  1   
 10   6  24  1   
 11   6  25  1   
 12   6  26  1   
 13   7  27  1   
 14   7  28  1   
 15   7  29  1   
 16   8   9  1   
 17   8  10  1   
 18   8  30  1   
 19   9  11  1   
 20   9  12  1   
 21   9  31  1   
 22  10  13  1   
 23  10  32  1   
 24  10  33  1   
 25  11  14  am  
 26  11  34  1   
 27  12  13  1   
 28  12  35  1   
 29  12  36  1   
 30  14  15  2   
 31  14  16  1   
 32  16  17  1   
 33  16  18  2   
 34  17  19  1   
 35  18  20  1   
 36  18  37  1   
 37  19  20  2   
 38  19  21  1   
 39  20  38  1   
 40  21  39  1   
 41  21  40  1   
 42  21  41  1   
@<TRIPOS>SUBSTRUCTURE
  1 ****   9 GROUP 4 **** **** 0

# MOE 2024.06 (io_trps.svl 2023.06)
