@<TRIPOS>MOLECULE
NONAME
32 33 1 0 0 
SMALL
USER_CHARGES


@<TRIPOS>ATOM
  1 F        2.3180     0.6720     2.0710 F     1 <1>  -0.1900 
  2 C        2.3440    -0.3250     1.2260 C.ar  1 <1>   0.1900 
  3 C        2.8120    -0.1120    -0.0630 C.ar  1 <1>  -0.1440 
  4 C        1.9000    -1.5570     1.6620 C.ar  1 <1>  -0.1500 
  5 C        2.8280    -1.1930    -0.9320 C.ar  1 <1>  -0.1500 
  6 C        3.2950     1.2590    -0.5120 C.3   1 <1>  -0.0960 
  7 C        1.9150    -2.6280     0.7840 C.ar  1 <1>   0.0820 
  8 C        2.3860    -2.4400    -0.5150 C.ar  1 <1>  -0.1500 
  9 O        1.4580    -3.8110     1.2680 O.3   1 <1>  -0.3630 
 10 C        1.1550    -4.9170     0.4540 C.3   1 <1>   0.2000 
 11 C       -0.1720    -4.6470    -0.2690 C.3   1 <1>  -0.1600 
 12 C        1.0400    -6.1270     1.3820 C.3   1 <1>  -0.1600 
 13 C       -0.6820    -5.8980    -0.9800 C.3   1 <1>   0.3430 
 14 C        0.5160    -7.3520     0.6380 C.3   1 <1>   0.3430 
 15 N       -0.7840    -7.0210    -0.0080 N.4   1 <1>  -0.9060 
 16 H        1.5470    -1.6790     2.6690 H     1 <1>   0.1500 
 17 H        3.1890    -1.0660    -1.9380 H     1 <1>   0.1500 
 18 H        4.1230     1.5720     0.0980 H     1 <1>   0.0800 
 19 H        2.5010     1.9780    -0.4120 H     1 <1>   0.0800 
 20 H        3.6140     1.2410    -1.5390 H     1 <1>   0.0800 
 21 H        2.4270    -3.2460    -1.2200 H     1 <1>   0.1500 
 22 H        1.9640    -5.0740    -0.2390 H     1 <1>   0.0800 
 23 H       -0.0370    -3.8670    -0.9970 H     1 <1>   0.0800 
 24 H       -0.9110    -4.3130     0.4380 H     1 <1>   0.0800 
 25 H        0.3830    -5.9000     2.2040 H     1 <1>   0.0800 
 26 H        2.0110    -6.3530     1.7880 H     1 <1>   0.0800 
 27 H       -0.0020    -6.1630    -1.7750 H     1 <1>   0.0800 
 28 H       -1.6480    -5.6960    -1.4170 H     1 <1>   0.0800 
 29 H        0.3890    -8.1690     1.3310 H     1 <1>   0.0800 
 30 H        1.2320    -7.6530    -0.1110 H     1 <1>   0.0800 
 31 H       -1.1610    -7.8550    -0.4770 H     1 <1>   0.4500 
 32 H       -1.4600    -6.7640     0.7240 H     1 <1>   0.4500 
@<TRIPOS>BOND
  1   1   2  1   
  2   2   3  ar  
  3   2   4  ar  
  4   3   5  ar  
  5   3   6  1   
  6   4   7  ar  
  7   4  16  1   
  8   5   8  ar  
  9   5  17  1   
 10   6  18  1   
 11   6  19  1   
 12   6  20  1   
 13   7   8  ar  
 14   7   9  1   
 15   8  21  1   
 16   9  10  1   
 17  10  11  1   
 18  10  12  1   
 19  10  22  1   
 20  11  13  1   
 21  11  23  1   
 22  11  24  1   
 23  12  14  1   
 24  12  25  1   
 25  12  26  1   
 26  13  15  1   
 27  13  27  1   
 28  13  28  1   
 29  14  15  1   
 30  14  29  1   
 31  14  30  1   
 32  15  31  1   
 33  15  32  1   
@<TRIPOS>SUBSTRUCTURE
  1 ****   7 GROUP 4 **** **** 0

# MOE 2024.06 (io_trps.svl 2023.06)
