@<TRIPOS>MOLECULE
NONAME
51 54 1 0 0 
SMALL
USER_CHARGES


@<TRIPOS>ATOM
  1 O       -2.6400     1.0750     2.4330 O.2   1 <1>  -0.5700 
  2 C       -2.1960     1.3600     1.3350 C.2   1 <1>   0.5440 
  3 N       -2.4250     0.4880     0.2860 N.am  1 <1>  -0.6600 
  4 C       -1.5050     2.6220     1.1710 C.ar  1 <1>   0.0860 
  5 C       -3.0060    -0.8620     0.5500 C.3   1 <1>   0.1400 
  6 C       -2.1250     0.8310    -1.1340 C.3   1 <1>   0.1400 
  7 C       -0.1770     2.7050     0.7430 C.ar  1 <1>   0.0830 
  8 C       -2.1720     3.8150     1.4570 C.ar  1 <1>  -0.1500 
  9 C       -4.5410    -0.8200     0.5200 C.3   1 <1>   0.1400 
 10 C       -3.2460     0.4510    -2.1120 C.3   1 <1>  -0.1600 
 11 O        0.5200     1.5670     0.4920 O.3   1 <1>  -0.3620 
 12 C        0.4390     3.9490     0.5810 C.ar  1 <1>   0.0830 
 13 C       -1.5590     5.0450     1.3090 C.ar  1 <1>  -0.1500 
 14 N       -5.0750    -0.6580    -0.8720 N.am  1 <1>  -0.6600 
 15 C       -4.6630     0.6050    -1.5500 C.3   1 <1>   0.1400 
 16 C        1.9280     1.6610     0.4130 C.3   1 <1>   0.1200 
 17 O        1.7200     4.0550     0.1430 O.3   1 <1>  -0.3630 
 18 C       -0.2490     5.1130     0.8660 C.ar  1 <1>  -0.1500 
 19 C       -5.9080    -1.5470    -1.5150 C.2   1 <1>   0.5690 
 20 C        2.3230     2.8970    -0.4030 C.3   1 <1>   0.1200 
 21 O       -6.2600    -1.3650    -2.6580 O.2   1 <1>  -0.5700 
 22 C       -6.4090    -2.8250    -0.8570 C.3   1 <1>   0.0810 
 23 C       -7.5870    -2.5720     0.0660 C.2   1 <1>  -0.0400 
 24 O       -7.4080    -2.0120     1.2320 O.3   1 <1>  -0.0190 
 25 C       -8.8960    -2.8300    -0.0690 C.2   1 <1>  -0.1500 
 26 N       -8.5260    -1.8830     1.8850 N.2   1 <1>  -0.4100 
 27 C       -9.4410    -2.3650     1.1240 C.2   1 <1>   0.1080 
 28 C      -10.9090    -2.4150     1.4850 C.3   1 <1>  -0.0590 
 29 H       -2.6900    -1.1930     1.5240 H     1 <1>   0.0800 
 30 H       -2.6400    -1.5740    -0.1670 H     1 <1>   0.0800 
 31 H       -1.2100     0.3450    -1.4260 H     1 <1>   0.0800 
 32 H       -1.9670     1.8920    -1.2150 H     1 <1>   0.0800 
 33 H       -3.1890     3.7630     1.8070 H     1 <1>   0.1500 
 34 H       -4.8860    -0.0060     1.1360 H     1 <1>   0.0800 
 35 H       -4.9040    -1.7250     0.9640 H     1 <1>   0.0800 
 36 H       -3.1050    -0.5560    -2.4640 H     1 <1>   0.0800 
 37 H       -3.1520     1.0900    -2.9720 H     1 <1>   0.0800 
 38 H       -2.0960     5.9500     1.5380 H     1 <1>   0.1500 
 39 H       -5.3420     0.8200    -2.3580 H     1 <1>   0.0800 
 40 H       -4.7150     1.4300    -0.8590 H     1 <1>   0.0800 
 41 H        2.2970     0.7620    -0.0470 H     1 <1>   0.0800 
 42 H        2.3170     1.7310     1.4140 H     1 <1>   0.0800 
 43 H        0.2400     6.0630     0.7440 H     1 <1>   0.1500 
 44 H        1.9920     2.7960    -1.4210 H     1 <1>   0.0800 
 45 H        3.3880     3.0400    -0.3900 H     1 <1>   0.0800 
 46 H       -5.6150    -3.3120    -0.3270 H     1 <1>   0.0800 
 47 H       -6.7260    -3.4950    -1.6350 H     1 <1>   0.0800 
 48 H       -9.4300    -3.2810    -0.8860 H     1 <1>   0.1500 
 49 H      -11.4830    -1.8820     0.7500 H     1 <1>   0.0800 
 50 H      -11.0660    -1.9600     2.4460 H     1 <1>   0.0800 
 51 H      -11.2410    -3.4360     1.5240 H     1 <1>   0.0800 
@<TRIPOS>BOND
  1   1   2  2   
  2   2   3  am  
  3   2   4  1   
  4   3   5  1   
  5   3   6  1   
  6   4   7  ar  
  7   4   8  ar  
  8   5   9  1   
  9   5  29  1   
 10   5  30  1   
 11   6  10  1   
 12   6  31  1   
 13   6  32  1   
 14   7  11  1   
 15   7  12  ar  
 16   8  13  ar  
 17   8  33  1   
 18   9  14  1   
 19   9  34  1   
 20   9  35  1   
 21  10  15  1   
 22  10  36  1   
 23  10  37  1   
 24  11  16  1   
 25  12  17  1   
 26  12  18  ar  
 27  13  18  ar  
 28  13  38  1   
 29  14  15  1   
 30  14  19  am  
 31  15  39  1   
 32  15  40  1   
 33  16  20  1   
 34  16  41  1   
 35  16  42  1   
 36  17  20  1   
 37  18  43  1   
 38  19  21  2   
 39  19  22  1   
 40  20  44  1   
 41  20  45  1   
 42  22  23  1   
 43  22  46  1   
 44  22  47  1   
 45  23  24  1   
 46  23  25  2   
 47  24  26  1   
 48  25  27  1   
 49  25  48  1   
 50  26  27  2   
 51  27  28  1   
 52  28  49  1   
 53  28  50  1   
 54  28  51  1   
@<TRIPOS>SUBSTRUCTURE
  1 ****   3 GROUP 4 **** **** 0

# MOE 2024.06 (io_trps.svl 2023.06)
