@<TRIPOS>MOLECULE
NONAME
43 46 1 0 0 
SMALL
USER_CHARGES


@<TRIPOS>ATOM
  1 O        0.2540     0.2820    -0.9080 O.3   1 <1>  -0.3630 
  2 C        1.3690     0.7250    -0.2580 C.ar  1 <1>   0.0830 
  3 C        0.1800    -1.0660    -1.3160 C.3   1 <1>   0.1200 
  4 C        1.5770     2.1010    -0.1410 C.ar  1 <1>   0.0820 
  5 C        2.2810    -0.1750     0.2940 C.ar  1 <1>  -0.1440 
  6 C        0.5920    -1.9520    -0.1360 C.3   1 <1>   0.2890 
  7 O        0.6490     2.9370    -0.6890 O.3   1 <1>  -0.3630 
  8 C        2.7090     2.5640     0.5230 C.ar  1 <1>  -0.1500 
  9 C        3.4040     0.3060     0.9490 C.ar  1 <1>  -0.1500 
 10 C        2.0590    -1.6770     0.1900 C.3   1 <1>  -0.0160 
 11 N        0.3790    -3.3930    -0.4410 N.pl3 1 <1>  -0.8690 
 12 C        0.8110     4.3380    -0.6670 C.3   1 <1>   0.0400 
 13 C        3.6160     1.6680     1.0620 C.ar  1 <1>  -0.1500 
 14 C       -0.5310    -4.2780     0.0250 C.ar  1 <1>   0.7710 
 15 N       -1.5480    -3.8440     0.8320 N.ar  1 <1>  -0.1790 
 16 N       -0.3860    -5.5200    -0.3330 N.ar  1 <1>  -0.5670 
 17 C       -2.4800    -4.6650     1.3320 C.ar  1 <1>   0.4610 
 18 C       -1.3120    -6.3840     0.1550 C.ar  1 <1>   0.1050 
 19 N       -3.4580    -4.1900     2.1210 N.pl3 1 <1>  -0.9000 
 20 C       -2.3530    -6.0120     0.9730 C.ar  1 <1>   0.0000 
 21 N       -1.4250    -7.7230    -0.0330 N.pl3 1 <1>   0.3140 
 22 C       -3.0370    -7.2120     1.2210 C.2   1 <1>   0.1390 
 23 N       -2.4950    -8.2220     0.6320 N.2   1 <1>  -0.7070 
 24 C       -0.5540    -8.5990    -0.8310 C.3   1 <1>   0.0160 
 25 H        0.8430    -1.1930    -2.1540 H     1 <1>   0.0800 
 26 H       -0.8330    -1.2560    -1.6190 H     1 <1>   0.0800 
 27 H       -0.0010    -1.6650     0.7150 H     1 <1>   0.0800 
 28 H        2.9040     3.6140     0.6320 H     1 <1>   0.1500 
 29 H        4.1210    -0.3750     1.3750 H     1 <1>   0.1500 
 30 H        2.3210    -2.1500     1.1200 H     1 <1>   0.0800 
 31 H        2.6930    -2.0600    -0.5900 H     1 <1>   0.0800 
 32 H        1.0800    -3.8030    -1.0690 H     1 <1>   0.4000 
 33 H       -0.0280     4.7770    -1.1750 H     1 <1>   0.0800 
 34 H        1.7220     4.5920    -1.1790 H     1 <1>   0.0800 
 35 H        0.8330     4.6710     0.3550 H     1 <1>   0.0800 
 36 H        4.4900     2.0340     1.5730 H     1 <1>   0.1500 
 37 H       -1.5800    -2.8560     1.0300 H     1 <1>   0.4570 
 38 H       -4.1850    -4.8040     2.5150 H     1 <1>   0.4000 
 39 H       -3.6010    -3.2160     2.4150 H     1 <1>   0.4000 
 40 H       -3.9190    -7.2920     1.8360 H     1 <1>   0.1500 
 41 H        0.2300    -8.0220    -1.2850 H     1 <1>   0.0800 
 42 H       -1.1410    -9.0760    -1.5930 H     1 <1>   0.0800 
 43 H       -0.1280    -9.3470    -0.1890 H     1 <1>   0.0800 
@<TRIPOS>BOND
  1   1   2  1   
  2   1   3  1   
  3   2   4  ar  
  4   2   5  ar  
  5   3   6  1   
  6   3  25  1   
  7   3  26  1   
  8   4   7  1   
  9   4   8  ar  
 10   5   9  ar  
 11   5  10  1   
 12   6  10  1   
 13   6  11  1   
 14   6  27  1   
 15   7  12  1   
 16   8  13  ar  
 17   8  28  1   
 18   9  13  ar  
 19   9  29  1   
 20  10  30  1   
 21  10  31  1   
 22  11  14  1   
 23  11  32  1   
 24  12  33  1   
 25  12  34  1   
 26  12  35  1   
 27  13  36  1   
 28  14  15  ar  
 29  14  16  ar  
 30  15  17  ar  
 31  15  37  1   
 32  16  18  ar  
 33  17  19  1   
 34  17  20  ar  
 35  18  20  ar  
 36  18  21  1   
 37  19  38  1   
 38  19  39  1   
 39  20  22  1   
 40  21  23  1   
 41  21  24  1   
 42  22  23  2   
 43  22  40  1   
 44  24  41  1   
 45  24  42  1   
 46  24  43  1   
@<TRIPOS>SUBSTRUCTURE
  1 ****   6 GROUP 4 **** **** 0

# MOE 2024.06 (io_trps.svl 2023.06)
