@<TRIPOS>MOLECULE
NONAME
50 53 1 0 0 
SMALL
USER_CHARGES


@<TRIPOS>ATOM
  1 O       -1.7390    -0.1100     2.2670 O.2   1 <1>  -0.5700 
  2 C       -2.2470     0.4820     1.3350 C.2   1 <1>   0.7160 
  3 N       -3.3750    -0.0360     0.7450 N.am  1 <1>  -0.6600 
  4 C       -1.6530     1.6920     0.8370 C.2   1 <1>  -0.0860 
  5 C       -4.0280     0.5300    -0.4630 C.3   1 <1>   0.1400 
  6 C       -3.7650    -1.4590     0.9180 C.3   1 <1>   0.1400 
  7 C       -0.4250     1.8030     0.2080 C.2   1 <1>   0.1080 
  8 C       -2.0790     2.9720     0.8170 C.2   1 <1>  -0.0400 
  9 C       -5.1120    -0.4850    -0.8280 C.3   1 <1>   0.2000 
 10 C       -4.5510    -1.8260    -0.3520 C.3   1 <1>  -0.0800 
 11 N       -0.2110     3.0150    -0.1450 N.2   1 <1>  -0.4100 
 12 C        0.5490     0.6610    -0.0350 C.3   1 <1>   0.0210 
 13 O       -1.2250     3.7680     0.2210 O.3   1 <1>  -0.0190 
 14 C       -3.3510     3.5750     1.3790 C.3   1 <1>  -0.0600 
 15 O       -6.2450    -0.2040    -0.0820 O.3   1 <1>  -0.6800 
 16 C       -3.6600    -2.4480    -1.4490 C.3   1 <1>  -0.0170 
 17 C        0.0450    -0.3040    -1.1150 C.3   1 <1>  -0.2400 
 18 C       -2.9710    -3.7220    -0.9920 C.ar  1 <1>   0.1670 
 19 N       -1.7190    -3.6340    -0.6670 N.ar  1 <1>  -0.6200 
 20 C       -3.7080    -4.9160    -0.9390 C.ar  1 <1>  -0.1500 
 21 C       -1.0940    -4.7620    -0.2420 C.ar  1 <1>   0.3100 
 22 C       -3.1050    -6.0640    -0.5240 C.ar  1 <1>  -0.1500 
 23 C       -1.7510    -6.0100    -0.1560 C.ar  1 <1>   0.0000 
 24 C        0.2570    -4.6900     0.1310 C.ar  1 <1>  -0.1500 
 25 C       -1.0280    -7.1330     0.2920 C.ar  1 <1>  -0.1500 
 26 C        0.9410    -5.7940     0.5660 C.ar  1 <1>  -0.1500 
 27 C        0.2900    -7.0290     0.6460 C.ar  1 <1>  -0.1500 
 28 H       -4.4470     1.5030    -0.2740 H     1 <1>   0.0800 
 29 H       -3.3030     0.6000    -1.2560 H     1 <1>   0.0800 
 30 H       -2.8990    -2.0800     1.0690 H     1 <1>   0.0800 
 31 H       -4.3980    -1.5400     1.7850 H     1 <1>   0.0800 
 32 H       -5.3800    -0.4650    -1.8710 H     1 <1>   0.0800 
 33 H       -5.3410    -2.5190    -0.1220 H     1 <1>   0.0800 
 34 H        1.4960     1.0720    -0.3400 H     1 <1>   0.0800 
 35 H        0.7040     0.1270     0.8860 H     1 <1>   0.0800 
 36 H       -3.9440     2.8230     1.8670 H     1 <1>   0.0800 
 37 H       -3.9260     4.0190     0.5870 H     1 <1>   0.0800 
 38 H       -3.1010     4.3360     2.0970 H     1 <1>   0.0800 
 39 H       -5.9930    -0.1180     0.8590 H     1 <1>   0.4000 
 40 H       -2.9070    -1.7450    -1.7580 H     1 <1>   0.0800 
 41 H       -4.2590    -2.6720    -2.3130 H     1 <1>   0.0800 
 42 H       -0.1540     0.2300    -2.0270 H     1 <1>   0.0800 
 43 H       -0.8540    -0.7960    -0.7900 H     1 <1>   0.0800 
 44 H        0.7870    -1.0580    -1.3100 H     1 <1>   0.0800 
 45 H       -4.7430    -4.9100    -1.2290 H     1 <1>   0.1500 
 46 H       -3.6350    -6.9990    -0.4710 H     1 <1>   0.1500 
 47 H        0.7370    -3.7320     0.0640 H     1 <1>   0.1500 
 48 H       -1.5340    -8.0810     0.3520 H     1 <1>   0.1500 
 49 H        1.9770    -5.7250     0.8490 H     1 <1>   0.1500 
 50 H        0.8400    -7.8890     0.9890 H     1 <1>   0.1500 
@<TRIPOS>BOND
  1   1   2  2   
  2   2   3  am  
  3   2   4  1   
  4   3   5  1   
  5   3   6  1   
  6   4   7  1   
  7   4   8  2   
  8   5   9  1   
  9   5  28  1   
 10   5  29  1   
 11   6  10  1   
 12   6  30  1   
 13   6  31  1   
 14   7  11  2   
 15   7  12  1   
 16   8  13  1   
 17   8  14  1   
 18   9  10  1   
 19   9  15  1   
 20   9  32  1   
 21  10  16  1   
 22  10  33  1   
 23  11  13  1   
 24  12  17  1   
 25  12  34  1   
 26  12  35  1   
 27  14  36  1   
 28  14  37  1   
 29  14  38  1   
 30  15  39  1   
 31  16  18  1   
 32  16  40  1   
 33  16  41  1   
 34  17  42  1   
 35  17  43  1   
 36  17  44  1   
 37  18  19  ar  
 38  18  20  ar  
 39  19  21  ar  
 40  20  22  ar  
 41  20  45  1   
 42  21  23  ar  
 43  21  24  ar  
 44  22  23  ar  
 45  22  46  1   
 46  23  25  ar  
 47  24  26  ar  
 48  24  47  1   
 49  25  27  ar  
 50  25  48  1   
 51  26  27  ar  
 52  26  49  1   
 53  27  50  1   
@<TRIPOS>SUBSTRUCTURE
  1 ****   6 GROUP 4 **** **** 0

# MOE 2024.06 (io_trps.svl 2023.06)
