@<TRIPOS>MOLECULE
NONAME
51 52 1 0 0 
SMALL
USER_CHARGES


@<TRIPOS>ATOM
  1 CL      -3.7350    -1.8390    -2.3640 Cl    1 <1>  -0.1770 
  2 C       -3.8420    -0.2650    -1.6110 C.ar  1 <1>   0.1770 
  3 C       -4.4600    -0.1190    -0.3690 C.ar  1 <1>   0.0820 
  4 C       -3.3240     0.8240    -2.2850 C.ar  1 <1>  -0.1500 
  5 O       -4.9750    -1.1790     0.3040 O.3   1 <1>  -0.3630 
  6 C       -4.5900     1.1470     0.1890 C.ar  1 <1>  -0.1500 
  7 C       -3.4540     2.0670    -1.6960 C.ar  1 <1>   0.1900 
  8 C       -4.1070    -2.0000     1.0890 C.3   1 <1>   0.2610 
  9 C       -4.0800     2.2520    -0.4760 C.ar  1 <1>  -0.1500 
 10 F       -2.9730     3.1090    -2.3190 F     1 <1>  -0.1900 
 11 C       -4.9350    -3.1560     1.7030 C.2   1 <1>   0.5690 
 12 C       -3.3880    -1.1400     2.1470 C.3   1 <1>  -0.2400 
 13 O       -5.2420    -3.0770     2.8700 O.2   1 <1>  -0.5700 
 14 N       -5.3450    -4.2450     0.9650 N.am  1 <1>  -0.6600 
 15 C       -6.0050    -5.3840     1.7020 C.3   1 <1>   0.3210 
 16 C       -5.0720    -4.4460    -0.4980 C.3   1 <1>   0.1400 
 17 C       -6.7640    -6.3710     0.8110 C.2   1 <1>   0.0460 
 18 C       -6.2450    -4.0530    -1.4290 C.3   1 <1>   0.3430 
 19 N       -7.9630    -6.0550     0.2720 N.2   1 <1>  -0.5650 
 20 C       -6.4040    -7.6310     0.4660 C.2   1 <1>  -0.3320 
 21 N       -6.9310    -2.7690    -1.0550 N.4   1 <1>  -0.9590 
 22 C       -8.3130    -7.1260    -0.3620 C.2   1 <1>   0.0360 
 23 N       -7.4070    -8.1210    -0.2860 N.pl3 1 <1>   0.0330 
 24 C       -5.1720    -8.4540     0.8080 C.3   1 <1>  -0.0600 
 25 C       -8.0370    -3.0210    -0.0770 C.3   1 <1>   0.2630 
 26 C       -7.4430    -2.0500    -2.2540 C.3   1 <1>   0.2630 
 27 H       -2.8390     0.7160    -3.2380 H     1 <1>   0.1500 
 28 H       -5.0840     1.2670     1.1390 H     1 <1>   0.1500 
 29 H       -3.3610    -2.4130     0.4360 H     1 <1>   0.0800 
 30 H       -4.1630     3.2410    -0.0590 H     1 <1>   0.1500 
 31 H       -4.1050    -0.6250     2.7620 H     1 <1>   0.0800 
 32 H       -2.7230    -0.4320     1.6890 H     1 <1>   0.0800 
 33 H       -2.8000    -1.7760     2.7850 H     1 <1>   0.0800 
 34 H       -6.7010    -4.9910     2.4220 H     1 <1>   0.0800 
 35 H       -5.2490    -5.9140     2.2510 H     1 <1>   0.0800 
 36 H       -4.8260    -5.4790    -0.6750 H     1 <1>   0.0800 
 37 H       -4.2030    -3.8910    -0.7860 H     1 <1>   0.0800 
 38 H       -6.9660    -4.8520    -1.4490 H     1 <1>   0.0800 
 39 H       -5.8490    -3.9670    -2.4270 H     1 <1>   0.0800 
 40 H       -6.2350    -2.1670    -0.5780 H     1 <1>   0.4500 
 41 H       -9.2380    -7.2410    -0.9030 H     1 <1>   0.1500 
 42 H       -7.4820    -9.0580    -0.6960 H     1 <1>   0.2700 
 43 H       -4.4700    -7.8790     1.3840 H     1 <1>   0.0800 
 44 H       -4.6820    -8.7830    -0.0910 H     1 <1>   0.0800 
 45 H       -5.4530    -9.3190     1.3840 H     1 <1>   0.0800 
 46 H       -8.7700    -3.6870    -0.5030 H     1 <1>   0.0800 
 47 H       -8.5180    -2.0970     0.1950 H     1 <1>   0.0800 
 48 H       -7.6510    -3.4800     0.8180 H     1 <1>   0.0800 
 49 H       -8.1760    -2.6520    -2.7660 H     1 <1>   0.0800 
 50 H       -6.6330    -1.8360    -2.9330 H     1 <1>   0.0800 
 51 H       -7.9010    -1.1200    -1.9620 H     1 <1>   0.0800 
@<TRIPOS>BOND
  1   1   2  1   
  2   2   3  ar  
  3   2   4  ar  
  4   3   5  1   
  5   3   6  ar  
  6   4   7  ar  
  7   4  27  1   
  8   5   8  1   
  9   6   9  ar  
 10   6  28  1   
 11   7   9  ar  
 12   7  10  1   
 13   8  11  1   
 14   8  12  1   
 15   8  29  1   
 16   9  30  1   
 17  11  13  2   
 18  11  14  am  
 19  12  31  1   
 20  12  32  1   
 21  12  33  1   
 22  14  15  1   
 23  14  16  1   
 24  15  17  1   
 25  15  34  1   
 26  15  35  1   
 27  16  18  1   
 28  16  36  1   
 29  16  37  1   
 30  17  19  1   
 31  17  20  2   
 32  18  21  1   
 33  18  38  1   
 34  18  39  1   
 35  19  22  2   
 36  20  23  1   
 37  20  24  1   
 38  21  25  1   
 39  21  26  1   
 40  21  40  1   
 41  22  23  1   
 42  22  41  1   
 43  23  42  1   
 44  24  43  1   
 45  24  44  1   
 46  24  45  1   
 47  25  46  1   
 48  25  47  1   
 49  25  48  1   
 50  26  49  1   
 51  26  50  1   
 52  26  51  1   
@<TRIPOS>SUBSTRUCTURE
  1 ****  16 GROUP 4 **** **** 0

# MOE 2024.06 (io_trps.svl 2023.06)
