@<TRIPOS>MOLECULE
NONAME
44 46 1 0 0 
SMALL
USER_CHARGES


@<TRIPOS>ATOM
  1 S       -0.0700    -0.0010     0.0170 S.3   1 <1>  -0.0800 
  2 C        0.2400     1.5360     0.7890 C.2   1 <1>  -0.1100 
  3 C       -0.4890     0.7960    -1.4840 C.2   1 <1>  -0.1100 
  4 C        0.0530     2.5800    -0.0570 C.2   1 <1>  -0.0860 
  5 C       -0.3780     2.1300    -1.3570 C.2   1 <1>  -0.1500 
  6 C        0.2320     3.9870     0.2420 C.2   1 <1>   0.7160 
  7 O       -0.3900     4.8270    -0.3800 O.2   1 <1>  -0.5700 
  8 N        1.1520     4.4150     1.1730 N.am  1 <1>  -0.6600 
  9 C        2.5310     3.8360     1.2110 C.3   1 <1>   0.1400 
 10 C        1.0040     5.7410     1.8310 C.3   1 <1>   0.1400 
 11 C        3.2980     4.1780    -0.0770 C.3   1 <1>   0.3430 
 12 C        1.9530     6.8010     1.2540 C.3   1 <1>  -0.1600 
 13 N        3.5320     5.6450    -0.2370 N.4   1 <1>  -0.9590 
 14 C        2.3740     6.5690    -0.2000 C.3   1 <1>   0.3430 
 15 C        4.4970     5.9070    -1.3350 C.3   1 <1>   0.4860 
 16 C        5.4470     7.0210    -0.9120 C.ar  1 <1>  -0.1430 
 17 C        6.2470     6.8250     0.2210 C.ar  1 <1>  -0.1790 
 18 C        5.5340     8.1980    -1.6390 C.ar  1 <1>  -0.1500 
 19 C        6.0930     5.6050     0.9850 C.2   1 <1>   0.9790 
 20 C        7.1290     7.8350     0.5930 C.ar  1 <1>  -0.1500 
 21 C        6.4160     9.1900    -1.2500 C.ar  1 <1>  -0.1500 
 22 O        6.4200     4.5120     0.5050 O.co2 1 <1>  -0.9000 
 23 O        5.2650     5.6040     1.9110 O.co2 1 <1>  -0.9000 
 24 C        7.2150     9.0070    -0.1350 C.ar  1 <1>  -0.1500 
 25 H        0.5350     1.5140     1.8240 H     1 <1>   0.1500 
 26 H       -0.7840     0.1720    -2.3100 H     1 <1>   0.1500 
 27 H       -0.5910     2.8440    -2.1350 H     1 <1>   0.1500 
 28 H        2.4820     2.7680     1.3120 H     1 <1>   0.0800 
 29 H        3.0760     4.2110     2.0620 H     1 <1>   0.0800 
 30 H        1.1820     5.6340     2.8880 H     1 <1>   0.0800 
 31 H       -0.0130     6.0780     1.7130 H     1 <1>   0.0800 
 32 H        2.7630     3.7910    -0.9270 H     1 <1>   0.0800 
 33 H        4.2560     3.6830    -0.0280 H     1 <1>   0.0800 
 34 H        2.8270     6.8860     1.8770 H     1 <1>   0.0800 
 35 H        1.4470     7.7470     1.3110 H     1 <1>   0.0800 
 36 H        4.0840     5.8550     0.6310 H     1 <1>   0.4500 
 37 H        2.6740     7.5170    -0.6170 H     1 <1>   0.0800 
 38 H        1.5520     6.1830    -0.7810 H     1 <1>   0.0800 
 39 H        3.9780     6.1650    -2.2420 H     1 <1>   0.0800 
 40 H        5.0880     5.0220    -1.5140 H     1 <1>   0.0800 
 41 H        4.9250     8.3530    -2.5120 H     1 <1>   0.1500 
 42 H        7.7460     7.6960     1.4650 H     1 <1>   0.1500 
 43 H        6.4860    10.1040    -1.8140 H     1 <1>   0.1500 
 44 H        7.9030     9.7770     0.1680 H     1 <1>   0.1500 
@<TRIPOS>BOND
  1   1   2  1   
  2   1   3  1   
  3   2   4  2   
  4   2  25  1   
  5   3   5  2   
  6   3  26  1   
  7   4   5  1   
  8   4   6  1   
  9   5  27  1   
 10   6   7  2   
 11   6   8  am  
 12   8   9  1   
 13   8  10  1   
 14   9  11  1   
 15   9  28  1   
 16   9  29  1   
 17  10  12  1   
 18  10  30  1   
 19  10  31  1   
 20  11  13  1   
 21  11  32  1   
 22  11  33  1   
 23  12  14  1   
 24  12  34  1   
 25  12  35  1   
 26  13  14  1   
 27  13  15  1   
 28  13  36  1   
 29  14  37  1   
 30  14  38  1   
 31  15  16  1   
 32  15  39  1   
 33  15  40  1   
 34  16  17  ar  
 35  16  18  ar  
 36  17  19  1   
 37  17  20  ar  
 38  18  21  ar  
 39  18  41  1   
 40  19  22  ar  
 41  19  23  ar  
 42  20  24  ar  
 43  20  42  1   
 44  21  24  ar  
 45  21  43  1   
 46  24  44  1   
@<TRIPOS>SUBSTRUCTURE
  1 ****  13 GROUP 4 **** **** 0

# MOE 2024.06 (io_trps.svl 2023.06)
