@<TRIPOS>MOLECULE
NONAME
58 62 1 0 0 
SMALL
USER_CHARGES


@<TRIPOS>ATOM
  1 O       -2.9840     3.0370    -0.6810 O.2   1 <1>  -0.5700 
  2 C       -3.1360     1.9550    -0.1400 C.2   1 <1>   0.5440 
  3 N       -4.0040     1.0570    -0.7250 N.am  1 <1>  -0.6600 
  4 C       -2.4420     1.6630     1.0950 C.ar  1 <1>   0.0860 
  5 C       -4.5690     1.2780    -2.0860 C.3   1 <1>   0.1400 
  6 C       -4.0070    -0.3910    -0.4160 C.3   1 <1>   0.1400 
  7 C       -1.3020     0.8360     1.1660 C.ar  1 <1>   0.1000 
  8 C       -2.9360     2.2180     2.2770 C.ar  1 <1>  -0.1500 
  9 C       -5.0270    -0.1050    -2.5610 C.3   1 <1>   0.2000 
 10 C       -4.1170    -1.0570    -1.7860 C.3   1 <1>  -0.0800 
 11 N       -0.7150     0.2380     0.0480 N.pl3 1 <1>  -0.8380 
 12 C       -0.7250     0.5940     2.4110 C.ar  1 <1>  -0.1500 
 13 C       -2.3510     1.9640     3.5000 C.ar  1 <1>  -0.1500 
 14 O       -6.3410    -0.3050    -2.1620 O.3   1 <1>  -0.6800 
 15 C       -4.5300    -2.5390    -1.7480 C.3   1 <1>  -0.0170 
 16 C       -0.4190     0.9960    -1.2050 C.3   1 <1>   0.2090 
 17 C       -0.4450    -1.2310    -0.0400 C.3   1 <1>   0.2090 
 18 C       -1.2390     1.1450     3.5670 C.ar  1 <1>  -0.1500 
 19 C       -3.3870    -3.3600    -1.1530 C.ar  1 <1>  -0.1430 
 20 C        0.9390     0.5720    -1.7930 C.3   1 <1>   0.1200 
 21 C        0.9150    -1.5050    -0.7030 C.3   1 <1>   0.1200 
 22 C       -3.2520    -3.6300     0.2310 C.ar  1 <1>   0.0000 
 23 C       -2.4050    -3.8200    -1.9810 C.ar  1 <1>  -0.1500 
 24 O        1.0250    -0.8230    -1.9250 O.3   1 <1>  -0.5600 
 25 C       -2.0790    -4.3000     0.6570 C.ar  1 <1>   0.3100 
 26 C       -4.1980    -3.2680     1.2190 C.ar  1 <1>  -0.1500 
 27 C       -1.2950    -4.4930    -1.4590 C.ar  1 <1>   0.1600 
 28 N       -1.1100    -4.7160    -0.1970 N.ar  1 <1>  -0.6200 
 29 C       -1.8910    -4.5440     2.0270 C.ar  1 <1>  -0.1500 
 30 C       -3.9860    -3.5210     2.5460 C.ar  1 <1>  -0.1500 
 31 C       -2.8170    -4.1630     2.9590 C.ar  1 <1>  -0.1500 
 32 H       -5.3760     1.9890    -2.0640 H     1 <1>   0.0800 
 33 H       -3.7890     1.6470    -2.7300 H     1 <1>   0.0800 
 34 H       -3.1240    -0.7060     0.1050 H     1 <1>   0.0800 
 35 H       -4.8680    -0.6130     0.1890 H     1 <1>   0.0800 
 36 H       -3.7980     2.8600     2.2210 H     1 <1>   0.1500 
 37 H       -4.9690    -0.2280    -3.6290 H     1 <1>   0.0800 
 38 H       -3.1430    -1.0010    -2.2410 H     1 <1>   0.0800 
 39 H        0.1480    -0.0280     2.4650 H     1 <1>   0.1500 
 40 H       -2.7530     2.4020     4.3970 H     1 <1>   0.1500 
 41 H       -6.4560     0.0610    -1.2620 H     1 <1>   0.4000 
 42 H       -4.7130    -2.8700    -2.7560 H     1 <1>   0.0800 
 43 H       -5.4480    -2.6780    -1.2080 H     1 <1>   0.0800 
 44 H       -1.1930     0.8060    -1.9270 H     1 <1>   0.0800 
 45 H       -0.4070     2.0520    -0.9970 H     1 <1>   0.0800 
 46 H       -0.4750    -1.6810     0.9360 H     1 <1>   0.0800 
 47 H       -1.2090    -1.6900    -0.6370 H     1 <1>   0.0800 
 48 H       -0.7740     0.9430     4.5170 H     1 <1>   0.1500 
 49 H        1.7390     0.9070    -1.1570 H     1 <1>   0.0800 
 50 H        1.0680     1.0040    -2.7690 H     1 <1>   0.0800 
 51 H        1.0220    -2.5570    -0.8980 H     1 <1>   0.0800 
 52 H        1.7160    -1.1890    -0.0580 H     1 <1>   0.0800 
 53 H       -2.4450    -3.6630    -3.0440 H     1 <1>   0.1500 
 54 H       -5.1110    -2.7860     0.9290 H     1 <1>   0.1500 
 55 H       -0.5430    -4.8340    -2.1510 H     1 <1>   0.1500 
 56 H       -0.9890    -5.0470     2.3200 H     1 <1>   0.1500 
 57 H       -4.7130    -3.2350     3.2870 H     1 <1>   0.1500 
 58 H       -2.6600    -4.3560     4.0070 H     1 <1>   0.1500 
@<TRIPOS>BOND
  1   1   2  2   
  2   2   3  am  
  3   2   4  1   
  4   3   5  1   
  5   3   6  1   
  6   4   7  ar  
  7   4   8  ar  
  8   5   9  1   
  9   5  32  1   
 10   5  33  1   
 11   6  10  1   
 12   6  34  1   
 13   6  35  1   
 14   7  11  1   
 15   7  12  ar  
 16   8  13  ar  
 17   8  36  1   
 18   9  10  1   
 19   9  14  1   
 20   9  37  1   
 21  10  15  1   
 22  10  38  1   
 23  11  16  1   
 24  11  17  1   
 25  12  18  ar  
 26  12  39  1   
 27  13  18  ar  
 28  13  40  1   
 29  14  41  1   
 30  15  19  1   
 31  15  42  1   
 32  15  43  1   
 33  16  20  1   
 34  16  44  1   
 35  16  45  1   
 36  17  21  1   
 37  17  46  1   
 38  17  47  1   
 39  18  48  1   
 40  19  22  ar  
 41  19  23  ar  
 42  20  24  1   
 43  20  49  1   
 44  20  50  1   
 45  21  24  1   
 46  21  51  1   
 47  21  52  1   
 48  22  25  ar  
 49  22  26  ar  
 50  23  27  ar  
 51  23  53  1   
 52  25  28  ar  
 53  25  29  ar  
 54  26  30  ar  
 55  26  54  1   
 56  27  28  ar  
 57  27  55  1   
 58  29  31  ar  
 59  29  56  1   
 60  30  31  ar  
 61  30  57  1   
 62  31  58  1   
@<TRIPOS>SUBSTRUCTURE
  1 ****   6 GROUP 4 **** **** 0

# MOE 2024.06 (io_trps.svl 2023.06)
