@<TRIPOS>MOLECULE
NONAME
45 46 1 0 0 
SMALL
USER_CHARGES


@<TRIPOS>ATOM
  1 F       -0.2460     1.6140     0.9650 F     1 <1>  -0.3400 
  2 C       -1.2050     2.2900     1.5830 C.3   1 <1>   1.2000 
  3 F       -0.6120     3.3020     2.2000 F     1 <1>  -0.3400 
  4 F       -1.6740     1.4940     2.5340 F     1 <1>  -0.3400 
  5 C       -2.2840     2.7500     0.6250 C.2   1 <1>  -0.3320 
  6 N       -2.0500     3.5660    -0.4260 N.pl3 1 <1>   0.3140 
  7 C       -3.6050     2.4560     0.6110 C.2   1 <1>  -0.1500 
  8 N       -3.1840     3.7900    -1.1150 N.2   1 <1>  -0.7070 
  9 C       -0.7780     4.1780    -0.8900 C.3   1 <1>   0.0960 
 10 C       -4.1060     3.1320    -0.4910 C.2   1 <1>   0.1080 
 11 C       -0.7860     5.7160    -0.7740 C.3   1 <1>  -0.0800 
 12 C       -5.5460     3.1250    -0.9470 C.3   1 <1>  -0.0590 
 13 C        0.5000     6.2620    -1.4140 C.3   1 <1>   0.2090 
 14 C       -0.9350     6.1800     0.6910 C.3   1 <1>  -0.2400 
 15 N        0.4880     7.7390    -1.4140 N.pl3 1 <1>  -0.8690 
 16 C        1.5950     8.4360    -0.9500 C.ar  1 <1>   0.4100 
 17 N        2.7790     7.9860    -1.3220 N.ar  1 <1>  -0.6200 
 18 C        1.4070     9.5800    -0.1050 C.ar  1 <1>   0.4100 
 19 C        3.7680     8.7180    -0.8240 C.ar  1 <1>   0.1600 
 20 N        2.4130    10.2850     0.3850 N.ar  1 <1>  -0.6200 
 21 N        0.1160    10.0150     0.2360 N.pl3 1 <1>  -0.8380 
 22 C        3.5920     9.8180    -0.0040 C.ar  1 <1>   0.1600 
 23 C       -0.0900    10.5250     1.6190 C.3   1 <1>   0.1290 
 24 C       -0.5590    10.8380    -0.8010 C.3   1 <1>   0.1290 
 25 H       -4.1720     1.8380     1.2860 H     1 <1>   0.1500 
 26 H       -0.6510     3.9010    -1.9210 H     1 <1>   0.0800 
 27 H        0.0460     3.7750    -0.3340 H     1 <1>   0.0800 
 28 H       -1.6190     6.0850    -1.3490 H     1 <1>   0.0800 
 29 H       -6.1480     2.5280    -0.2880 H     1 <1>   0.0800 
 30 H       -5.6050     2.7240    -1.9410 H     1 <1>   0.0800 
 31 H       -5.9230     4.1310    -0.9550 H     1 <1>   0.0800 
 32 H        0.5820     5.9250    -2.4330 H     1 <1>   0.0800 
 33 H        1.3580     5.9000    -0.8700 H     1 <1>   0.0800 
 34 H       -0.0990     5.8500     1.2820 H     1 <1>   0.0800 
 35 H       -1.8410     5.7930     1.1230 H     1 <1>   0.0800 
 36 H       -0.9840     7.2530     0.7500 H     1 <1>   0.0800 
 37 H       -0.3440     8.1180    -0.9470 H     1 <1>   0.4000 
 38 H        4.7670     8.4200    -1.0850 H     1 <1>   0.1500 
 39 H        4.4600    10.3440     0.3510 H     1 <1>   0.1500 
 40 H        0.4440     9.9050     2.3180 H     1 <1>   0.0800 
 41 H       -1.1370    10.5050     1.8660 H     1 <1>   0.0800 
 42 H        0.2790    11.5330     1.6990 H     1 <1>   0.0800 
 43 H       -0.3330    10.4580    -1.7830 H     1 <1>   0.0800 
 44 H       -0.2160    11.8570    -0.7380 H     1 <1>   0.0800 
 45 H       -1.6240    10.8100    -0.6550 H     1 <1>   0.0800 
@<TRIPOS>BOND
  1   1   2  1   
  2   2   3  1   
  3   2   4  1   
  4   2   5  1   
  5   5   6  1   
  6   5   7  2   
  7   6   8  1   
  8   6   9  1   
  9   7  10  1   
 10   7  25  1   
 11   8  10  2   
 12   9  11  1   
 13   9  26  1   
 14   9  27  1   
 15  10  12  1   
 16  11  13  1   
 17  11  14  1   
 18  11  28  1   
 19  12  29  1   
 20  12  30  1   
 21  12  31  1   
 22  13  15  1   
 23  13  32  1   
 24  13  33  1   
 25  14  34  1   
 26  14  35  1   
 27  14  36  1   
 28  15  16  1   
 29  15  37  1   
 30  16  17  ar  
 31  16  18  ar  
 32  17  19  ar  
 33  18  20  ar  
 34  18  21  1   
 35  19  22  ar  
 36  19  38  1   
 37  20  22  ar  
 38  21  23  1   
 39  21  24  1   
 40  22  39  1   
 41  23  40  1   
 42  23  41  1   
 43  23  42  1   
 44  24  43  1   
 45  24  44  1   
 46  24  45  1   
@<TRIPOS>SUBSTRUCTURE
  1 ****  14 GROUP 4 **** **** 0

# MOE 2024.06 (io_trps.svl 2023.06)
