@<TRIPOS>MOLECULE
NONAME
53 56 1 0 0 
SMALL
USER_CHARGES


@<TRIPOS>ATOM
  1 O        0.7700    -1.0430     1.3560 O.2   1 <1>  -0.5700 
  2 C        1.4870    -1.4850     0.4890 C.2   1 <1>   0.6300 
  3 N        1.0260    -2.3770    -0.4480 N.am  1 <1>  -0.6600 
  4 C        2.9420    -1.0250     0.4700 C.3   1 <1>  -0.1000 
  5 C       -0.3990    -2.8100    -0.4640 C.3   1 <1>   0.1400 
  6 C        1.8660    -3.0200    -1.4950 C.3   1 <1>   0.1400 
  7 C        3.3120     0.3970     0.7830 C.3   1 <1>  -0.2000 
  8 C        3.4600    -0.1190    -0.6120 C.3   1 <1>  -0.2000 
  9 C       -0.4860    -4.3310    -0.2660 C.3   1 <1>  -0.0800 
 10 C        1.8060    -4.5420    -1.3330 C.3   1 <1>  -0.1600 
 11 C        0.3600    -5.0620    -1.3300 C.3   1 <1>  -0.1600 
 12 C       -1.9560    -4.7710    -0.2900 C.3   1 <1>   0.2090 
 13 N       -2.0580    -6.2260     0.0010 N.pl3 1 <1>  -0.8690 
 14 C       -2.8940    -7.1590    -0.5040 C.ar  1 <1>   0.1000 
 15 C       -2.7510    -8.5370    -0.1410 C.ar  1 <1>   0.0000 
 16 C       -3.9230    -6.8230    -1.3840 C.ar  1 <1>  -0.1500 
 17 C       -3.6340    -9.4970    -0.6790 C.ar  1 <1>   0.3610 
 18 C       -1.7560    -9.0000     0.7360 C.ar  1 <1>  -0.1500 
 19 C       -4.7650    -7.7750    -1.8910 C.ar  1 <1>   0.2110 
 20 N       -4.6160    -9.0650    -1.5440 N.ar  1 <1>  -0.1790 
 21 C       -3.5200   -10.8640    -0.3440 C.ar  1 <1>  -0.1440 
 22 C       -1.6490   -10.3260     1.0570 C.ar  1 <1>  -0.1500 
 23 C       -2.5260   -11.2720     0.5240 C.ar  1 <1>  -0.1440 
 24 C       -4.5060   -11.8710    -0.9540 C.3   1 <1>  -0.0970 
 25 C       -2.3170   -12.7230     0.9490 C.3   1 <1>  -0.0970 
 26 H        3.5970    -1.7850     0.8550 H     1 <1>   0.1000 
 27 H       -0.8330    -2.5330    -1.4080 H     1 <1>   0.0800 
 28 H       -0.9530    -2.3110     0.3140 H     1 <1>   0.0800 
 29 H        2.8890    -2.6970    -1.4320 H     1 <1>   0.0800 
 30 H        1.4890    -2.7410    -2.4650 H     1 <1>   0.0800 
 31 H        4.1930     0.5810     1.3720 H     1 <1>   0.1000 
 32 H        2.5180     1.0910     1.0040 H     1 <1>   0.1000 
 33 H        2.7750     0.2370    -1.3630 H     1 <1>   0.1000 
 34 H        4.4500    -0.2850    -0.9990 H     1 <1>   0.1000 
 35 H       -0.0910    -4.5460     0.7130 H     1 <1>   0.0800 
 36 H        2.2890    -4.8110    -0.4090 H     1 <1>   0.0800 
 37 H        2.3540    -5.0060    -2.1340 H     1 <1>   0.0800 
 38 H       -0.0730    -4.9070    -2.3030 H     1 <1>   0.0800 
 39 H        0.3690    -6.1210    -1.1380 H     1 <1>   0.0800 
 40 H       -2.3760    -4.5480    -1.2540 H     1 <1>   0.0800 
 41 H       -2.5080    -4.2270     0.4600 H     1 <1>   0.0800 
 42 H       -1.3500    -6.5110     0.6880 H     1 <1>   0.4000 
 43 H       -4.0640    -5.7970    -1.6670 H     1 <1>   0.1500 
 44 H       -1.0590    -8.3070     1.1690 H     1 <1>   0.1500 
 45 H       -5.5570    -7.5030    -2.5710 H     1 <1>   0.1500 
 46 H       -5.2400    -9.7830    -1.9170 H     1 <1>   0.4570 
 47 H       -0.8720   -10.6420     1.7340 H     1 <1>   0.1500 
 48 H       -4.4240   -11.8740    -2.0270 H     1 <1>   0.0800 
 49 H       -5.5150   -11.6280    -0.6700 H     1 <1>   0.0800 
 50 H       -4.3260   -12.8770    -0.6260 H     1 <1>   0.0800 
 51 H       -3.1940   -13.0950     1.4490 H     1 <1>   0.0800 
 52 H       -1.4880   -12.8180     1.6280 H     1 <1>   0.0800 
 53 H       -2.1110   -13.3370     0.0910 H     1 <1>   0.0800 
@<TRIPOS>BOND
  1   1   2  2   
  2   2   3  am  
  3   2   4  1   
  4   3   5  1   
  5   3   6  1   
  6   4   7  1   
  7   4   8  1   
  8   4  26  1   
  9   5   9  1   
 10   5  27  1   
 11   5  28  1   
 12   6  10  1   
 13   6  29  1   
 14   6  30  1   
 15   7   8  1   
 16   7  31  1   
 17   7  32  1   
 18   8  33  1   
 19   8  34  1   
 20   9  11  1   
 21   9  12  1   
 22   9  35  1   
 23  10  11  1   
 24  10  36  1   
 25  10  37  1   
 26  11  38  1   
 27  11  39  1   
 28  12  13  1   
 29  12  40  1   
 30  12  41  1   
 31  13  14  1   
 32  13  42  1   
 33  14  15  ar  
 34  14  16  ar  
 35  15  17  ar  
 36  15  18  ar  
 37  16  19  ar  
 38  16  43  1   
 39  17  20  ar  
 40  17  21  ar  
 41  18  22  ar  
 42  18  44  1   
 43  19  20  ar  
 44  19  45  1   
 45  20  46  1   
 46  21  23  ar  
 47  21  24  1   
 48  22  23  ar  
 49  22  47  1   
 50  23  25  1   
 51  24  48  1   
 52  24  49  1   
 53  24  50  1   
 54  25  51  1   
 55  25  52  1   
 56  25  53  1   
@<TRIPOS>SUBSTRUCTURE
  1 ****  13 GROUP 4 **** **** 0

# MOE 2024.06 (io_trps.svl 2023.06)
