@<TRIPOS>MOLECULE
NONAME
44 47 1 0 0 
SMALL
USER_CHARGES


@<TRIPOS>ATOM
  1 F        0.6730     0.6280     0.3150 F     1 <1>  -0.1900 
  2 C        1.7220    -0.1460     0.1910 C.ar  1 <1>   0.1900 
  3 C        2.9920     0.4190     0.3370 C.ar  1 <1>   0.1000 
  4 C        1.5220    -1.4790    -0.0800 C.ar  1 <1>  -0.1500 
  5 N        3.1870     1.7720     0.6100 N.pl3 1 <1>  -0.6000 
  6 C        4.1090    -0.4180     0.2030 C.ar  1 <1>   0.0860 
  7 C        2.6320    -2.3040    -0.2140 C.ar  1 <1>  -0.1500 
  8 C        4.4340     2.3600     0.7610 C.2   1 <1>   0.1140 
  9 C        5.4180     0.1630     0.3590 C.2   1 <1>   0.4690 
 10 C        3.9000    -1.7770    -0.0730 C.ar  1 <1>  -0.1500 
 11 C        4.5080     3.7900     1.0340 C.2   1 <1>   0.6160 
 12 C        5.5200     1.5410     0.6580 C.2   1 <1>  -0.1360 
 13 O        6.4340    -0.5070     0.2230 O.2   1 <1>  -0.5700 
 14 O        3.7030     4.2760     1.8090 O.2   1 <1>  -0.5700 
 15 N        5.4200     4.6260     0.4190 N.am  1 <1>  -0.6600 
 16 C        5.7430     5.9520     1.0470 C.3   1 <1>   0.1400 
 17 C        5.9510     4.3510    -0.9570 C.3   1 <1>   0.1400 
 18 C        7.2410     6.3210     1.1340 C.3   1 <1>   0.2200 
 19 C        7.4720     4.5190    -1.1450 C.3   1 <1>  -0.0190 
 20 N        7.7540     6.8010    -0.1800 N.am  1 <1>  -0.6600 
 21 C        8.1590     5.2330     1.7450 C.3   1 <1>   0.1200 
 22 C        7.8410     5.9800    -1.2650 C.2   1 <1>   0.5690 
 23 C        8.4030     3.7980    -0.1540 C.3   1 <1>   0.1200 
 24 C        8.1150     8.2470    -0.2550 C.3   1 <1>   0.0600 
 25 O        8.0260     3.9580     1.1790 O.3   1 <1>  -0.5600 
 26 O        8.2100     6.3770    -2.3450 O.2   1 <1>  -0.5700 
 27 H        0.5260    -1.8720    -0.1850 H     1 <1>   0.1500 
 28 H        2.3610     2.3630     0.7920 H     1 <1>   0.4000 
 29 H        2.4980    -3.3520    -0.4260 H     1 <1>   0.1500 
 30 H        4.7600    -2.4190    -0.1760 H     1 <1>   0.1500 
 31 H        6.5110     1.9210     0.8090 H     1 <1>   0.1500 
 32 H        5.2200     6.7260     0.5130 H     1 <1>   0.0800 
 33 H        5.3650     5.9560     2.0540 H     1 <1>   0.0800 
 34 H        5.6880     3.3520    -1.2530 H     1 <1>   0.0800 
 35 H        5.4510     5.0140    -1.6430 H     1 <1>   0.0800 
 36 H        7.2960     7.1570     1.8080 H     1 <1>   0.0800 
 37 H        7.6940     4.0940    -2.1060 H     1 <1>   0.0800 
 38 H        7.9120     5.1240     2.7860 H     1 <1>   0.0800 
 39 H        9.1910     5.5320     1.6780 H     1 <1>   0.0800 
 40 H        9.4190     4.1390    -0.2670 H     1 <1>   0.0800 
 41 H        8.3830     2.7410    -0.3540 H     1 <1>   0.0800 
 42 H        8.8880     8.4670     0.4610 H     1 <1>   0.0800 
 43 H        7.2500     8.8500    -0.0440 H     1 <1>   0.0800 
 44 H        8.4780     8.5020    -1.2360 H     1 <1>   0.0800 
@<TRIPOS>BOND
  1   1   2  1   
  2   2   3  ar  
  3   2   4  ar  
  4   3   5  1   
  5   3   6  ar  
  6   4   7  ar  
  7   4  27  1   
  8   5   8  1   
  9   5  28  1   
 10   6   9  1   
 11   6  10  ar  
 12   7  10  ar  
 13   7  29  1   
 14   8  11  1   
 15   8  12  2   
 16   9  12  1   
 17   9  13  2   
 18  10  30  1   
 19  11  14  2   
 20  11  15  am  
 21  12  31  1   
 22  15  16  1   
 23  15  17  1   
 24  16  18  1   
 25  16  32  1   
 26  16  33  1   
 27  17  19  1   
 28  17  34  1   
 29  17  35  1   
 30  18  20  1   
 31  18  21  1   
 32  18  36  1   
 33  19  22  1   
 34  19  23  1   
 35  19  37  1   
 36  20  22  am  
 37  20  24  1   
 38  21  25  1   
 39  21  38  1   
 40  21  39  1   
 41  22  26  2   
 42  23  25  1   
 43  23  40  1   
 44  23  41  1   
 45  24  42  1   
 46  24  43  1   
 47  24  44  1   
@<TRIPOS>SUBSTRUCTURE
  1 ****   8 GROUP 4 **** **** 0

# MOE 2024.06 (io_trps.svl 2023.06)
