@<TRIPOS>MOLECULE
NONAME
51 54 1 0 0 
SMALL
USER_CHARGES


@<TRIPOS>ATOM
  1 S       -0.9630     1.0590     2.0590 S.3   1 <1>  -0.0800 
  2 C       -1.3500     2.0720     0.6760 C.2   1 <1>  -0.1400 
  3 C       -2.6670     0.7000     2.3110 C.2   1 <1>  -0.1100 
  4 C       -2.6730     2.1120     0.4730 C.2   1 <1>  -0.1810 
  5 C       -0.2840     2.7880    -0.1470 C.3   1 <1>   0.4600 
  6 C       -3.4320     1.3260     1.3970 C.2   1 <1>  -0.1500 
  7 C       -3.2290     2.9430    -0.6610 C.3   1 <1>   0.0210 
  8 O       -0.9080     3.3860    -1.2690 O.3   1 <1>  -0.5600 
  9 C        0.7400     1.7940    -0.7030 C.3   1 <1>  -0.1600 
 10 C        0.4210     3.8780     0.6720 C.3   1 <1>  -0.1600 
 11 C       -2.1720     3.9800    -1.0890 C.3   1 <1>   0.1200 
 12 C        1.8410     2.5000    -1.4960 C.3   1 <1>   0.1400 
 13 C        1.5220     4.5660    -0.1360 C.3   1 <1>   0.1400 
 14 N        2.4770     3.5400    -0.6390 N.am  1 <1>  -0.6600 
 15 C        3.8380     3.5690    -0.4320 C.2   1 <1>   0.5690 
 16 O        4.5690     2.7360    -0.9190 O.2   1 <1>  -0.5700 
 17 C        4.5030     4.6440     0.4460 C.3   1 <1>   0.1710 
 18 N        4.3910     6.0550    -0.0330 N.3   1 <1>  -0.8100 
 19 C        5.0480     6.9720     0.9120 C.3   1 <1>   0.2530 
 20 C        4.9470     6.1900    -1.3910 C.3   1 <1>   0.0300 
 21 C        4.7570     8.4280     0.5690 C.ar  1 <1>  -0.1430 
 22 C        5.7580     9.3770     0.4980 C.ar  1 <1>  -0.1500 
 23 C        3.4770     8.8760     0.3150 C.ar  1 <1>  -0.1500 
 24 C        5.4370    10.6880     0.1870 C.ar  1 <1>   0.1600 
 25 C        3.2630    10.2100     0.0120 C.ar  1 <1>   0.1600 
 26 N        4.2140    11.1290    -0.0560 N.ar  1 <1>  -0.6200 
 27 H       -2.9170     0.0470     3.1280 H     1 <1>   0.1500 
 28 H       -4.5050     1.2700     1.3330 H     1 <1>   0.1500 
 29 H       -4.1210     3.4520    -0.3450 H     1 <1>   0.0800 
 30 H       -3.4740     2.3070    -1.4930 H     1 <1>   0.0800 
 31 H        0.2370     1.0800    -1.3300 H     1 <1>   0.0800 
 32 H        1.1970     1.2520     0.1040 H     1 <1>   0.0800 
 33 H        0.8660     3.4310     1.5420 H     1 <1>   0.0800 
 34 H       -0.2920     4.6020     1.0170 H     1 <1>   0.0800 
 35 H       -2.0830     4.7520    -0.3450 H     1 <1>   0.0800 
 36 H       -2.4560     4.4340    -2.0220 H     1 <1>   0.0800 
 37 H        1.4220     2.9710    -2.3690 H     1 <1>   0.0800 
 38 H        2.5680     1.7770    -1.8240 H     1 <1>   0.0800 
 39 H        2.0150     5.2920     0.4830 H     1 <1>   0.0800 
 40 H        1.0940     5.0850    -0.9770 H     1 <1>   0.0800 
 41 H        5.5440     4.3880     0.5380 H     1 <1>   0.0800 
 42 H        4.0670     4.5700     1.4250 H     1 <1>   0.0800 
 43 H        6.1100     6.7960     0.9100 H     1 <1>   0.0800 
 44 H        4.6790     6.7840     1.9060 H     1 <1>   0.0800 
 45 H        4.4130     5.5550    -2.0760 H     1 <1>   0.0800 
 46 H        5.9890     5.9170    -1.4030 H     1 <1>   0.0800 
 47 H        4.8470     7.2040    -1.7380 H     1 <1>   0.0800 
 48 H        6.7830     9.1110     0.6800 H     1 <1>   0.1500 
 49 H        2.6500     8.1910     0.3450 H     1 <1>   0.1500 
 50 H        6.2300    11.4140     0.1360 H     1 <1>   0.1500 
 51 H        2.2570    10.5390    -0.1850 H     1 <1>   0.1500 
@<TRIPOS>BOND
  1   1   2  1   
  2   1   3  1   
  3   2   4  2   
  4   2   5  1   
  5   3   6  2   
  6   3  27  1   
  7   4   6  1   
  8   4   7  1   
  9   5   8  1   
 10   5   9  1   
 11   5  10  1   
 12   6  28  1   
 13   7  11  1   
 14   7  29  1   
 15   7  30  1   
 16   8  11  1   
 17   9  12  1   
 18   9  31  1   
 19   9  32  1   
 20  10  13  1   
 21  10  33  1   
 22  10  34  1   
 23  11  35  1   
 24  11  36  1   
 25  12  14  1   
 26  12  37  1   
 27  12  38  1   
 28  13  14  1   
 29  13  39  1   
 30  13  40  1   
 31  14  15  am  
 32  15  16  2   
 33  15  17  1   
 34  17  18  1   
 35  17  41  1   
 36  17  42  1   
 37  18  19  1   
 38  18  20  1   
 39  19  21  1   
 40  19  43  1   
 41  19  44  1   
 42  20  45  1   
 43  20  46  1   
 44  20  47  1   
 45  21  22  ar  
 46  21  23  ar  
 47  22  24  ar  
 48  22  48  1   
 49  23  25  ar  
 50  23  49  1   
 51  24  26  ar  
 52  24  50  1   
 53  25  26  ar  
 54  25  51  1   
@<TRIPOS>SUBSTRUCTURE
  1 ****  13 GROUP 4 **** **** 0

# MOE 2024.06 (io_trps.svl 2023.06)
