@<TRIPOS>MOLECULE
NONAME
53 55 1 0 0 
SMALL
USER_CHARGES


@<TRIPOS>ATOM
  1 S       -0.1790     0.3460    -0.8310 S.o2  1 <1>   1.3330 
  2 O       -0.9360    -0.8710    -1.0150 O.2   1 <1>  -0.6500 
  3 O       -0.1580     1.3460    -1.8750 O.2   1 <1>  -0.6500 
  4 N        1.4280    -0.1080    -0.5140 N.am  1 <1>  -0.8490 
  5 C       -0.6940     1.1240     0.7070 C.3   1 <1>  -0.0550 
  6 C        2.2290    -0.1830    -1.7420 C.3   1 <1>   0.1160 
  7 C        1.5410    -1.3760     0.2170 C.3   1 <1>   0.1160 
  8 C       -0.2040     2.5670     0.9660 C.3   1 <1>  -0.0800 
  9 C       -0.9340     3.6290     0.1390 C.3   1 <1>   0.2000 
 10 C        1.2790     2.8530     0.7310 C.3   1 <1>   0.2090 
 11 O       -2.0860     4.0120     0.8110 O.3   1 <1>  -0.6800 
 12 C        0.0440     4.8030    -0.0030 C.3   1 <1>   0.2090 
 13 N        1.3420     4.3280     0.5550 N.pl3 1 <1>  -0.8380 
 14 C        2.4620     5.0790     0.7610 C.ar  1 <1>   0.4100 
 15 N        3.5380     4.4370     1.2180 N.ar  1 <1>  -0.6200 
 16 C        2.4900     6.4450     0.5080 C.ar  1 <1>  -0.1500 
 17 C        4.6160     5.1380     1.4120 C.ar  1 <1>   0.7710 
 18 C        3.6400     7.1610     0.7340 C.ar  1 <1>   0.4610 
 19 N        4.6910     6.4620     1.1870 N.ar  1 <1>  -0.1790 
 20 N        5.6910     4.4790     1.8550 N.pl3 1 <1>  -0.9000 
 21 N        3.7890     8.5020     0.5140 N.pl3 1 <1>  -0.8380 
 22 C        3.0050     9.2220    -0.5490 C.3   1 <1>   0.2090 
 23 C        4.4460     9.4610     1.4700 C.3   1 <1>   0.2090 
 24 C        3.8370    10.3510    -1.1860 C.3   1 <1>   0.1200 
 25 C        5.1980    10.5740     0.7160 C.3   1 <1>   0.1200 
 26 O        4.3510    11.2010    -0.2010 O.3   1 <1>  -0.5600 
 27 H       -1.7670     1.1400     0.7320 H     1 <1>   0.0800 
 28 H       -0.3760     0.5060     1.5230 H     1 <1>   0.0800 
 29 H        3.2410    -0.4680    -1.5120 H     1 <1>   0.0800 
 30 H        2.2530     0.7790    -2.2270 H     1 <1>   0.0800 
 31 H        1.8040    -0.9020    -2.4230 H     1 <1>   0.0800 
 32 H        2.5710    -1.5690     0.4660 H     1 <1>   0.0800 
 33 H        1.1680    -2.1910    -0.3810 H     1 <1>   0.0800 
 34 H        0.9750    -1.3330     1.1310 H     1 <1>   0.0800 
 35 H       -0.3770     2.7810     2.0060 H     1 <1>   0.0800 
 36 H       -1.2210     3.2750    -0.8360 H     1 <1>   0.0800 
 37 H        1.6400     2.3980    -0.1740 H     1 <1>   0.0800 
 38 H        1.8760     2.5210     1.5630 H     1 <1>   0.0800 
 39 H       -1.8710     4.3230     1.7110 H     1 <1>   0.4000 
 40 H       -0.3080     5.6620     0.5400 H     1 <1>   0.0800 
 41 H        0.1660     5.0470    -1.0450 H     1 <1>   0.0800 
 42 H        1.6130     6.9400     0.1470 H     1 <1>   0.1500 
 43 H        5.5770     6.9290     1.2820 H     1 <1>   0.4570 
 44 H        6.6180     4.8420     2.0820 H     1 <1>   0.4000 
 45 H        5.5880     3.4700     2.0070 H     1 <1>   0.4000 
 46 H        2.7030     8.5360    -1.3220 H     1 <1>   0.0800 
 47 H        2.1170     9.6500    -0.1150 H     1 <1>   0.0800 
 48 H        3.6880     9.9210     2.0820 H     1 <1>   0.0800 
 49 H        5.1280     8.9500     2.1260 H     1 <1>   0.0800 
 50 H        3.2210    10.9440    -1.8390 H     1 <1>   0.0800 
 51 H        4.6560     9.9490    -1.7570 H     1 <1>   0.0800 
 52 H        6.0460    10.1780     0.1850 H     1 <1>   0.0800 
 53 H        5.5420    11.3240     1.4060 H     1 <1>   0.0800 
@<TRIPOS>BOND
  1   1   2  2   
  2   1   3  2   
  3   1   4  am  
  4   1   5  1   
  5   4   6  1   
  6   4   7  1   
  7   5   8  1   
  8   5  27  1   
  9   5  28  1   
 10   6  29  1   
 11   6  30  1   
 12   6  31  1   
 13   7  32  1   
 14   7  33  1   
 15   7  34  1   
 16   8   9  1   
 17   8  10  1   
 18   8  35  1   
 19   9  11  1   
 20   9  12  1   
 21   9  36  1   
 22  10  13  1   
 23  10  37  1   
 24  10  38  1   
 25  11  39  1   
 26  12  13  1   
 27  12  40  1   
 28  12  41  1   
 29  13  14  1   
 30  14  15  ar  
 31  14  16  ar  
 32  15  17  ar  
 33  16  18  ar  
 34  16  42  1   
 35  17  19  ar  
 36  17  20  1   
 37  18  19  ar  
 38  18  21  1   
 39  19  43  1   
 40  20  44  1   
 41  20  45  1   
 42  21  22  1   
 43  21  23  1   
 44  22  24  1   
 45  22  46  1   
 46  22  47  1   
 47  23  25  1   
 48  23  48  1   
 49  23  49  1   
 50  24  26  1   
 51  24  50  1   
 52  24  51  1   
 53  25  26  1   
 54  25  52  1   
 55  25  53  1   
@<TRIPOS>SUBSTRUCTURE
  1 ****  14 GROUP 4 **** **** 0

# MOE 2024.06 (io_trps.svl 2023.06)
