@<TRIPOS>MOLECULE
NONAME
43 45 1 0 0 
SMALL
USER_CHARGES


@<TRIPOS>ATOM
  1 S        0.6310     0.0660    -1.2460 S.o2  1 <1>   1.3330 
  2 O        0.9400    -1.2810    -1.6740 O.2   1 <1>  -0.6500 
  3 O       -0.2010     0.9090    -2.0730 O.2   1 <1>  -0.6500 
  4 N       -0.1140    -0.0310     0.2800 N.am  1 <1>  -0.8490 
  5 C        2.1760     0.9120    -0.9060 C.3   1 <1>  -0.0550 
  6 C       -1.0170    -1.1810     0.3820 C.3   1 <1>   0.1160 
  7 C       -0.8310     1.1940     0.6530 C.3   1 <1>   0.1160 
  8 C        3.1980     0.0720    -0.1070 C.3   1 <1>  -0.0800 
  9 C        4.5640     0.7190     0.0620 C.3   1 <1>   0.2200 
 10 C        2.7990    -0.2530     1.3380 C.3   1 <1>   0.1200 
 11 N        4.4290     2.1500     0.4290 N.am  1 <1>  -0.7300 
 12 C        5.0780    -0.0440     1.2730 C.3   1 <1>   0.1200 
 13 O        3.9670    -0.1800     2.1050 O.3   1 <1>  -0.5600 
 14 C        4.5840     3.2060    -0.4220 C.2   1 <1>   0.5440 
 15 O        4.7750     2.9580    -1.5960 O.2   1 <1>  -0.5700 
 16 C        4.5110     4.5810     0.0490 C.ar  1 <1>   0.0860 
 17 C        4.9270     5.6320    -0.7710 C.ar  1 <1>  -0.1500 
 18 C        4.0230     4.9130     1.3270 C.ar  1 <1>  -0.1500 
 19 C        4.8480     6.9270    -0.3000 C.ar  1 <1>   0.0400 
 20 C        3.9540     6.2220     1.7770 C.ar  1 <1>  -0.1500 
 21 S        5.2990     8.4120    -1.1120 S.3   1 <1>  -0.0800 
 22 C        4.3730     7.2550     0.9540 C.ar  1 <1>   0.2270 
 23 C        4.8030     9.3170     0.3140 C.2   1 <1>   0.2280 
 24 N        4.3600     8.6090     1.2730 N.2   1 <1>  -0.5650 
 25 H        2.6280     1.1740    -1.8430 H     1 <1>   0.0800 
 26 H        1.9700     1.8260    -0.3870 H     1 <1>   0.0800 
 27 H       -1.4650    -1.2200     1.3600 H     1 <1>   0.0800 
 28 H       -0.4690    -2.0960     0.2270 H     1 <1>   0.0800 
 29 H       -1.7930    -1.1150    -0.3630 H     1 <1>   0.0800 
 30 H       -1.2030     1.1120     1.6600 H     1 <1>   0.0800 
 31 H       -1.6610     1.3630    -0.0130 H     1 <1>   0.0800 
 32 H       -0.1710     2.0420     0.6030 H     1 <1>   0.0800 
 33 H        3.3390    -0.8630    -0.6220 H     1 <1>   0.0800 
 34 H        5.1970     0.6000    -0.8020 H     1 <1>   0.0800 
 35 H        2.3810    -1.2420     1.4240 H     1 <1>   0.0800 
 36 H        2.1060     0.4690     1.7350 H     1 <1>   0.0800 
 37 H        4.2720     2.2960     1.4280 H     1 <1>   0.3700 
 38 H        5.8650     0.4730     1.7930 H     1 <1>   0.0800 
 39 H        5.4070    -1.0310     0.9940 H     1 <1>   0.0800 
 40 H        5.3050     5.4390    -1.7600 H     1 <1>   0.1500 
 41 H        3.6850     4.1340     1.9850 H     1 <1>   0.1500 
 42 H        3.5800     6.4610     2.7560 H     1 <1>   0.1500 
 43 H        4.9120    10.3860     0.2670 H     1 <1>   0.1500 
@<TRIPOS>BOND
  1   1   2  2   
  2   1   3  2   
  3   1   4  am  
  4   1   5  1   
  5   4   6  1   
  6   4   7  1   
  7   5   8  1   
  8   5  25  1   
  9   5  26  1   
 10   6  27  1   
 11   6  28  1   
 12   6  29  1   
 13   7  30  1   
 14   7  31  1   
 15   7  32  1   
 16   8   9  1   
 17   8  10  1   
 18   8  33  1   
 19   9  11  1   
 20   9  12  1   
 21   9  34  1   
 22  10  13  1   
 23  10  35  1   
 24  10  36  1   
 25  11  14  am  
 26  11  37  1   
 27  12  13  1   
 28  12  38  1   
 29  12  39  1   
 30  14  15  2   
 31  14  16  1   
 32  16  17  ar  
 33  16  18  ar  
 34  17  19  ar  
 35  17  40  1   
 36  18  20  ar  
 37  18  41  1   
 38  19  21  1   
 39  19  22  ar  
 40  20  22  ar  
 41  20  42  1   
 42  21  23  1   
 43  22  24  1   
 44  23  24  2   
 45  23  43  1   
@<TRIPOS>SUBSTRUCTURE
  1 ****  14 GROUP 4 **** **** 0

# MOE 2024.06 (io_trps.svl 2023.06)
