@<TRIPOS>MOLECULE
NONAME
46 48 1 0 0 
SMALL
USER_CHARGES


@<TRIPOS>ATOM
  1 CL       0.2750     0.4320     1.5750 Cl    1 <1>  -0.1770 
  2 C        0.7350     2.1010     1.3700 C.ar  1 <1>   0.1770 
  3 C        0.7740     2.6630     0.1070 C.ar  1 <1>   0.1600 
  4 C        1.0610     2.8600     2.4690 C.ar  1 <1>  -0.1500 
  5 N        1.1130     3.9210    -0.1400 N.ar  1 <1>  -0.6200 
  6 C        1.4100     4.1720     2.2230 C.ar  1 <1>  -0.1500 
  7 C        1.4260     4.6880     0.9220 C.ar  1 <1>   0.3960 
  8 C        1.8010     6.0890     0.7130 C.2   1 <1>   0.5440 
  9 O        2.6150     6.6460     1.4360 O.2   1 <1>  -0.5700 
 10 N        1.3300     6.8510    -0.3360 N.am  1 <1>  -0.6600 
 11 C        1.8670     6.6390    -1.7190 C.3   1 <1>   0.1400 
 12 C        0.6610     8.1620    -0.1030 C.3   1 <1>   0.1400 
 13 C        3.3240     7.1400    -1.8350 C.3   1 <1>   0.3430 
 14 C        1.6660     9.3080     0.1170 C.3   1 <1>  -0.1600 
 15 N        3.6430     8.1450    -0.7650 N.4   1 <1>  -0.9590 
 16 C        2.8210     9.3800    -0.8870 C.3   1 <1>   0.3430 
 17 C        5.1080     8.3610    -0.5830 C.3   1 <1>   0.3430 
 18 C        5.4270     8.8920     0.8200 C.3   1 <1>   0.0960 
 19 N        6.8880     8.9320     0.9760 N.pl3 1 <1>   0.0480 
 20 C        7.7590     9.8920     0.6460 C.2   1 <1>   0.0060 
 21 C        7.6800     7.9550     1.4230 C.2   1 <1>   0.0360 
 22 N        8.9700     9.5180     0.8630 N.2   1 <1>  -0.3380 
 23 C        7.3960    11.2550     0.0870 C.3   1 <1>  -0.0600 
 24 N        8.9210     8.2810     1.3590 N.2   1 <1>  -0.3380 
 25 H        0.5140     2.0400    -0.7320 H     1 <1>   0.1500 
 26 H        1.0390     2.4430     3.4610 H     1 <1>   0.1500 
 27 H        1.6750     4.8140     3.0450 H     1 <1>   0.1500 
 28 H        1.2490     7.1610    -2.4290 H     1 <1>   0.0800 
 29 H        1.8270     5.5950    -1.9780 H     1 <1>   0.0800 
 30 H        0.0250     8.0800     0.7630 H     1 <1>   0.0800 
 31 H        0.0260     8.3870    -0.9440 H     1 <1>   0.0800 
 32 H        3.4950     7.5550    -2.8150 H     1 <1>   0.0800 
 33 H        3.9740     6.2880    -1.7220 H     1 <1>   0.0800 
 34 H        2.0630     9.2430     1.1150 H     1 <1>   0.0800 
 35 H        1.1210    10.2340     0.0700 H     1 <1>   0.0800 
 36 H        3.2770     7.6780     0.0980 H     1 <1>   0.4500 
 37 H        3.4210    10.2480    -0.6700 H     1 <1>   0.0800 
 38 H        2.4350     9.4780    -1.8890 H     1 <1>   0.0800 
 39 H        5.4750     9.0490    -1.3280 H     1 <1>   0.0800 
 40 H        5.6200     7.4210    -0.7080 H     1 <1>   0.0800 
 41 H        5.0210     8.2350     1.5690 H     1 <1>   0.0800 
 42 H        5.0330     9.8810     0.9600 H     1 <1>   0.0800 
 43 H        7.3190     7.0100     1.7880 H     1 <1>   0.1500 
 44 H        6.8970    11.1570    -0.8580 H     1 <1>   0.0800 
 45 H        8.2930    11.8320    -0.0610 H     1 <1>   0.0800 
 46 H        6.7670    11.7850     0.7780 H     1 <1>   0.0800 
@<TRIPOS>BOND
  1   1   2  1   
  2   2   3  ar  
  3   2   4  ar  
  4   3   5  ar  
  5   3  25  1   
  6   4   6  ar  
  7   4  26  1   
  8   5   7  ar  
  9   6   7  ar  
 10   6  27  1   
 11   7   8  1   
 12   8   9  2   
 13   8  10  am  
 14  10  11  1   
 15  10  12  1   
 16  11  13  1   
 17  11  28  1   
 18  11  29  1   
 19  12  14  1   
 20  12  30  1   
 21  12  31  1   
 22  13  15  1   
 23  13  32  1   
 24  13  33  1   
 25  14  16  1   
 26  14  34  1   
 27  14  35  1   
 28  15  16  1   
 29  15  17  1   
 30  15  36  1   
 31  16  37  1   
 32  16  38  1   
 33  17  18  1   
 34  17  39  1   
 35  17  40  1   
 36  18  19  1   
 37  18  41  1   
 38  18  42  1   
 39  19  20  1   
 40  19  21  1   
 41  20  22  2   
 42  20  23  1   
 43  21  24  2   
 44  21  43  1   
 45  22  24  1   
 46  23  44  1   
 47  23  45  1   
 48  23  46  1   
@<TRIPOS>SUBSTRUCTURE
  1 ****   9 GROUP 4 **** **** 0

# MOE 2024.06 (io_trps.svl 2023.06)
