@<TRIPOS>MOLECULE
NONAME
37 38 1 0 0 
SMALL
USER_CHARGES


@<TRIPOS>ATOM
  1 CL      -1.0630    -1.2300     0.7560 Cl    1 <1>  -0.1770 
  2 C       -2.4120    -0.1280     0.6270 C.ar  1 <1>   0.1770 
  3 C       -3.2730    -0.2350    -0.4480 C.ar  1 <1>  -0.1500 
  4 C       -2.5900     0.8380     1.5960 C.ar  1 <1>  -0.1500 
  5 C       -4.3480     0.6380    -0.5920 C.ar  1 <1>  -0.0090 
  6 C       -3.6510     1.7150     1.4740 C.ar  1 <1>  -0.1500 
  7 S       -5.4830     0.4600    -2.0010 S.o2  1 <1>   1.4470 
  8 C       -4.5120     1.6190     0.3880 C.ar  1 <1>   0.0830 
  9 O       -4.8230    -0.3580    -2.9990 O.2   1 <1>  -0.6500 
 10 O       -5.9860     1.7490    -2.4310 O.2   1 <1>  -0.6500 
 11 N       -6.7960    -0.4490    -1.4290 N.am  1 <1>  -0.8490 
 12 O       -5.5340     2.4960     0.3210 O.3   1 <1>  -0.3630 
 13 C       -6.4260    -1.8520    -1.1410 C.3   1 <1>   0.1960 
 14 C       -7.5130     0.2010    -0.3290 C.3   1 <1>   0.1960 
 15 C       -5.2260     3.7950    -0.1290 C.3   1 <1>   0.0400 
 16 C       -7.3820    -2.5640    -0.1680 C.3   1 <1>  -0.1860 
 17 C       -8.8530    -0.5010    -0.0700 C.3   1 <1>  -0.1600 
 18 C       -6.9140    -2.4550     1.2750 C.2   1 <1>   0.9060 
 19 C       -8.7920    -2.0040    -0.3640 C.3   1 <1>   0.2000 
 20 O       -5.8020    -1.9810     1.5310 O.co2 1 <1>  -0.9000 
 21 O       -7.6760    -2.8470     2.1680 O.co2 1 <1>  -0.9000 
 22 O       -9.6620    -2.6610     0.4780 O.3   1 <1>  -0.6800 
 23 H       -3.1040    -1.0110    -1.1740 H     1 <1>   0.1500 
 24 H       -1.9150     0.8920     2.4310 H     1 <1>   0.1500 
 25 H       -3.8220     2.4670     2.2230 H     1 <1>   0.1500 
 26 H       -6.4380    -2.3830    -2.0770 H     1 <1>   0.0800 
 27 H       -5.4170    -1.9150    -0.7710 H     1 <1>   0.0800 
 28 H       -6.9100     0.1680     0.5640 H     1 <1>   0.0800 
 29 H       -7.7000     1.2350    -0.5660 H     1 <1>   0.0800 
 30 H       -6.1420     4.3560    -0.1830 H     1 <1>   0.0800 
 31 H       -4.7820     3.7300    -1.1070 H     1 <1>   0.0800 
 32 H       -4.5470     4.2580     0.5650 H     1 <1>   0.0800 
 33 H       -7.3810    -3.6090    -0.4060 H     1 <1>   0.0800 
 34 H       -9.6080    -0.0570    -0.6910 H     1 <1>   0.0800 
 35 H       -9.1200    -0.3310     0.9590 H     1 <1>   0.0800 
 36 H       -9.1150    -2.1840    -1.3750 H     1 <1>   0.0800 
 37 H       -9.1510    -2.8170     1.3280 H     1 <1>   0.4000 
@<TRIPOS>BOND
  1   1   2  1   
  2   2   3  ar  
  3   2   4  ar  
  4   3   5  ar  
  5   3  23  1   
  6   4   6  ar  
  7   4  24  1   
  8   5   7  1   
  9   5   8  ar  
 10   6   8  ar  
 11   6  25  1   
 12   7   9  2   
 13   7  10  2   
 14   7  11  am  
 15   8  12  1   
 16  11  13  1   
 17  11  14  1   
 18  12  15  1   
 19  13  16  1   
 20  13  26  1   
 21  13  27  1   
 22  14  17  1   
 23  14  28  1   
 24  14  29  1   
 25  15  30  1   
 26  15  31  1   
 27  15  32  1   
 28  16  18  1   
 29  16  19  1   
 30  16  33  1   
 31  17  19  1   
 32  17  34  1   
 33  17  35  1   
 34  18  20  ar  
 35  18  21  ar  
 36  19  22  1   
 37  19  36  1   
 38  22  37  1   
@<TRIPOS>SUBSTRUCTURE
  1 ****   5 GROUP 4 **** **** 0

# MOE 2024.06 (io_trps.svl 2023.06)
