@<TRIPOS>MOLECULE
NONAME
55 56 1 0 0 
SMALL
USER_CHARGES


@<TRIPOS>ATOM
  1 O        3.3900     2.0680     1.7280 O.co2 1 <1>  -0.9000 
  2 C        2.7990     1.0430     1.3550 C.2   1 <1>   0.9060 
  3 O        2.8010     0.0220     2.0400 O.co2 1 <1>  -0.9000 
  4 C        2.3340     0.9370    -0.1110 C.3   1 <1>  -0.1060 
  5 C        3.2940    -0.1170    -0.7090 C.3   1 <1>   0.2000 
  6 C        2.5380     2.2780    -0.8940 C.3   1 <1>  -0.1600 
  7 C        0.8540     0.4710    -0.1930 C.3   1 <1>  -0.1600 
  8 O        3.0490    -0.2610    -2.0770 O.3   1 <1>  -0.6800 
  9 C        4.7690     0.3210    -0.5070 C.3   1 <1>   0.3430 
 10 C        3.9810     2.5150    -1.3790 C.3   1 <1>   0.3430 
 11 C       -0.1350     1.4400     0.4750 C.3   1 <1>  -0.1600 
 12 N        4.9270     1.8200    -0.4700 N.4   1 <1>  -0.9590 
 13 C       -1.5680     0.9130     0.3790 C.3   1 <1>  -0.2400 
 14 C        6.3260     2.2850    -0.5100 C.3   1 <1>   0.4860 
 15 C        6.3650     3.7910    -0.3180 C.ar  1 <1>  -0.1440 
 16 C        5.8250     4.3700     0.8230 C.ar  1 <1>  -0.1500 
 17 C        6.9260     4.6060    -1.2900 C.ar  1 <1>  -0.1500 
 18 C        5.8400     5.7440     0.9790 C.ar  1 <1>  -0.1500 
 19 C        6.9370     5.9800    -1.1250 C.ar  1 <1>  -0.1500 
 20 C        6.3910     6.5660     0.0080 C.ar  1 <1>   0.0730 
 21 C        6.3880     7.9880     0.1670 C.1   1 <1>  -0.0730 
 22 C        6.3610     9.1720     0.2910 C.1   1 <1>  -0.2000 
 23 C        6.3050    10.6520     0.4420 C.3   1 <1>   0.4800 
 24 O        5.2840    11.1080    -0.3480 O.3   1 <1>  -0.6800 
 25 C        5.9790    11.0450     1.8770 C.3   1 <1>  -0.2400 
 26 C        7.5900    11.3060    -0.0540 C.3   1 <1>  -0.2400 
 27 H        3.1430    -1.0800    -0.2490 H     1 <1>   0.0800 
 28 H        2.2410     3.1070    -0.2740 H     1 <1>   0.0800 
 29 H        1.9020     2.2990    -1.7600 H     1 <1>   0.0800 
 30 H        0.5660     0.3380    -1.2210 H     1 <1>   0.0800 
 31 H        0.7700    -0.4860     0.2960 H     1 <1>   0.0800 
 32 H        2.1300    -0.5720    -2.2050 H     1 <1>   0.4000 
 33 H        5.3670    -0.1080    -1.2920 H     1 <1>   0.0800 
 34 H        5.1040    -0.0760     0.4370 H     1 <1>   0.0800 
 35 H        4.1780     3.5740    -1.4010 H     1 <1>   0.0800 
 36 H        4.0930     2.1200    -2.3760 H     1 <1>   0.0800 
 37 H        0.1230     1.5620     1.5150 H     1 <1>   0.0800 
 38 H       -0.0870     2.4070     0.0060 H     1 <1>   0.0800 
 39 H        4.5600     2.0930     0.4800 H     1 <1>   0.4500 
 40 H       -1.6480    -0.0410     0.8710 H     1 <1>   0.0800 
 41 H       -1.8630     0.8010    -0.6490 H     1 <1>   0.0800 
 42 H       -2.2440     1.6000     0.8570 H     1 <1>   0.0800 
 43 H        6.8870     1.8130     0.2790 H     1 <1>   0.0800 
 44 H        6.7700     2.0240    -1.4550 H     1 <1>   0.0800 
 45 H        5.3790     3.7620     1.5970 H     1 <1>   0.1500 
 46 H        7.3550     4.1850    -2.1830 H     1 <1>   0.1500 
 47 H        5.4120     6.1840     1.8630 H     1 <1>   0.1500 
 48 H        7.3690     6.6120    -1.8820 H     1 <1>   0.1500 
 49 H        5.2270    12.0740    -0.2640 H     1 <1>   0.4000 
 50 H        6.7500    10.6870     2.5340 H     1 <1>   0.0800 
 51 H        5.0480    10.5990     2.1780 H     1 <1>   0.0800 
 52 H        5.9150    12.1130     1.9780 H     1 <1>   0.0800 
 53 H        8.4220    10.9550     0.5280 H     1 <1>   0.0800 
 54 H        7.5360    12.3740     0.0370 H     1 <1>   0.0800 
 55 H        7.7640    11.0410    -1.0820 H     1 <1>   0.0800 
@<TRIPOS>BOND
  1   1   2  ar  
  2   2   3  ar  
  3   2   4  1   
  4   4   5  1   
  5   4   6  1   
  6   4   7  1   
  7   5   8  1   
  8   5   9  1   
  9   5  27  1   
 10   6  10  1   
 11   6  28  1   
 12   6  29  1   
 13   7  11  1   
 14   7  30  1   
 15   7  31  1   
 16   8  32  1   
 17   9  12  1   
 18   9  33  1   
 19   9  34  1   
 20  10  12  1   
 21  10  35  1   
 22  10  36  1   
 23  11  13  1   
 24  11  37  1   
 25  11  38  1   
 26  12  14  1   
 27  12  39  1   
 28  13  40  1   
 29  13  41  1   
 30  13  42  1   
 31  14  15  1   
 32  14  43  1   
 33  14  44  1   
 34  15  16  ar  
 35  15  17  ar  
 36  16  18  ar  
 37  16  45  1   
 38  17  19  ar  
 39  17  46  1   
 40  18  20  ar  
 41  18  47  1   
 42  19  20  ar  
 43  19  48  1   
 44  20  21  1   
 45  21  22  3   
 46  22  23  1   
 47  23  24  1   
 48  23  25  1   
 49  23  26  1   
 50  24  49  1   
 51  25  50  1   
 52  25  51  1   
 53  25  52  1   
 54  26  53  1   
 55  26  54  1   
 56  26  55  1   
@<TRIPOS>SUBSTRUCTURE
  1 ****  16 GROUP 4 **** **** 0

# MOE 2024.06 (io_trps.svl 2023.06)
