@<TRIPOS>MOLECULE
NONAME
56 59 1 0 0 
SMALL
USER_CHARGES


@<TRIPOS>ATOM
  1 O       -1.1720     1.5750     2.4030 O.2   1 <1>  -0.5700 
  2 C       -1.9460     1.7530     1.4800 C.2   1 <1>   0.5440 
  3 N       -3.1320     1.0470     1.4480 N.am  1 <1>  -0.6600 
  4 C       -1.5910     2.6930     0.4430 C.ar  1 <1>   0.0860 
  5 C       -3.4560    -0.0130     2.4400 C.3   1 <1>   0.1400 
  6 C       -4.1500     1.1800     0.3710 C.3   1 <1>   0.1400 
  7 C       -1.1150     2.2710    -0.8050 C.ar  1 <1>   0.0830 
  8 C       -1.7240     4.0650     0.6560 C.ar  1 <1>  -0.1500 
  9 C       -3.5450    -1.3570     1.7140 C.3   1 <1>  -0.1600 
 10 C       -4.2500    -0.1460    -0.3850 C.3   1 <1>  -0.1600 
 11 O       -0.9510     0.9620    -1.0830 O.3   1 <1>  -0.3620 
 12 C       -0.8190     3.1870    -1.8010 C.ar  1 <1>  -0.1500 
 13 C       -1.4210     4.9800    -0.3350 C.ar  1 <1>  -0.1500 
 14 C       -4.5580    -1.3220     0.5580 C.3   1 <1>   0.4240 
 15 C        0.1470     0.3000    -0.4890 C.3   1 <1>   0.2580 
 16 C       -0.9700     4.5410    -1.5690 C.ar  1 <1>  -0.1500 
 17 O       -5.8040    -1.0770     1.1680 O.3   1 <1>  -0.5600 
 18 C       -4.5450    -2.6660    -0.2040 C.ar  1 <1>  -0.1430 
 19 C        1.3200     0.3730    -1.4490 C.2   1 <1>  -0.2880 
 20 C       -6.9500    -1.4490     0.4670 C.3   1 <1>   0.1200 
 21 C       -5.6900    -3.4500    -0.3040 C.ar  1 <1>  -0.1430 
 22 C       -3.3790    -3.1170    -0.8140 C.ar  1 <1>  -0.1500 
 23 C        2.5050     0.9300    -1.1790 C.2   1 <1>  -0.3000 
 24 C       -6.9760    -2.9690     0.3380 C.3   1 <1>  -0.0170 
 25 C       -5.6660    -4.6570    -0.9840 C.ar  1 <1>  -0.1500 
 26 C       -3.3540    -4.3190    -1.4960 C.ar  1 <1>  -0.1500 
 27 C       -4.4920    -5.1000    -1.5850 C.ar  1 <1>   0.0830 
 28 O       -4.3830    -6.2670    -2.2670 O.3   1 <1>  -0.3630 
 29 C       -5.4780    -7.1440    -2.4000 C.3   1 <1>   0.0400 
 30 H       -4.3970     0.2180     2.9100 H     1 <1>   0.0800 
 31 H       -2.7050    -0.0650     3.2090 H     1 <1>   0.0800 
 32 H       -3.8930     1.9700    -0.3130 H     1 <1>   0.0800 
 33 H       -5.1000     1.4210     0.8160 H     1 <1>   0.0800 
 34 H       -2.0730     4.4060     1.6150 H     1 <1>   0.1500 
 35 H       -3.8280    -2.1280     2.4060 H     1 <1>   0.0800 
 36 H       -2.5670    -1.5980     1.3440 H     1 <1>   0.0800 
 37 H       -3.3140    -0.3180    -0.8810 H     1 <1>   0.0800 
 38 H       -4.9990    -0.0780    -1.1500 H     1 <1>   0.0800 
 39 H       -0.4650     2.8320    -2.7520 H     1 <1>   0.1500 
 40 H       -1.5330     6.0350    -0.1490 H     1 <1>   0.1500 
 41 H       -0.1400    -0.7220    -0.3180 H     1 <1>   0.0800 
 42 H        0.3850     0.7620     0.4530 H     1 <1>   0.0800 
 43 H       -0.7360     5.2520    -2.3430 H     1 <1>   0.1500 
 44 H        1.0920    -0.0800    -2.3990 H     1 <1>   0.1500 
 45 H       -6.9430    -0.9780    -0.5010 H     1 <1>   0.0800 
 46 H       -7.8030    -1.1030     1.0220 H     1 <1>   0.0800 
 47 H       -2.4770    -2.5340    -0.7660 H     1 <1>   0.1500 
 48 H        3.3230     0.9710    -1.8780 H     1 <1>   0.1500 
 49 H        2.7560     1.3930    -0.2400 H     1 <1>   0.1500 
 50 H       -7.8220    -3.2580    -0.2590 H     1 <1>   0.0800 
 51 H       -7.0820    -3.4090     1.3140 H     1 <1>   0.0800 
 52 H       -6.5640    -5.2410    -1.0380 H     1 <1>   0.1500 
 53 H       -2.4490    -4.6620    -1.9640 H     1 <1>   0.1500 
 54 H       -5.1550    -7.9980    -2.9670 H     1 <1>   0.0800 
 55 H       -6.2700    -6.6370    -2.9210 H     1 <1>   0.0800 
 56 H       -5.7970    -7.4550    -1.4200 H     1 <1>   0.0800 
@<TRIPOS>BOND
  1   1   2  2   
  2   2   3  am  
  3   2   4  1   
  4   3   5  1   
  5   3   6  1   
  6   4   7  ar  
  7   4   8  ar  
  8   5   9  1   
  9   5  30  1   
 10   5  31  1   
 11   6  10  1   
 12   6  32  1   
 13   6  33  1   
 14   7  11  1   
 15   7  12  ar  
 16   8  13  ar  
 17   8  34  1   
 18   9  14  1   
 19   9  35  1   
 20   9  36  1   
 21  10  14  1   
 22  10  37  1   
 23  10  38  1   
 24  11  15  1   
 25  12  16  ar  
 26  12  39  1   
 27  13  16  ar  
 28  13  40  1   
 29  14  17  1   
 30  14  18  1   
 31  15  19  1   
 32  15  41  1   
 33  15  42  1   
 34  16  43  1   
 35  17  20  1   
 36  18  21  ar  
 37  18  22  ar  
 38  19  23  2   
 39  19  44  1   
 40  20  24  1   
 41  20  45  1   
 42  20  46  1   
 43  21  24  1   
 44  21  25  ar  
 45  22  26  ar  
 46  22  47  1   
 47  23  48  1   
 48  23  49  1   
 49  24  50  1   
 50  24  51  1   
 51  25  27  ar  
 52  25  52  1   
 53  26  27  ar  
 54  26  53  1   
 55  27  28  1   
 56  28  29  1   
 57  29  54  1   
 58  29  55  1   
 59  29  56  1   
@<TRIPOS>SUBSTRUCTURE
  1 ****  10 GROUP 4 **** **** 0

# MOE 2024.06 (io_trps.svl 2023.06)
