@<TRIPOS>MOLECULE
NONAME
53 55 1 0 0 
SMALL
USER_CHARGES


@<TRIPOS>ATOM
  1 O       -0.1490     0.2680     0.5420 O.2   1 <1>  -0.5700 
  2 C       -0.1000     1.4820     0.4720 C.2   1 <1>   0.5440 
  3 N       -1.2800     2.1960     0.5050 N.am  1 <1>  -0.6600 
  4 C        1.1850     2.1410     0.3500 C.ar  1 <1>   0.0860 
  5 C       -1.3750     3.6120     0.0390 C.3   1 <1>   0.1400 
  6 C       -2.5570     1.5120     0.8620 C.3   1 <1>   0.1400 
  7 C        2.0850     1.7790    -0.6480 C.ar  1 <1>  -0.1500 
  8 C        1.5700     3.1570     1.2230 C.ar  1 <1>  -0.1500 
  9 C       -2.7110     3.8240    -0.6690 C.3   1 <1>  -0.1600 
 10 C       -3.5910     2.5310     1.3470 C.3   1 <1>  -0.1600 
 11 C        3.3100     2.4040    -0.7930 C.ar  1 <1>   0.0820 
 12 C        2.7860     3.8010     1.0920 C.ar  1 <1>  -0.1500 
 13 C       -3.9020     3.6260     0.2970 C.3   1 <1>   0.2800 
 14 O        4.0840     1.9450    -1.8140 O.3   1 <1>  -0.3630 
 15 C        3.6720     3.4440     0.0780 C.ar  1 <1>   0.0820 
 16 O       -4.0540     4.7880     1.0630 O.3   1 <1>  -0.5600 
 17 C       -5.2180     3.3150    -0.4840 C.3   1 <1>  -0.1600 
 18 C        5.4680     1.7530    -1.6150 C.3   1 <1>   0.0400 
 19 O        4.8580     4.0890    -0.0940 O.3   1 <1>  -0.3630 
 20 C       -4.6100     5.9260     0.4620 C.3   1 <1>   0.1200 
 21 C       -6.4610     4.2130    -0.0390 C.3   1 <1>   0.2800 
 22 C        5.2390     5.2000     0.6870 C.3   1 <1>   0.0400 
 23 C       -5.6850     5.5330    -0.5530 C.3   1 <1>   0.2000 
 24 O       -7.5460     4.9690     0.4190 O.3   1 <1>  -0.6800 
 25 C       -7.2740     2.9370     0.4230 C.3   1 <1>  -0.2400 
 26 O       -6.4510     6.6720    -0.8330 O.3   1 <1>  -0.6800 
 27 H       -1.3010     4.2740     0.8850 H     1 <1>   0.0800 
 28 H       -0.5710     3.8310    -0.6440 H     1 <1>   0.0800 
 29 H       -2.9260     0.9850    -0.0010 H     1 <1>   0.0800 
 30 H       -2.3690     0.7900     1.6400 H     1 <1>   0.0800 
 31 H        1.8210     0.9860    -1.3240 H     1 <1>   0.1500 
 32 H        0.8980     3.4390     2.0150 H     1 <1>   0.1500 
 33 H       -2.7640     3.1080    -1.4710 H     1 <1>   0.0800 
 34 H       -2.7350     4.7980    -1.1180 H     1 <1>   0.0800 
 35 H       -3.1880     2.9840     2.2370 H     1 <1>   0.0800 
 36 H       -4.4840     2.0140     1.6410 H     1 <1>   0.0800 
 37 H        3.0240     4.5780     1.7920 H     1 <1>   0.1500 
 38 H       -5.0570     3.4200    -1.5430 H     1 <1>   0.0800 
 39 H       -5.3210     2.2430    -0.4350 H     1 <1>   0.0800 
 40 H        5.8100     1.0240    -2.3270 H     1 <1>   0.0800 
 41 H        5.6350     1.3990    -0.6130 H     1 <1>   0.0800 
 42 H        5.9750     2.6860    -1.7800 H     1 <1>   0.0800 
 43 H       -5.0420     6.5170     1.2500 H     1 <1>   0.0800 
 44 H       -3.8250     6.4870    -0.0130 H     1 <1>   0.0800 
 45 H        6.1920     5.5470     0.3310 H     1 <1>   0.0800 
 46 H        5.3240     4.8930     1.7140 H     1 <1>   0.0800 
 47 H        4.5030     5.9760     0.5740 H     1 <1>   0.0800 
 48 H       -5.1800     5.3770    -1.4890 H     1 <1>   0.0800 
 49 H       -7.6260     4.8410     1.3840 H     1 <1>   0.4000 
 50 H       -7.4120     2.2690    -0.4120 H     1 <1>   0.0800 
 51 H       -8.2820     3.0360     0.8120 H     1 <1>   0.0800 
 52 H       -6.7420     2.4130     1.1990 H     1 <1>   0.0800 
 53 H       -7.3300     6.4680    -0.4330 H     1 <1>   0.4000 
@<TRIPOS>BOND
  1   1   2  2   
  2   2   3  am  
  3   2   4  1   
  4   3   5  1   
  5   3   6  1   
  6   4   7  ar  
  7   4   8  ar  
  8   5   9  1   
  9   5  27  1   
 10   5  28  1   
 11   6  10  1   
 12   6  29  1   
 13   6  30  1   
 14   7  11  ar  
 15   7  31  1   
 16   8  12  ar  
 17   8  32  1   
 18   9  13  1   
 19   9  33  1   
 20   9  34  1   
 21  10  13  1   
 22  10  35  1   
 23  10  36  1   
 24  11  14  1   
 25  11  15  ar  
 26  12  15  ar  
 27  12  37  1   
 28  13  16  1   
 29  13  17  1   
 30  14  18  1   
 31  15  19  1   
 32  16  20  1   
 33  17  21  1   
 34  17  38  1   
 35  17  39  1   
 36  18  40  1   
 37  18  41  1   
 38  18  42  1   
 39  19  22  1   
 40  20  23  1   
 41  20  43  1   
 42  20  44  1   
 43  21  23  1   
 44  21  24  1   
 45  21  25  1   
 46  22  45  1   
 47  22  46  1   
 48  22  47  1   
 49  23  26  1   
 50  23  48  1   
 51  24  49  1   
 52  25  50  1   
 53  25  51  1   
 54  25  52  1   
 55  26  53  1   
@<TRIPOS>SUBSTRUCTURE
  1 ****   5 GROUP 4 **** **** 0

# MOE 2024.06 (io_trps.svl 2023.06)
