@<TRIPOS>MOLECULE
NONAME
45 47 1 0 0 
SMALL
USER_CHARGES


@<TRIPOS>ATOM
  1 F        0.1660    -1.0120    -0.6000 F     1 <1>  -0.1900 
  2 C       -0.6600    -1.9660    -0.2500 C.ar  1 <1>   0.1900 
  3 C       -0.3060    -2.9500     0.6800 C.ar  1 <1>   0.0820 
  4 C       -1.9060    -1.9490    -0.8450 C.ar  1 <1>  -0.1500 
  5 O        0.8870    -3.0730     1.3320 O.3   1 <1>  -0.3630 
  6 C       -1.2530    -3.9150     0.9850 C.ar  1 <1>  -0.1500 
  7 C       -2.8260    -2.9260    -0.5150 C.ar  1 <1>  -0.1500 
  8 C        1.9810    -2.2140     1.1010 C.3   1 <1>   0.0400 
  9 C       -2.5240    -3.9330     0.4040 C.ar  1 <1>   0.0530 
 10 C       -3.4800    -4.9590     0.7520 C.2   1 <1>   0.0870 
 11 O       -3.3680    -5.6100     1.8880 O.3   1 <1>  -0.0190 
 12 C       -4.5710    -5.4650     0.1250 C.2   1 <1>  -0.2330 
 13 N       -4.3080    -6.5040     2.0590 N.2   1 <1>  -0.4100 
 14 C       -5.0460    -6.4320     1.0080 C.2   1 <1>   0.3720 
 15 C       -5.1610    -5.1540    -1.1340 C.2   1 <1>   1.0330 
 16 N       -6.1750    -7.2350     0.8190 N.pl3 1 <1>  -0.8210 
 17 O       -4.9410    -5.8600    -2.1340 O.co2 1 <1>  -0.9000 
 18 O       -5.9090    -4.1670    -1.2490 O.co2 1 <1>  -0.9000 
 19 C       -6.0280    -8.1640    -0.3410 C.3   1 <1>   0.2090 
 20 C       -7.4310    -6.4380     0.7540 C.3   1 <1>   0.1290 
 21 C       -6.3050    -9.6100     0.0940 C.3   1 <1>  -0.0800 
 22 C       -6.1140   -10.6160    -1.0400 C.3   1 <1>  -0.1600 
 23 C       -7.7360    -9.8750     0.5600 C.3   1 <1>  -0.1600 
 24 C       -6.8930   -11.8590    -0.6080 C.3   1 <1>  -0.1600 
 25 C       -7.9290   -11.3860     0.4200 C.3   1 <1>  -0.1600 
 26 H       -2.1560    -1.1840    -1.5570 H     1 <1>   0.1500 
 27 H       -0.9920    -4.6780     1.6950 H     1 <1>   0.1500 
 28 H       -3.7980    -2.9000    -0.9790 H     1 <1>   0.1500 
 29 H        2.8000    -2.5420     1.7150 H     1 <1>   0.0800 
 30 H        1.7020    -1.2110     1.3730 H     1 <1>   0.0800 
 31 H        2.2570    -2.2700     0.0630 H     1 <1>   0.0800 
 32 H       -5.0230    -8.1080    -0.7270 H     1 <1>   0.0800 
 33 H       -6.6910    -7.8780    -1.1400 H     1 <1>   0.0800 
 34 H       -7.3840    -5.6250     1.4570 H     1 <1>   0.0800 
 35 H       -8.2710    -7.0610     1.0020 H     1 <1>   0.0800 
 36 H       -7.5710    -6.0280    -0.2320 H     1 <1>   0.0800 
 37 H       -5.6260    -9.8620     0.8900 H     1 <1>   0.0800 
 38 H       -5.0730   -10.8290    -1.2130 H     1 <1>   0.0800 
 39 H       -6.5460   -10.2240    -1.9460 H     1 <1>   0.0800 
 40 H       -8.4250    -9.3650    -0.0900 H     1 <1>   0.0800 
 41 H       -7.8880    -9.5370     1.5710 H     1 <1>   0.0800 
 42 H       -6.2240   -12.5640    -0.1440 H     1 <1>   0.0800 
 43 H       -7.3640   -12.3290    -1.4540 H     1 <1>   0.0800 
 44 H       -8.9320   -11.6170     0.1060 H     1 <1>   0.0800 
 45 H       -7.7400   -11.8630     1.3660 H     1 <1>   0.0800 
@<TRIPOS>BOND
  1   1   2  1   
  2   2   3  ar  
  3   2   4  ar  
  4   3   5  1   
  5   3   6  ar  
  6   4   7  ar  
  7   4  26  1   
  8   5   8  1   
  9   6   9  ar  
 10   6  27  1   
 11   7   9  ar  
 12   7  28  1   
 13   8  29  1   
 14   8  30  1   
 15   8  31  1   
 16   9  10  1   
 17  10  11  1   
 18  10  12  2   
 19  11  13  1   
 20  12  14  1   
 21  12  15  1   
 22  13  14  2   
 23  14  16  1   
 24  15  17  ar  
 25  15  18  ar  
 26  16  19  1   
 27  16  20  1   
 28  19  21  1   
 29  19  32  1   
 30  19  33  1   
 31  20  34  1   
 32  20  35  1   
 33  20  36  1   
 34  21  22  1   
 35  21  23  1   
 36  21  37  1   
 37  22  24  1   
 38  22  38  1   
 39  22  39  1   
 40  23  25  1   
 41  23  40  1   
 42  23  41  1   
 43  24  25  1   
 44  24  42  1   
 45  24  43  1   
 46  25  44  1   
 47  25  45  1   
@<TRIPOS>SUBSTRUCTURE
  1 ****  12 GROUP 4 **** **** 0

# MOE 2024.06 (io_trps.svl 2023.06)
