@<TRIPOS>MOLECULE
NONAME
46 47 1 0 0 
SMALL
USER_CHARGES


@<TRIPOS>ATOM
  1 O        3.9630    -1.3050    -1.7980 O.2   1 <1>  -0.5700 
  2 C        2.8410    -1.4570    -1.3710 C.2   1 <1>   0.5690 
  3 N        2.1020    -0.4640    -0.8070 N.am  1 <1>  -0.4930 
  4 C        2.1870    -2.8370    -1.4650 C.3   1 <1>   0.1710 
  5 C        2.4250     0.8950    -0.5780 C.2   1 <1>   0.0630 
  6 N        1.0120    -3.0110    -0.5570 N.3   1 <1>  -0.8100 
  7 C        3.5860     1.5930    -0.9080 C.2   1 <1>   0.1390 
  8 C        1.6420     1.8100     0.0280 C.2   1 <1>  -0.3020 
  9 C        0.1630    -4.1300    -1.0110 C.3   1 <1>   0.2530 
 10 C        1.4490    -3.2130     0.8380 C.3   1 <1>   0.0300 
 11 N        3.5350     2.8400    -0.5400 N.2   1 <1>  -0.7070 
 12 N        2.3270     2.9770     0.0420 N.pl3 1 <1>   0.3140 
 13 C       -1.1250    -4.2080    -0.2020 C.ar  1 <1>  -0.1430 
 14 C        1.8770     4.2790     0.6070 C.3   1 <1>   0.1760 
 15 C       -2.0200    -3.1500    -0.2110 C.ar  1 <1>  -0.1500 
 16 C       -1.4220    -5.3360     0.5470 C.ar  1 <1>  -0.1500 
 17 C        1.6280     4.1600     2.1170 C.3   1 <1>  -0.2400 
 18 C        0.6230     4.7830    -0.1200 C.3   1 <1>  -0.2400 
 19 C       -3.1940    -3.2160     0.5170 C.ar  1 <1>  -0.1500 
 20 C       -2.5980    -5.4030     1.2760 C.ar  1 <1>  -0.1500 
 21 C       -3.4890    -4.3430     1.2660 C.ar  1 <1>  -0.1430 
 22 C       -4.7780    -4.4180     2.0640 C.3   1 <1>  -0.0970 
 23 H        1.1960    -0.7940    -0.4610 H     1 <1>   0.3700 
 24 H        2.9290    -3.5880    -1.2590 H     1 <1>   0.0800 
 25 H        1.8720    -2.9560    -2.4860 H     1 <1>   0.0800 
 26 H        4.4300     1.1530    -1.4110 H     1 <1>   0.1500 
 27 H        0.6590     1.7010     0.4420 H     1 <1>   0.1500 
 28 H        0.7070    -5.0560    -0.9350 H     1 <1>   0.0800 
 29 H       -0.1010    -3.9820    -2.0440 H     1 <1>   0.0800 
 30 H        2.0890    -2.4080     1.1550 H     1 <1>   0.0800 
 31 H        1.9850    -4.1420     0.9370 H     1 <1>   0.0800 
 32 H        0.5950    -3.2350     1.4950 H     1 <1>   0.0800 
 33 H        2.6740     4.9840     0.4450 H     1 <1>   0.0800 
 34 H       -1.7960    -2.2690    -0.7860 H     1 <1>   0.1500 
 35 H       -0.7420    -6.1690     0.5690 H     1 <1>   0.1500 
 36 H        0.8260     3.4740     2.3210 H     1 <1>   0.0800 
 37 H        1.3690     5.1210     2.5230 H     1 <1>   0.0800 
 38 H        2.5220     3.8160     2.6080 H     1 <1>   0.0800 
 39 H       -0.2040     4.1110     0.0310 H     1 <1>   0.0800 
 40 H        0.8220     4.8680    -1.1740 H     1 <1>   0.0800 
 41 H        0.3480     5.7530     0.2510 H     1 <1>   0.0800 
 42 H       -3.8780    -2.3860     0.4980 H     1 <1>   0.1500 
 43 H       -2.8150    -6.2860     1.8520 H     1 <1>   0.1500 
 44 H       -5.0790    -3.4370     2.3850 H     1 <1>   0.0800 
 45 H       -4.6460    -5.0340     2.9350 H     1 <1>   0.0800 
 46 H       -5.5580    -4.8390     1.4550 H     1 <1>   0.0800 
@<TRIPOS>BOND
  1   1   2  2   
  2   2   3  am  
  3   2   4  1   
  4   3   5  1   
  5   3  23  1   
  6   4   6  1   
  7   4  24  1   
  8   4  25  1   
  9   5   7  1   
 10   5   8  2   
 11   6   9  1   
 12   6  10  1   
 13   7  11  2   
 14   7  26  1   
 15   8  12  1   
 16   8  27  1   
 17   9  13  1   
 18   9  28  1   
 19   9  29  1   
 20  10  30  1   
 21  10  31  1   
 22  10  32  1   
 23  11  12  1   
 24  12  14  1   
 25  13  15  ar  
 26  13  16  ar  
 27  14  17  1   
 28  14  18  1   
 29  14  33  1   
 30  15  19  ar  
 31  15  34  1   
 32  16  20  ar  
 33  16  35  1   
 34  17  36  1   
 35  17  37  1   
 36  17  38  1   
 37  18  39  1   
 38  18  40  1   
 39  18  41  1   
 40  19  21  ar  
 41  19  42  1   
 42  20  21  ar  
 43  20  43  1   
 44  21  22  1   
 45  22  44  1   
 46  22  45  1   
 47  22  46  1   
@<TRIPOS>SUBSTRUCTURE
  1 ****   3 GROUP 4 **** **** 0

# MOE 2024.06 (io_trps.svl 2023.06)
