@<TRIPOS>MOLECULE
NONAME
33 34 1 0 0 
SMALL
USER_CHARGES


@<TRIPOS>ATOM
  1 N       -0.3940    -0.2770    -0.2530 N.ar  1 <1>  -0.6200 
  2 C       -1.3870    -1.0950     0.0540 C.ar  1 <1>   0.4100 
  3 C        0.7870    -0.8810    -0.2240 C.ar  1 <1>   0.1600 
  4 N       -2.6730    -0.5280     0.0680 N.pl3 1 <1>  -0.8380 
  5 C       -1.1870    -2.4810     0.3690 C.ar  1 <1>   0.4100 
  6 C        0.9760    -2.2150     0.0850 C.ar  1 <1>   0.1600 
  7 C       -3.2410    -0.2640     1.4160 C.3   1 <1>   0.1290 
  8 C       -2.9760     0.5380    -0.9260 C.3   1 <1>   0.1290 
  9 N        0.0000    -3.0620     0.3890 N.ar  1 <1>  -0.6200 
 10 N       -2.2780    -3.2860     0.6700 N.pl3 1 <1>  -0.8690 
 11 C       -2.2880    -4.7050     0.2710 C.3   1 <1>   0.2090 
 12 C       -3.7330    -5.1930     0.2230 C.3   1 <1>  -0.1600 
 13 C       -3.8060    -6.6770    -0.1670 C.3   1 <1>   0.0080 
 14 C       -5.2370    -7.1590    -0.2450 C.2   1 <1>   0.5700 
 15 N       -5.8700    -7.6550     0.7550 N.2   1 <1>  -0.6190 
 16 N       -5.9400    -7.1140    -1.3230 N.2   1 <1>  -0.6190 
 17 N       -7.0400    -7.9430     0.2970 N.2   1 <1>  -0.2500 
 18 N       -7.0820    -7.6140    -0.9650 N.2   1 <1>  -0.2500 
 19 H        1.6440    -0.2760    -0.4580 H     1 <1>   0.1500 
 20 H        1.9760    -2.6110     0.0840 H     1 <1>   0.1500 
 21 H       -2.9000    -1.0060     2.1180 H     1 <1>   0.0800 
 22 H       -4.3150    -0.2970     1.3720 H     1 <1>   0.0800 
 23 H       -2.9270     0.7060     1.7610 H     1 <1>   0.0800 
 24 H       -2.5320     0.2880    -1.8740 H     1 <1>   0.0800 
 25 H       -2.5730     1.4780    -0.5910 H     1 <1>   0.0800 
 26 H       -4.0410     0.6280    -1.0540 H     1 <1>   0.0800 
 27 H       -3.1400    -2.7930     0.4080 H     1 <1>   0.4000 
 28 H       -1.7230    -5.2740     0.9900 H     1 <1>   0.0800 
 29 H       -1.8260    -4.8130    -0.6960 H     1 <1>   0.0800 
 30 H       -4.2870    -4.6200    -0.4990 H     1 <1>   0.0800 
 31 H       -4.1910    -5.0670     1.1880 H     1 <1>   0.0800 
 32 H       -3.2910    -7.2780     0.5580 H     1 <1>   0.0800 
 33 H       -3.3520    -6.8330    -1.1270 H     1 <1>   0.0800 
@<TRIPOS>BOND
  1   1   2  ar  
  2   1   3  ar  
  3   2   4  1   
  4   2   5  ar  
  5   3   6  ar  
  6   3  19  1   
  7   4   7  1   
  8   4   8  1   
  9   5   9  ar  
 10   5  10  1   
 11   6   9  ar  
 12   6  20  1   
 13   7  21  1   
 14   7  22  1   
 15   7  23  1   
 16   8  24  1   
 17   8  25  1   
 18   8  26  1   
 19  10  11  1   
 20  10  27  1   
 21  11  12  1   
 22  11  28  1   
 23  11  29  1   
 24  12  13  1   
 25  12  30  1   
 26  12  31  1   
 27  13  14  1   
 28  13  32  1   
 29  13  33  1   
 30  14  15  1   
 31  14  16  2   
 32  15  17  1   
 33  16  18  1   
 34  17  18  2   
@<TRIPOS>SUBSTRUCTURE
  1 ****  10 GROUP 4 **** **** 0

# MOE 2024.06 (io_trps.svl 2023.06)
