@<TRIPOS>MOLECULE
NONAME
27 27 1 0 0 
SMALL
USER_CHARGES


@<TRIPOS>ATOM
  1 O       -0.2220    -0.1820     0.6210 O.2   1 <1>  -0.5700 
  2 C       -1.2240    -0.8040     0.3370 C.2   1 <1>   0.6340 
  3 O       -2.3660    -0.1360     0.1510 O.3   1 <1>  -0.4300 
  4 C       -1.2440    -2.2430     0.1870 C.ar  1 <1>   0.0860 
  5 C       -2.4370     1.2710     0.2780 C.3   1 <1>   0.0400 
  6 C       -2.4120    -2.9280    -0.1440 C.ar  1 <1>   0.1600 
  7 C       -0.1040    -3.0150     0.3660 C.ar  1 <1>  -0.1500 
  8 N       -2.5270    -4.2370    -0.3030 N.ar  1 <1>  -0.6200 
  9 C       -0.2050    -4.3790     0.2060 C.ar  1 <1>  -0.1500 
 10 C       -1.4220    -4.9590    -0.1300 C.ar  1 <1>   0.1670 
 11 C       -1.5100    -6.4990    -0.2960 C.3   1 <1>   0.4240 
 12 O       -0.3760    -6.9580    -0.9360 O.3   1 <1>  -0.6800 
 13 C       -2.6830    -6.9590    -1.1680 C.3   1 <1>  -0.2400 
 14 C       -1.5520    -7.1920     1.0640 C.3   1 <1>  -0.2400 
 15 H       -3.4490     1.5820     0.0850 H     1 <1>   0.0800 
 16 H       -1.7690     1.7200    -0.4370 H     1 <1>   0.0800 
 17 H       -2.1490     1.5460     1.2780 H     1 <1>   0.0800 
 18 H       -3.3130    -2.3560    -0.2880 H     1 <1>   0.1500 
 19 H        0.8340    -2.5540     0.6260 H     1 <1>   0.1500 
 20 H        0.6650    -4.9970     0.3460 H     1 <1>   0.1500 
 21 H       -0.3450    -6.5550    -1.8230 H     1 <1>   0.4000 
 22 H       -2.6570    -6.4650    -2.1220 H     1 <1>   0.0800 
 23 H       -3.6120    -6.7080    -0.6890 H     1 <1>   0.0800 
 24 H       -2.6540    -8.0240    -1.3120 H     1 <1>   0.0800 
 25 H       -0.6880    -6.9270     1.6450 H     1 <1>   0.0800 
 26 H       -1.5840    -8.2600     0.9420 H     1 <1>   0.0800 
 27 H       -2.4300    -6.8800     1.6000 H     1 <1>   0.0800 
@<TRIPOS>BOND
  1   1   2  2   
  2   2   3  1   
  3   2   4  1   
  4   3   5  1   
  5   4   6  ar  
  6   4   7  ar  
  7   5  15  1   
  8   5  16  1   
  9   5  17  1   
 10   6   8  ar  
 11   6  18  1   
 12   7   9  ar  
 13   7  19  1   
 14   8  10  ar  
 15   9  10  ar  
 16   9  20  1   
 17  10  11  1   
 18  11  12  1   
 19  11  13  1   
 20  11  14  1   
 21  12  21  1   
 22  13  22  1   
 23  13  23  1   
 24  13  24  1   
 25  14  25  1   
 26  14  26  1   
 27  14  27  1   
@<TRIPOS>SUBSTRUCTURE
  1 ****   6 GROUP 4 **** **** 0

# MOE 2024.06 (io_trps.svl 2023.06)
