@<TRIPOS>MOLECULE
NONAME
38 41 1 0 0 
SMALL
USER_CHARGES


@<TRIPOS>ATOM
  1 S        1.7610    -1.2280     2.1700 S.3   1 <1>  -0.0800 
  2 C        1.4870    -1.4230     0.4290 C.ar  1 <1>   0.0400 
  3 C        2.4810     0.3630     1.9180 C.2   1 <1>  -0.1100 
  4 C        0.9200    -2.4800    -0.2600 C.ar  1 <1>   0.4100 
  5 C        1.9340    -0.3210    -0.2490 C.ar  1 <1>   0.2560 
  6 C        2.4930     0.6800     0.6100 C.2   1 <1>  -0.1500 
  7 N        0.8130    -2.4160    -1.5730 N.ar  1 <1>  -0.6200 
  8 N        0.4600    -3.5990     0.3890 N.pl3 1 <1>  -0.8690 
  9 N        1.8310    -0.2480    -1.5720 N.ar  1 <1>  -0.5660 
 10 C        1.2760    -1.3030    -2.1400 C.ar  1 <1>   0.4700 
 11 C        0.0350    -4.8610    -0.2670 C.3   1 <1>   0.2890 
 12 C       -1.3550    -5.2240     0.2240 C.3   1 <1>  -0.0800 
 13 C        0.8750    -6.0260     0.2560 C.3   1 <1>   0.1200 
 14 C       -1.0400    -5.9420     1.5370 C.3   1 <1>   0.1200 
 15 C       -2.0900    -6.1350    -0.7780 C.3   1 <1>  -0.0160 
 16 O        0.2080    -6.5470     1.3710 O.3   1 <1>  -0.5600 
 17 C       -3.4780    -6.5090    -0.2820 C.ar  1 <1>  -0.1430 
 18 C       -4.5250    -5.6090    -0.3020 C.ar  1 <1>  -0.1500 
 19 C       -3.7650    -7.7640     0.2150 C.ar  1 <1>  -0.1500 
 20 C       -5.7700    -5.9960     0.1640 C.ar  1 <1>   0.1600 
 21 C       -5.0460    -8.0500     0.6570 C.ar  1 <1>   0.1600 
 22 N       -6.0560    -7.1960     0.6440 N.ar  1 <1>  -0.6200 
 23 H        2.8200     0.8930     2.7910 H     1 <1>   0.1500 
 24 H        2.8740     1.5890     0.1810 H     1 <1>   0.1500 
 25 H        0.6710    -3.6930     1.3860 H     1 <1>   0.4000 
 26 H        1.1840    -1.2600    -3.2130 H     1 <1>   0.1500 
 27 H        0.0920    -4.7790    -1.3390 H     1 <1>   0.0800 
 28 H       -1.9480    -4.3430     0.3960 H     1 <1>   0.0800 
 29 H        1.8670    -5.7190     0.5390 H     1 <1>   0.0800 
 30 H        0.9330    -6.8080    -0.4790 H     1 <1>   0.0800 
 31 H       -1.7650    -6.6910     1.8020 H     1 <1>   0.0800 
 32 H       -0.9510    -5.2330     2.3420 H     1 <1>   0.0800 
 33 H       -1.5190    -7.0300    -0.9550 H     1 <1>   0.0800 
 34 H       -2.1880    -5.6220    -1.7190 H     1 <1>   0.0800 
 35 H       -4.3830    -4.6110    -0.6760 H     1 <1>   0.1500 
 36 H       -3.0050    -8.5230     0.2640 H     1 <1>   0.1500 
 37 H       -6.5750    -5.2810     0.1400 H     1 <1>   0.1500 
 38 H       -5.2500    -9.0350     1.0410 H     1 <1>   0.1500 
@<TRIPOS>BOND
  1   1   2  1   
  2   1   3  1   
  3   2   4  ar  
  4   2   5  ar  
  5   3   6  2   
  6   3  23  1   
  7   4   7  ar  
  8   4   8  1   
  9   5   6  1   
 10   5   9  ar  
 11   6  24  1   
 12   7  10  ar  
 13   8  11  1   
 14   8  25  1   
 15   9  10  ar  
 16  10  26  1   
 17  11  12  1   
 18  11  13  1   
 19  11  27  1   
 20  12  14  1   
 21  12  15  1   
 22  12  28  1   
 23  13  16  1   
 24  13  29  1   
 25  13  30  1   
 26  14  16  1   
 27  14  31  1   
 28  14  32  1   
 29  15  17  1   
 30  15  33  1   
 31  15  34  1   
 32  17  18  ar  
 33  17  19  ar  
 34  18  20  ar  
 35  18  35  1   
 36  19  21  ar  
 37  19  36  1   
 38  20  22  ar  
 39  20  37  1   
 40  21  22  ar  
 41  21  38  1   
@<TRIPOS>SUBSTRUCTURE
  1 ****  11 GROUP 4 **** **** 0

# MOE 2024.06 (io_trps.svl 2023.06)
