@<TRIPOS>MOLECULE
NONAME
64 67 1 0 0 
SMALL
USER_CHARGES


@<TRIPOS>ATOM
  1 O       -0.9650     1.0450    -1.9460 O.2   1 <1>  -0.5700 
  2 C       -1.9130     1.2940    -1.2380 C.2   1 <1>   0.5690 
  3 N       -3.0770     0.5720    -1.2960 N.am  1 <1>  -0.6600 
  4 C       -1.7770     2.4570    -0.2580 C.3   1 <1>  -0.0990 
  5 C       -4.2960     0.8090    -0.4720 C.3   1 <1>   0.1400 
  6 C       -3.2220    -0.5860    -2.2260 C.3   1 <1>   0.1400 
  7 C       -0.4050     3.1680    -0.3440 C.3   1 <1>  -0.1600 
  8 C       -4.5870    -0.4360     0.3700 C.3   1 <1>  -0.1600 
  9 C       -3.5140    -1.8560    -1.4210 C.3   1 <1>  -0.1600 
 10 C       -0.2610     4.4530     0.4930 C.3   1 <1>   0.4230 
 11 C       -4.7410    -1.6950    -0.5060 C.3   1 <1>   0.4240 
 12 N        1.1370     4.9780     0.3850 N.4   1 <1>  -0.9590 
 13 C       -0.5800     4.1900     1.9700 C.3   1 <1>  -0.2400 
 14 O       -5.7970    -1.4340    -1.4050 O.3   1 <1>  -0.5600 
 15 C       -5.0040    -2.9800     0.3320 C.ar  1 <1>  -0.1440 
 16 C        1.3330     6.2840     1.1190 C.3   1 <1>   0.3430 
 17 C        1.6110     5.1430    -1.0420 C.3   1 <1>   0.3430 
 18 C       -7.0960    -1.6760    -0.9740 C.3   1 <1>   0.1200 
 19 C       -4.0720    -3.4750     1.2540 C.ar  1 <1>   0.0820 
 20 C       -6.2020    -3.6770     0.1750 C.ar  1 <1>  -0.1440 
 21 C        2.7580     6.8430     0.9440 C.3   1 <1>   0.1200 
 22 C        3.0220     5.7550    -1.1230 C.3   1 <1>   0.1200 
 23 C       -7.2580    -3.1750    -0.7870 C.3   1 <1>  -0.0170 
 24 O       -2.9050    -2.8020     1.4410 O.3   1 <1>  -0.3620 
 25 C       -4.3440    -4.6370     1.9740 C.ar  1 <1>  -0.1500 
 26 C       -6.4600    -4.8340     0.8920 C.ar  1 <1>  -0.1500 
 27 O        3.0710     6.9560    -0.4120 O.3   1 <1>  -0.5600 
 28 C       -1.8110    -3.3610     2.1340 C.3   1 <1>   0.0400 
 29 C       -5.5310    -5.3150     1.7910 C.ar  1 <1>  -0.1500 
 30 H       -1.9240     2.0560     0.7280 H     1 <1>   0.0800 
 31 H       -2.5590     3.1630    -0.4700 H     1 <1>   0.0800 
 32 H       -5.1270     1.0080    -1.1280 H     1 <1>   0.0800 
 33 H       -4.1780     1.6570     0.1760 H     1 <1>   0.0800 
 34 H       -2.3260    -0.7290    -2.8060 H     1 <1>   0.0800 
 35 H       -4.0290    -0.3900    -2.9110 H     1 <1>   0.0800 
 36 H       -0.2690     3.4140    -1.3820 H     1 <1>   0.0800 
 37 H        0.3560     2.4610    -0.0620 H     1 <1>   0.0800 
 38 H       -5.4740    -0.2890     0.9550 H     1 <1>   0.0800 
 39 H       -3.7770    -0.5610     1.0600 H     1 <1>   0.0800 
 40 H       -2.6360    -2.0850    -0.8510 H     1 <1>   0.0800 
 41 H       -3.6820    -2.6800    -2.0890 H     1 <1>   0.0800 
 42 H       -0.9500     5.1910     0.1120 H     1 <1>   0.0800 
 43 H        1.7500     4.2810     0.8250 H     1 <1>   0.4500 
 44 H        0.0800     3.4450     2.3790 H     1 <1>   0.0800 
 45 H       -1.5880     3.8340     2.0740 H     1 <1>   0.0800 
 46 H       -0.5240     5.0840     2.5600 H     1 <1>   0.0800 
 47 H        1.1480     6.1520     2.1720 H     1 <1>   0.0800 
 48 H        0.6340     7.0170     0.7500 H     1 <1>   0.0800 
 49 H        0.9320     5.7840    -1.5800 H     1 <1>   0.0800 
 50 H        1.6270     4.1880    -1.5410 H     1 <1>   0.0800 
 51 H       -7.7690    -1.3140    -1.7310 H     1 <1>   0.0800 
 52 H       -7.2750    -1.1460    -0.0550 H     1 <1>   0.0800 
 53 H        3.4880     6.2100     1.4190 H     1 <1>   0.0800 
 54 H        2.8260     7.8260     1.3770 H     1 <1>   0.0800 
 55 H        3.2730     5.9720    -2.1470 H     1 <1>   0.0800 
 56 H        3.7630     5.0830    -0.7240 H     1 <1>   0.0800 
 57 H       -7.1530    -3.6700    -1.7360 H     1 <1>   0.0800 
 58 H       -8.2420    -3.3790    -0.4040 H     1 <1>   0.0800 
 59 H       -3.6470    -5.0310     2.6870 H     1 <1>   0.1500 
 60 H       -7.3860    -5.3640     0.7540 H     1 <1>   0.1500 
 61 H       -0.9770    -2.6900     2.0370 H     1 <1>   0.0800 
 62 H       -1.5680    -4.3120     1.6940 H     1 <1>   0.0800 
 63 H       -2.0730    -3.4700     3.1720 H     1 <1>   0.0800 
 64 H       -5.7340    -6.2140     2.3470 H     1 <1>   0.1500 
@<TRIPOS>BOND
  1   1   2  2   
  2   2   3  am  
  3   2   4  1   
  4   3   5  1   
  5   3   6  1   
  6   4   7  1   
  7   4  30  1   
  8   4  31  1   
  9   5   8  1   
 10   5  32  1   
 11   5  33  1   
 12   6   9  1   
 13   6  34  1   
 14   6  35  1   
 15   7  10  1   
 16   7  36  1   
 17   7  37  1   
 18   8  11  1   
 19   8  38  1   
 20   8  39  1   
 21   9  11  1   
 22   9  40  1   
 23   9  41  1   
 24  10  12  1   
 25  10  13  1   
 26  10  42  1   
 27  11  14  1   
 28  11  15  1   
 29  12  16  1   
 30  12  17  1   
 31  12  43  1   
 32  13  44  1   
 33  13  45  1   
 34  13  46  1   
 35  14  18  1   
 36  15  19  ar  
 37  15  20  ar  
 38  16  21  1   
 39  16  47  1   
 40  16  48  1   
 41  17  22  1   
 42  17  49  1   
 43  17  50  1   
 44  18  23  1   
 45  18  51  1   
 46  18  52  1   
 47  19  24  1   
 48  19  25  ar  
 49  20  23  1   
 50  20  26  ar  
 51  21  27  1   
 52  21  53  1   
 53  21  54  1   
 54  22  27  1   
 55  22  55  1   
 56  22  56  1   
 57  23  57  1   
 58  23  58  1   
 59  24  28  1   
 60  25  29  ar  
 61  25  59  1   
 62  26  29  ar  
 63  26  60  1   
 64  28  61  1   
 65  28  62  1   
 66  28  63  1   
 67  29  64  1   
@<TRIPOS>SUBSTRUCTURE
  1 ****   3 GROUP 4 **** **** 0

# MOE 2024.06 (io_trps.svl 2023.06)
