@<TRIPOS>MOLECULE
NONAME
47 49 1 0 0 
SMALL
USER_CHARGES


@<TRIPOS>ATOM
  1 O        0.8950    -0.0700    -1.3150 O.2   1 <1>  -0.5700 
  2 C        2.0470    -0.0490    -0.9400 C.2   1 <1>   0.7150 
  3 N        2.6640    -1.2590    -0.9290 N.am  1 <1>  -0.7300 
  4 C        2.6510     1.1940    -0.5580 C.2   1 <1>  -0.2370 
  5 C        3.8880    -1.7830    -0.2620 C.3   1 <1>   0.1400 
  6 N        3.9730     1.4340    -0.3930 N.pl3 1 <1>   0.3140 
  7 C        2.0450     2.3830    -0.3070 C.2   1 <1>  -0.1500 
  8 C        4.8130    -0.7310     0.3680 C.3   1 <1>   0.2000 
  9 N        4.2280     2.6990    -0.0470 N.2   1 <1>  -0.7070 
 10 C        5.0760     0.4730    -0.5330 C.3   1 <1>   0.0960 
 11 C        3.0470     3.2950     0.0100 C.2   1 <1>   0.2030 
 12 O        6.0280    -1.3430     0.6520 O.3   1 <1>  -0.6800 
 13 C        2.8260     4.6920     0.3530 C.2   1 <1>   0.7160 
 14 O        1.7120     5.1880     0.3640 O.2   1 <1>  -0.5700 
 15 N        3.9010     5.4720     0.6700 N.am  1 <1>  -0.7300 
 16 C        3.9040     6.9320     0.9300 C.3   1 <1>   0.1400 
 17 C        4.8290     7.7000    -0.0460 C.3   1 <1>   0.0000 
 18 C        6.2820     7.1780     0.0770 C.3   1 <1>  -0.1600 
 19 C        4.7840     9.1970     0.3440 C.3   1 <1>  -0.1600 
 20 C        4.3080     7.5160    -1.4880 C.3   1 <1>  -0.2400 
 21 C        7.3140     8.0440    -0.6630 C.3   1 <1>  -0.1600 
 22 C        5.8180    10.0650    -0.3920 C.3   1 <1>  -0.1600 
 23 C        7.2340     9.5080    -0.2160 C.3   1 <1>  -0.1600 
 24 H        2.0390    -1.9900    -1.2780 H     1 <1>   0.3700 
 25 H        4.4440    -2.3350    -1.0010 H     1 <1>   0.0800 
 26 H        3.5860    -2.4730     0.5080 H     1 <1>   0.0800 
 27 H        0.9920     2.6060    -0.3420 H     1 <1>   0.1500 
 28 H        4.4100    -0.4020     1.3120 H     1 <1>   0.0800 
 29 H        5.9800     0.9670    -0.2280 H     1 <1>   0.0800 
 30 H        5.1540     0.1820    -1.5630 H     1 <1>   0.0800 
 31 H        6.4890    -1.6370    -0.1590 H     1 <1>   0.4000 
 32 H        4.8100     5.0070     0.6100 H     1 <1>   0.3700 
 33 H        4.2300     7.0940     1.9420 H     1 <1>   0.0800 
 34 H        2.9000     7.3130     0.8460 H     1 <1>   0.0800 
 35 H        6.3450     6.1720    -0.3000 H     1 <1>   0.0800 
 36 H        6.5560     7.1490     1.1180 H     1 <1>   0.0800 
 37 H        4.9730     9.2880     1.4000 H     1 <1>   0.0800 
 38 H        3.7990     9.5900     0.1610 H     1 <1>   0.0800 
 39 H        4.3580     6.4820    -1.7820 H     1 <1>   0.0800 
 40 H        4.8810     8.0840    -2.1960 H     1 <1>   0.0800 
 41 H        3.2820     7.8310    -1.5570 H     1 <1>   0.0800 
 42 H        7.1490     7.9830    -1.7250 H     1 <1>   0.0800 
 43 H        8.3020     7.6660    -0.4690 H     1 <1>   0.0800 
 44 H        5.7790    11.0690    -0.0060 H     1 <1>   0.0800 
 45 H        5.5780    10.1150    -1.4400 H     1 <1>   0.0800 
 46 H        7.9280    10.0980    -0.7900 H     1 <1>   0.0800 
 47 H        7.5180     9.5790     0.8200 H     1 <1>   0.0800 
@<TRIPOS>BOND
  1   1   2  2   
  2   2   3  am  
  3   2   4  1   
  4   3   5  1   
  5   3  24  1   
  6   4   6  1   
  7   4   7  2   
  8   5   8  1   
  9   5  25  1   
 10   5  26  1   
 11   6   9  1   
 12   6  10  1   
 13   7  11  1   
 14   7  27  1   
 15   8  10  1   
 16   8  12  1   
 17   8  28  1   
 18   9  11  2   
 19  10  29  1   
 20  10  30  1   
 21  11  13  1   
 22  12  31  1   
 23  13  14  2   
 24  13  15  am  
 25  15  16  1   
 26  15  32  1   
 27  16  17  1   
 28  16  33  1   
 29  16  34  1   
 30  17  18  1   
 31  17  19  1   
 32  17  20  1   
 33  18  21  1   
 34  18  35  1   
 35  18  36  1   
 36  19  22  1   
 37  19  37  1   
 38  19  38  1   
 39  20  39  1   
 40  20  40  1   
 41  20  41  1   
 42  21  23  1   
 43  21  42  1   
 44  21  43  1   
 45  22  23  1   
 46  22  44  1   
 47  22  45  1   
 48  23  46  1   
 49  23  47  1   
@<TRIPOS>SUBSTRUCTURE
  1 ****   9 GROUP 4 **** **** 0

# MOE 2024.06 (io_trps.svl 2023.06)
