@<TRIPOS>MOLECULE
NONAME
51 53 1 0 0 
SMALL
USER_CHARGES


@<TRIPOS>ATOM
  1 O        1.2520    -1.4970     2.2550 O.2   1 <1>  -0.5700 
  2 C        0.8090    -1.4460     1.1330 C.2   1 <1>   0.5690 
  3 N        0.4160    -2.5670     0.4820 N.am  1 <1>  -0.7300 
  4 C        0.6880    -0.0920     0.4310 C.3   1 <1>  -0.0190 
  5 C        0.4850    -3.9120     1.0540 C.3   1 <1>   0.2010 
  6 C       -0.7690     0.2350     0.0590 C.3   1 <1>  -0.2400 
  7 C        1.5830    -0.0130    -0.8170 C.3   1 <1>  -0.2400 
  8 C       -0.1270    -4.9950     0.1460 C.2   1 <1>   0.5690 
  9 O       -0.5610    -4.7050    -0.9670 O.2   1 <1>  -0.5700 
 10 N       -0.1920    -6.2720     0.6050 N.am  1 <1>  -0.7300 
 11 C       -0.7980    -7.3930    -0.1470 C.3   1 <1>   0.2200 
 12 C       -2.2620    -7.5090     0.2410 C.3   1 <1>  -0.0800 
 13 C       -0.2390    -8.7180     0.3550 C.3   1 <1>   0.1200 
 14 C       -2.2110    -8.3940     1.4930 C.3   1 <1>   0.1200 
 15 C       -3.0970    -8.1400    -0.8910 C.3   1 <1>  -0.0170 
 16 O       -0.9560    -9.0120     1.5140 O.3   1 <1>  -0.5600 
 17 C       -4.5840    -8.1270    -0.5560 C.ar  1 <1>  -0.1440 
 18 C       -5.3640    -6.9470    -0.6270 C.ar  1 <1>   0.0000 
 19 C       -5.2110    -9.2750    -0.1700 C.ar  1 <1>  -0.1500 
 20 C       -6.7320    -7.0420    -0.2710 C.ar  1 <1>   0.3100 
 21 C       -4.8710    -5.6840    -1.0310 C.ar  1 <1>  -0.1500 
 22 C       -6.5730    -9.2610     0.1530 C.ar  1 <1>   0.1600 
 23 N       -7.3190    -8.2020     0.1160 N.ar  1 <1>  -0.6200 
 24 C       -7.5280    -5.8870    -0.3210 C.ar  1 <1>  -0.1500 
 25 C       -5.6760    -4.5780    -1.0700 C.ar  1 <1>  -0.1500 
 26 C       -7.0210    -4.6770    -0.7090 C.ar  1 <1>  -0.1500 
 27 H        0.0410    -2.5000    -0.4530 H     1 <1>   0.3700 
 28 H        1.0260     0.6560     1.1280 H     1 <1>   0.0800 
 29 H        1.5270    -4.1700     1.2440 H     1 <1>   0.0800 
 30 H       -0.0440    -3.9240     2.0080 H     1 <1>   0.0800 
 31 H       -1.1480    -0.4670    -0.6620 H     1 <1>   0.0800 
 32 H       -0.8350     1.2250    -0.3560 H     1 <1>   0.0800 
 33 H       -1.3880     0.1930     0.9380 H     1 <1>   0.0800 
 34 H        1.2720    -0.7260    -1.5590 H     1 <1>   0.0800 
 35 H        2.6040    -0.2220    -0.5480 H     1 <1>   0.0800 
 36 H        1.5400     0.9730    -1.2460 H     1 <1>   0.0800 
 37 H        0.0850    -6.5130     1.5600 H     1 <1>   0.3700 
 38 H       -0.6440    -7.2570    -1.2050 H     1 <1>   0.0800 
 39 H       -2.6730    -6.5460     0.4820 H     1 <1>   0.0800 
 40 H        0.8120    -8.6700     0.5790 H     1 <1>   0.0800 
 41 H       -0.4250    -9.5040    -0.3540 H     1 <1>   0.0800 
 42 H       -2.9710    -9.1550     1.4990 H     1 <1>   0.0800 
 43 H       -2.2960    -7.7990     2.3860 H     1 <1>   0.0800 
 44 H       -2.7720    -9.1510    -1.0630 H     1 <1>   0.0800 
 45 H       -2.9400    -7.6010    -1.8100 H     1 <1>   0.0800 
 46 H       -4.6870   -10.2110    -0.1010 H     1 <1>   0.1500 
 47 H       -3.8410    -5.5800    -1.3180 H     1 <1>   0.1500 
 48 H       -7.0290   -10.1890     0.4540 H     1 <1>   0.1500 
 49 H       -8.5610    -5.9880    -0.0410 H     1 <1>   0.1500 
 50 H       -5.2850    -3.6230    -1.3780 H     1 <1>   0.1500 
 51 H       -7.6440    -3.8000    -0.7420 H     1 <1>   0.1500 
@<TRIPOS>BOND
  1   1   2  2   
  2   2   3  am  
  3   2   4  1   
  4   3   5  1   
  5   3  27  1   
  6   4   6  1   
  7   4   7  1   
  8   4  28  1   
  9   5   8  1   
 10   5  29  1   
 11   5  30  1   
 12   6  31  1   
 13   6  32  1   
 14   6  33  1   
 15   7  34  1   
 16   7  35  1   
 17   7  36  1   
 18   8   9  2   
 19   8  10  am  
 20  10  11  1   
 21  10  37  1   
 22  11  12  1   
 23  11  13  1   
 24  11  38  1   
 25  12  14  1   
 26  12  15  1   
 27  12  39  1   
 28  13  16  1   
 29  13  40  1   
 30  13  41  1   
 31  14  16  1   
 32  14  42  1   
 33  14  43  1   
 34  15  17  1   
 35  15  44  1   
 36  15  45  1   
 37  17  18  ar  
 38  17  19  ar  
 39  18  20  ar  
 40  18  21  ar  
 41  19  22  ar  
 42  19  46  1   
 43  20  23  ar  
 44  20  24  ar  
 45  21  25  ar  
 46  21  47  1   
 47  22  23  ar  
 48  22  48  1   
 49  24  26  ar  
 50  24  49  1   
 51  25  26  ar  
 52  25  50  1   
 53  26  51  1   
@<TRIPOS>SUBSTRUCTURE
  1 ****  12 GROUP 4 **** **** 0

# MOE 2024.06 (io_trps.svl 2023.06)
