@<TRIPOS>MOLECULE
NONAME
49 51 1 0 0 
SMALL
USER_CHARGES


@<TRIPOS>ATOM
  1 CL      -1.2080    -0.0130     1.6500 Cl    1 <1>  -0.1770 
  2 C       -0.9020     1.4310     0.7100 C.ar  1 <1>   0.1770 
  3 C       -1.9460     2.2830     0.3650 C.ar  1 <1>  -0.1440 
  4 C        0.4040     1.6820     0.3320 C.ar  1 <1>  -0.1500 
  5 C       -1.6350     3.4150    -0.3830 C.ar  1 <1>  -0.1500 
  6 C       -3.3690     1.9390     0.8190 C.3   1 <1>  -0.0160 
  7 C        0.6930     2.8120    -0.4110 C.ar  1 <1>  -0.1500 
  8 C       -0.3290     3.6750    -0.7660 C.ar  1 <1>  -0.1500 
  9 C       -4.4640     2.9210     0.3660 C.3   1 <1>  -0.0990 
 10 C       -5.8660     2.5430     0.8260 C.2   1 <1>   0.5690 
 11 O       -6.0020     1.5400     1.4880 O.2   1 <1>  -0.5700 
 12 N       -6.9350     3.3300     0.4810 N.am  1 <1>  -0.6600 
 13 C       -8.3280     2.9670     0.8910 C.3   1 <1>   0.1400 
 14 C       -6.8830     4.5530    -0.3670 C.3   1 <1>   0.1400 
 15 C       -9.2150     2.7010    -0.3520 C.3   1 <1>   0.0000 
 16 C       -7.7210     4.3320    -1.6320 C.3   1 <1>  -0.1600 
 17 C      -10.6590     2.3610     0.0560 C.3   1 <1>   0.2000 
 18 C       -9.1650     3.9250    -1.2930 C.3   1 <1>  -0.1600 
 19 C       -8.7780     1.4030    -1.0540 C.3   1 <1>  -0.1600 
 20 O      -11.0950     3.1670     1.1100 O.3   1 <1>  -0.5600 
 21 C      -10.6420     0.8810     0.4510 C.3   1 <1>  -0.1600 
 22 C       -9.4250     0.2670    -0.2560 C.3   1 <1>  -0.1600 
 23 C      -12.4680     3.1370     1.3440 C.3   1 <1>   0.0400 
 24 H        1.1810     0.9980     0.6190 H     1 <1>   0.1500 
 25 H       -2.3930     4.1140    -0.6820 H     1 <1>   0.1500 
 26 H       -3.6170     0.9590     0.4490 H     1 <1>   0.0800 
 27 H       -3.3800     1.8860     1.8950 H     1 <1>   0.0800 
 28 H        1.7060     3.0180    -0.7110 H     1 <1>   0.1500 
 29 H       -0.1060     4.5550    -1.3440 H     1 <1>   0.1500 
 30 H       -4.4680     2.9620    -0.7070 H     1 <1>   0.0800 
 31 H       -4.2400     3.8950     0.7590 H     1 <1>   0.0800 
 32 H       -8.3230     2.1050     1.5340 H     1 <1>   0.0800 
 33 H       -8.7360     3.7840     1.4590 H     1 <1>   0.0800 
 34 H       -7.2860     5.3790     0.1940 H     1 <1>   0.0800 
 35 H       -5.8750     4.8020    -0.6420 H     1 <1>   0.0800 
 36 H       -7.7320     5.2390    -2.2100 H     1 <1>   0.0800 
 37 H       -7.2550     3.5690    -2.2310 H     1 <1>   0.0800 
 38 H      -11.3080     2.5070    -0.7910 H     1 <1>   0.0800 
 39 H       -9.7060     3.7210    -2.2000 H     1 <1>   0.0800 
 40 H       -9.6520     4.7520    -0.8040 H     1 <1>   0.0800 
 41 H       -9.1670     1.3850    -2.0580 H     1 <1>   0.0800 
 42 H       -7.7090     1.2910    -1.1010 H     1 <1>   0.0800 
 43 H      -10.5240     0.7810     1.5170 H     1 <1>   0.0800 
 44 H      -11.5490     0.3960     0.1400 H     1 <1>   0.0800 
 45 H       -8.7270    -0.0980     0.4800 H     1 <1>   0.0800 
 46 H       -9.7060    -0.5480    -0.9000 H     1 <1>   0.0800 
 47 H      -12.6820     3.8080     2.1560 H     1 <1>   0.0800 
 48 H      -12.7640     2.1380     1.6140 H     1 <1>   0.0800 
 49 H      -12.9870     3.4620     0.4590 H     1 <1>   0.0800 
@<TRIPOS>BOND
  1   1   2  1   
  2   2   3  ar  
  3   2   4  ar  
  4   3   5  ar  
  5   3   6  1   
  6   4   7  ar  
  7   4  24  1   
  8   5   8  ar  
  9   5  25  1   
 10   6   9  1   
 11   6  26  1   
 12   6  27  1   
 13   7   8  ar  
 14   7  28  1   
 15   8  29  1   
 16   9  10  1   
 17   9  30  1   
 18   9  31  1   
 19  10  11  2   
 20  10  12  am  
 21  12  13  1   
 22  12  14  1   
 23  13  15  1   
 24  13  32  1   
 25  13  33  1   
 26  14  16  1   
 27  14  34  1   
 28  14  35  1   
 29  15  17  1   
 30  15  18  1   
 31  15  19  1   
 32  16  18  1   
 33  16  36  1   
 34  16  37  1   
 35  17  20  1   
 36  17  21  1   
 37  17  38  1   
 38  18  39  1   
 39  18  40  1   
 40  19  22  1   
 41  19  41  1   
 42  19  42  1   
 43  20  23  1   
 44  21  22  1   
 45  21  43  1   
 46  21  44  1   
 47  22  45  1   
 48  22  46  1   
 49  23  47  1   
 50  23  48  1   
 51  23  49  1   
@<TRIPOS>SUBSTRUCTURE
  1 ****  10 GROUP 4 **** **** 0

# MOE 2024.06 (io_trps.svl 2023.06)
