@<TRIPOS>MOLECULE
NONAME
49 52 1 0 0 
SMALL
USER_CHARGES


@<TRIPOS>ATOM
  1 S        2.1120     2.7370    -1.5560 S.3   1 <1>  -0.0800 
  2 C        0.5930     2.7280    -0.6710 C.2   1 <1>  -0.1400 
  3 C        1.3840     1.8250    -2.8720 C.2   1 <1>  -0.1100 
  4 C       -0.3570     2.0880    -1.3640 C.2   1 <1>  -0.1810 
  5 C        0.4310     3.3810     0.6970 C.3   1 <1>   0.4600 
  6 C        0.0870     1.5630    -2.6190 C.2   1 <1>  -0.1500 
  7 C       -1.7530     1.9840    -0.7910 C.3   1 <1>   0.0210 
  8 O       -0.8570     3.0790     1.1980 O.3   1 <1>  -0.5600 
  9 C        0.5830     4.9060     0.6000 C.3   1 <1>  -0.1600 
 10 C        1.4270     2.7860     1.7030 C.3   1 <1>  -0.1600 
 11 C       -1.9350     3.0670     0.2910 C.3   1 <1>   0.1200 
 12 C        0.5530     5.5670     1.9800 C.3   1 <1>   0.1400 
 13 C        1.3630     3.4960     3.0570 C.3   1 <1>   0.1400 
 14 N        1.6030     4.9450     2.8290 N.am  1 <1>  -0.6600 
 15 C        2.7620     5.5480     3.2550 C.2   1 <1>   0.5690 
 16 O        3.4870     5.0180     4.0650 O.2   1 <1>  -0.5700 
 17 C        3.2230     6.8900     2.6990 C.3   1 <1>   0.0390 
 18 C        3.4550     6.8390     1.1820 C.2   1 <1>  -0.1240 
 19 C        2.6860     7.7080     0.3420 C.2   1 <1>   0.7670 
 20 C        4.3300     5.9800     0.5950 C.2   1 <1>  -0.0380 
 21 O        1.9070     8.5280     0.8080 O.2   1 <1>  -0.5700 
 22 N        2.7720     7.6340    -1.0200 N.2   1 <1>  -0.6610 
 23 N        4.3760     5.9710    -0.7700 N.pl3 1 <1>  -0.5500 
 24 C        5.2640     5.0000     1.2870 C.3   1 <1>  -0.1020 
 25 C        3.5880     6.7880    -1.5200 C.2   1 <1>   0.4390 
 26 C        3.7080     6.6540    -3.0170 C.3   1 <1>  -0.1790 
 27 H        2.0130     1.5760    -3.7080 H     1 <1>   0.1500 
 28 H       -0.5810     1.0190    -3.2640 H     1 <1>   0.1500 
 29 H       -1.8980     1.0090    -0.3620 H     1 <1>   0.0800 
 30 H       -2.4830     2.1290    -1.5660 H     1 <1>   0.0800 
 31 H       -0.1820     5.3210    -0.0260 H     1 <1>   0.0800 
 32 H        1.5220     5.1260     0.1310 H     1 <1>   0.0800 
 33 H        2.4260     2.8790     1.3220 H     1 <1>   0.0800 
 34 H        1.2220     1.7380     1.8260 H     1 <1>   0.0800 
 35 H       -2.8330     2.8810     0.8530 H     1 <1>   0.0800 
 36 H       -2.0100     4.0390    -0.1630 H     1 <1>   0.0800 
 37 H       -0.4090     5.4030     2.4370 H     1 <1>   0.0800 
 38 H        0.6920     6.6280     1.8980 H     1 <1>   0.0800 
 39 H        2.1020     3.0820     3.7220 H     1 <1>   0.0800 
 40 H        0.3930     3.3590     3.5060 H     1 <1>   0.0800 
 41 H        4.1450     7.1660     3.1780 H     1 <1>   0.0800 
 42 H        2.4990     7.6310     2.9780 H     1 <1>   0.0800 
 43 H        4.9950     5.3200    -1.2580 H     1 <1>   0.4000 
 44 H        6.2330     5.0190     0.8230 H     1 <1>   0.0800 
 45 H        4.8640     4.0040     1.2190 H     1 <1>   0.0800 
 46 H        5.3990     5.2440     2.3240 H     1 <1>   0.0800 
 47 H        4.7160     6.8620    -3.3250 H     1 <1>   0.0800 
 48 H        3.0500     7.3520    -3.5030 H     1 <1>   0.0800 
 49 H        3.4360     5.6590    -3.3180 H     1 <1>   0.0800 
@<TRIPOS>BOND
  1   1   2  1   
  2   1   3  1   
  3   2   4  2   
  4   2   5  1   
  5   3   6  2   
  6   3  27  1   
  7   4   6  1   
  8   4   7  1   
  9   5   8  1   
 10   5   9  1   
 11   5  10  1   
 12   6  28  1   
 13   7  11  1   
 14   7  29  1   
 15   7  30  1   
 16   8  11  1   
 17   9  12  1   
 18   9  31  1   
 19   9  32  1   
 20  10  13  1   
 21  10  33  1   
 22  10  34  1   
 23  11  35  1   
 24  11  36  1   
 25  12  14  1   
 26  12  37  1   
 27  12  38  1   
 28  13  14  1   
 29  13  39  1   
 30  13  40  1   
 31  14  15  am  
 32  15  16  2   
 33  15  17  1   
 34  17  18  1   
 35  17  41  1   
 36  17  42  1   
 37  18  19  1   
 38  18  20  2   
 39  19  21  2   
 40  19  22  1   
 41  20  23  1   
 42  20  24  1   
 43  22  25  2   
 44  23  25  1   
 45  23  43  1   
 46  24  44  1   
 47  24  45  1   
 48  24  46  1   
 49  25  26  1   
 50  26  47  1   
 51  26  48  1   
 52  26  49  1   
@<TRIPOS>SUBSTRUCTURE
  1 ****   9 GROUP 4 **** **** 0

# MOE 2024.06 (io_trps.svl 2023.06)
