@<TRIPOS>MOLECULE
NONAME
42 43 1 0 0 
SMALL
USER_CHARGES


@<TRIPOS>ATOM
  1 O        5.0420     1.6180    -1.3830 O.co2 1 <1>  -0.9000 
  2 C        3.8200     1.6060    -1.5340 C.2   1 <1>   0.9060 
  3 O        3.2340     2.5300    -2.0920 O.co2 1 <1>  -0.9000 
  4 C        3.0280     0.6650    -0.7050 C.3   1 <1>  -0.2660 
  5 C        2.1870     1.4750     0.2720 C.3   1 <1>   0.3430 
  6 N        2.9320     2.4370     1.1760 N.4   1 <1>  -0.9590 
  7 C        2.7970     3.8750     0.6790 C.3   1 <1>   0.3430 
  8 C        4.3020     1.9780     1.5960 C.3   1 <1>   0.3430 
  9 C        3.8830     4.5470    -0.2160 C.3   1 <1>   0.3430 
 10 C        5.1270     3.1160     2.2000 C.3   1 <1>  -0.1600 
 11 N        5.2850     4.0130    -0.1620 N.4   1 <1>  -0.9590 
 12 C        5.9510     3.8880     1.1640 C.3   1 <1>   0.3430 
 13 C        6.1000     4.6560    -1.2320 C.3   1 <1>   0.4230 
 14 C        7.4360     3.9380    -1.4310 C.3   1 <1>  -0.1600 
 15 C        6.4550     6.1130    -0.8940 C.3   1 <1>  -0.1600 
 16 C        8.4950     4.7750    -0.7140 C.3   1 <1>  -0.1600 
 17 C        7.9850     6.2080    -0.8240 C.3   1 <1>  -0.1600 
 18 H        3.6720    -0.0300    -0.2030 H     1 <1>   0.0800 
 19 H        2.3840     0.1120    -1.3610 H     1 <1>   0.0800 
 20 H        1.6390     0.7760     0.8820 H     1 <1>   0.0800 
 21 H        1.4610     2.0280    -0.3050 H     1 <1>   0.0800 
 22 H        2.3790     2.4200     2.0420 H     1 <1>   0.4500 
 23 H        2.7090     4.5040     1.5480 H     1 <1>   0.0800 
 24 H        1.8590     3.9700     0.1560 H     1 <1>   0.0800 
 25 H        4.8450     1.5610     0.7660 H     1 <1>   0.0800 
 26 H        4.1940     1.1920     2.3250 H     1 <1>   0.0800 
 27 H        3.8990     5.5970     0.0200 H     1 <1>   0.0800 
 28 H        3.5420     4.4820    -1.2360 H     1 <1>   0.0800 
 29 H        5.8320     2.6820     2.8870 H     1 <1>   0.0800 
 30 H        4.5150     3.7820     2.7810 H     1 <1>   0.0800 
 31 H        5.2050     3.0460    -0.5700 H     1 <1>   0.4500 
 32 H        6.8790     3.3590     1.0200 H     1 <1>   0.0800 
 33 H        6.1950     4.8650     1.5490 H     1 <1>   0.0800 
 34 H        5.5480     4.6100    -2.1590 H     1 <1>   0.0800 
 35 H        7.6550     3.9500    -2.4850 H     1 <1>   0.0800 
 36 H        7.4190     2.9090    -1.1150 H     1 <1>   0.0800 
 37 H        6.0240     6.4310     0.0380 H     1 <1>   0.0800 
 38 H        6.0940     6.7610    -1.6740 H     1 <1>   0.0800 
 39 H        9.4660     4.6610    -1.1670 H     1 <1>   0.0800 
 40 H        8.5660     4.4890     0.3210 H     1 <1>   0.0800 
 41 H        8.3180     6.8160     0.0000 H     1 <1>   0.0800 
 42 H        8.3550     6.6410    -1.7400 H     1 <1>   0.0800 
@<TRIPOS>BOND
  1   1   2  ar  
  2   2   3  ar  
  3   2   4  1   
  4   4   5  1   
  5   4  18  1   
  6   4  19  1   
  7   5   6  1   
  8   5  20  1   
  9   5  21  1   
 10   6   7  1   
 11   6   8  1   
 12   6  22  1   
 13   7   9  1   
 14   7  23  1   
 15   7  24  1   
 16   8  10  1   
 17   8  25  1   
 18   8  26  1   
 19   9  11  1   
 20   9  27  1   
 21   9  28  1   
 22  10  12  1   
 23  10  29  1   
 24  10  30  1   
 25  11  12  1   
 26  11  13  1   
 27  11  31  1   
 28  12  32  1   
 29  12  33  1   
 30  13  14  1   
 31  13  15  1   
 32  13  34  1   
 33  14  16  1   
 34  14  35  1   
 35  14  36  1   
 36  15  17  1   
 37  15  37  1   
 38  15  38  1   
 39  16  17  1   
 40  16  39  1   
 41  16  40  1   
 42  17  41  1   
 43  17  42  1   
@<TRIPOS>SUBSTRUCTURE
  1 ****  11 GROUP 4 **** **** 0

# MOE 2024.06 (io_trps.svl 2023.06)
