@<TRIPOS>MOLECULE
NONAME
41 43 1 0 0 
SMALL
USER_CHARGES


@<TRIPOS>ATOM
  1 S        1.3490     0.3770     1.8660 S.3   1 <1>  -0.0800 
  2 C        1.4490     0.9970     0.2240 C.2   1 <1>  -0.1400 
  3 C        1.3930    -1.2800     1.2960 C.2   1 <1>  -0.1100 
  4 C        1.5100    -0.0230    -0.6560 C.2   1 <1>  -0.1500 
  5 C        1.4570     2.5080     0.0670 C.3   1 <1>   0.3800 
  6 C        1.4780    -1.3170    -0.0460 C.2   1 <1>  -0.1500 
  7 O        1.2710     2.8030    -1.2710 O.3   1 <1>  -0.6800 
  8 C        2.7840     3.1450     0.5430 C.3   1 <1>  -0.0800 
  9 C        2.7600     4.6820     0.4160 C.3   1 <1>  -0.1600 
 10 C        4.0140     2.5700    -0.1940 C.3   1 <1>  -0.1600 
 11 C        4.0880     5.3140     0.8280 C.3   1 <1>   0.3430 
 12 C        5.3130     3.2510     0.2280 C.3   1 <1>   0.3430 
 13 N        5.1900     4.7180     0.0190 N.4   1 <1>  -0.9590 
 14 C        6.4940     5.4360     0.2400 C.3   1 <1>   0.5240 
 15 C        6.4690     6.8710    -0.3010 C.2   1 <1>   0.3350 
 16 N        5.6900     7.2660    -1.2350 N.2   1 <1>  -0.4100 
 17 N        7.2720     7.8200     0.1870 N.2   1 <1>  -0.5650 
 18 O        5.9870     8.5040    -1.3710 O.3   1 <1>  -0.0190 
 19 C        6.9280     8.8460    -0.5330 C.2   1 <1>   0.3930 
 20 C        7.4330    10.2110    -0.5050 C.2   1 <1>   0.7150 
 21 O        6.9890    11.0820    -1.2260 O.2   1 <1>  -0.5700 
 22 N        8.4310    10.5930     0.3340 N.am  1 <1>  -0.8000 
 23 H        1.3490    -2.0610     2.0350 H     1 <1>   0.1500 
 24 H        1.5810     0.0720    -1.7260 H     1 <1>   0.1500 
 25 H        0.6250     2.9280     0.6090 H     1 <1>   0.0800 
 26 H        1.5190    -2.2120    -0.6440 H     1 <1>   0.1500 
 27 H        0.4940     2.3060    -1.5940 H     1 <1>   0.4000 
 28 H        2.8880     2.9070     1.5880 H     1 <1>   0.0800 
 29 H        1.9770     5.0820     1.0360 H     1 <1>   0.0800 
 30 H        2.5410     4.9720    -0.5980 H     1 <1>   0.0800 
 31 H        3.8930     2.6750    -1.2590 H     1 <1>   0.0800 
 32 H        4.1010     1.5170     0.0120 H     1 <1>   0.0800 
 33 H        4.2630     5.1390     1.8770 H     1 <1>   0.0800 
 34 H        4.0380     6.3800     0.6620 H     1 <1>   0.0800 
 35 H        6.1270     2.8560    -0.3590 H     1 <1>   0.0800 
 36 H        5.5070     3.0410     1.2680 H     1 <1>   0.0800 
 37 H        4.9360     4.8820    -0.9680 H     1 <1>   0.4500 
 38 H        7.2880     4.9090    -0.2600 H     1 <1>   0.0800 
 39 H        6.7220     5.4660     1.2910 H     1 <1>   0.0800 
 40 H        8.7570    11.5600     0.3150 H     1 <1>   0.3700 
 41 H        8.8940     9.9530     0.9800 H     1 <1>   0.3700 
@<TRIPOS>BOND
  1   1   2  1   
  2   1   3  1   
  3   2   4  2   
  4   2   5  1   
  5   3   6  2   
  6   3  23  1   
  7   4   6  1   
  8   4  24  1   
  9   5   7  1   
 10   5   8  1   
 11   5  25  1   
 12   6  26  1   
 13   7  27  1   
 14   8   9  1   
 15   8  10  1   
 16   8  28  1   
 17   9  11  1   
 18   9  29  1   
 19   9  30  1   
 20  10  12  1   
 21  10  31  1   
 22  10  32  1   
 23  11  13  1   
 24  11  33  1   
 25  11  34  1   
 26  12  13  1   
 27  12  35  1   
 28  12  36  1   
 29  13  14  1   
 30  13  37  1   
 31  14  15  1   
 32  14  38  1   
 33  14  39  1   
 34  15  16  2   
 35  15  17  1   
 36  16  18  1   
 37  17  19  2   
 38  18  19  1   
 39  19  20  1   
 40  20  21  2   
 41  20  22  am  
 42  22  40  1   
 43  22  41  1   
@<TRIPOS>SUBSTRUCTURE
  1 ****  13 GROUP 4 **** **** 0

# MOE 2024.06 (io_trps.svl 2023.06)
