@<TRIPOS>MOLECULE
NONAME
50 53 1 0 0 
SMALL
USER_CHARGES


@<TRIPOS>ATOM
  1 O       -1.6060     0.4340    -1.8800 O.2   1 <1>  -0.5700 
  2 C       -1.5840     0.6710    -0.6900 C.2   1 <1>   0.7150 
  3 N       -1.7110    -0.3660     0.1820 N.am  1 <1>  -0.7300 
  4 C       -1.4490     2.0110    -0.1800 C.2   1 <1>  -0.2370 
  5 C       -1.7880    -1.7960    -0.1990 C.3   1 <1>   0.2200 
  6 N       -2.0260     2.3940     1.0080 N.pl3 1 <1>   0.0330 
  7 C       -0.8080     3.1070    -0.6920 C.2   1 <1>  -0.1810 
  8 C       -3.2020    -2.3370    -0.0350 C.3   1 <1>  -0.0800 
  9 C       -1.0550    -2.6190     0.8510 C.3   1 <1>   0.1200 
 10 C       -1.7510     3.7110     1.2470 C.ar  1 <1>  -0.1520 
 11 C       -0.9860     4.1890     0.1920 C.ar  1 <1>   0.0000 
 12 C       -0.0180     3.2170    -1.9850 C.3   1 <1>  -0.0590 
 13 C       -3.2600    -2.7110     1.4520 C.3   1 <1>   0.1200 
 14 C       -4.3380    -1.4080    -0.5030 C.3   1 <1>  -0.0160 
 15 O       -1.9430    -2.6970     1.9230 O.3   1 <1>  -0.5600 
 16 C       -2.1150     4.5430     2.3100 C.ar  1 <1>  -0.1500 
 17 C       -0.5690     5.5260     0.1890 C.ar  1 <1>  -0.1500 
 18 C       -5.6870    -2.0990    -0.3840 C.ar  1 <1>  -0.1440 
 19 C       -1.6980     5.8530     2.2960 C.ar  1 <1>  -0.1500 
 20 C       -0.9250     6.3520     1.2390 C.ar  1 <1>   0.0820 
 21 C       -6.1350    -2.9810    -1.3470 C.ar  1 <1>  -0.1500 
 22 C       -6.5310    -1.8860     0.6870 C.ar  1 <1>  -0.1500 
 23 O       -0.5720     7.6640     1.3320 O.3   1 <1>  -0.3620 
 24 C       -7.3680    -3.5940    -1.1930 C.ar  1 <1>   0.1600 
 25 C       -7.7450    -2.5500     0.7450 C.ar  1 <1>   0.1600 
 26 C        0.1960     8.2710     0.3160 C.3   1 <1>   0.0400 
 27 N       -8.1820    -3.4010    -0.1690 N.ar  1 <1>  -0.6200 
 28 H       -1.5400    -0.2140     1.1750 H     1 <1>   0.3700 
 29 H       -1.3940    -1.9540    -1.1890 H     1 <1>   0.0800 
 30 H       -2.6230     1.8090     1.6000 H     1 <1>   0.2700 
 31 H       -3.2680    -3.2520    -0.5970 H     1 <1>   0.0800 
 32 H       -0.1320    -2.1690     1.1710 H     1 <1>   0.0800 
 33 H       -0.8730    -3.6190     0.4970 H     1 <1>   0.0800 
 34 H        0.9630     3.6040    -1.7810 H     1 <1>   0.0800 
 35 H       -0.5240     3.8810    -2.6620 H     1 <1>   0.0800 
 36 H        0.0860     2.2580    -2.4580 H     1 <1>   0.0800 
 37 H       -3.6750    -3.6940     1.5980 H     1 <1>   0.0800 
 38 H       -3.8190    -1.9920     2.0250 H     1 <1>   0.0800 
 39 H       -4.1700    -1.1290    -1.5300 H     1 <1>   0.0800 
 40 H       -4.3490    -0.5020     0.0770 H     1 <1>   0.0800 
 41 H       -2.7080     4.1600     3.1200 H     1 <1>   0.1500 
 42 H        0.0190     5.8650    -0.6390 H     1 <1>   0.1500 
 43 H       -1.9580     6.5220     3.0960 H     1 <1>   0.1500 
 44 H       -5.5390    -3.1960    -2.2140 H     1 <1>   0.1500 
 45 H       -6.2600    -1.2100     1.4770 H     1 <1>   0.1500 
 46 H       -7.7010    -4.2790    -1.9540 H     1 <1>   0.1500 
 47 H       -8.3910    -2.3730     1.5870 H     1 <1>   0.1500 
 48 H        0.3560     9.2990     0.5870 H     1 <1>   0.0800 
 49 H       -0.3460     8.2160    -0.6110 H     1 <1>   0.0800 
 50 H        1.1410     7.7610     0.2420 H     1 <1>   0.0800 
@<TRIPOS>BOND
  1   1   2  2   
  2   2   3  am  
  3   2   4  1   
  4   3   5  1   
  5   3  28  1   
  6   4   6  1   
  7   4   7  2   
  8   5   8  1   
  9   5   9  1   
 10   5  29  1   
 11   6  10  1   
 12   6  30  1   
 13   7  11  1   
 14   7  12  1   
 15   8  13  1   
 16   8  14  1   
 17   8  31  1   
 18   9  15  1   
 19   9  32  1   
 20   9  33  1   
 21  10  11  ar  
 22  10  16  ar  
 23  11  17  ar  
 24  12  34  1   
 25  12  35  1   
 26  12  36  1   
 27  13  15  1   
 28  13  37  1   
 29  13  38  1   
 30  14  18  1   
 31  14  39  1   
 32  14  40  1   
 33  16  19  ar  
 34  16  41  1   
 35  17  20  ar  
 36  17  42  1   
 37  18  21  ar  
 38  18  22  ar  
 39  19  20  ar  
 40  19  43  1   
 41  20  23  1   
 42  21  24  ar  
 43  21  44  1   
 44  22  25  ar  
 45  22  45  1   
 46  23  26  1   
 47  24  27  ar  
 48  24  46  1   
 49  25  27  ar  
 50  25  47  1   
 51  26  48  1   
 52  26  49  1   
 53  26  50  1   
@<TRIPOS>SUBSTRUCTURE
  1 ****   2 GROUP 4 **** **** 0

# MOE 2024.06 (io_trps.svl 2023.06)
