@<TRIPOS>MOLECULE
NONAME
49 52 1 0 0 
SMALL
USER_CHARGES


@<TRIPOS>ATOM
  1 O       -0.0550    -1.0620     0.5410 O.3   1 <1>  -0.6800 
  2 C       -1.3800    -0.6780     0.7600 C.3   1 <1>   0.2000 
  3 C       -1.8990     0.2780    -0.3420 C.3   1 <1>   0.4330 
  4 C       -2.3180    -1.8970     0.7600 C.3   1 <1>  -0.0160 
  5 N       -1.8440     1.7000     0.0690 N.pl3 1 <1>  -0.8690 
  6 C       -3.3350    -0.1530    -0.5160 C.ar  1 <1>  -0.1440 
  7 C       -3.5660    -1.3630     0.0950 C.ar  1 <1>  -0.1430 
  8 C       -0.8060     2.5460     0.0510 C.ar  1 <1>   0.4100 
  9 C       -4.3530     0.5040    -1.1860 C.ar  1 <1>  -0.1500 
 10 C       -4.8190    -1.9470     0.0580 C.ar  1 <1>  -0.1500 
 11 N       -1.0770     3.7650     0.4500 N.ar  1 <1>  -0.6200 
 12 C        0.4820     2.1600    -0.3600 C.ar  1 <1>  -0.1500 
 13 C       -5.6120    -0.0730    -1.2270 C.ar  1 <1>  -0.1500 
 14 C       -5.8440    -1.2930    -0.6080 C.ar  1 <1>  -0.1500 
 15 C       -0.0920     4.6550     0.4620 C.ar  1 <1>   0.7710 
 16 C        1.4760     3.0780    -0.3450 C.ar  1 <1>   0.2180 
 17 N        1.1540     4.3260     0.0720 N.ar  1 <1>  -0.1790 
 18 N       -0.3390     5.9300     0.8700 N.pl3 1 <1>  -0.8380 
 19 C        2.9050     2.7820    -0.7660 C.3   1 <1>  -0.0970 
 20 C       -1.7340     6.4140     1.1430 C.3   1 <1>   0.2090 
 21 C        0.6600     7.0240     1.0810 C.3   1 <1>   0.2090 
 22 C       -2.0710     7.5440     0.1640 C.3   1 <1>  -0.1600 
 23 C        0.3820     8.1540     0.0860 C.3   1 <1>  -0.1600 
 24 C       -1.0500     8.6890     0.2370 C.3   1 <1>  -0.1600 
 25 H        0.2270    -1.7040     1.2230 H     1 <1>   0.4000 
 26 H       -1.4420    -0.1820     1.7130 H     1 <1>   0.0800 
 27 H       -1.3700     0.1180    -1.2660 H     1 <1>   0.0800 
 28 H       -1.9180    -2.7010     0.1660 H     1 <1>   0.0800 
 29 H       -2.5270    -2.2290     1.7600 H     1 <1>   0.0800 
 30 H       -2.7450     2.0560     0.3980 H     1 <1>   0.4000 
 31 H       -4.1710     1.4480    -1.6690 H     1 <1>   0.1500 
 32 H       -4.9980    -2.8930     0.5370 H     1 <1>   0.1500 
 33 H        0.6530     1.1470    -0.6730 H     1 <1>   0.1500 
 34 H       -6.4140     0.4260    -1.7430 H     1 <1>   0.1500 
 35 H       -6.8240    -1.7340    -0.6450 H     1 <1>   0.1500 
 36 H        1.8260     5.0790     0.0900 H     1 <1>   0.4570 
 37 H        3.0000     1.7520    -1.0640 H     1 <1>   0.0800 
 38 H        3.5820     2.9570     0.0520 H     1 <1>   0.0800 
 39 H        3.1890     3.4000    -1.5990 H     1 <1>   0.0800 
 40 H       -2.4670     5.6320     1.0390 H     1 <1>   0.0800 
 41 H       -1.7930     6.7790     2.1550 H     1 <1>   0.0800 
 42 H        0.5570     7.4030     2.0860 H     1 <1>   0.0800 
 43 H        1.6710     6.6810     0.9690 H     1 <1>   0.0800 
 44 H       -2.0990     7.1410    -0.8330 H     1 <1>   0.0800 
 45 H       -3.0520     7.9240     0.3870 H     1 <1>   0.0800 
 46 H        1.0790     8.9570     0.2520 H     1 <1>   0.0800 
 47 H        0.5290     7.7940    -0.9170 H     1 <1>   0.0800 
 48 H       -1.1460     9.1890     1.1860 H     1 <1>   0.0800 
 49 H       -1.2550     9.4100    -0.5370 H     1 <1>   0.0800 
@<TRIPOS>BOND
  1   1   2  1   
  2   1  25  1   
  3   2   3  1   
  4   2   4  1   
  5   2  26  1   
  6   3   5  1   
  7   3   6  1   
  8   3  27  1   
  9   4   7  1   
 10   4  28  1   
 11   4  29  1   
 12   5   8  1   
 13   5  30  1   
 14   6   7  ar  
 15   6   9  ar  
 16   7  10  ar  
 17   8  11  ar  
 18   8  12  ar  
 19   9  13  ar  
 20   9  31  1   
 21  10  14  ar  
 22  10  32  1   
 23  11  15  ar  
 24  12  16  ar  
 25  12  33  1   
 26  13  14  ar  
 27  13  34  1   
 28  14  35  1   
 29  15  17  ar  
 30  15  18  1   
 31  16  17  ar  
 32  16  19  1   
 33  17  36  1   
 34  18  20  1   
 35  18  21  1   
 36  19  37  1   
 37  19  38  1   
 38  19  39  1   
 39  20  22  1   
 40  20  40  1   
 41  20  41  1   
 42  21  23  1   
 43  21  42  1   
 44  21  43  1   
 45  22  24  1   
 46  22  44  1   
 47  22  45  1   
 48  23  24  1   
 49  23  46  1   
 50  23  47  1   
 51  24  48  1   
 52  24  49  1   
@<TRIPOS>SUBSTRUCTURE
  1 ****   8 GROUP 4 **** **** 0

# MOE 2024.06 (io_trps.svl 2023.06)
