@<TRIPOS>MOLECULE
NONAME
45 47 1 0 0 
SMALL
USER_CHARGES


@<TRIPOS>ATOM
  1 CL      -0.5870    -1.7840    -2.7010 Cl    1 <1>  -0.1240 
  2 C       -0.8160    -2.0670    -0.9960 C.2   1 <1>   0.2640 
  3 O       -1.5940    -3.0540    -0.6270 O.3   1 <1>  -0.2800 
  4 C       -0.3030    -1.4050     0.0580 C.2   1 <1>  -0.1500 
  5 C       -1.6270    -3.0720     0.7080 C.2   1 <1>   0.0550 
  6 C       -0.8300    -2.0630     1.1710 C.2   1 <1>  -0.1500 
  7 C       -2.3920    -4.0520     1.4550 C.2   1 <1>   0.7150 
  8 O       -2.1610    -4.1900     2.6440 O.2   1 <1>  -0.5700 
  9 N       -3.3770    -4.8520     0.8980 N.am  1 <1>  -0.6600 
 10 C       -4.2120    -4.4180    -0.2660 C.3   1 <1>   0.2200 
 11 C       -3.5010    -6.2640     1.3740 C.3   1 <1>   0.0600 
 12 C       -4.7790    -3.0120    -0.0660 C.3   1 <1>  -0.1600 
 13 C       -5.4800    -5.2510    -0.4670 C.3   1 <1>  -0.1600 
 14 C       -5.9780    -2.9160    -1.0180 C.3   1 <1>  -0.0800 
 15 C       -6.4260    -4.3610    -1.2830 C.3   1 <1>  -0.0800 
 16 C       -7.1820    -2.1860    -0.4110 C.3   1 <1>  -0.1600 
 17 C       -7.8900    -4.4510    -0.8340 C.3   1 <1>  -0.1600 
 18 C       -8.0480    -3.3060     0.1620 C.3   1 <1>   0.4230 
 19 N       -9.4750    -2.9330     0.4070 N.4   1 <1>  -0.9590 
 20 C      -10.2140    -2.4010    -0.7850 C.3   1 <1>   0.2630 
 21 C       -9.5740    -1.9670     1.5460 C.3   1 <1>   0.2630 
 22 H        0.3620    -0.5600     0.0620 H     1 <1>   0.1500 
 23 H       -0.6350    -1.8160     2.2010 H     1 <1>   0.1500 
 24 H       -3.6240    -4.4530    -1.1690 H     1 <1>   0.0800 
 25 H       -3.5180    -6.9390     0.5370 H     1 <1>   0.0800 
 26 H       -4.4000    -6.3790     1.9530 H     1 <1>   0.0800 
 27 H       -2.6630    -6.5260     1.9980 H     1 <1>   0.0800 
 28 H       -5.0960    -2.9070     0.9570 H     1 <1>   0.0800 
 29 H       -4.0590    -2.2470    -0.2960 H     1 <1>   0.0800 
 30 H       -5.2690    -6.1700    -0.9850 H     1 <1>   0.0800 
 31 H       -5.9220    -5.4660     0.4900 H     1 <1>   0.0800 
 32 H       -5.6680    -2.4480    -1.9390 H     1 <1>   0.0800 
 33 H       -6.3280    -4.5950    -2.3320 H     1 <1>   0.0800 
 34 H       -7.6880    -1.6690    -1.2050 H     1 <1>   0.0800 
 35 H       -6.8810    -1.4780     0.3420 H     1 <1>   0.0800 
 36 H       -8.1180    -5.4050    -0.3930 H     1 <1>   0.0800 
 37 H       -8.5110    -4.3010    -1.6980 H     1 <1>   0.0800 
 38 H       -7.6000    -3.6240     1.0910 H     1 <1>   0.0800 
 39 H       -9.9460    -3.8020     0.6980 H     1 <1>   0.4500 
 40 H       -9.7760    -1.4760    -1.1200 H     1 <1>   0.0800 
 41 H      -11.2460    -2.2160    -0.5310 H     1 <1>   0.0800 
 42 H      -10.1880    -3.1100    -1.5960 H     1 <1>   0.0800 
 43 H       -9.0940    -1.0360     1.2900 H     1 <1>   0.0800 
 44 H       -9.0950    -2.3710     2.4230 H     1 <1>   0.0800 
 45 H      -10.6070    -1.7690     1.7810 H     1 <1>   0.0800 
@<TRIPOS>BOND
  1   1   2  1   
  2   2   3  1   
  3   2   4  2   
  4   3   5  1   
  5   4   6  1   
  6   4  22  1   
  7   5   6  2   
  8   5   7  1   
  9   6  23  1   
 10   7   8  2   
 11   7   9  am  
 12   9  10  1   
 13   9  11  1   
 14  10  12  1   
 15  10  13  1   
 16  10  24  1   
 17  11  25  1   
 18  11  26  1   
 19  11  27  1   
 20  12  14  1   
 21  12  28  1   
 22  12  29  1   
 23  13  15  1   
 24  13  30  1   
 25  13  31  1   
 26  14  15  1   
 27  14  16  1   
 28  14  32  1   
 29  15  17  1   
 30  15  33  1   
 31  16  18  1   
 32  16  34  1   
 33  16  35  1   
 34  17  18  1   
 35  17  36  1   
 36  17  37  1   
 37  18  19  1   
 38  18  38  1   
 39  19  20  1   
 40  19  21  1   
 41  19  39  1   
 42  20  40  1   
 43  20  41  1   
 44  20  42  1   
 45  21  43  1   
 46  21  44  1   
 47  21  45  1   
@<TRIPOS>SUBSTRUCTURE
  1 ****  12 GROUP 4 **** **** 0

# MOE 2024.06 (io_trps.svl 2023.06)
