@<TRIPOS>MOLECULE
NONAME
51 54 1 0 0 
SMALL
USER_CHARGES


@<TRIPOS>ATOM
  1 O       -1.3110     0.2460     1.1090 O.2   1 <1>  -0.5700 
  2 C       -1.8120     0.9450     0.2510 C.2   1 <1>   0.5440 
  3 N       -2.7820     0.3750    -0.5430 N.am  1 <1>  -0.6600 
  4 C       -1.4120     2.3260     0.1110 C.ar  1 <1>   0.0860 
  5 C       -2.8410    -1.1080    -0.6600 C.3   1 <1>   0.1400 
  6 C       -4.1000     1.0410    -0.7410 C.3   1 <1>   0.1400 
  7 C       -1.4730     3.0060    -1.0910 C.ar  1 <1>   0.1600 
  8 C       -0.9330     3.0640     1.1770 C.ar  1 <1>   0.1600 
  9 C       -3.7980    -1.6640     0.4200 C.3   1 <1>   0.4230 
 10 C       -5.0710     0.5110     0.3230 C.3   1 <1>  -0.1600 
 11 N       -1.1370     4.2700    -1.2250 N.ar  1 <1>  -0.6200 
 12 N       -0.5850     4.3290     1.0800 N.ar  1 <1>  -0.6200 
 13 N       -3.7920    -3.1830     0.5310 N.4   1 <1>  -0.9590 
 14 C       -5.2230    -1.0390     0.3140 C.3   1 <1>   0.0000 
 15 C       -0.7110     4.8690    -0.1230 C.ar  1 <1>   0.5880 
 16 C       -4.9800    -3.7500     1.2490 C.3   1 <1>   0.3430 
 17 C       -3.5680    -3.9270    -0.7520 C.3   1 <1>   0.2630 
 18 C       -6.0630    -1.4640     1.5540 C.3   1 <1>  -0.1600 
 19 C       -5.9170    -1.5070    -0.9970 C.3   1 <1>   0.1200 
 20 C       -0.3140     6.3330    -0.2560 C.3   1 <1>  -0.0680 
 21 C       -5.5500    -2.7420     2.2460 C.3   1 <1>  -0.1600 
 22 O       -7.0820    -0.8000    -1.2400 O.3   1 <1>  -0.6800 
 23 C       -0.9190     7.3880     0.6270 C.3   1 <1>  -0.2000 
 24 C       -1.2610     7.3490    -0.8300 C.3   1 <1>  -0.2000 
 25 H       -3.1670    -1.3630    -1.6510 H     1 <1>   0.0800 
 26 H       -1.8550    -1.5140    -0.5130 H     1 <1>   0.0800 
 27 H       -4.0080     2.1100    -0.6360 H     1 <1>   0.0800 
 28 H       -4.4710     0.8370    -1.7320 H     1 <1>   0.0800 
 29 H       -1.8120     2.4890    -1.9720 H     1 <1>   0.1500 
 30 H       -0.8360     2.5900     2.1400 H     1 <1>   0.1500 
 31 H       -3.3990    -1.2960     1.3520 H     1 <1>   0.0800 
 32 H       -4.7030     0.8360     1.2820 H     1 <1>   0.0800 
 33 H       -6.0260     0.9880     0.1880 H     1 <1>   0.0800 
 34 H       -2.9790    -3.3840     1.1340 H     1 <1>   0.4500 
 35 H       -5.7520    -4.0000     0.5390 H     1 <1>   0.0800 
 36 H       -4.6990    -4.6550     1.7650 H     1 <1>   0.0800 
 37 H       -4.3630    -3.7230    -1.4510 H     1 <1>   0.0800 
 38 H       -3.5390    -4.9890    -0.5670 H     1 <1>   0.0800 
 39 H       -2.6310    -3.6390    -1.1990 H     1 <1>   0.0800 
 40 H       -6.0700    -0.6820     2.2950 H     1 <1>   0.0800 
 41 H       -7.0910    -1.6110     1.2700 H     1 <1>   0.0800 
 42 H       -6.1770    -2.5500    -0.9570 H     1 <1>   0.0800 
 43 H       -5.2880    -1.3480    -1.8540 H     1 <1>   0.0800 
 44 H        0.7270     6.4330    -0.5020 H     1 <1>   0.1000 
 45 H       -6.3610    -3.1990     2.7880 H     1 <1>   0.0800 
 46 H       -4.7910    -2.4940     2.9690 H     1 <1>   0.0800 
 47 H       -7.7590    -0.9490    -0.5500 H     1 <1>   0.4000 
 48 H       -1.6620     7.0880     1.3450 H     1 <1>   0.1000 
 49 H       -0.2810     8.1710     0.9950 H     1 <1>   0.1000 
 50 H       -0.8630     8.1050    -1.4830 H     1 <1>   0.1000 
 51 H       -2.2440     7.0230    -1.1250 H     1 <1>   0.1000 
@<TRIPOS>BOND
  1   1   2  2   
  2   2   3  am  
  3   2   4  1   
  4   3   5  1   
  5   3   6  1   
  6   4   7  ar  
  7   4   8  ar  
  8   5   9  1   
  9   5  25  1   
 10   5  26  1   
 11   6  10  1   
 12   6  27  1   
 13   6  28  1   
 14   7  11  ar  
 15   7  29  1   
 16   8  12  ar  
 17   8  30  1   
 18   9  13  1   
 19   9  14  1   
 20   9  31  1   
 21  10  14  1   
 22  10  32  1   
 23  10  33  1   
 24  11  15  ar  
 25  12  15  ar  
 26  13  16  1   
 27  13  17  1   
 28  13  34  1   
 29  14  18  1   
 30  14  19  1   
 31  15  20  1   
 32  16  21  1   
 33  16  35  1   
 34  16  36  1   
 35  17  37  1   
 36  17  38  1   
 37  17  39  1   
 38  18  21  1   
 39  18  40  1   
 40  18  41  1   
 41  19  22  1   
 42  19  42  1   
 43  19  43  1   
 44  20  23  1   
 45  20  24  1   
 46  20  44  1   
 47  21  45  1   
 48  21  46  1   
 49  22  47  1   
 50  23  24  1   
 51  23  48  1   
 52  23  49  1   
 53  24  50  1   
 54  24  51  1   
@<TRIPOS>SUBSTRUCTURE
  1 ****   3 GROUP 4 **** **** 0

# MOE 2024.06 (io_trps.svl 2023.06)
