@<TRIPOS>MOLECULE
NONAME
53 56 1 0 0 
SMALL
USER_CHARGES


@<TRIPOS>ATOM
  1 O       -0.3480     2.2470     2.3640 O.2   1 <1>  -0.5700 
  2 C       -0.0710     2.7710     1.3070 C.2   1 <1>   0.5690 
  3 N       -1.0720     3.1110     0.4160 N.am  1 <1>  -0.6600 
  4 C        1.4260     3.0470     1.0530 C.3   1 <1>   0.2680 
  5 C       -2.5120     3.0440     0.8160 C.3   1 <1>   0.1400 
  6 C       -0.8610     3.6710    -0.9490 C.3   1 <1>   0.1400 
  7 C        1.6850     4.5380     0.7640 C.ar  1 <1>  -0.1440 
  8 C        2.1170     2.0730     0.0790 C.ar  1 <1>  -0.1440 
  9 C       -3.3170     2.1660    -0.1590 C.3   1 <1>   0.0000 
 10 C       -1.6630     2.8810    -1.9920 C.3   1 <1>  -0.1600 
 11 C        2.2160     5.0040    -0.4350 C.ar  1 <1>  -0.1500 
 12 C        1.3680     5.4630     1.7510 C.ar  1 <1>  -0.1500 
 13 C        3.4990     2.1350    -0.0610 C.ar  1 <1>  -0.1500 
 14 C        1.4220     1.1140    -0.6480 C.ar  1 <1>  -0.1500 
 15 C       -4.7890     2.0830     0.2890 C.3   1 <1>   0.2000 
 16 C       -3.1430     2.7190    -1.6010 C.3   1 <1>  -0.1600 
 17 C       -2.9030     0.6850    -0.0780 C.3   1 <1>  -0.1600 
 18 C        2.4250     6.3570    -0.6380 C.ar  1 <1>  -0.1500 
 19 C        1.5750     6.8160     1.5490 C.ar  1 <1>  -0.1500 
 20 C        4.1660     1.2810    -0.9210 C.ar  1 <1>  -0.1500 
 21 C        2.0860     0.2590    -1.5100 C.ar  1 <1>  -0.1500 
 22 O       -5.5480     3.1580    -0.1360 O.3   1 <1>  -0.6800 
 23 C       -5.3440     0.7820    -0.2900 C.3   1 <1>  -0.1600 
 24 C       -4.1250    -0.1160    -0.5380 C.3   1 <1>  -0.1600 
 25 C        2.1040     7.2650     0.3540 C.ar  1 <1>  -0.1500 
 26 C        3.4590     0.3430    -1.6500 C.ar  1 <1>  -0.1500 
 27 H        1.9040     2.8610     1.9980 H     1 <1>   0.0800 
 28 H       -2.6120     2.6580     1.8160 H     1 <1>   0.0800 
 29 H       -2.9170     4.0410     0.8140 H     1 <1>   0.0800 
 30 H       -1.1690     4.7030    -0.9520 H     1 <1>   0.0800 
 31 H        0.1750     3.6300    -1.2250 H     1 <1>   0.0800 
 32 H       -1.6000     3.3930    -2.9350 H     1 <1>   0.0800 
 33 H       -1.2070     1.9190    -2.1290 H     1 <1>   0.0800 
 34 H        2.4720     4.3220    -1.2270 H     1 <1>   0.1500 
 35 H        0.9530     5.1320     2.6880 H     1 <1>   0.1500 
 36 H        4.0650     2.8580     0.5020 H     1 <1>   0.1500 
 37 H        0.3570     1.0100    -0.5520 H     1 <1>   0.1500 
 38 H       -4.8440     2.0450     1.3640 H     1 <1>   0.0800 
 39 H       -3.6350     2.0820    -2.3140 H     1 <1>   0.0800 
 40 H       -3.5950     3.6940    -1.6640 H     1 <1>   0.0800 
 41 H       -2.0310     0.4490    -0.6580 H     1 <1>   0.0800 
 42 H       -2.6920     0.4330     0.9490 H     1 <1>   0.0800 
 43 H        2.8370     6.7030    -1.5700 H     1 <1>   0.1500 
 44 H        1.3230     7.5190     2.3240 H     1 <1>   0.1500 
 45 H        5.2350     1.3460    -1.0210 H     1 <1>   0.1500 
 46 H        1.5330    -0.4750    -2.0690 H     1 <1>   0.1500 
 47 H       -5.5480     3.1900    -1.1100 H     1 <1>   0.4000 
 48 H       -6.0200     0.3250     0.4110 H     1 <1>   0.0800 
 49 H       -5.8580     0.9570    -1.2190 H     1 <1>   0.0800 
 50 H       -4.2010    -1.0440     0.0030 H     1 <1>   0.0800 
 51 H       -4.0440    -0.3350    -1.5890 H     1 <1>   0.0800 
 52 H        2.2660     8.3170     0.1960 H     1 <1>   0.1500 
 53 H        3.9750    -0.3220    -2.3200 H     1 <1>   0.1500 
@<TRIPOS>BOND
  1   1   2  2   
  2   2   3  am  
  3   2   4  1   
  4   3   5  1   
  5   3   6  1   
  6   4   7  1   
  7   4   8  1   
  8   4  27  1   
  9   5   9  1   
 10   5  28  1   
 11   5  29  1   
 12   6  10  1   
 13   6  30  1   
 14   6  31  1   
 15   7  11  ar  
 16   7  12  ar  
 17   8  13  ar  
 18   8  14  ar  
 19   9  15  1   
 20   9  16  1   
 21   9  17  1   
 22  10  16  1   
 23  10  32  1   
 24  10  33  1   
 25  11  18  ar  
 26  11  34  1   
 27  12  19  ar  
 28  12  35  1   
 29  13  20  ar  
 30  13  36  1   
 31  14  21  ar  
 32  14  37  1   
 33  15  22  1   
 34  15  23  1   
 35  15  38  1   
 36  16  39  1   
 37  16  40  1   
 38  17  24  1   
 39  17  41  1   
 40  17  42  1   
 41  18  25  ar  
 42  18  43  1   
 43  19  25  ar  
 44  19  44  1   
 45  20  26  ar  
 46  20  45  1   
 47  21  26  ar  
 48  21  46  1   
 49  22  47  1   
 50  23  24  1   
 51  23  48  1   
 52  23  49  1   
 53  24  50  1   
 54  24  51  1   
 55  25  52  1   
 56  26  53  1   
@<TRIPOS>SUBSTRUCTURE
  1 ****   3 GROUP 4 **** **** 0

# MOE 2024.06 (io_trps.svl 2023.06)
