@<TRIPOS>MOLECULE
NONAME
45 47 1 0 0 
SMALL
USER_CHARGES


@<TRIPOS>ATOM
  1 CL       2.3000     1.5290     3.5600 Cl    1 <1>  -0.1770 
  2 C        2.7350     1.9430     1.9220 C.ar  1 <1>   0.1770 
  3 C        2.7900     3.2720     1.5510 C.ar  1 <1>  -0.1500 
  4 C        3.0180     0.9330     1.0220 C.ar  1 <1>  -0.1500 
  5 C        3.1380     3.6040     0.2520 C.ar  1 <1>   0.0830 
  6 C        3.3620     1.2620    -0.2790 C.ar  1 <1>  -0.1500 
  7 O        3.1810     4.9260    -0.0450 O.3   1 <1>  -0.3630 
  8 C        3.4220     2.5920    -0.6650 C.ar  1 <1>  -0.1500 
  9 C        3.6040     5.3820    -1.3220 C.3   1 <1>   0.1810 
 10 C        3.6480     6.9070    -1.3880 C.2   1 <1>   0.5690 
 11 O        2.9530     7.4330    -2.2280 O.2   1 <1>  -0.5700 
 12 N        4.4610     7.6510    -0.5590 N.am  1 <1>  -0.6600 
 13 C        5.3410     7.0840     0.5000 C.3   1 <1>   0.1400 
 14 C        4.4660     9.1390    -0.6260 C.3   1 <1>   0.1400 
 15 C        6.7760     7.5670     0.2780 C.3   1 <1>  -0.1600 
 16 C        5.8970     9.6430    -0.8380 C.3   1 <1>  -0.1600 
 17 C        6.8540     9.1030     0.2360 C.3   1 <1>   0.0580 
 18 C        8.2720     9.6270    -0.0010 C.2   1 <1>  -0.0380 
 19 N        8.5030    10.9570     0.2420 N.pl3 1 <1>  -0.5500 
 20 C        9.3370     8.9090    -0.4310 C.2   1 <1>  -0.1360 
 21 C        9.7340    11.5170     0.0570 C.2   1 <1>   0.4390 
 22 C       10.5990     9.5330    -0.6060 C.2   1 <1>   0.7670 
 23 N       10.7580    10.8660    -0.3460 N.2   1 <1>  -0.6610 
 24 C        9.8550    12.9910     0.3570 C.3   1 <1>  -0.1790 
 25 O       11.5610     8.8870    -0.9900 O.2   1 <1>  -0.5700 
 26 H        2.5640     4.0430     2.2640 H     1 <1>   0.1500 
 27 H        2.9670    -0.0940     1.3380 H     1 <1>   0.1500 
 28 H        3.5820     0.4830    -0.9890 H     1 <1>   0.1500 
 29 H        3.6870     2.8150    -1.6810 H     1 <1>   0.1500 
 30 H        2.9080     5.0160    -2.0540 H     1 <1>   0.0800 
 31 H        4.5840     4.9900    -1.5210 H     1 <1>   0.0800 
 32 H        5.3280     6.0100     0.4920 H     1 <1>   0.0800 
 33 H        4.9850     7.4110     1.4630 H     1 <1>   0.0800 
 34 H        4.0670     9.5300     0.2940 H     1 <1>   0.0800 
 35 H        3.8420     9.4890    -1.4310 H     1 <1>   0.0800 
 36 H        7.1270     7.1510    -0.6500 H     1 <1>   0.0800 
 37 H        7.3990     7.1930     1.0710 H     1 <1>   0.0800 
 38 H        5.8910    10.7180    -0.8220 H     1 <1>   0.0800 
 39 H        6.2320     9.3350    -1.8130 H     1 <1>   0.0800 
 40 H        6.5280     9.4670     1.1960 H     1 <1>   0.0800 
 41 H        7.7480    11.5640     0.5660 H     1 <1>   0.4000 
 42 H        9.3050     7.8640    -0.6610 H     1 <1>   0.1500 
 43 H        9.1930    13.5500    -0.2770 H     1 <1>   0.0800 
 44 H       10.8630    13.3200     0.1750 H     1 <1>   0.0800 
 45 H        9.6150    13.1770     1.3870 H     1 <1>   0.0800 
@<TRIPOS>BOND
  1   1   2  1   
  2   2   3  ar  
  3   2   4  ar  
  4   3   5  ar  
  5   3  26  1   
  6   4   6  ar  
  7   4  27  1   
  8   5   7  1   
  9   5   8  ar  
 10   6   8  ar  
 11   6  28  1   
 12   7   9  1   
 13   8  29  1   
 14   9  10  1   
 15   9  30  1   
 16   9  31  1   
 17  10  11  2   
 18  10  12  am  
 19  12  13  1   
 20  12  14  1   
 21  13  15  1   
 22  13  32  1   
 23  13  33  1   
 24  14  16  1   
 25  14  34  1   
 26  14  35  1   
 27  15  17  1   
 28  15  36  1   
 29  15  37  1   
 30  16  17  1   
 31  16  38  1   
 32  16  39  1   
 33  17  18  1   
 34  17  40  1   
 35  18  19  1   
 36  18  20  2   
 37  19  21  1   
 38  19  41  1   
 39  20  22  1   
 40  20  42  1   
 41  21  23  2   
 42  21  24  1   
 43  22  23  1   
 44  22  25  2   
 45  24  43  1   
 46  24  44  1   
 47  24  45  1   
@<TRIPOS>SUBSTRUCTURE
  1 ****  13 GROUP 4 **** **** 0

# MOE 2024.06 (io_trps.svl 2023.06)
