@<TRIPOS>MOLECULE
NONAME
56 57 1 0 0 
SMALL
USER_CHARGES


@<TRIPOS>ATOM
  1 O       -1.2140     1.2220     2.5430 O.2   1 <1>  -0.5700 
  2 C       -1.4350     1.3050     1.3550 C.2   1 <1>   0.5690 
  3 N       -1.6880     0.1820     0.5970 N.am  1 <1>  -0.6600 
  4 C       -1.4530     2.7130     0.7290 C.3   1 <1>   0.1710 
  5 C       -2.0400     0.1800    -0.8470 C.3   1 <1>   0.1400 
  6 C       -1.6340    -1.1750     1.2050 C.3   1 <1>   0.1400 
  7 N       -0.1330     3.3460     0.3860 N.3   1 <1>  -0.8100 
  8 C       -3.5470     0.3650    -1.0700 C.3   1 <1>  -0.1600 
  9 C       -3.0360    -1.6780     1.5680 C.3   1 <1>  -0.1600 
 10 C       -0.2740     4.6780    -0.2780 C.3   1 <1>   0.1900 
 11 C        0.7700     2.4120    -0.3410 C.3   1 <1>   0.2530 
 12 C       -4.4780    -0.2940    -0.0360 C.3   1 <1>  -0.1600 
 13 C       -4.0500    -1.7030     0.4090 C.3   1 <1>  -0.1600 
 14 C        1.0920     5.3700    -0.4940 C.3   1 <1>   0.1200 
 15 C       -1.1790     5.5990     0.5610 C.3   1 <1>  -0.2400 
 16 C        2.2340     2.5880     0.0640 C.ar  1 <1>  -0.1440 
 17 O        0.9270     6.5900    -1.1580 O.3   1 <1>  -0.5600 
 18 C        3.2760     2.5530    -0.8630 C.ar  1 <1>  -0.1440 
 19 C        2.5310     2.7770     1.4080 C.ar  1 <1>  -0.1500 
 20 C        2.1130     7.2990    -1.3120 C.3   1 <1>   0.0400 
 21 C        4.5830     2.7250    -0.4290 C.ar  1 <1>  -0.1500 
 22 C        3.0290     2.3270    -2.3480 C.3   1 <1>  -0.0970 
 23 C        3.8360     2.9450     1.8320 C.ar  1 <1>  -0.1500 
 24 C        4.8640     2.9220     0.9100 C.ar  1 <1>  -0.1500 
 25 H       -1.9400     3.3260     1.4630 H     1 <1>   0.0800 
 26 H       -2.0790     2.7110    -0.1410 H     1 <1>   0.0800 
 27 H       -1.7380    -0.7600    -1.2790 H     1 <1>   0.0800 
 28 H       -1.4970     0.9500    -1.3660 H     1 <1>   0.0800 
 29 H       -1.0270    -1.1520     2.0950 H     1 <1>   0.0800 
 30 H       -1.1660    -1.8600     0.5200 H     1 <1>   0.0800 
 31 H       -3.7810    -0.0260    -2.0440 H     1 <1>   0.0800 
 32 H       -3.7690     1.4170    -1.1020 H     1 <1>   0.0800 
 33 H       -3.4170    -1.0740     2.3730 H     1 <1>   0.0800 
 34 H       -2.9330    -2.6770     1.9520 H     1 <1>   0.0800 
 35 H       -0.7230     4.5360    -1.2460 H     1 <1>   0.0800 
 36 H        0.6330     2.5450    -1.3990 H     1 <1>   0.0800 
 37 H        0.5320     1.3910    -0.1170 H     1 <1>   0.0800 
 38 H       -5.4640    -0.3510    -0.4650 H     1 <1>   0.0800 
 39 H       -4.5520     0.3410     0.8310 H     1 <1>   0.0800 
 40 H       -4.9280    -2.2180     0.7600 H     1 <1>   0.0800 
 41 H       -3.6630    -2.2630    -0.4240 H     1 <1>   0.0800 
 42 H        1.7300     4.7690    -1.1110 H     1 <1>   0.0800 
 43 H        1.5640     5.5490     0.4570 H     1 <1>   0.0800 
 44 H       -0.8260     5.6390     1.5750 H     1 <1>   0.0800 
 45 H       -2.2000     5.2710     0.5390 H     1 <1>   0.0800 
 46 H       -1.1700     6.5970     0.1630 H     1 <1>   0.0800 
 47 H        1.7320     2.7940     2.1320 H     1 <1>   0.1500 
 48 H        1.8930     8.2120    -1.8360 H     1 <1>   0.0800 
 49 H        2.8090     6.7080    -1.8830 H     1 <1>   0.0800 
 50 H        2.5190     7.5260    -0.3410 H     1 <1>   0.0800 
 51 H        5.3960     2.7050    -1.1330 H     1 <1>   0.1500 
 52 H        2.4750     1.4170    -2.4950 H     1 <1>   0.0800 
 53 H        3.9560     2.2430    -2.8840 H     1 <1>   0.0800 
 54 H        2.4750     3.1500    -2.7610 H     1 <1>   0.0800 
 55 H        4.0440     3.0930     2.8760 H     1 <1>   0.1500 
 56 H        5.8810     3.0540     1.2350 H     1 <1>   0.1500 
@<TRIPOS>BOND
  1   1   2  2   
  2   2   3  am  
  3   2   4  1   
  4   3   5  1   
  5   3   6  1   
  6   4   7  1   
  7   4  25  1   
  8   4  26  1   
  9   5   8  1   
 10   5  27  1   
 11   5  28  1   
 12   6   9  1   
 13   6  29  1   
 14   6  30  1   
 15   7  10  1   
 16   7  11  1   
 17   8  12  1   
 18   8  31  1   
 19   8  32  1   
 20   9  13  1   
 21   9  33  1   
 22   9  34  1   
 23  10  14  1   
 24  10  15  1   
 25  10  35  1   
 26  11  16  1   
 27  11  36  1   
 28  11  37  1   
 29  12  13  1   
 30  12  38  1   
 31  12  39  1   
 32  13  40  1   
 33  13  41  1   
 34  14  17  1   
 35  14  42  1   
 36  14  43  1   
 37  15  44  1   
 38  15  45  1   
 39  15  46  1   
 40  16  18  ar  
 41  16  19  ar  
 42  17  20  1   
 43  18  21  ar  
 44  18  22  1   
 45  19  23  ar  
 46  19  47  1   
 47  20  48  1   
 48  20  49  1   
 49  20  50  1   
 50  21  24  ar  
 51  21  51  1   
 52  22  52  1   
 53  22  53  1   
 54  22  54  1   
 55  23  24  ar  
 56  23  55  1   
 57  24  56  1   
@<TRIPOS>SUBSTRUCTURE
  1 ****  11 GROUP 4 **** **** 0

# MOE 2024.06 (io_trps.svl 2023.06)
