@<TRIPOS>MOLECULE
NONAME
46 49 1 0 0 
SMALL
USER_CHARGES


@<TRIPOS>ATOM
  1 O       -1.3380     0.4850    -1.2290 O.2   1 <1>  -0.5700 
  2 C       -1.2870     0.6390    -0.0190 C.2   1 <1>   0.7160 
  3 N       -1.4320    -0.4630     0.7730 N.am  1 <1>  -0.7300 
  4 C       -1.1050     1.9400     0.6120 C.2   1 <1>   0.2030 
  5 C       -1.7590    -1.8270     0.3120 C.3   1 <1>   0.2200 
  6 N       -1.1410     2.1460     1.9210 N.2   1 <1>  -0.7070 
  7 C       -0.8750     3.1570    -0.0510 C.2   1 <1>  -0.1810 
  8 C       -3.2660    -2.0520     0.3970 C.3   1 <1>  -0.0800 
  9 C       -1.1710    -2.8940     1.2370 C.3   1 <1>   0.1200 
 10 N       -0.9410     3.4630     2.0850 N.pl3 1 <1>   0.3000 
 11 C       -0.7850     4.0930     0.9070 C.2   1 <1>  -0.3320 
 12 C       -0.7440     3.4610    -1.5340 C.3   1 <1>   0.0210 
 13 C       -3.3910    -3.3450     1.1960 C.3   1 <1>   0.1200 
 14 C       -3.9360    -2.1050    -0.9840 C.3   1 <1>  -0.0160 
 15 O       -2.2380    -3.4080     1.9690 O.3   1 <1>  -0.5600 
 16 C       -0.5440     5.5730     0.6800 C.3   1 <1>   0.0200 
 17 C       -0.1440     4.8650    -1.7440 C.3   1 <1>  -0.1600 
 18 C       -5.4290    -2.3640    -0.8590 C.ar  1 <1>  -0.1430 
 19 C       -0.7760     5.9120    -0.8040 C.3   1 <1>  -0.1600 
 20 C       -6.3030    -1.3690    -0.4720 C.ar  1 <1>  -0.1500 
 21 C       -5.9880    -3.5990    -1.1190 C.ar  1 <1>  -0.1500 
 22 C       -7.6550    -1.6490    -0.3630 C.ar  1 <1>   0.1600 
 23 C       -7.3550    -3.7740    -0.9810 C.ar  1 <1>   0.1600 
 24 N       -8.2020    -2.8290    -0.6070 N.ar  1 <1>  -0.6200 
 25 H       -1.4820    -0.2810     1.7800 H     1 <1>   0.3700 
 26 H       -1.3830    -1.9730    -0.6870 H     1 <1>   0.0800 
 27 H       -3.7220    -1.2690     0.9780 H     1 <1>   0.0800 
 28 H       -0.4340    -2.4990     1.9140 H     1 <1>   0.0800 
 29 H       -0.7500    -3.7010     0.6630 H     1 <1>   0.0800 
 30 H       -0.9180     3.9080     3.0100 H     1 <1>   0.2700 
 31 H       -0.1160     2.7270    -2.0090 H     1 <1>   0.0800 
 32 H       -1.7200     3.4090    -1.9830 H     1 <1>   0.0800 
 33 H       -3.4080    -4.2100     0.5550 H     1 <1>   0.0800 
 34 H       -4.2530    -3.3480     1.8420 H     1 <1>   0.0800 
 35 H       -3.4820    -2.8730    -1.5860 H     1 <1>   0.0800 
 36 H       -3.7820    -1.1660    -1.4890 H     1 <1>   0.0800 
 37 H       -1.2050     6.1610     1.2920 H     1 <1>   0.0800 
 38 H        0.4720     5.8070     0.9500 H     1 <1>   0.0800 
 39 H        0.9140     4.8210    -1.5520 H     1 <1>   0.0800 
 40 H       -0.2820     5.1610    -2.7690 H     1 <1>   0.0800 
 41 H       -1.8360     5.9460    -0.9900 H     1 <1>   0.0800 
 42 H       -0.3720     6.8860    -1.0160 H     1 <1>   0.0800 
 43 H       -5.9440    -0.3790    -0.2540 H     1 <1>   0.1500 
 44 H       -5.3760    -4.4270    -1.4290 H     1 <1>   0.1500 
 45 H       -8.3210    -0.8600    -0.0590 H     1 <1>   0.1500 
 46 H       -7.7740    -4.7440    -1.1890 H     1 <1>   0.1500 
@<TRIPOS>BOND
  1   1   2  2   
  2   2   3  am  
  3   2   4  1   
  4   3   5  1   
  5   3  25  1   
  6   4   6  2   
  7   4   7  1   
  8   5   8  1   
  9   5   9  1   
 10   5  26  1   
 11   6  10  1   
 12   7  11  2   
 13   7  12  1   
 14   8  13  1   
 15   8  14  1   
 16   8  27  1   
 17   9  15  1   
 18   9  28  1   
 19   9  29  1   
 20  10  11  1   
 21  10  30  1   
 22  11  16  1   
 23  12  17  1   
 24  12  31  1   
 25  12  32  1   
 26  13  15  1   
 27  13  33  1   
 28  13  34  1   
 29  14  18  1   
 30  14  35  1   
 31  14  36  1   
 32  16  19  1   
 33  16  37  1   
 34  16  38  1   
 35  17  19  1   
 36  17  39  1   
 37  17  40  1   
 38  18  20  ar  
 39  18  21  ar  
 40  19  41  1   
 41  19  42  1   
 42  20  22  ar  
 43  20  43  1   
 44  21  23  ar  
 45  21  44  1   
 46  22  24  ar  
 47  22  45  1   
 48  23  24  ar  
 49  23  46  1   
@<TRIPOS>SUBSTRUCTURE
  1 ****   2 GROUP 4 **** **** 0

# MOE 2024.06 (io_trps.svl 2023.06)
