@<TRIPOS>MOLECULE
NONAME
38 40 1 0 0 
SMALL
USER_CHARGES


@<TRIPOS>ATOM
  1 O       -0.8760    -0.4050     1.4180 O.2   1 <1>  -0.5700 
  2 C       -1.9680    -0.0430     1.0100 C.2   1 <1>   0.6900 
  3 N       -2.3840     1.2170     0.8070 N.am  1 <1>  -0.3680 
  4 N       -2.9850    -0.8250     0.6710 N.am  1 <1>  -0.4900 
  5 N       -3.6670     1.2420     0.3270 N.2   1 <1>  -0.5120 
  6 C       -4.0280    -0.0090     0.2480 C.2   1 <1>   0.5100 
  7 C       -5.2870    -0.5950    -0.2160 C.2   1 <1>   0.6300 
  8 O       -5.3200    -1.8060    -0.3970 O.2   1 <1>  -0.5700 
  9 N       -6.4580     0.1140    -0.4660 N.am  1 <1>  -0.6600 
 10 C       -6.7730     1.4630     0.0860 C.3   1 <1>   0.1400 
 11 C       -7.5350    -0.4380    -1.3410 C.3   1 <1>   0.1400 
 12 C       -8.0850     1.3990     0.8720 C.3   1 <1>  -0.1600 
 13 C       -8.8470    -0.5140    -0.5590 C.3   1 <1>  -0.1600 
 14 C       -9.2360     0.8480     0.0200 C.3   1 <1>   0.4180 
 15 O       -9.4500     1.6980    -1.0810 O.3   1 <1>  -0.5600 
 16 C      -10.5130     0.7110     0.8450 C.2   1 <1>  -0.2880 
 17 C      -10.2140     2.8520    -0.8670 C.3   1 <1>   0.1200 
 18 C      -11.6190     1.4300     0.6390 C.2   1 <1>  -0.2760 
 19 C      -11.6460     2.4840    -0.4530 C.3   1 <1>  -0.0220 
 20 C      -12.9080     1.2730     1.4260 C.3   1 <1>  -0.1020 
 21 H       -1.7900     2.0320     0.9800 H     1 <1>   0.3700 
 22 H       -2.9850    -1.8410     0.6540 H     1 <1>   0.3700 
 23 H       -6.8630     2.1650    -0.7260 H     1 <1>   0.0800 
 24 H       -6.0020     1.8090     0.7480 H     1 <1>   0.0800 
 25 H       -7.2750    -1.4170    -1.7050 H     1 <1>   0.0800 
 26 H       -7.6580     0.2080    -2.1940 H     1 <1>   0.0800 
 27 H       -8.3370     2.3720     1.2490 H     1 <1>   0.0800 
 28 H       -7.9420     0.7590     1.7230 H     1 <1>   0.0800 
 29 H       -8.7350    -1.2290     0.2340 H     1 <1>   0.0800 
 30 H       -9.6350    -0.8600    -1.2020 H     1 <1>   0.0800 
 31 H      -10.4350    -0.0390     1.6110 H     1 <1>   0.1500 
 32 H      -10.2240     3.4150    -1.7830 H     1 <1>   0.0800 
 33 H       -9.7420     3.4430    -0.1030 H     1 <1>   0.0800 
 34 H      -12.1860     2.1120    -1.3050 H     1 <1>   0.0800 
 35 H      -12.1390     3.3720    -0.1030 H     1 <1>   0.0800 
 36 H      -13.7140     1.0100     0.7650 H     1 <1>   0.0800 
 37 H      -13.1530     2.1920     1.9270 H     1 <1>   0.0800 
 38 H      -12.8060     0.4980     2.1650 H     1 <1>   0.0800 
@<TRIPOS>BOND
  1   1   2  2   
  2   2   3  am  
  3   2   4  am  
  4   3   5  1   
  5   3  21  1   
  6   4   6  1   
  7   4  22  1   
  8   5   6  2   
  9   6   7  1   
 10   7   8  2   
 11   7   9  am  
 12   9  10  1   
 13   9  11  1   
 14  10  12  1   
 15  10  23  1   
 16  10  24  1   
 17  11  13  1   
 18  11  25  1   
 19  11  26  1   
 20  12  14  1   
 21  12  27  1   
 22  12  28  1   
 23  13  14  1   
 24  13  29  1   
 25  13  30  1   
 26  14  15  1   
 27  14  16  1   
 28  15  17  1   
 29  16  18  2   
 30  16  31  1   
 31  17  19  1   
 32  17  32  1   
 33  17  33  1   
 34  18  19  1   
 35  18  20  1   
 36  19  34  1   
 37  19  35  1   
 38  20  36  1   
 39  20  37  1   
 40  20  38  1   
@<TRIPOS>SUBSTRUCTURE
  1 ****  10 GROUP 4 **** **** 0

# MOE 2024.06 (io_trps.svl 2023.06)
