@<TRIPOS>MOLECULE
NONAME
40 43 1 0 0 
SMALL
USER_CHARGES


@<TRIPOS>ATOM
  1 O       -1.9920     0.2880    -1.7460 O.co2 1 <1>  -0.9000 
  2 C       -1.8280    -0.8740    -1.3250 C.2   1 <1>   1.0330 
  3 O       -0.6600    -1.2740    -1.1450 O.co2 1 <1>  -0.9000 
  4 C       -2.9410    -1.7700    -1.0090 C.2   1 <1>  -0.0060 
  5 N       -4.2850    -1.5490    -1.2010 N.2   1 <1>  -0.5650 
  6 C       -2.8200    -2.9870    -0.4460 C.2   1 <1>  -0.0100 
  7 C       -4.8510    -2.6060    -0.7300 C.2   1 <1>   0.5620 
  8 O       -4.0070    -3.5070    -0.2710 O.3   1 <1>  -0.2800 
  9 N       -6.2170    -2.8230    -0.6480 N.pl3 1 <1>  -0.8220 
 10 C       -7.1520    -1.7280    -1.0500 C.3   1 <1>   0.2090 
 11 C       -6.7880    -3.8270     0.2830 C.3   1 <1>   0.2090 
 12 C       -7.7120    -0.9870     0.1810 C.3   1 <1>   0.1440 
 13 C       -7.3550    -3.1230     1.5240 C.3   1 <1>  -0.1600 
 14 C       -8.6860     0.0640    -0.3180 C.ar  1 <1>   0.1660 
 15 C       -8.3490    -2.0030     1.1550 C.3   1 <1>  -0.1600 
 16 C       -6.6400    -0.1080     0.8800 C.3   1 <1>  -0.1600 
 17 N       -9.9150    -0.1580    -0.7310 N.ar  1 <1>  -0.6200 
 18 C       -8.1210     1.3060    -0.3110 C.ar  1 <1>  -0.1430 
 19 C       -6.7020     1.2690     0.2030 C.3   1 <1>  -0.0170 
 20 C      -10.5610     0.9280    -1.1330 C.ar  1 <1>   0.4770 
 21 C       -8.8810     2.3590    -0.7530 C.ar  1 <1>   0.1600 
 22 N      -10.1190     2.1790    -1.1680 N.ar  1 <1>  -0.6200 
 23 C      -11.9780     0.7200    -1.6080 C.3   1 <1>  -0.0970 
 24 H       -1.9360    -3.5220    -0.1480 H     1 <1>   0.1500 
 25 H       -7.9680    -2.1600    -1.6010 H     1 <1>   0.0800 
 26 H       -6.6610    -1.0290    -1.7050 H     1 <1>   0.0800 
 27 H       -6.0380    -4.5410     0.5770 H     1 <1>   0.0800 
 28 H       -7.5730    -4.3610    -0.2250 H     1 <1>   0.0800 
 29 H       -6.5360    -2.7140     2.0890 H     1 <1>   0.0800 
 30 H       -7.8470    -3.8490     2.1450 H     1 <1>   0.0800 
 31 H       -9.2080    -2.4450     0.6800 H     1 <1>   0.0800 
 32 H       -8.6930    -1.5020     2.0410 H     1 <1>   0.0800 
 33 H       -5.6510    -0.5260     0.8390 H     1 <1>   0.0800 
 34 H       -6.9040     0.0190     1.9150 H     1 <1>   0.0800 
 35 H       -6.0090     1.3110    -0.6220 H     1 <1>   0.0800 
 36 H       -6.4960     2.0640     0.8970 H     1 <1>   0.0800 
 37 H       -8.4750     3.3550    -0.7680 H     1 <1>   0.1500 
 38 H      -12.1390    -0.3100    -1.8650 H     1 <1>   0.0800 
 39 H      -12.1650     1.3290    -2.4720 H     1 <1>   0.0800 
 40 H      -12.6570     1.0000    -0.8250 H     1 <1>   0.0800 
@<TRIPOS>BOND
  1   1   2  ar  
  2   2   3  ar  
  3   2   4  1   
  4   4   5  1   
  5   4   6  2   
  6   5   7  2   
  7   6   8  1   
  8   6  24  1   
  9   7   8  1   
 10   7   9  1   
 11   9  10  1   
 12   9  11  1   
 13  10  12  1   
 14  10  25  1   
 15  10  26  1   
 16  11  13  1   
 17  11  27  1   
 18  11  28  1   
 19  12  14  1   
 20  12  15  1   
 21  12  16  1   
 22  13  15  1   
 23  13  29  1   
 24  13  30  1   
 25  14  17  ar  
 26  14  18  ar  
 27  15  31  1   
 28  15  32  1   
 29  16  19  1   
 30  16  33  1   
 31  16  34  1   
 32  17  20  ar  
 33  18  19  1   
 34  18  21  ar  
 35  19  35  1   
 36  19  36  1   
 37  20  22  ar  
 38  20  23  1   
 39  21  22  ar  
 40  21  37  1   
 41  23  38  1   
 42  23  39  1   
 43  23  40  1   
@<TRIPOS>SUBSTRUCTURE
  1 ****  10 GROUP 4 **** **** 0

# MOE 2024.06 (io_trps.svl 2023.06)
