@<TRIPOS>MOLECULE
NONAME
33 34 1 0 0 
SMALL
USER_CHARGES


@<TRIPOS>ATOM
  1 O        1.3030    -0.0300     2.6400 O.2   1 <1>  -0.5770 
  2 C        1.5740    -0.9240     1.8810 C.2   1 <1>   0.8480 
  3 N        2.1240    -0.6430     0.6800 N.pl3 1 <1>  -0.7350 
  4 C        1.3020    -2.3900     2.2550 C.3   1 <1>  -0.0320 
  5 C        2.4150     0.5400     0.1550 C.cat 1 <1>   1.0680 
  6 C        0.3060    -3.0520     1.2780 C.3   1 <1>   0.0830 
  7 C        0.7850    -2.5550     3.7020 C.3   1 <1>  -0.2510 
  8 N        2.3360     1.7040     0.7700 N.pl3 1 <1>  -0.7060 
  9 N        2.8330     0.7220    -1.0950 N.pl3 1 <1>  -0.7690 
 10 N        0.9850    -3.6720     0.1150 N.pl3 1 <1>   0.3040 
 11 C        2.7170     2.6900    -0.1080 C.2   1 <1>   0.1890 
 12 C        3.0260     2.0820    -1.2680 C.2   1 <1>   0.1890 
 13 C        3.0370    -0.3050    -2.1520 C.3   1 <1>   0.2640 
 14 N        1.7630    -2.9850    -0.7560 N.2   1 <1>  -0.7130 
 15 C        0.9300    -4.9760    -0.2120 C.2   1 <1>  -0.3120 
 16 C        2.1690    -3.8810    -1.6100 C.2   1 <1>   0.1270 
 17 C        1.6800    -5.1460    -1.3190 C.2   1 <1>  -0.1620 
 18 H        2.2120    -1.4410     0.0430 H     1 <1>   0.4410 
 19 H        2.2370    -2.9200     2.2040 H     1 <1>   0.0680 
 20 H       -0.4150    -2.3380     0.9220 H     1 <1>   0.0680 
 21 H       -0.2320    -3.8340     1.7840 H     1 <1>   0.0680 
 22 H       -0.1650    -2.0650     3.8270 H     1 <1>   0.0680 
 23 H        1.4830    -2.1230     4.3990 H     1 <1>   0.0680 
 24 H        0.6720    -3.5970     3.9480 H     1 <1>   0.0680 
 25 H        2.0100     1.7720     1.7410 H     1 <1>   0.4410 
 26 H        2.7390     3.7380     0.1510 H     1 <1>   0.1380 
 27 H        3.3650     2.5180    -2.1950 H     1 <1>   0.1380 
 28 H        3.6670    -1.0970    -1.7830 H     1 <1>   0.0680 
 29 H        3.5090     0.1370    -3.0130 H     1 <1>   0.0680 
 30 H        2.0890    -0.7180    -2.4500 H     1 <1>   0.0680 
 31 H        0.3700    -5.7050     0.3470 H     1 <1>   0.1380 
 32 H        2.8110    -3.6730    -2.4500 H     1 <1>   0.1380 
 33 H        1.8730    -6.0480    -1.8730 H     1 <1>   0.1380 
@<TRIPOS>BOND
  1   1   2  2   
  2   2   3  1   
  3   2   4  1   
  4   3   5  ar  
  5   3  18  1   
  6   4   6  1   
  7   4   7  1   
  8   4  19  1   
  9   5   8  ar  
 10   5   9  ar  
 11   6  10  1   
 12   6  20  1   
 13   6  21  1   
 14   7  22  1   
 15   7  23  1   
 16   7  24  1   
 17   8  11  1   
 18   8  25  1   
 19   9  12  1   
 20   9  13  1   
 21  10  14  1   
 22  10  15  1   
 23  11  12  2   
 24  11  26  1   
 25  12  27  1   
 26  13  28  1   
 27  13  29  1   
 28  13  30  1   
 29  14  16  2   
 30  15  17  2   
 31  15  31  1   
 32  16  17  1   
 33  16  32  1   
 34  17  33  1   
@<TRIPOS>SUBSTRUCTURE
  1 ****   3 GROUP 4 **** **** 0

# MOE 2024.06 (io_trps.svl 2023.06)
