@<TRIPOS>MOLECULE
NONAME
52 55 1 0 0 
SMALL
USER_CHARGES


@<TRIPOS>ATOM
  1 O       -0.4570    -0.1050    -0.3480 O.2   1 <1>  -0.5700 
  2 C       -1.3330     0.6410    -0.7420 C.2   1 <1>   0.6900 
  3 N       -2.5330     0.1370    -1.1670 N.am  1 <1>  -0.6600 
  4 N       -1.1480     1.9910    -0.7970 N.am  1 <1>  -0.5470 
  5 C       -3.8370     0.7880    -0.8350 C.3   1 <1>   0.1400 
  6 C       -2.6770    -1.3150    -1.4870 C.3   1 <1>   0.1400 
  7 C       -0.1200     2.8060    -0.2990 C.ar  1 <1>   0.1170 
  8 C       -4.5730     0.0040     0.2710 C.3   1 <1>   0.1900 
  9 C       -3.4430    -2.0480    -0.3740 C.3   1 <1>   0.1100 
 10 C        0.1070     4.0410    -0.8950 C.ar  1 <1>  -0.1500 
 11 C        0.6730     2.4380     0.7830 C.ar  1 <1>  -0.1500 
 12 N       -4.7580    -1.4150    -0.1200 N.3   1 <1>  -0.8100 
 13 C       -5.9330     0.6600     0.5840 C.3   1 <1>   0.1200 
 14 C        1.0970     4.8890    -0.4280 C.ar  1 <1>  -0.1500 
 15 C        1.6630     3.2800     1.2540 C.ar  1 <1>  -0.1500 
 16 C       -5.5170    -2.1310     0.9330 C.3   1 <1>   0.3330 
 17 O       -6.6000    -0.0480     1.5890 O.3   1 <1>  -0.5600 
 18 C        1.8840     4.5100     0.6560 C.ar  1 <1>   0.0820 
 19 C       -5.8350    -3.5630     0.5040 C.ar  1 <1>  -0.1430 
 20 C       -6.8330    -1.3910     1.2570 C.3   1 <1>   0.1200 
 21 O        2.8750     5.2780     1.1810 O.3   1 <1>  -0.3630 
 22 C       -6.3690    -3.8300    -0.7490 C.ar  1 <1>  -0.1500 
 23 C       -5.5940    -4.6190     1.3720 C.ar  1 <1>  -0.1500 
 24 C        3.1970     6.5300     0.6180 C.3   1 <1>   0.0400 
 25 C       -6.6600    -5.1290    -1.1290 C.ar  1 <1>  -0.1500 
 26 C       -5.8830    -5.9190     0.9940 C.ar  1 <1>  -0.1500 
 27 C       -6.4170    -6.1750    -0.2560 C.ar  1 <1>  -0.1500 
 28 H       -1.8050     2.4430    -1.4220 H     1 <1>   0.3700 
 29 H       -3.6810     1.7970    -0.5010 H     1 <1>   0.0800 
 30 H       -4.4510     0.8160    -1.7190 H     1 <1>   0.0800 
 31 H       -3.2130    -1.4220    -2.4130 H     1 <1>   0.0800 
 32 H       -1.7090    -1.7690    -1.6130 H     1 <1>   0.0800 
 33 H       -3.9720     0.0540     1.1640 H     1 <1>   0.0800 
 34 H       -2.8480    -2.0430     0.5240 H     1 <1>   0.0800 
 35 H       -3.5820    -3.0710    -0.6770 H     1 <1>   0.0800 
 36 H       -0.4920     4.3440    -1.7330 H     1 <1>   0.1500 
 37 H        0.5170     1.4890     1.2640 H     1 <1>   0.1500 
 38 H       -6.5560     0.6810    -0.2930 H     1 <1>   0.0800 
 39 H       -5.7910     1.6660     0.9370 H     1 <1>   0.0800 
 40 H        1.2410     5.8340    -0.9160 H     1 <1>   0.1500 
 41 H        2.2730     2.9870     2.0890 H     1 <1>   0.1500 
 42 H       -4.9250    -2.1590     1.8320 H     1 <1>   0.0800 
 43 H       -7.3190    -1.8580     2.0950 H     1 <1>   0.0800 
 44 H       -7.4980    -1.4260     0.4120 H     1 <1>   0.0800 
 45 H       -6.5530    -3.0200    -1.4330 H     1 <1>   0.1500 
 46 H       -5.1790    -4.4360     2.3480 H     1 <1>   0.1500 
 47 H        4.0120     6.9480     1.1810 H     1 <1>   0.0800 
 48 H        2.3380     7.1740     0.6850 H     1 <1>   0.0800 
 49 H        3.4960     6.3860    -0.4050 H     1 <1>   0.0800 
 50 H       -7.0740    -5.3240    -2.1020 H     1 <1>   0.1500 
 51 H       -5.6930    -6.7320     1.6730 H     1 <1>   0.1500 
 52 H       -6.6430    -7.1850    -0.5500 H     1 <1>   0.1500 
@<TRIPOS>BOND
  1   1   2  2   
  2   2   3  am  
  3   2   4  am  
  4   3   5  1   
  5   3   6  1   
  6   4   7  1   
  7   4  28  1   
  8   5   8  1   
  9   5  29  1   
 10   5  30  1   
 11   6   9  1   
 12   6  31  1   
 13   6  32  1   
 14   7  10  ar  
 15   7  11  ar  
 16   8  12  1   
 17   8  13  1   
 18   8  33  1   
 19   9  12  1   
 20   9  34  1   
 21   9  35  1   
 22  10  14  ar  
 23  10  36  1   
 24  11  15  ar  
 25  11  37  1   
 26  12  16  1   
 27  13  17  1   
 28  13  38  1   
 29  13  39  1   
 30  14  18  ar  
 31  14  40  1   
 32  15  18  ar  
 33  15  41  1   
 34  16  19  1   
 35  16  20  1   
 36  16  42  1   
 37  17  20  1   
 38  18  21  1   
 39  19  22  ar  
 40  19  23  ar  
 41  20  43  1   
 42  20  44  1   
 43  21  24  1   
 44  22  25  ar  
 45  22  45  1   
 46  23  26  ar  
 47  23  46  1   
 48  24  47  1   
 49  24  48  1   
 50  24  49  1   
 51  25  27  ar  
 52  25  50  1   
 53  26  27  ar  
 54  26  51  1   
 55  27  52  1   
@<TRIPOS>SUBSTRUCTURE
  1 ****   3 GROUP 4 **** **** 0

# MOE 2024.06 (io_trps.svl 2023.06)
