@<TRIPOS>MOLECULE
NONAME
45 46 1 0 0 
SMALL
USER_CHARGES


@<TRIPOS>ATOM
  1 S        0.1270    -0.0220     0.5240 S.o2  1 <1>   1.3330 
  2 O        1.1410    -0.5190     1.4230 O.2   1 <1>  -0.6500 
  3 O       -1.2540    -0.4160     0.6660 O.2   1 <1>  -0.6500 
  4 N        0.1800     1.6690     0.5850 N.am  1 <1>  -0.8490 
  5 C        0.6350    -0.4270    -1.1360 C.3   1 <1>  -0.1350 
  6 C        1.5230     2.2590     0.4980 C.3   1 <1>   0.1960 
  7 C       -0.8010     2.3590    -0.2640 C.3   1 <1>   0.1960 
  8 C        1.4760     3.7880     0.6960 C.3   1 <1>   0.2000 
  9 C       -0.7550     3.8790    -0.0310 C.3   1 <1>   0.1200 
 10 O        0.5480     4.3640    -0.1970 O.3   1 <1>  -0.5600 
 11 C        2.8580     4.4240     0.4790 C.3   1 <1>   0.2090 
 12 N        2.7520     5.9030     0.4120 N.pl3 1 <1>  -0.8690 
 13 C        3.8400     6.7350     0.2440 C.ar  1 <1>   0.4100 
 14 N        5.0200     6.1260     0.3150 N.ar  1 <1>  -0.6200 
 15 C        3.6890     8.1160     0.0000 C.ar  1 <1>   0.0860 
 16 C        6.0970     6.8560     0.1110 C.ar  1 <1>   0.1670 
 17 C        2.4060     8.7860    -0.0110 C.2   1 <1>   0.5440 
 18 C        4.8460     8.8480    -0.2280 C.ar  1 <1>  -0.1500 
 19 C        6.0690     8.2170    -0.1760 C.ar  1 <1>  -0.1430 
 20 C        7.4100     6.0990     0.2010 C.3   1 <1>  -0.0970 
 21 O        2.2160     9.7840    -0.6750 O.2   1 <1>  -0.5700 
 22 N        1.3550     8.3780     0.7400 N.am  1 <1>  -0.8000 
 23 C        7.3320     9.0290    -0.4320 C.3   1 <1>  -0.0970 
 24 H        0.6310    -1.4920    -1.2620 H     1 <1>   0.0800 
 25 H        1.6270    -0.0690    -1.3260 H     1 <1>   0.0800 
 26 H       -0.0380     0.0000    -1.8530 H     1 <1>   0.0800 
 27 H        1.9610     2.0430    -0.4600 H     1 <1>   0.0800 
 28 H        2.1520     1.8290     1.2610 H     1 <1>   0.0800 
 29 H       -1.7910     2.0000    -0.0350 H     1 <1>   0.0800 
 30 H       -0.6020     2.1610    -1.3030 H     1 <1>   0.0800 
 31 H        1.1540     4.0060     1.6990 H     1 <1>   0.0800 
 32 H       -1.0900     4.1170     0.9640 H     1 <1>   0.0800 
 33 H       -1.3880     4.3840    -0.7390 H     1 <1>   0.0800 
 34 H        3.2850     4.0640    -0.4410 H     1 <1>   0.0800 
 35 H        3.5170     4.1460     1.2840 H     1 <1>   0.0800 
 36 H        1.8910     6.1770    -0.0820 H     1 <1>   0.4000 
 37 H        4.7720     9.9020    -0.4390 H     1 <1>   0.1500 
 38 H        7.2710     5.1770     0.7350 H     1 <1>   0.0800 
 39 H        8.1500     6.6770     0.7220 H     1 <1>   0.0800 
 40 H        7.7630     5.8730    -0.7880 H     1 <1>   0.0800 
 41 H        0.4970     8.9280     0.7490 H     1 <1>   0.3700 
 42 H        1.4240     7.5760     1.3730 H     1 <1>   0.3700 
 43 H        7.9400     8.5470    -1.1760 H     1 <1>   0.0800 
 44 H        7.8980     9.1250     0.4770 H     1 <1>   0.0800 
 45 H        7.0900    10.0140    -0.7860 H     1 <1>   0.0800 
@<TRIPOS>BOND
  1   1   2  2   
  2   1   3  2   
  3   1   4  am  
  4   1   5  1   
  5   4   6  1   
  6   4   7  1   
  7   5  24  1   
  8   5  25  1   
  9   5  26  1   
 10   6   8  1   
 11   6  27  1   
 12   6  28  1   
 13   7   9  1   
 14   7  29  1   
 15   7  30  1   
 16   8  10  1   
 17   8  11  1   
 18   8  31  1   
 19   9  10  1   
 20   9  32  1   
 21   9  33  1   
 22  11  12  1   
 23  11  34  1   
 24  11  35  1   
 25  12  13  1   
 26  12  36  1   
 27  13  14  ar  
 28  13  15  ar  
 29  14  16  ar  
 30  15  17  1   
 31  15  18  ar  
 32  16  19  ar  
 33  16  20  1   
 34  17  21  2   
 35  17  22  am  
 36  18  19  ar  
 37  18  37  1   
 38  19  23  1   
 39  20  38  1   
 40  20  39  1   
 41  20  40  1   
 42  22  41  1   
 43  22  42  1   
 44  23  43  1   
 45  23  44  1   
 46  23  45  1   
@<TRIPOS>SUBSTRUCTURE
  1 ****  11 GROUP 4 **** **** 0

# MOE 2024.06 (io_trps.svl 2023.06)
