@<TRIPOS>MOLECULE
NONAME
52 55 1 0 0 
SMALL
USER_CHARGES


@<TRIPOS>ATOM
  1 O       -2.2590     0.3500     0.2340 O.2   1 <1>  -0.5700 
  2 C       -2.2800     1.1110    -0.7200 C.2   1 <1>   0.7150 
  3 N       -3.0360     0.7100    -1.7970 N.am  1 <1>  -0.6600 
  4 C       -1.6330     2.3970    -0.6710 C.2   1 <1>   0.0550 
  5 C       -4.4090     1.2880    -1.9140 C.3   1 <1>   0.1400 
  6 C       -2.9810    -0.7280    -2.2190 C.3   1 <1>   0.1400 
  7 O       -1.7910     3.2510    -1.6700 O.3   1 <1>  -0.0190 
  8 C       -0.8480     2.9470     0.2740 C.2   1 <1>  -0.1500 
  9 C       -5.4200     0.5050    -1.0280 C.3   1 <1>   0.4230 
 10 C       -4.1410    -1.5560    -1.6110 C.3   1 <1>   0.3430 
 11 N       -1.1280     4.3370    -1.3650 N.2   1 <1>  -0.4100 
 12 C       -0.5410     4.1990    -0.2180 C.2   1 <1>   0.2350 
 13 N       -4.8360    -0.7970    -0.5100 N.4   1 <1>  -0.9590 
 14 C       -6.7460     0.2560    -1.7810 C.3   1 <1>   0.1200 
 15 C        0.2840     5.2040     0.4280 C.ar  1 <1>   0.0540 
 16 C       -5.8650    -1.5610     0.2680 C.3   1 <1>   0.4230 
 17 O       -7.6350    -0.4750    -0.9870 O.3   1 <1>  -0.5600 
 18 C        1.1870     4.8780     1.4410 C.ar  1 <1>  -0.1500 
 19 C        0.2030     6.5460     0.0530 C.ar  1 <1>  -0.1500 
 20 C       -7.1680    -1.7230    -0.5510 C.3   1 <1>   0.1200 
 21 C       -5.2910    -2.9000     0.7600 C.3   1 <1>  -0.1600 
 22 C        1.9630     5.8440     2.0560 C.ar  1 <1>  -0.1500 
 23 C        0.9770     7.5170     0.6630 C.ar  1 <1>  -0.1500 
 24 C       -6.1610    -3.5450     1.8510 C.3   1 <1>  -0.1600 
 25 C        1.8590     7.1670     1.6680 C.ar  1 <1>  -0.1500 
 26 C       -5.5150    -4.8320     2.3710 C.3   1 <1>  -0.2400 
 27 H       -4.4030     2.3240    -1.6180 H     1 <1>   0.0800 
 28 H       -4.7110     1.2580    -2.9470 H     1 <1>   0.0800 
 29 H       -3.0130    -0.7920    -3.2930 H     1 <1>   0.0800 
 30 H       -2.0440    -1.1570    -1.9040 H     1 <1>   0.0800 
 31 H       -0.5300     2.5230     1.2080 H     1 <1>   0.1500 
 32 H       -5.6550     1.1310    -0.1820 H     1 <1>   0.0800 
 33 H       -3.7370    -2.4800    -1.2320 H     1 <1>   0.0800 
 34 H       -4.8470    -1.8010    -2.3860 H     1 <1>   0.0800 
 35 H       -4.0690    -0.5210     0.1360 H     1 <1>   0.4500 
 36 H       -6.5840    -0.2820    -2.6980 H     1 <1>   0.0800 
 37 H       -7.2210     1.1940    -2.0150 H     1 <1>   0.0800 
 38 H       -6.1180    -0.9840     1.1430 H     1 <1>   0.0800 
 39 H        1.2940     3.8560     1.7560 H     1 <1>   0.1500 
 40 H       -0.4780     6.8320    -0.7290 H     1 <1>   0.1500 
 41 H       -7.9420    -2.1550     0.0600 H     1 <1>   0.0800 
 42 H       -7.0180    -2.3570    -1.4070 H     1 <1>   0.0800 
 43 H       -5.2010    -3.5920    -0.0590 H     1 <1>   0.0800 
 44 H       -4.3130    -2.7280     1.1760 H     1 <1>   0.0800 
 45 H        2.6510     5.5670     2.8360 H     1 <1>   0.1500 
 46 H        0.8920     8.5440     0.3540 H     1 <1>   0.1500 
 47 H       -6.2860    -2.8630     2.6750 H     1 <1>   0.0800 
 48 H       -7.1380    -3.7860     1.4660 H     1 <1>   0.0800 
 49 H        2.4620     7.9210     2.1450 H     1 <1>   0.1500 
 50 H       -4.5490    -4.6280     2.8000 H     1 <1>   0.0800 
 51 H       -5.3980    -5.5500     1.5780 H     1 <1>   0.0800 
 52 H       -6.1340    -5.2710     3.1340 H     1 <1>   0.0800 
@<TRIPOS>BOND
  1   1   2  2   
  2   2   3  am  
  3   2   4  1   
  4   3   5  1   
  5   3   6  1   
  6   4   7  1   
  7   4   8  2   
  8   5   9  1   
  9   5  27  1   
 10   5  28  1   
 11   6  10  1   
 12   6  29  1   
 13   6  30  1   
 14   7  11  1   
 15   8  12  1   
 16   8  31  1   
 17   9  13  1   
 18   9  14  1   
 19   9  32  1   
 20  10  13  1   
 21  10  33  1   
 22  10  34  1   
 23  11  12  2   
 24  12  15  1   
 25  13  16  1   
 26  13  35  1   
 27  14  17  1   
 28  14  36  1   
 29  14  37  1   
 30  15  18  ar  
 31  15  19  ar  
 32  16  20  1   
 33  16  21  1   
 34  16  38  1   
 35  17  20  1   
 36  18  22  ar  
 37  18  39  1   
 38  19  23  ar  
 39  19  40  1   
 40  20  41  1   
 41  20  42  1   
 42  21  24  1   
 43  21  43  1   
 44  21  44  1   
 45  22  25  ar  
 46  22  45  1   
 47  23  25  ar  
 48  23  46  1   
 49  24  26  1   
 50  24  47  1   
 51  24  48  1   
 52  25  49  1   
 53  26  50  1   
 54  26  51  1   
 55  26  52  1   
@<TRIPOS>SUBSTRUCTURE
  1 ****   2 GROUP 4 **** **** 0

# MOE 2024.06 (io_trps.svl 2023.06)
