@<TRIPOS>MOLECULE
NONAME
41 41 1 0 0 
SMALL
USER_CHARGES


@<TRIPOS>ATOM
  1 O        4.5790    -1.5350    -0.0280 O.2   1 <1>  -0.5700 
  2 C        3.4050    -1.5510     0.2610 C.2   1 <1>   0.5690 
  3 N        2.6530    -0.4180     0.3840 N.am  1 <1>  -0.4930 
  4 C        2.7220    -2.9130     0.4890 C.3   1 <1>   0.2810 
  5 C        3.0360     0.9360     0.2260 C.2   1 <1>   0.0630 
  6 N        1.2320    -2.8340     0.3990 N.am  1 <1>  -0.7300 
  7 C        3.1050    -3.4990     1.8580 C.3   1 <1>  -0.1600 
  8 C        4.2960     1.4770    -0.0340 C.2   1 <1>   0.1390 
  9 C        2.2180     2.0050     0.3000 C.2   1 <1>  -0.3020 
 10 C        0.4660    -2.7210    -0.7070 C.2   1 <1>   0.5690 
 11 C        2.5540    -4.9160     2.0950 C.3   1 <1>  -0.1600 
 12 N        4.2680     2.7740    -0.1140 N.2   1 <1>  -0.7070 
 13 N        2.9750     3.1060     0.0930 N.pl3 1 <1>   0.3140 
 14 O       -0.7270    -2.6500    -0.5960 O.2   1 <1>  -0.5700 
 15 C        1.0880    -2.6620    -2.0810 C.3   1 <1>  -0.1790 
 16 C        3.0260    -5.4680     3.4420 C.3   1 <1>  -0.2400 
 17 C        2.4820     4.5140     0.0910 C.3   1 <1>   0.1760 
 18 C        2.7500     5.1830    -1.2650 C.3   1 <1>  -0.2400 
 19 C        3.1280     5.3140     1.2310 C.3   1 <1>  -0.2400 
 20 H        1.6620    -0.5730     0.5760 H     1 <1>   0.3700 
 21 H        3.0790    -3.5800    -0.2770 H     1 <1>   0.0800 
 22 H        0.7260    -2.9620     1.2780 H     1 <1>   0.3700 
 23 H        2.7690    -2.8360     2.6370 H     1 <1>   0.0800 
 24 H        4.1800    -3.5360     1.9140 H     1 <1>   0.0800 
 25 H        5.1920     0.8930    -0.1540 H     1 <1>   0.1500 
 26 H        1.1620     2.0470     0.4840 H     1 <1>   0.1500 
 27 H        2.8910    -5.5710     1.3090 H     1 <1>   0.0800 
 28 H        1.4770    -4.9100     2.0810 H     1 <1>   0.0800 
 29 H        1.7210    -1.7990    -2.1660 H     1 <1>   0.0800 
 30 H        0.3130    -2.5930    -2.8230 H     1 <1>   0.0800 
 31 H        1.6600    -3.5520    -2.2640 H     1 <1>   0.0800 
 32 H        4.1010    -5.5180     3.4750 H     1 <1>   0.0800 
 33 H        2.6350    -6.4590     3.5910 H     1 <1>   0.0800 
 34 H        2.6840    -4.8420     4.2480 H     1 <1>   0.0800 
 35 H        1.4200     4.4850     0.2530 H     1 <1>   0.0800 
 36 H        3.8090     5.2330    -1.4530 H     1 <1>   0.0800 
 37 H        2.3530     6.1810    -1.2730 H     1 <1>   0.0800 
 38 H        2.2820     4.6220    -2.0540 H     1 <1>   0.0800 
 39 H        4.1940     5.3640     1.0930 H     1 <1>   0.0800 
 40 H        2.9190     4.8460     2.1760 H     1 <1>   0.0800 
 41 H        2.7380     6.3150     1.2510 H     1 <1>   0.0800 
@<TRIPOS>BOND
  1   1   2  2   
  2   2   3  am  
  3   2   4  1   
  4   3   5  1   
  5   3  20  1   
  6   4   6  1   
  7   4   7  1   
  8   4  21  1   
  9   5   8  1   
 10   5   9  2   
 11   6  10  am  
 12   6  22  1   
 13   7  11  1   
 14   7  23  1   
 15   7  24  1   
 16   8  12  2   
 17   8  25  1   
 18   9  13  1   
 19   9  26  1   
 20  10  14  2   
 21  10  15  1   
 22  11  16  1   
 23  11  27  1   
 24  11  28  1   
 25  12  13  1   
 26  13  17  1   
 27  15  29  1   
 28  15  30  1   
 29  15  31  1   
 30  16  32  1   
 31  16  33  1   
 32  16  34  1   
 33  17  18  1   
 34  17  19  1   
 35  17  35  1   
 36  18  36  1   
 37  18  37  1   
 38  18  38  1   
 39  19  39  1   
 40  19  40  1   
 41  19  41  1   
@<TRIPOS>SUBSTRUCTURE
  1 ****   3 GROUP 4 **** **** 0

# MOE 2024.06 (io_trps.svl 2023.06)
