@<TRIPOS>MOLECULE
Untitled Document
53 57 1 0 0 
SMALL
USER_CHARGES


@<TRIPOS>ATOM
  1 F        0.9750     0.4450     1.7010 F     1 <1>  -0.1900 
  2 C        2.0840     0.9660     1.2480 C.ar  1 <1>   0.1900 
  3 C        3.2870     0.4660     1.6960 C.ar  1 <1>  -0.1500 
  4 C        2.0010     2.0020     0.3320 C.ar  1 <1>  -0.1500 
  5 C        4.4780     1.0160     1.2180 C.ar  1 <1>   0.0860 
  6 C        3.1740     2.5520    -0.1470 C.ar  1 <1>  -0.1500 
  7 C        5.7810     0.5650     1.6230 C.2   1 <1>   0.4690 
  8 C        4.4010     2.0650     0.2910 C.ar  1 <1>   0.0830 
  9 O        5.9430    -0.3330     2.4270 O.2   1 <1>  -0.5700 
 10 C        6.8970     1.2160     1.0440 C.2   1 <1>  -0.1360 
 11 O        5.5270     2.6290    -0.1990 O.3   1 <1>  -0.1590 
 12 C        6.7680     2.2330     0.1520 C.2   1 <1>   0.0910 
 13 C        7.8570     2.9550    -0.4790 C.2   1 <1>   0.6160 
 14 O        7.6600     3.7320    -1.3930 O.2   1 <1>  -0.5700 
 15 N        9.1510     2.7960    -0.0570 N.am  1 <1>  -0.7300 
 16 C       10.3010     3.4540    -0.6940 C.3   1 <1>   0.2200 
 17 C       11.5490     2.5900    -0.5320 C.3   1 <1>  -0.1600 
 18 C       10.5090     4.8290    -0.0640 C.3   1 <1>  -0.1600 
 19 C       12.7600     3.2970    -1.1370 C.3   1 <1>   0.3430 
 20 C       11.7240     5.5140    -0.6790 C.3   1 <1>   0.3430 
 21 N       12.9280     4.6480    -0.5150 N.4   1 <1>  -0.9590 
 22 C       14.1520     5.3300    -1.0200 C.3   1 <1>   0.4860 
 23 C       15.3620     4.5190    -0.5990 C.ar  1 <1>  -0.1430 
 24 C       15.7660     4.5210     0.7340 C.ar  1 <1>  -0.1500 
 25 C       16.0650     3.7670    -1.5420 C.ar  1 <1>  -0.1500 
 26 C       16.8560     3.7510     1.0840 C.ar  1 <1>   0.0830 
 27 C       17.1620     3.0010    -1.1670 C.ar  1 <1>  -0.1500 
 28 O       17.4060     3.6000     2.2920 O.3   1 <1>  -0.3630 
 29 C       17.5350     3.0110     0.1610 C.ar  1 <1>   0.0830 
 30 C       18.5190     2.7200     2.1270 C.3   1 <1>   0.4000 
 31 O       18.5430     2.3590     0.7470 O.3   1 <1>  -0.3620 
 32 H        3.3090    -0.3400     2.4080 H     1 <1>   0.1500 
 33 H        1.0390     2.3600     0.0100 H     1 <1>   0.1500 
 34 H        3.1480     3.3590    -0.8600 H     1 <1>   0.1500 
 35 H        7.8520     0.8420     1.3600 H     1 <1>   0.1500 
 36 H        9.3440     2.2310     0.7710 H     1 <1>   0.3700 
 37 H       10.0940     3.5750    -1.7470 H     1 <1>   0.0800 
 38 H       11.4040     1.6550    -1.0440 H     1 <1>   0.0800 
 39 H       11.7380     2.3830     0.5060 H     1 <1>   0.0800 
 40 H       10.6380     4.7460     1.0000 H     1 <1>   0.0800 
 41 H        9.6400     5.4370    -0.2510 H     1 <1>   0.0800 
 42 H       12.6220     3.4000    -2.2010 H     1 <1>   0.0800 
 43 H       13.6420     2.6990    -0.9680 H     1 <1>   0.0800 
 44 H       11.8810     6.4660    -0.1960 H     1 <1>   0.0800 
 45 H       11.5410     5.6930    -1.7270 H     1 <1>   0.0800 
 46 H       13.0860     4.4960     0.4890 H     1 <1>   0.4500 
 47 H       14.2270     6.3200    -0.6000 H     1 <1>   0.0800 
 48 H       14.1190     5.4160    -2.0940 H     1 <1>   0.0800 
 49 H       15.2700     5.0950     1.4970 H     1 <1>   0.1500 
 50 H       15.7730     3.7670    -2.5790 H     1 <1>   0.1500 
 51 H       17.7190     2.4140    -1.8770 H     1 <1>   0.1500 
 52 H       18.3780     1.8400     2.7290 H     1 <1>   0.0800 
 53 H       19.4280     3.2350     2.3820 H     1 <1>   0.0800 
@<TRIPOS>BOND
  1   1   2  1   
  2   2   3  ar  
  3   2   4  ar  
  4   3   5  ar  
  5   3  32  1   
  6   4   6  ar  
  7   4  33  1   
  8   5   7  1   
  9   5   8  ar  
 10   6   8  ar  
 11   6  34  1   
 12   7   9  2   
 13   7  10  1   
 14   8  11  1   
 15  10  12  2   
 16  10  35  1   
 17  11  12  1   
 18  12  13  1   
 19  13  14  2   
 20  13  15  am  
 21  15  16  1   
 22  15  36  1   
 23  16  17  1   
 24  16  18  1   
 25  16  37  1   
 26  17  19  1   
 27  17  38  1   
 28  17  39  1   
 29  18  20  1   
 30  18  40  1   
 31  18  41  1   
 32  19  21  1   
 33  19  42  1   
 34  19  43  1   
 35  20  21  1   
 36  20  44  1   
 37  20  45  1   
 38  21  22  1   
 39  21  46  1   
 40  22  23  1   
 41  22  47  1   
 42  22  48  1   
 43  23  24  ar  
 44  23  25  ar  
 45  24  26  ar  
 46  24  49  1   
 47  25  27  ar  
 48  25  50  1   
 49  26  28  1   
 50  26  29  ar  
 51  27  29  ar  
 52  27  51  1   
 53  28  30  1   
 54  29  31  1   
 55  30  31  1   
 56  30  52  1   
 57  30  53  1   
@<TRIPOS>SUBSTRUCTURE
  1 ****  15 GROUP 4 **** **** 0

# MOE 2024.06 (io_trps.svl 2023.06)
