@<TRIPOS>MOLECULE
NONAME
46 48 1 0 0 
SMALL
USER_CHARGES


@<TRIPOS>ATOM
  1 N       -0.1580    -0.2580     0.3620 N.ar  1 <1>  -0.6200 
  2 C        0.9750     0.3290     0.0020 C.ar  1 <1>   0.7710 
  3 C       -0.1860    -1.5700     0.3880 C.ar  1 <1>   0.4100 
  4 N        2.0660    -0.3780    -0.3420 N.ar  1 <1>  -0.1790 
  5 N        1.0400     1.6830    -0.0250 N.pl3 1 <1>  -0.8380 
  6 N       -1.3550    -2.1080     0.7660 N.pl3 1 <1>  -0.8690 
  7 C        0.9300    -2.3520     0.0350 C.ar  1 <1>  -0.1500 
  8 C        2.0750    -1.7320    -0.3360 C.ar  1 <1>   0.2170 
  9 C       -0.1430     2.5240     0.3140 C.3   1 <1>   0.2090 
 10 C        2.2090     2.5540    -0.3310 C.3   1 <1>   0.2090 
 11 C       -1.6820    -3.5390     1.0000 C.3   1 <1>   0.2090 
 12 C        3.3440    -2.4730    -0.7400 C.3   1 <1>  -0.0170 
 13 C        0.2700     3.9500    -0.0220 C.3   1 <1>  -0.1600 
 14 C        1.7880     3.9490     0.1070 C.3   1 <1>  -0.1600 
 15 C       -2.1370    -4.1920    -0.3050 C.3   1 <1>  -0.0170 
 16 C        4.5100    -2.1880     0.2150 C.3   1 <1>  -0.2400 
 17 C       -2.1990    -5.6990    -0.1420 C.ar  1 <1>   0.1670 
 18 N       -1.0360    -6.3100     0.0320 N.ar  1 <1>  -0.6200 
 19 C       -3.4220    -6.3520    -0.1810 C.ar  1 <1>  -0.1500 
 20 C       -1.0970    -7.6260     0.1710 C.ar  1 <1>   0.1600 
 21 C       -3.4690    -7.7210    -0.0330 C.ar  1 <1>  -0.1500 
 22 C       -2.2660    -8.3670     0.1480 C.ar  1 <1>  -0.1500 
 23 H        2.8760     0.1660    -0.6050 H     1 <1>   0.4570 
 24 H       -2.1100    -1.4470     0.9770 H     1 <1>   0.4000 
 25 H        0.8500    -3.4230     0.0640 H     1 <1>   0.1500 
 26 H       -0.3540     2.4340     1.3670 H     1 <1>   0.0800 
 27 H       -1.0120     2.2260    -0.2510 H     1 <1>   0.0800 
 28 H        2.3910     2.5510    -1.3940 H     1 <1>   0.0800 
 29 H        3.0920     2.2430     0.2010 H     1 <1>   0.0800 
 30 H       -2.4620    -3.6160     1.7390 H     1 <1>   0.0800 
 31 H       -0.8170    -4.0490     1.3880 H     1 <1>   0.0800 
 32 H        3.6200    -2.1990    -1.7440 H     1 <1>   0.0800 
 33 H        3.1510    -3.5330    -0.7410 H     1 <1>   0.0800 
 34 H       -0.1990     4.6650     0.6320 H     1 <1>   0.0800 
 35 H       -0.0150     4.1680    -1.0370 H     1 <1>   0.0800 
 36 H        2.2490     4.7160    -0.4900 H     1 <1>   0.0800 
 37 H        2.0650     4.0950     1.1370 H     1 <1>   0.0800 
 38 H       -1.4360    -3.9690    -1.0880 H     1 <1>   0.0800 
 39 H       -3.0970    -3.8030    -0.5870 H     1 <1>   0.0800 
 40 H        4.7930    -1.1510     0.1980 H     1 <1>   0.0800 
 41 H        5.3670    -2.7730    -0.0730 H     1 <1>   0.0800 
 42 H        4.2460    -2.4600     1.2230 H     1 <1>   0.0800 
 43 H       -4.3330    -5.8000    -0.3260 H     1 <1>   0.1500 
 44 H       -0.1640    -8.1450     0.3120 H     1 <1>   0.1500 
 45 H       -4.4000    -8.2610    -0.0580 H     1 <1>   0.1500 
 46 H       -2.2310    -9.4350     0.2690 H     1 <1>   0.1500 
@<TRIPOS>BOND
  1   1   2  ar  
  2   1   3  ar  
  3   2   4  ar  
  4   2   5  1   
  5   3   6  1   
  6   3   7  ar  
  7   4   8  ar  
  8   4  23  1   
  9   5   9  1   
 10   5  10  1   
 11   6  11  1   
 12   6  24  1   
 13   7   8  ar  
 14   7  25  1   
 15   8  12  1   
 16   9  13  1   
 17   9  26  1   
 18   9  27  1   
 19  10  14  1   
 20  10  28  1   
 21  10  29  1   
 22  11  15  1   
 23  11  30  1   
 24  11  31  1   
 25  12  16  1   
 26  12  32  1   
 27  12  33  1   
 28  13  14  1   
 29  13  34  1   
 30  13  35  1   
 31  14  36  1   
 32  14  37  1   
 33  15  17  1   
 34  15  38  1   
 35  15  39  1   
 36  16  40  1   
 37  16  41  1   
 38  16  42  1   
 39  17  18  ar  
 40  17  19  ar  
 41  18  20  ar  
 42  19  21  ar  
 43  19  43  1   
 44  20  22  ar  
 45  20  44  1   
 46  21  22  ar  
 47  21  45  1   
 48  22  46  1   
@<TRIPOS>SUBSTRUCTURE
  1 ****   3 GROUP 4 **** **** 0

# MOE 2024.06 (io_trps.svl 2023.06)
