@<TRIPOS>MOLECULE
NONAME
46 48 1 0 0 
SMALL
USER_CHARGES


@<TRIPOS>ATOM
  1 O        0.1780     0.5370    -0.5690 O.2   1 <1>  -0.5700 
  2 C        1.1350    -0.1890    -0.4230 C.2   1 <1>   0.5690 
  3 N        2.3570     0.1030    -0.9870 N.am  1 <1>  -0.6600 
  4 C        0.9310    -1.4220     0.4530 C.3   1 <1>   0.1810 
  5 C        2.5660     1.3550    -1.7680 C.3   1 <1>   0.1400 
  6 C        3.5680    -0.7630    -0.8910 C.3   1 <1>   0.1400 
  7 O        1.0980    -2.6230    -0.2900 O.3   1 <1>  -0.3620 
  8 C        3.7030     2.1690    -1.1440 C.3   1 <1>  -0.1600 
  9 C        4.7160     0.0230    -0.2550 C.3   1 <1>  -0.1600 
 10 C        1.0670    -3.8350     0.3190 C.ar  1 <1>   0.0820 
 11 C        4.9850     1.3300    -1.0160 C.3   1 <1>   0.0630 
 12 C        1.3740    -4.9520    -0.4490 C.ar  1 <1>   0.1600 
 13 C        0.7510    -4.0180     1.6570 C.ar  1 <1>  -0.1500 
 14 C        6.1570     2.1260    -0.4240 C.ar  1 <1>  -0.1440 
 15 N        1.4030    -6.2010    -0.0070 N.ar  1 <1>  -0.6200 
 16 C        0.7740    -5.3130     2.1310 C.ar  1 <1>  -0.1500 
 17 C        6.1590     2.6590     0.8690 C.ar  1 <1>   0.0820 
 18 C        7.2730     2.3220    -1.2290 C.ar  1 <1>  -0.1500 
 19 C        1.1010    -6.3510     1.2730 C.ar  1 <1>   0.1600 
 20 O        5.0660     2.4680     1.6560 O.3   1 <1>  -0.3630 
 21 C        7.2700     3.3680     1.3230 C.ar  1 <1>  -0.1500 
 22 C        8.3710     3.0270    -0.7710 C.ar  1 <1>  -0.1500 
 23 C        4.9270     3.0840     2.9160 C.3   1 <1>   0.0400 
 24 C        8.3700     3.5510     0.5070 C.ar  1 <1>  -0.1500 
 25 H       -0.0660    -1.4130     0.8530 H     1 <1>   0.0800 
 26 H        1.6450    -1.4090     1.2550 H     1 <1>   0.0800 
 27 H        1.6690     1.9500    -1.7860 H     1 <1>   0.0800 
 28 H        2.8110     1.0970    -2.7840 H     1 <1>   0.0800 
 29 H        3.8470    -1.0790    -1.8820 H     1 <1>   0.0800 
 30 H        3.3800    -1.6450    -0.3080 H     1 <1>   0.0800 
 31 H        3.3790     2.5160    -0.1810 H     1 <1>   0.0800 
 32 H        3.8990     3.0340    -1.7520 H     1 <1>   0.0800 
 33 H        5.6070    -0.5800    -0.2560 H     1 <1>   0.0800 
 34 H        4.4620     0.2270     0.7690 H     1 <1>   0.0800 
 35 H        5.2580     1.0450    -2.0180 H     1 <1>   0.0800 
 36 H        1.6100    -4.7950    -1.4870 H     1 <1>   0.1500 
 37 H        0.4950    -3.2080     2.3140 H     1 <1>   0.1500 
 38 H        0.5380    -5.5230     3.1580 H     1 <1>   0.1500 
 39 H        7.3010     1.9250    -2.2280 H     1 <1>   0.1500 
 40 H        1.1140    -7.3560     1.6590 H     1 <1>   0.1500 
 41 H        7.3020     3.7850     2.3100 H     1 <1>   0.1500 
 42 H        9.2260     3.1680    -1.4100 H     1 <1>   0.1500 
 43 H        3.9590     2.8290     3.3060 H     1 <1>   0.0800 
 44 H        5.0030     4.1500     2.7930 H     1 <1>   0.0800 
 45 H        5.6950     2.7150     3.5720 H     1 <1>   0.0800 
 46 H        9.2240     4.0990     0.8640 H     1 <1>   0.1500 
@<TRIPOS>BOND
  1   1   2  2   
  2   2   3  am  
  3   2   4  1   
  4   3   5  1   
  5   3   6  1   
  6   4   7  1   
  7   4  25  1   
  8   4  26  1   
  9   5   8  1   
 10   5  27  1   
 11   5  28  1   
 12   6   9  1   
 13   6  29  1   
 14   6  30  1   
 15   7  10  1   
 16   8  11  1   
 17   8  31  1   
 18   8  32  1   
 19   9  11  1   
 20   9  33  1   
 21   9  34  1   
 22  10  12  ar  
 23  10  13  ar  
 24  11  14  1   
 25  11  35  1   
 26  12  15  ar  
 27  12  36  1   
 28  13  16  ar  
 29  13  37  1   
 30  14  17  ar  
 31  14  18  ar  
 32  15  19  ar  
 33  16  19  ar  
 34  16  38  1   
 35  17  20  1   
 36  17  21  ar  
 37  18  22  ar  
 38  18  39  1   
 39  19  40  1   
 40  20  23  1   
 41  21  24  ar  
 42  21  41  1   
 43  22  24  ar  
 44  22  42  1   
 45  23  43  1   
 46  23  44  1   
 47  23  45  1   
 48  24  46  1   
@<TRIPOS>SUBSTRUCTURE
  1 ****   6 GROUP 4 **** **** 0

# MOE 2024.06 (io_trps.svl 2023.06)
