@<TRIPOS>MOLECULE
NONAME
45 47 1 0 0 
SMALL
USER_CHARGES


@<TRIPOS>ATOM
  1 O        0.7830     3.4640    -0.5790 O.2   1 <1>  -0.5700 
  2 C       -0.3510     3.1180    -0.8230 C.2   1 <1>   0.5690 
  3 N       -1.3010     3.0660     0.1610 N.am  1 <1>  -0.6600 
  4 C       -0.7010     2.7630    -2.2570 C.3   1 <1>  -0.0990 
  5 C       -2.7610     2.9490    -0.1120 C.3   1 <1>   0.1400 
  6 C       -0.9390     3.3560     1.5910 C.3   1 <1>   0.2010 
  7 C       -2.1890     2.9580    -2.5770 C.3   1 <1>  -0.1600 
  8 C       -3.0380     2.3130    -1.4780 C.3   1 <1>  -0.1600 
  9 C       -0.8190     4.8490     1.8900 C.2   1 <1>   0.5690 
 10 O       -1.5330     5.3250     2.7370 O.2   1 <1>  -0.5700 
 11 N        0.0990     5.5610     1.1780 N.am  1 <1>  -0.4940 
 12 C        0.4160     6.9000     1.2130 C.2   1 <1>   0.5420 
 13 O        1.3010     7.3360     0.3800 O.3   1 <1>  -0.2800 
 14 N       -0.0350     7.8380     1.9670 N.2   1 <1>  -0.3380 
 15 C        1.3920     8.6150     0.6270 C.2   1 <1>   0.4250 
 16 N        0.5970     8.9470     1.5900 N.2   1 <1>  -0.3380 
 17 C        2.3180     9.4250    -0.1270 C.ar  1 <1>   0.0530 
 18 C        1.9850    10.6960    -0.6180 C.ar  1 <1>   0.0820 
 19 C        3.6030     8.9430    -0.3890 C.ar  1 <1>  -0.1500 
 20 O        0.7260    11.1460    -0.3960 O.3   1 <1>  -0.3630 
 21 C        2.9230    11.4470    -1.3230 C.ar  1 <1>  -0.1500 
 22 C        4.5290     9.6890    -1.0910 C.ar  1 <1>  -0.1500 
 23 C        0.3250    12.4660    -0.6760 C.3   1 <1>   0.1200 
 24 C        4.1890    10.9450    -1.5570 C.ar  1 <1>  -0.1500 
 25 C       -1.1100    12.6300    -0.1860 C.3   1 <1>  -0.2400 
 26 H       -0.4320     1.7340    -2.4120 H     1 <1>   0.0800 
 27 H       -0.1070     3.3630    -2.9220 H     1 <1>   0.0800 
 28 H       -3.1950     3.9350    -0.0790 H     1 <1>   0.0800 
 29 H       -3.2270     2.3520     0.6550 H     1 <1>   0.0800 
 30 H        0.0020     2.8890     1.8170 H     1 <1>   0.0800 
 31 H       -1.6770     2.9300     2.2460 H     1 <1>   0.0800 
 32 H       -2.4180     2.5170    -3.5320 H     1 <1>   0.0800 
 33 H       -2.4100     4.0110    -2.6310 H     1 <1>   0.0800 
 34 H       -4.0820     2.4250    -1.7130 H     1 <1>   0.0800 
 35 H       -2.8280     1.2590    -1.4260 H     1 <1>   0.0800 
 36 H        0.5950     5.0200     0.4610 H     1 <1>   0.3700 
 37 H        3.8800     7.9670    -0.0290 H     1 <1>   0.1500 
 38 H        2.6850    12.4220    -1.7030 H     1 <1>   0.1500 
 39 H        5.5140     9.2950    -1.2770 H     1 <1>   0.1500 
 40 H        0.3860    12.6240    -1.7390 H     1 <1>   0.0800 
 41 H        0.9840    13.1400    -0.1560 H     1 <1>   0.0800 
 42 H        4.9100    11.5290    -2.1040 H     1 <1>   0.1500 
 43 H       -1.7550    11.9400    -0.6990 H     1 <1>   0.0800 
 44 H       -1.4510    13.6310    -0.3780 H     1 <1>   0.0800 
 45 H       -1.1590    12.4440     0.8720 H     1 <1>   0.0800 
@<TRIPOS>BOND
  1   1   2  2   
  2   2   3  am  
  3   2   4  1   
  4   3   5  1   
  5   3   6  1   
  6   4   7  1   
  7   4  26  1   
  8   4  27  1   
  9   5   8  1   
 10   5  28  1   
 11   5  29  1   
 12   6   9  1   
 13   6  30  1   
 14   6  31  1   
 15   7   8  1   
 16   7  32  1   
 17   7  33  1   
 18   8  34  1   
 19   8  35  1   
 20   9  10  2   
 21   9  11  am  
 22  11  12  1   
 23  11  36  1   
 24  12  13  1   
 25  12  14  2   
 26  13  15  1   
 27  14  16  1   
 28  15  16  2   
 29  15  17  1   
 30  17  18  ar  
 31  17  19  ar  
 32  18  20  1   
 33  18  21  ar  
 34  19  22  ar  
 35  19  37  1   
 36  20  23  1   
 37  21  24  ar  
 38  21  38  1   
 39  22  24  ar  
 40  22  39  1   
 41  23  25  1   
 42  23  40  1   
 43  23  41  1   
 44  24  42  1   
 45  25  43  1   
 46  25  44  1   
 47  25  45  1   
@<TRIPOS>SUBSTRUCTURE
  1 ****  13 GROUP 4 **** **** 0

# MOE 2024.06 (io_trps.svl 2023.06)
