@<TRIPOS>MOLECULE
NONAME
49 50 1 0 0 
SMALL
USER_CHARGES


@<TRIPOS>ATOM
  1 O       -0.7610     2.8740    -2.3740 O.3   1 <1>  -0.6800 
  2 C       -0.2180     3.3540    -1.1840 C.3   1 <1>   0.2000 
  3 C       -1.2450     3.2030    -0.0260 C.3   1 <1>   0.0000 
  4 C        1.1160     2.6340    -0.9110 C.3   1 <1>   0.2090 
  5 C       -0.5430     3.6600     1.2790 C.3   1 <1>  -0.1600 
  6 C       -1.6760     1.7120     0.0830 C.3   1 <1>   0.1200 
  7 C       -2.5210     4.0630    -0.2780 C.3   1 <1>  -0.1600 
  8 N        1.6860     3.0090     0.4230 N.pl3 1 <1>  -0.8380 
  9 C        0.7550     2.8950     1.5710 C.3   1 <1>   0.2090 
 10 O       -2.5510     1.5060     1.1450 O.3   1 <1>  -0.6800 
 11 C       -2.3000     5.5580    -0.5810 C.3   1 <1>  -0.1600 
 12 C        2.5850     4.0560     0.4640 C.ar  1 <1>   0.4100 
 13 C       -3.6400     6.2780    -0.7570 C.3   1 <1>  -0.2400 
 14 N        2.2550     5.1640    -0.1870 N.ar  1 <1>  -0.6200 
 15 C        3.7650     3.9160     1.1860 C.ar  1 <1>  -0.1500 
 16 C        3.1180     6.1670    -0.1250 C.ar  1 <1>   0.1670 
 17 C        4.6590     4.9570     1.2510 C.ar  1 <1>  -0.1500 
 18 C        4.3160     6.1090     0.5740 C.ar  1 <1>  -0.1500 
 19 C        2.7240     7.4380    -0.8800 C.3   1 <1>   0.0630 
 20 C        3.7280     7.7660    -1.9940 C.3   1 <1>  -0.2400 
 21 C        2.5580     8.6310     0.0710 C.3   1 <1>  -0.2400 
 22 H       -1.5480     3.4040    -2.6060 H     1 <1>   0.4000 
 23 H        0.0150     4.3920    -1.3370 H     1 <1>   0.0800 
 24 H        1.8170     2.9020    -1.6820 H     1 <1>   0.0800 
 25 H        0.9750     1.5690    -0.9430 H     1 <1>   0.0800 
 26 H       -1.2060     3.5650     2.1190 H     1 <1>   0.0800 
 27 H       -0.2790     4.6990     1.2070 H     1 <1>   0.0800 
 28 H       -0.8320     1.0620     0.2260 H     1 <1>   0.0800 
 29 H       -2.1850     1.4000    -0.8130 H     1 <1>   0.0800 
 30 H       -3.0720     3.6320    -1.0950 H     1 <1>   0.0800 
 31 H       -3.1570     3.9900     0.5870 H     1 <1>   0.0800 
 32 H        0.5550     1.8560     1.7630 H     1 <1>   0.0800 
 33 H        1.2210     3.3080     2.4510 H     1 <1>   0.0800 
 34 H       -2.1480     1.8020     1.9810 H     1 <1>   0.4000 
 35 H       -1.7620     6.0300     0.2220 H     1 <1>   0.0800 
 36 H       -1.7290     5.6810    -1.4840 H     1 <1>   0.0800 
 37 H       -4.2270     6.2040     0.1410 H     1 <1>   0.0800 
 38 H       -4.1960     5.8480    -1.5710 H     1 <1>   0.0800 
 39 H       -3.4720     7.3190    -0.9700 H     1 <1>   0.0800 
 40 H        3.9580     2.9850     1.6810 H     1 <1>   0.1500 
 41 H        5.5810     4.8790     1.8000 H     1 <1>   0.1500 
 42 H        4.9780     6.9540     0.5900 H     1 <1>   0.1500 
 43 H        1.7690     7.2610    -1.3470 H     1 <1>   0.0800 
 44 H        4.6940     7.9990    -1.5850 H     1 <1>   0.0800 
 45 H        3.3840     8.6070    -2.5690 H     1 <1>   0.0800 
 46 H        3.8270     6.9200    -2.6510 H     1 <1>   0.0800 
 47 H        3.4940     8.8860     0.5350 H     1 <1>   0.0800 
 48 H        1.8480     8.3840     0.8400 H     1 <1>   0.0800 
 49 H        2.1950     9.4880    -0.4670 H     1 <1>   0.0800 
@<TRIPOS>BOND
  1   1   2  1   
  2   1  22  1   
  3   2   3  1   
  4   2   4  1   
  5   2  23  1   
  6   3   5  1   
  7   3   6  1   
  8   3   7  1   
  9   4   8  1   
 10   4  24  1   
 11   4  25  1   
 12   5   9  1   
 13   5  26  1   
 14   5  27  1   
 15   6  10  1   
 16   6  28  1   
 17   6  29  1   
 18   7  11  1   
 19   7  30  1   
 20   7  31  1   
 21   8   9  1   
 22   8  12  1   
 23   9  32  1   
 24   9  33  1   
 25  10  34  1   
 26  11  13  1   
 27  11  35  1   
 28  11  36  1   
 29  12  14  ar  
 30  12  15  ar  
 31  13  37  1   
 32  13  38  1   
 33  13  39  1   
 34  14  16  ar  
 35  15  17  ar  
 36  15  40  1   
 37  16  18  ar  
 38  16  19  1   
 39  17  18  ar  
 40  17  41  1   
 41  18  42  1   
 42  19  20  1   
 43  19  21  1   
 44  19  43  1   
 45  20  44  1   
 46  20  45  1   
 47  20  46  1   
 48  21  47  1   
 49  21  48  1   
 50  21  49  1   
@<TRIPOS>SUBSTRUCTURE
  1 ****  14 GROUP 4 **** **** 0

# MOE 2024.06 (io_trps.svl 2023.06)
