@<TRIPOS>MOLECULE
NONAME
43 45 1 0 0 
SMALL
USER_CHARGES


@<TRIPOS>ATOM
  1 F        0.4340    -0.7330    -0.0660 F     1 <1>  -0.1900 
  2 C        1.6520    -0.8900     0.3770 C.ar  1 <1>   0.1900 
  3 C        1.8620    -1.7270     1.4540 C.ar  1 <1>  -0.1500 
  4 C        2.6820    -0.2120    -0.2540 C.ar  1 <1>  -0.1500 
  5 C        3.1650    -1.8660     1.8880 C.ar  1 <1>   0.1900 
  6 C        3.9860    -0.3720     0.2020 C.ar  1 <1>  -0.1440 
  7 F        3.4070    -2.6500     2.9040 F     1 <1>  -0.1900 
  8 C        4.2250    -1.2080     1.2870 C.ar  1 <1>  -0.1500 
  9 C        5.1430     0.3610    -0.4720 C.3   1 <1>   0.0450 
 10 C        5.5370     1.6790     0.1960 C.2   1 <1>   0.5690 
 11 O        5.0700     1.9370     1.2820 O.2   1 <1>  -0.5700 
 12 N        6.4270     2.5500    -0.4020 N.am  1 <1>  -0.6600 
 13 C        6.8060     3.7940     0.3480 C.3   1 <1>   0.1400 
 14 C        7.2540     2.2000    -1.6020 C.3   1 <1>   0.1400 
 15 C        8.1620     3.6810     1.0950 C.3   1 <1>   0.4230 
 16 C        8.7830     2.2660    -1.3730 C.3   1 <1>  -0.0800 
 17 N        9.3360     4.1250     0.2570 N.4   1 <1>  -0.9590 
 18 C        8.4490     2.2850     1.7170 C.3   1 <1>   0.1200 
 19 C        9.3450     1.2840    -0.3210 C.3   1 <1>   0.1200 
 20 C        9.2680     3.7050    -1.1750 C.3   1 <1>   0.3430 
 21 C        9.5580     5.6010     0.3620 C.3   1 <1>   0.2630 
 22 O        8.5450     1.2070     0.8160 O.3   1 <1>  -0.5600 
 23 H        1.0520    -2.2450     1.9320 H     1 <1>   0.1500 
 24 H        2.4550     0.4310    -1.0850 H     1 <1>   0.1500 
 25 H        5.2190    -1.3460     1.6740 H     1 <1>   0.1500 
 26 H        4.8760     0.5600    -1.4920 H     1 <1>   0.0800 
 27 H        6.0040    -0.2820    -0.4710 H     1 <1>   0.0800 
 28 H        6.8120     4.6320    -0.3250 H     1 <1>   0.0800 
 29 H        6.0500     4.0140     1.0810 H     1 <1>   0.0800 
 30 H        7.0200     1.2060    -1.9380 H     1 <1>   0.0800 
 31 H        6.9830     2.8680    -2.4020 H     1 <1>   0.0800 
 32 H        8.0960     4.3610     1.9270 H     1 <1>   0.0800 
 33 H        9.2160     1.9640    -2.3100 H     1 <1>   0.0800 
 34 H       10.1530     3.6500     0.6660 H     1 <1>   0.4500 
 35 H        7.6470     2.0410     2.3920 H     1 <1>   0.0800 
 36 H        9.3570     2.3140     2.2930 H     1 <1>   0.0800 
 37 H       10.3520     1.5270    -0.0270 H     1 <1>   0.0800 
 38 H        9.3570     0.2920    -0.7420 H     1 <1>   0.0800 
 39 H        8.6120     4.3670    -1.7170 H     1 <1>   0.0800 
 40 H       10.2510     3.8000    -1.6080 H     1 <1>   0.0800 
 41 H        8.7180     6.1380    -0.0490 H     1 <1>   0.0800 
 42 H       10.4460     5.8860    -0.1790 H     1 <1>   0.0800 
 43 H        9.6800     5.8900     1.3940 H     1 <1>   0.0800 
@<TRIPOS>BOND
  1   1   2  1   
  2   2   3  ar  
  3   2   4  ar  
  4   3   5  ar  
  5   3  23  1   
  6   4   6  ar  
  7   4  24  1   
  8   5   7  1   
  9   5   8  ar  
 10   6   8  ar  
 11   6   9  1   
 12   8  25  1   
 13   9  10  1   
 14   9  26  1   
 15   9  27  1   
 16  10  11  2   
 17  10  12  am  
 18  12  13  1   
 19  12  14  1   
 20  13  15  1   
 21  13  28  1   
 22  13  29  1   
 23  14  16  1   
 24  14  30  1   
 25  14  31  1   
 26  15  17  1   
 27  15  18  1   
 28  15  32  1   
 29  16  19  1   
 30  16  20  1   
 31  16  33  1   
 32  17  20  1   
 33  17  21  1   
 34  17  34  1   
 35  18  22  1   
 36  18  35  1   
 37  18  36  1   
 38  19  22  1   
 39  19  37  1   
 40  19  38  1   
 41  20  39  1   
 42  20  40  1   
 43  21  41  1   
 44  21  42  1   
 45  21  43  1   
@<TRIPOS>SUBSTRUCTURE
  1 ****  10 GROUP 4 **** **** 0

# MOE 2024.06 (io_trps.svl 2023.06)
