@<TRIPOS>MOLECULE
NONAME
41 43 1 0 0 
SMALL
USER_CHARGES


@<TRIPOS>ATOM
  1 S        0.9610     0.8890    -1.7510 S.o2  1 <1>   1.3330 
  2 O        0.4220     2.1110    -2.3010 O.2   1 <1>  -0.6500 
  3 O        1.1100    -0.2720    -2.6000 O.2   1 <1>  -0.6500 
  4 N       -0.0310     0.4490    -0.4430 N.am  1 <1>  -0.8490 
  5 C        2.5510     1.2270    -0.9920 C.3   1 <1>  -0.0550 
  6 C       -1.1530    -0.3950    -0.8630 C.3   1 <1>   0.1160 
  7 C       -0.5340     1.6000     0.3160 C.3   1 <1>   0.1160 
  8 C        3.2660    -0.0220    -0.4320 C.3   1 <1>  -0.0800 
  9 C        4.6760     0.2280     0.0760 C.3   1 <1>   0.2890 
 10 C        2.5880    -0.6770     0.7760 C.3   1 <1>   0.1200 
 11 N        4.7310     1.4820     0.8630 N.pl3 1 <1>  -0.8530 
 12 C        4.8550    -0.9630     1.0090 C.3   1 <1>   0.1200 
 13 O        3.6060    -1.1740     1.5970 O.3   1 <1>  -0.5600 
 14 C        5.2620     2.6460     0.4070 C.2   1 <1>   0.5620 
 15 O        5.3890     3.6510     1.2600 O.3   1 <1>  -0.2800 
 16 N        5.6460     2.8840    -0.7970 N.2   1 <1>  -0.5650 
 17 C        5.9040     4.6360     0.5490 C.ar  1 <1>   0.1400 
 18 C        6.0680     4.1710    -0.7320 C.ar  1 <1>   0.2270 
 19 C        6.2470     5.9250     0.9250 C.ar  1 <1>  -0.1500 
 20 C        6.5970     5.0110    -1.7070 C.ar  1 <1>  -0.1500 
 21 C        6.7730     6.7600    -0.0460 C.ar  1 <1>  -0.1500 
 22 C        6.9460     6.3030    -1.3560 C.ar  1 <1>  -0.1500 
 23 H        3.1890     1.6670    -1.7340 H     1 <1>   0.0800 
 24 H        2.4250     1.9540    -0.2150 H     1 <1>   0.0800 
 25 H       -1.7550    -0.6680    -0.0140 H     1 <1>   0.0800 
 26 H       -0.7850    -1.2990    -1.3180 H     1 <1>   0.0800 
 27 H       -1.7650     0.1280    -1.5800 H     1 <1>   0.0800 
 28 H       -1.0840     1.2630     1.1780 H     1 <1>   0.0800 
 29 H       -1.1820     2.2030    -0.2990 H     1 <1>   0.0800 
 30 H        0.2850     2.2100     0.6550 H     1 <1>   0.0800 
 31 H        3.3240    -0.7610    -1.2130 H     1 <1>   0.0800 
 32 H        5.4080     0.2400    -0.7140 H     1 <1>   0.0800 
 33 H        1.9400    -1.4860     0.4860 H     1 <1>   0.0800 
 34 H        2.0330     0.0420     1.3540 H     1 <1>   0.0800 
 35 H        4.4950     1.4000     1.8540 H     1 <1>   0.4000 
 36 H        5.5930    -0.7880     1.7710 H     1 <1>   0.0800 
 37 H        5.1070    -1.8470     0.4490 H     1 <1>   0.0800 
 38 H        6.1030     6.2500     1.9390 H     1 <1>   0.1500 
 39 H        6.7210     4.6400    -2.7070 H     1 <1>   0.1500 
 40 H        7.0520     7.7690     0.2040 H     1 <1>   0.1500 
 41 H        7.3570     6.9690    -2.0960 H     1 <1>   0.1500 
@<TRIPOS>BOND
  1   1   2  2   
  2   1   3  2   
  3   1   4  am  
  4   1   5  1   
  5   4   6  1   
  6   4   7  1   
  7   5   8  1   
  8   5  23  1   
  9   5  24  1   
 10   6  25  1   
 11   6  26  1   
 12   6  27  1   
 13   7  28  1   
 14   7  29  1   
 15   7  30  1   
 16   8   9  1   
 17   8  10  1   
 18   8  31  1   
 19   9  11  1   
 20   9  12  1   
 21   9  32  1   
 22  10  13  1   
 23  10  33  1   
 24  10  34  1   
 25  11  14  1   
 26  11  35  1   
 27  12  13  1   
 28  12  36  1   
 29  12  37  1   
 30  14  15  1   
 31  14  16  2   
 32  15  17  1   
 33  16  18  1   
 34  17  18  ar  
 35  17  19  ar  
 36  18  20  ar  
 37  19  21  ar  
 38  19  38  1   
 39  20  22  ar  
 40  20  39  1   
 41  21  22  ar  
 42  21  40  1   
 43  22  41  1   
@<TRIPOS>SUBSTRUCTURE
  1 ****   5 GROUP 4 **** **** 0

# MOE 2024.06 (io_trps.svl 2023.06)
