@<TRIPOS>MOLECULE
NONAME
46 47 1 0 0 
SMALL
USER_CHARGES


@<TRIPOS>ATOM
  1 N        0.1000    -0.3460     0.1000 N.ar  1 <1>  -0.6200 
  2 C        0.3470    -1.5730    -0.2960 C.ar  1 <1>   0.7710 
  3 C        0.9810     0.5920    -0.1970 C.ar  1 <1>   0.4100 
  4 N        1.4430    -1.9090    -0.9960 N.ar  1 <1>  -0.1790 
  5 N       -0.5590    -2.4910     0.0410 N.pl3 1 <1>  -0.8690 
  6 N        0.7110     1.8360     0.2740 N.pl3 1 <1>  -0.8380 
  7 C        2.1390     0.3120    -0.9690 C.ar  1 <1>  -0.1430 
  8 C        2.3520    -0.9710    -1.3540 C.ar  1 <1>   0.2110 
  9 C       -0.7220    -3.9200    -0.2600 C.3   1 <1>   0.4330 
 10 C       -0.6780     2.3790     0.2780 C.3   1 <1>   0.1290 
 11 C        1.6500     2.5870     1.1540 C.3   1 <1>   0.1290 
 12 C        3.1090     1.4130    -1.3970 C.3   1 <1>  -0.0970 
 13 C       -2.1980    -4.2590    -0.0930 C.ar  1 <1>  -0.1430 
 14 C        0.1820    -4.7410     0.6700 C.3   1 <1>  -0.1600 
 15 C       -2.8440    -4.0790     1.1250 C.ar  1 <1>  -0.1500 
 16 C       -2.9210    -4.7570    -1.1690 C.ar  1 <1>  -0.1500 
 17 C        0.1060    -6.2490     0.3830 C.3   1 <1>  -0.1600 
 18 C       -4.1850    -4.3900     1.2620 C.ar  1 <1>  -0.1500 
 19 C       -4.2620    -5.0690    -1.0320 C.ar  1 <1>  -0.1500 
 20 C        1.0600    -7.0300     1.2900 C.3   1 <1>  -0.2400 
 21 C       -4.8950    -4.8860     0.1840 C.ar  1 <1>  -0.1500 
 22 H        1.5450    -2.8870    -1.2390 H     1 <1>   0.4570 
 23 H       -1.3730    -2.1170     0.5430 H     1 <1>   0.4000 
 24 H        3.2070    -1.2700    -1.9390 H     1 <1>   0.1500 
 25 H       -0.4380    -4.1030    -1.2830 H     1 <1>   0.0800 
 26 H       -1.2870     1.8550    -0.4400 H     1 <1>   0.0800 
 27 H       -0.6670     3.4230     0.0200 H     1 <1>   0.0800 
 28 H       -1.1150     2.2580     1.2550 H     1 <1>   0.0800 
 29 H        2.5080     1.9840     1.3920 H     1 <1>   0.0800 
 30 H        1.1590     2.8510     2.0750 H     1 <1>   0.0800 
 31 H        1.9730     3.4870     0.6600 H     1 <1>   0.0800 
 32 H        2.5610     2.2740    -1.7410 H     1 <1>   0.0800 
 33 H        3.7470     1.0840    -2.1980 H     1 <1>   0.0800 
 34 H        3.7320     1.7090    -0.5720 H     1 <1>   0.0800 
 35 H       -0.1050    -4.5680     1.6930 H     1 <1>   0.0800 
 36 H        1.2020    -4.4230     0.5570 H     1 <1>   0.0800 
 37 H       -2.3130    -3.6980     1.9790 H     1 <1>   0.1500 
 38 H       -2.4530    -4.9080    -2.1260 H     1 <1>   0.1500 
 39 H        0.3570    -6.4460    -0.6460 H     1 <1>   0.0800 
 40 H       -0.8980    -6.6040     0.5510 H     1 <1>   0.0800 
 41 H       -4.6780    -4.2480     2.2080 H     1 <1>   0.1500 
 42 H       -4.8160    -5.4560    -1.8700 H     1 <1>   0.1500 
 43 H        2.0790    -6.7250     1.1290 H     1 <1>   0.0800 
 44 H        0.9850    -8.0840     1.0820 H     1 <1>   0.0800 
 45 H        0.8100    -6.8740     2.3250 H     1 <1>   0.0800 
 46 H       -5.9390    -5.1300     0.2910 H     1 <1>   0.1500 
@<TRIPOS>BOND
  1   1   2  ar  
  2   1   3  ar  
  3   2   4  ar  
  4   2   5  1   
  5   3   6  1   
  6   3   7  ar  
  7   4   8  ar  
  8   4  22  1   
  9   5   9  1   
 10   5  23  1   
 11   6  10  1   
 12   6  11  1   
 13   7   8  ar  
 14   7  12  1   
 15   8  24  1   
 16   9  13  1   
 17   9  14  1   
 18   9  25  1   
 19  10  26  1   
 20  10  27  1   
 21  10  28  1   
 22  11  29  1   
 23  11  30  1   
 24  11  31  1   
 25  12  32  1   
 26  12  33  1   
 27  12  34  1   
 28  13  15  ar  
 29  13  16  ar  
 30  14  17  1   
 31  14  35  1   
 32  14  36  1   
 33  15  18  ar  
 34  15  37  1   
 35  16  19  ar  
 36  16  38  1   
 37  17  20  1   
 38  17  39  1   
 39  17  40  1   
 40  18  21  ar  
 41  18  41  1   
 42  19  21  ar  
 43  19  42  1   
 44  20  43  1   
 45  20  44  1   
 46  20  45  1   
 47  21  46  1   
@<TRIPOS>SUBSTRUCTURE
  1 ****   5 GROUP 4 **** **** 0

# MOE 2024.06 (io_trps.svl 2023.06)
