@<TRIPOS>MOLECULE
NONAME
51 55 1 0 0 
SMALL
USER_CHARGES


@<TRIPOS>ATOM
  1 S       -1.6500     0.9010    -1.8820 S.3   1 <1>  -0.0800 
  2 C       -1.3960     1.8250    -0.4090 C.2   1 <1>  -0.1400 
  3 C       -3.0880     0.1510    -1.2010 C.2   1 <1>  -0.1100 
  4 C       -2.3560     1.5610     0.4870 C.2   1 <1>  -0.1810 
  5 C       -0.2240     2.7850    -0.2280 C.3   1 <1>   0.4600 
  6 C       -3.3220     0.6030     0.0460 C.2   1 <1>  -0.1500 
  7 C       -2.3410     2.2640     1.8250 C.3   1 <1>   0.0210 
  8 O       -0.2190     3.2370     1.1150 O.3   1 <1>  -0.5600 
  9 C        1.1080     2.0600    -0.4400 C.3   1 <1>  -0.1600 
 10 C       -0.3370     3.9940    -1.1660 C.3   1 <1>  -0.1600 
 11 C       -1.4580     3.5230     1.7230 C.3   1 <1>   0.1200 
 12 C        2.2880     3.0190    -0.3020 C.3   1 <1>   0.2090 
 13 C        0.8670     4.9220    -1.0250 C.3   1 <1>   0.2090 
 14 N        2.1090     4.1380    -1.2620 N.pl3 1 <1>  -0.8380 
 15 C        3.2380     4.7730    -1.7530 C.ar  1 <1>   0.4100 
 16 N        3.4010     6.0420    -1.4180 N.ar  1 <1>  -0.6200 
 17 C        4.1580     4.0830    -2.5570 C.ar  1 <1>   0.1600 
 18 C        4.5220     6.6000    -1.9060 C.ar  1 <1>   0.3960 
 19 N        5.2670     4.5930    -3.0510 N.ar  1 <1>  -0.6200 
 20 C        4.8570     8.0000    -1.6280 C.2   1 <1>   0.5440 
 21 C        5.4070     5.8650    -2.7030 C.ar  1 <1>   0.1600 
 22 O        5.5480     8.6120    -2.4270 O.2   1 <1>  -0.5700 
 23 N        4.4610     8.6840    -0.4920 N.am  1 <1>  -0.6600 
 24 C        4.7880    10.1090    -0.2620 C.3   1 <1>   0.1400 
 25 C        3.7440     8.1130     0.6700 C.3   1 <1>   0.1400 
 26 C        4.0400    10.4830     1.0120 C.3   1 <1>  -0.1600 
 27 C        3.8770     9.1660     1.7650 C.3   1 <1>  -0.1600 
 28 H       -3.6130    -0.5580    -1.8160 H     1 <1>   0.1500 
 29 H       -4.1380     0.3000     0.6790 H     1 <1>   0.1500 
 30 H       -1.9510     1.6030     2.5790 H     1 <1>   0.0800 
 31 H       -3.3380     2.5510     2.1050 H     1 <1>   0.0800 
 32 H        1.1340     1.6270    -1.4220 H     1 <1>   0.0800 
 33 H        1.1950     1.2620     0.2740 H     1 <1>   0.0800 
 34 H       -1.2450     4.5320    -0.9760 H     1 <1>   0.0800 
 35 H       -0.3780     3.6480    -2.1820 H     1 <1>   0.0800 
 36 H       -1.2570     3.9150     2.7040 H     1 <1>   0.0800 
 37 H       -1.9540     4.2820     1.1450 H     1 <1>   0.0800 
 38 H        3.2090     2.4970    -0.4990 H     1 <1>   0.0800 
 39 H        2.3310     3.4120     0.7000 H     1 <1>   0.0800 
 40 H        0.8980     5.3520    -0.0370 H     1 <1>   0.0800 
 41 H        0.7970     5.7220    -1.7430 H     1 <1>   0.0800 
 42 H        3.9340     3.0580    -2.7880 H     1 <1>   0.1500 
 43 H        6.2860     6.3660    -3.0710 H     1 <1>   0.1500 
 44 H        4.4780    10.7110    -1.1000 H     1 <1>   0.0800 
 45 H        5.8510    10.2050    -0.1230 H     1 <1>   0.0800 
 46 H        4.1740     7.1730     0.9710 H     1 <1>   0.0800 
 47 H        2.7090     7.9720     0.4090 H     1 <1>   0.0800 
 48 H        3.0730    10.8750     0.7460 H     1 <1>   0.0800 
 49 H        4.5720    11.2220     1.5850 H     1 <1>   0.0800 
 50 H        4.7630     8.9610     2.3400 H     1 <1>   0.0800 
 51 H        3.0250     9.1690     2.4210 H     1 <1>   0.0800 
@<TRIPOS>BOND
  1   1   2  1   
  2   1   3  1   
  3   2   4  2   
  4   2   5  1   
  5   3   6  2   
  6   3  28  1   
  7   4   6  1   
  8   4   7  1   
  9   5   8  1   
 10   5   9  1   
 11   5  10  1   
 12   6  29  1   
 13   7  11  1   
 14   7  30  1   
 15   7  31  1   
 16   8  11  1   
 17   9  12  1   
 18   9  32  1   
 19   9  33  1   
 20  10  13  1   
 21  10  34  1   
 22  10  35  1   
 23  11  36  1   
 24  11  37  1   
 25  12  14  1   
 26  12  38  1   
 27  12  39  1   
 28  13  14  1   
 29  13  40  1   
 30  13  41  1   
 31  14  15  1   
 32  15  16  ar  
 33  15  17  ar  
 34  16  18  ar  
 35  17  19  ar  
 36  17  42  1   
 37  18  20  1   
 38  18  21  ar  
 39  19  21  ar  
 40  20  22  2   
 41  20  23  am  
 42  21  43  1   
 43  23  24  1   
 44  23  25  1   
 45  24  26  1   
 46  24  44  1   
 47  24  45  1   
 48  25  27  1   
 49  25  46  1   
 50  25  47  1   
 51  26  27  1   
 52  26  48  1   
 53  26  49  1   
 54  27  50  1   
 55  27  51  1   
@<TRIPOS>SUBSTRUCTURE
  1 ****  13 GROUP 4 **** **** 0

# MOE 2024.06 (io_trps.svl 2023.06)
