@<TRIPOS>MOLECULE
NONAME
43 45 1 0 0 
SMALL
USER_CHARGES


@<TRIPOS>ATOM
  1 O       -0.1380     2.0880    -1.4480 O.3   1 <1>  -0.6800 
  2 C        0.1690     3.1440    -0.6020 C.3   1 <1>   0.2000 
  3 C        1.0150     4.2050    -1.3090 C.3   1 <1>   0.2090 
  4 C        1.0470     2.6420     0.5320 C.3   1 <1>  -0.1600 
  5 N        1.9770     4.6990    -0.2830 N.pl3 1 <1>  -0.8380 
  6 C        1.8780     3.8540     0.9380 C.3   1 <1>   0.2090 
  7 C        2.8620     5.7190    -0.4190 C.ar  1 <1>   0.4100 
  8 N        3.5770     6.0520     0.6420 N.ar  1 <1>  -0.6200 
  9 C        3.0090     6.3970    -1.6460 C.ar  1 <1>  -0.1500 
 10 C        4.4350     7.0430     0.5260 C.ar  1 <1>   0.7710 
 11 C        3.8990     7.4120    -1.7370 C.ar  1 <1>   0.2110 
 12 N        4.6050     7.7210    -0.6260 N.ar  1 <1>  -0.1790 
 13 N        5.1300     7.3320     1.6380 N.pl3 1 <1>  -0.8690 
 14 C        6.1750     8.3340     1.9960 C.3   1 <1>   0.3530 
 15 C        6.4150     9.2750     0.8300 C.ar  1 <1>  -0.1430 
 16 C        5.6080    10.3900     0.6590 C.ar  1 <1>  -0.1500 
 17 C        7.3910     8.9820    -0.1110 C.ar  1 <1>  -0.1500 
 18 C        5.7470    11.1970    -0.4590 C.ar  1 <1>  -0.1430 
 19 C        7.5330     9.7810    -1.2300 C.ar  1 <1>  -0.1500 
 20 C        6.7090    10.8780    -1.4060 C.ar  1 <1>  -0.1500 
 21 C        4.8590    12.4230    -0.6420 C.3   1 <1>   0.2630 
 22 O        5.6590    13.5050    -0.9450 O.3   1 <1>  -0.6800 
 23 H       -0.8310     2.3410    -2.0880 H     1 <1>   0.4000 
 24 H       -0.7440     3.5720    -0.2220 H     1 <1>   0.0800 
 25 H        0.3950     5.0090    -1.6670 H     1 <1>   0.0800 
 26 H        1.5640     3.7580    -2.1200 H     1 <1>   0.0800 
 27 H        1.7110     1.8730     0.1780 H     1 <1>   0.0800 
 28 H        0.4680     2.2680     1.3570 H     1 <1>   0.0800 
 29 H        2.8540     3.5560     1.2840 H     1 <1>   0.0800 
 30 H        1.3780     4.4110     1.7120 H     1 <1>   0.0800 
 31 H        2.4180     6.0970    -2.4900 H     1 <1>   0.1500 
 32 H        4.0670     7.9760    -2.6410 H     1 <1>   0.1500 
 33 H        5.2940     8.4790    -0.5960 H     1 <1>   0.4570 
 34 H        4.8850     6.7170     2.4220 H     1 <1>   0.4000 
 35 H        7.0890     7.8240     2.2540 H     1 <1>   0.0800 
 36 H        5.8540     8.8960     2.8580 H     1 <1>   0.0800 
 37 H        4.8600    10.6300     1.3990 H     1 <1>   0.1500 
 38 H        8.0430     8.1320     0.0160 H     1 <1>   0.1500 
 39 H        8.2920     9.5590    -1.9630 H     1 <1>   0.1500 
 40 H        6.8290    11.5000    -2.2800 H     1 <1>   0.1500 
 41 H        4.3140    12.6540     0.2580 H     1 <1>   0.0800 
 42 H        4.1670    12.2850    -1.4540 H     1 <1>   0.0800 
 43 H        6.3950    13.5630    -0.3050 H     1 <1>   0.4000 
@<TRIPOS>BOND
  1   1   2  1   
  2   1  23  1   
  3   2   3  1   
  4   2   4  1   
  5   2  24  1   
  6   3   5  1   
  7   3  25  1   
  8   3  26  1   
  9   4   6  1   
 10   4  27  1   
 11   4  28  1   
 12   5   6  1   
 13   5   7  1   
 14   6  29  1   
 15   6  30  1   
 16   7   8  ar  
 17   7   9  ar  
 18   8  10  ar  
 19   9  11  ar  
 20   9  31  1   
 21  10  12  ar  
 22  10  13  1   
 23  11  12  ar  
 24  11  32  1   
 25  12  33  1   
 26  13  14  1   
 27  13  34  1   
 28  14  15  1   
 29  14  35  1   
 30  14  36  1   
 31  15  16  ar  
 32  15  17  ar  
 33  16  18  ar  
 34  16  37  1   
 35  17  19  ar  
 36  17  38  1   
 37  18  20  ar  
 38  18  21  1   
 39  19  20  ar  
 40  19  39  1   
 41  20  40  1   
 42  21  22  1   
 43  21  41  1   
 44  21  42  1   
 45  22  43  1   
@<TRIPOS>SUBSTRUCTURE
  1 ****  12 GROUP 4 **** **** 0

# MOE 2024.06 (io_trps.svl 2023.06)
