@<TRIPOS>MOLECULE
NONAME
54 56 1 0 0 
SMALL
USER_CHARGES


@<TRIPOS>ATOM
  1 O        0.3590     1.5100    -0.9620 O.2   1 <1>  -0.5700 
  2 C       -0.0330     2.6530    -0.9940 C.2   1 <1>   0.5690 
  3 N       -0.7410     3.2190     0.0310 N.am  1 <1>  -0.6600 
  4 C        0.2540     3.4800    -2.2450 C.3   1 <1>   0.1810 
  5 C       -1.2590     4.6250    -0.0560 C.3   1 <1>   0.3640 
  6 C       -1.0230     2.4920     1.3030 C.3   1 <1>   0.0600 
  7 O        0.2890     4.8590    -1.9800 O.3   1 <1>  -0.5600 
  8 C       -2.7770     4.6530     0.2050 C.ar  1 <1>  -0.1430 
  9 C       -0.8830     5.3800    -1.3630 C.3   1 <1>   0.2610 
 10 C       -3.7240     3.8800    -0.4770 C.ar  1 <1>  -0.1430 
 11 C       -3.2200     5.5180     1.2000 C.ar  1 <1>  -0.1500 
 12 C       -0.6860     6.8770    -1.0740 C.2   1 <1>   0.5690 
 13 C       -5.0660     3.9890    -0.1410 C.ar  1 <1>  -0.1500 
 14 C       -3.3730     2.8910    -1.5840 C.3   1 <1>  -0.0960 
 15 C       -4.5590     5.6200     1.5240 C.ar  1 <1>  -0.1500 
 16 O       -1.5320     7.4970    -0.4740 O.2   1 <1>  -0.5700 
 17 N        0.4540     7.4840    -1.5030 N.am  1 <1>  -0.7300 
 18 C       -5.4860     4.8520     0.8520 C.ar  1 <1>  -0.1500 
 19 C        0.8030     8.9090    -1.3460 C.3   1 <1>   0.1400 
 20 C        2.1400     9.0190    -0.6170 C.3   1 <1>  -0.1600 
 21 C        2.5200    10.4860    -0.4110 C.3   1 <1>   0.1400 
 22 N        3.8610    10.5700     0.2060 N.am  1 <1>  -0.6600 
 23 C        4.9970    10.9060    -0.4440 C.2   1 <1>   0.5690 
 24 C        4.0590    10.3900     1.6540 C.3   1 <1>   0.1400 
 25 O        5.0970    11.1280    -1.6260 O.2   1 <1>  -0.5700 
 26 C        6.1570    10.9800     0.5090 C.3   1 <1>  -0.0990 
 27 C        5.5850    10.4230     1.8250 C.3   1 <1>  -0.1600 
 28 H       -0.4950     3.2890    -2.9910 H     1 <1>   0.0800 
 29 H        1.2140     3.1990    -2.6390 H     1 <1>   0.0800 
 30 H       -0.7820     5.1610     0.7460 H     1 <1>   0.0800 
 31 H       -0.6970     3.0820     2.1420 H     1 <1>   0.0800 
 32 H       -0.5050     1.5490     1.3260 H     1 <1>   0.0800 
 33 H       -2.0790     2.3060     1.3920 H     1 <1>   0.0800 
 34 H       -1.6870     5.2950    -2.0700 H     1 <1>   0.0800 
 35 H       -2.5190     6.1370     1.7340 H     1 <1>   0.1500 
 36 H       -5.8050     3.3980    -0.6530 H     1 <1>   0.1500 
 37 H       -4.2580     2.5380    -2.0800 H     1 <1>   0.0800 
 38 H       -2.8670     2.0380    -1.1700 H     1 <1>   0.0800 
 39 H       -2.7510     3.3500    -2.3250 H     1 <1>   0.0800 
 40 H       -4.8770     6.3000     2.2960 H     1 <1>   0.1500 
 41 H        1.1330     6.8920    -1.9940 H     1 <1>   0.3700 
 42 H       -6.5300     4.9270     1.0990 H     1 <1>   0.1500 
 43 H        0.8710     9.3660    -2.3200 H     1 <1>   0.0800 
 44 H        0.0330     9.4140    -0.7860 H     1 <1>   0.0800 
 45 H        2.9050     8.5420    -1.2040 H     1 <1>   0.0800 
 46 H        2.0620     8.5320     0.3370 H     1 <1>   0.0800 
 47 H        1.8010    10.9790     0.2210 H     1 <1>   0.0800 
 48 H        2.5400    10.9930    -1.3620 H     1 <1>   0.0800 
 49 H        3.5940    11.2040     2.1830 H     1 <1>   0.0800 
 50 H        3.6480     9.4510     1.9840 H     1 <1>   0.0800 
 51 H        6.9800    10.3920     0.1470 H     1 <1>   0.0800 
 52 H        6.4540    12.0060     0.6160 H     1 <1>   0.0800 
 53 H        5.8710    11.0210     2.6730 H     1 <1>   0.0800 
 54 H        5.9390     9.4180     1.9770 H     1 <1>   0.0800 
@<TRIPOS>BOND
  1   1   2  2   
  2   2   3  am  
  3   2   4  1   
  4   3   5  1   
  5   3   6  1   
  6   4   7  1   
  7   4  28  1   
  8   4  29  1   
  9   5   8  1   
 10   5   9  1   
 11   5  30  1   
 12   6  31  1   
 13   6  32  1   
 14   6  33  1   
 15   7   9  1   
 16   8  10  ar  
 17   8  11  ar  
 18   9  12  1   
 19   9  34  1   
 20  10  13  ar  
 21  10  14  1   
 22  11  15  ar  
 23  11  35  1   
 24  12  16  2   
 25  12  17  am  
 26  13  18  ar  
 27  13  36  1   
 28  14  37  1   
 29  14  38  1   
 30  14  39  1   
 31  15  18  ar  
 32  15  40  1   
 33  17  19  1   
 34  17  41  1   
 35  18  42  1   
 36  19  20  1   
 37  19  43  1   
 38  19  44  1   
 39  20  21  1   
 40  20  45  1   
 41  20  46  1   
 42  21  22  1   
 43  21  47  1   
 44  21  48  1   
 45  22  23  am  
 46  22  24  1   
 47  23  25  2   
 48  23  26  1   
 49  24  27  1   
 50  24  49  1   
 51  24  50  1   
 52  26  27  1   
 53  26  51  1   
 54  26  52  1   
 55  27  53  1   
 56  27  54  1   
@<TRIPOS>SUBSTRUCTURE
  1 ****  12 GROUP 4 **** **** 0

# MOE 2024.06 (io_trps.svl 2023.06)
