@<TRIPOS>MOLECULE
NONAME
48 50 1 0 0 
SMALL
USER_CHARGES


@<TRIPOS>ATOM
  1 O        0.4260    -0.3250    -0.5030 O.2   1 <1>  -0.5700 
  2 C        1.4930    -0.7940    -0.1540 C.2   1 <1>   0.5440 
  3 N        2.5940     0.0370    -0.0880 N.am  1 <1>  -0.6600 
  4 C        1.5660    -2.2020     0.1680 C.ar  1 <1>   0.0860 
  5 C        3.9930    -0.4860    -0.2160 C.3   1 <1>   0.1400 
  6 C        2.3800     1.5120    -0.0500 C.3   1 <1>   0.1400 
  7 C        2.2390    -2.6540     1.3010 C.ar  1 <1>   0.1600 
  8 C        0.9630    -3.1670    -0.6280 C.ar  1 <1>  -0.1500 
  9 C        4.8610     0.3080    -1.2020 C.3   1 <1>   0.1100 
 10 C        3.5140     2.2820     0.6320 C.3   1 <1>  -0.1600 
 11 N        2.3800    -3.9150     1.6710 N.ar  1 <1>  -0.6200 
 12 C        1.0860    -4.4880    -0.2590 C.ar  1 <1>  -0.1500 
 13 N        5.5540     1.4340    -0.5450 N.3   1 <1>  -0.8100 
 14 C        4.6850     2.5960    -0.3020 C.3   1 <1>   0.1100 
 15 C        1.8020    -4.8180     0.8910 C.ar  1 <1>   0.3930 
 16 C        6.7740     1.8100    -1.3150 C.3   1 <1>   0.2900 
 17 O        1.9600    -6.0890     1.3040 O.3   1 <1>  -0.3630 
 18 C        7.7160     2.7780    -0.6010 C.2   1 <1>   0.2980 
 19 C        1.3650    -7.1940     0.6610 C.3   1 <1>   0.0400 
 20 O        7.4750     4.0640    -0.6870 O.3   1 <1>  -0.0190 
 21 N        8.7590     2.4620     0.0610 N.2   1 <1>  -0.5650 
 22 N        8.4360     4.6110    -0.0080 N.2   1 <1>  -0.4100 
 23 C        9.1740     3.6680     0.4220 C.2   1 <1>   0.3350 
 24 C       10.4180     3.8530     1.2720 C.3   1 <1>   0.0210 
 25 C       11.7020     3.5570     0.4850 C.3   1 <1>  -0.2400 
 26 H        3.9550    -1.5000    -0.5720 H     1 <1>   0.0800 
 27 H        4.4700    -0.4950     0.7490 H     1 <1>   0.0800 
 28 H        1.4700     1.7060     0.4940 H     1 <1>   0.0800 
 29 H        2.2340     1.8730    -1.0540 H     1 <1>   0.0800 
 30 H        2.6890    -1.9140     1.9410 H     1 <1>   0.1500 
 31 H        0.4120    -2.8740    -1.5060 H     1 <1>   0.1500 
 32 H        4.2760     0.6440    -2.0410 H     1 <1>   0.0800 
 33 H        5.6020    -0.3790    -1.5740 H     1 <1>   0.0800 
 34 H        3.8510     1.7780     1.5200 H     1 <1>   0.0800 
 35 H        3.1060     3.2260     0.9430 H     1 <1>   0.0800 
 36 H        0.6270    -5.2440    -0.8630 H     1 <1>   0.1500 
 37 H        5.2610     3.3670     0.1780 H     1 <1>   0.0800 
 38 H        4.3200     2.9900    -1.2360 H     1 <1>   0.0800 
 39 H        6.4910     2.2330    -2.2620 H     1 <1>   0.0800 
 40 H        7.3450     0.9190    -1.5110 H     1 <1>   0.0800 
 41 H        1.6290    -8.0790     1.2110 H     1 <1>   0.0800 
 42 H        1.7440    -7.2620    -0.3430 H     1 <1>   0.0800 
 43 H        0.2970    -7.0680     0.6660 H     1 <1>   0.0800 
 44 H       10.3530     3.1980     2.1220 H     1 <1>   0.0800 
 45 H       10.4450     4.8660     1.6330 H     1 <1>   0.0800 
 46 H       11.6950     2.5390     0.1370 H     1 <1>   0.0800 
 47 H       12.5640     3.7030     1.1120 H     1 <1>   0.0800 
 48 H       11.7730     4.2120    -0.3650 H     1 <1>   0.0800 
@<TRIPOS>BOND
  1   1   2  2   
  2   2   3  am  
  3   2   4  1   
  4   3   5  1   
  5   3   6  1   
  6   4   7  ar  
  7   4   8  ar  
  8   5   9  1   
  9   5  26  1   
 10   5  27  1   
 11   6  10  1   
 12   6  28  1   
 13   6  29  1   
 14   7  11  ar  
 15   7  30  1   
 16   8  12  ar  
 17   8  31  1   
 18   9  13  1   
 19   9  32  1   
 20   9  33  1   
 21  10  14  1   
 22  10  34  1   
 23  10  35  1   
 24  11  15  ar  
 25  12  15  ar  
 26  12  36  1   
 27  13  14  1   
 28  13  16  1   
 29  14  37  1   
 30  14  38  1   
 31  15  17  1   
 32  16  18  1   
 33  16  39  1   
 34  16  40  1   
 35  17  19  1   
 36  18  20  1   
 37  18  21  2   
 38  19  41  1   
 39  19  42  1   
 40  19  43  1   
 41  20  22  1   
 42  21  23  1   
 43  22  23  2   
 44  23  24  1   
 45  24  25  1   
 46  24  44  1   
 47  24  45  1   
 48  25  46  1   
 49  25  47  1   
 50  25  48  1   
@<TRIPOS>SUBSTRUCTURE
  1 ****   5 GROUP 4 **** **** 0

# MOE 2024.06 (io_trps.svl 2023.06)
