@<TRIPOS>MOLECULE
NONAME
51 54 1 0 0 
SMALL
USER_CHARGES


@<TRIPOS>ATOM
  1 O       -0.7270     0.9520     2.6400 O.3   1 <1>  -0.5600 
  2 C        0.4230     0.8900     1.8540 C.3   1 <1>   0.1200 
  3 C       -1.8690     0.9650     1.8350 C.3   1 <1>   0.1200 
  4 C        0.0520     1.5670     0.5390 C.3   1 <1>   0.2890 
  5 C       -1.3900     1.1010     0.3850 C.3   1 <1>  -0.0800 
  6 N        0.1230     3.0400     0.7250 N.pl3 1 <1>  -0.8690 
  7 C       -2.3020     1.9820    -0.4910 C.3   1 <1>  -0.0170 
  8 C        0.7240     4.0040     0.0140 C.ar  1 <1>   0.4100 
  9 C       -3.6880     1.3680    -0.6160 C.ar  1 <1>  -0.1430 
 10 N        0.7240     5.1850     0.5860 N.ar  1 <1>  -0.6200 
 11 C        1.3110     3.7820    -1.2450 C.ar  1 <1>  -0.1500 
 12 C       -4.7550     1.8100     0.1390 C.ar  1 <1>  -0.1500 
 13 C       -3.9500     0.3320    -1.4910 C.ar  1 <1>  -0.1500 
 14 C        1.3190     6.1850    -0.0500 C.ar  1 <1>   0.7710 
 15 C        1.9090     4.8180    -1.8810 C.ar  1 <1>   0.2180 
 16 C       -5.9950     1.2100    -0.0080 C.ar  1 <1>   0.1600 
 17 C       -5.2280    -0.1980    -1.5610 C.ar  1 <1>   0.1600 
 18 N        1.8980     6.0180    -1.2520 N.ar  1 <1>  -0.1790 
 19 N        1.3450     7.4120     0.5230 N.pl3 1 <1>  -0.8380 
 20 C        2.5760     4.7040    -3.2410 C.3   1 <1>  -0.0970 
 21 N       -6.2570     0.2140    -0.8390 N.ar  1 <1>  -0.6200 
 22 C        2.0020     8.6550     0.0350 C.3   1 <1>   0.2090 
 23 C        0.6950     7.6660     1.8410 C.3   1 <1>   0.2090 
 24 C        1.9840     9.6050     1.2240 C.3   1 <1>  -0.1600 
 25 C        0.7740     9.1730     2.0420 C.3   1 <1>  -0.1600 
 26 H        1.2350     1.3810     2.3610 H     1 <1>   0.0800 
 27 H        0.6590    -0.1480     1.6980 H     1 <1>   0.0800 
 28 H       -2.4200     0.0530     1.9910 H     1 <1>   0.0800 
 29 H       -2.4680     1.8070     2.1380 H     1 <1>   0.0800 
 30 H        0.6840     1.2390    -0.2670 H     1 <1>   0.0800 
 31 H       -1.3730     0.1120    -0.0370 H     1 <1>   0.0800 
 32 H       -0.2610     3.3210     1.6360 H     1 <1>   0.4000 
 33 H       -1.8710     2.0840    -1.4710 H     1 <1>   0.0800 
 34 H       -2.3870     2.9680    -0.0690 H     1 <1>   0.0800 
 35 H        1.2710     2.8000    -1.6750 H     1 <1>   0.1500 
 36 H       -4.6380     2.6150     0.8420 H     1 <1>   0.1500 
 37 H       -3.1770    -0.0690    -2.1190 H     1 <1>   0.1500 
 38 H       -6.8150     1.5690     0.5910 H     1 <1>   0.1500 
 39 H       -5.4140    -1.0050    -2.2490 H     1 <1>   0.1500 
 40 H        2.3140     6.8480    -1.6520 H     1 <1>   0.4570 
 41 H        2.5060     3.6960    -3.6120 H     1 <1>   0.0800 
 42 H        3.6180     4.9640    -3.1720 H     1 <1>   0.0800 
 43 H        2.0970     5.3560    -3.9510 H     1 <1>   0.0800 
 44 H        3.0140     8.4750    -0.2870 H     1 <1>   0.0800 
 45 H        1.4220     9.0770    -0.7700 H     1 <1>   0.0800 
 46 H       -0.3270     7.3250     1.8480 H     1 <1>   0.0800 
 47 H        1.2470     7.1570     2.6140 H     1 <1>   0.0800 
 48 H        2.8820     9.4670     1.8020 H     1 <1>   0.0800 
 49 H        1.9230    10.6350     0.9170 H     1 <1>   0.0800 
 50 H       -0.1190     9.6270     1.6490 H     1 <1>   0.0800 
 51 H        0.8660     9.4320     3.0820 H     1 <1>   0.0800 
@<TRIPOS>BOND
  1   1   2  1   
  2   1   3  1   
  3   2   4  1   
  4   2  26  1   
  5   2  27  1   
  6   3   5  1   
  7   3  28  1   
  8   3  29  1   
  9   4   5  1   
 10   4   6  1   
 11   4  30  1   
 12   5   7  1   
 13   5  31  1   
 14   6   8  1   
 15   6  32  1   
 16   7   9  1   
 17   7  33  1   
 18   7  34  1   
 19   8  10  ar  
 20   8  11  ar  
 21   9  12  ar  
 22   9  13  ar  
 23  10  14  ar  
 24  11  15  ar  
 25  11  35  1   
 26  12  16  ar  
 27  12  36  1   
 28  13  17  ar  
 29  13  37  1   
 30  14  18  ar  
 31  14  19  1   
 32  15  18  ar  
 33  15  20  1   
 34  16  21  ar  
 35  16  38  1   
 36  17  21  ar  
 37  17  39  1   
 38  18  40  1   
 39  19  22  1   
 40  19  23  1   
 41  20  41  1   
 42  20  42  1   
 43  20  43  1   
 44  22  24  1   
 45  22  44  1   
 46  22  45  1   
 47  23  25  1   
 48  23  46  1   
 49  23  47  1   
 50  24  25  1   
 51  24  48  1   
 52  24  49  1   
 53  25  50  1   
 54  25  51  1   
@<TRIPOS>SUBSTRUCTURE
  1 ****   6 GROUP 4 **** **** 0

# MOE 2024.06 (io_trps.svl 2023.06)
