@<TRIPOS>MOLECULE
NONAME
48 49 1 0 0 
SMALL
USER_CHARGES


@<TRIPOS>ATOM
  1 CL      -2.1660    -3.7800     4.1120 Cl    1 <1>  -0.1770 
  2 C       -1.7780    -4.2930     2.4890 C.ar  1 <1>   0.1770 
  3 C       -2.6590    -4.0160     1.4620 C.ar  1 <1>  -0.1500 
  4 C       -0.5950    -4.9670     2.2570 C.ar  1 <1>  -0.1500 
  5 C       -2.3610    -4.4230     0.1700 C.ar  1 <1>  -0.1440 
  6 C       -0.2920    -5.3770     0.9700 C.ar  1 <1>  -0.1500 
  7 C       -1.1760    -5.1170    -0.0770 C.ar  1 <1>   0.0830 
  8 C       -3.3380    -4.1070    -0.9540 C.3   1 <1>  -0.0960 
  9 O       -0.9390    -5.5210    -1.3530 O.3   1 <1>  -0.3630 
 10 C       -0.0010    -6.5470    -1.6660 C.3   1 <1>   0.1810 
 11 C       -0.2840    -7.8590    -0.9330 C.2   1 <1>   0.5690 
 12 O        0.5970    -8.3010    -0.2330 O.2   1 <1>  -0.5700 
 13 N       -1.4820    -8.5160    -1.0550 N.am  1 <1>  -0.6600 
 14 C       -2.6650    -8.0930    -1.8460 C.3   1 <1>   0.1400 
 15 C       -1.8560    -9.6330    -0.1500 C.3   1 <1>   0.1400 
 16 C       -3.8500    -8.5230    -0.9860 C.3   1 <1>   0.2000 
 17 C       -3.3710    -9.8210    -0.3300 C.3   1 <1>  -0.0800 
 18 O       -4.0530    -7.5570    -0.0120 O.3   1 <1>  -0.6800 
 19 C       -4.1200   -10.1850     0.9710 C.3   1 <1>  -0.0550 
 20 S       -3.7690   -11.8340     1.5850 S.o2  1 <1>   1.3330 
 21 O       -4.6390   -12.1210     2.7030 O.2   1 <1>  -0.6500 
 22 O       -2.3380   -11.9650     1.7410 O.2   1 <1>  -0.6500 
 23 N       -4.2450   -12.8380     0.2980 N.am  1 <1>  -0.8490 
 24 C       -3.5130   -14.1090     0.2910 C.3   1 <1>   0.1160 
 25 C       -5.6880   -13.0980     0.2700 C.3   1 <1>   0.1160 
 26 H       -3.5680    -3.4860     1.6810 H     1 <1>   0.1500 
 27 H        0.0760    -5.1670     3.0720 H     1 <1>   0.1500 
 28 H        0.6360    -5.8950     0.8080 H     1 <1>   0.1500 
 29 H       -4.0740    -3.3920    -0.6360 H     1 <1>   0.0800 
 30 H       -3.8430    -5.0040    -1.2630 H     1 <1>   0.0800 
 31 H       -2.8120    -3.6960    -1.7970 H     1 <1>   0.0800 
 32 H       -0.0490    -6.7170    -2.7250 H     1 <1>   0.0800 
 33 H        0.9820    -6.1900    -1.4210 H     1 <1>   0.0800 
 34 H       -2.6910    -7.0390    -2.0500 H     1 <1>   0.0800 
 35 H       -2.6730    -8.6370    -2.7750 H     1 <1>   0.0800 
 36 H       -1.3140   -10.5270    -0.4100 H     1 <1>   0.0800 
 37 H       -1.6140    -9.3620     0.8650 H     1 <1>   0.0800 
 38 H       -4.7610    -8.6390    -1.5470 H     1 <1>   0.0800 
 39 H       -3.5120   -10.6130    -1.0450 H     1 <1>   0.0800 
 40 H       -3.1810    -7.2540     0.3240 H     1 <1>   0.4000 
 41 H       -5.1730   -10.1020     0.7910 H     1 <1>   0.0800 
 42 H       -3.8720    -9.4710     1.7330 H     1 <1>   0.0800 
 43 H       -3.8290   -14.7180    -0.5380 H     1 <1>   0.0800 
 44 H       -3.6840   -14.6440     1.2110 H     1 <1>   0.0800 
 45 H       -2.4560   -13.9260     0.1900 H     1 <1>   0.0800 
 46 H       -5.9450   -13.6640    -0.6090 H     1 <1>   0.0800 
 47 H       -6.2340   -12.1710     0.2480 H     1 <1>   0.0800 
 48 H       -5.9880   -13.6550     1.1440 H     1 <1>   0.0800 
@<TRIPOS>BOND
  1   1   2  1   
  2   2   3  ar  
  3   2   4  ar  
  4   3   5  ar  
  5   3  26  1   
  6   4   6  ar  
  7   4  27  1   
  8   5   7  ar  
  9   5   8  1   
 10   6   7  ar  
 11   6  28  1   
 12   7   9  1   
 13   8  29  1   
 14   8  30  1   
 15   8  31  1   
 16   9  10  1   
 17  10  11  1   
 18  10  32  1   
 19  10  33  1   
 20  11  12  2   
 21  11  13  am  
 22  13  14  1   
 23  13  15  1   
 24  14  16  1   
 25  14  34  1   
 26  14  35  1   
 27  15  17  1   
 28  15  36  1   
 29  15  37  1   
 30  16  17  1   
 31  16  18  1   
 32  16  38  1   
 33  17  19  1   
 34  17  39  1   
 35  18  40  1   
 36  19  20  1   
 37  19  41  1   
 38  19  42  1   
 39  20  21  2   
 40  20  22  2   
 41  20  23  am  
 42  23  24  1   
 43  23  25  1   
 44  24  43  1   
 45  24  44  1   
 46  24  45  1   
 47  25  46  1   
 48  25  47  1   
 49  25  48  1   
@<TRIPOS>SUBSTRUCTURE
  1 ****  15 GROUP 4 **** **** 0

# MOE 2024.06 (io_trps.svl 2023.06)
