@<TRIPOS>MOLECULE
NONAME
56 58 1 0 0 
SMALL
USER_CHARGES


@<TRIPOS>ATOM
  1 O        1.2780    -0.3260    -1.4510 O.2   1 <1>  -0.5700 
  2 C        0.4380    -1.0860    -1.0190 C.2   1 <1>   0.5440 
  3 N       -0.7550    -0.5270    -0.7070 N.am  1 <1>  -0.8000 
  4 C        0.7040    -2.5010    -0.8340 C.ar  1 <1>   0.0860 
  5 C       -0.3180    -3.4520    -0.7840 C.ar  1 <1>  -0.1500 
  6 C        2.0100    -2.9740    -0.6970 C.ar  1 <1>  -0.1500 
  7 C       -0.0480    -4.7940    -0.5950 C.ar  1 <1>  -0.1500 
  8 C        2.2830    -4.3150    -0.5090 C.ar  1 <1>  -0.1500 
  9 C        1.2560    -5.2520    -0.4500 C.ar  1 <1>   0.1170 
 10 N        1.4690    -6.6200    -0.2600 N.am  1 <1>  -0.5470 
 11 C        2.5700    -7.3640     0.0580 C.2   1 <1>   0.5690 
 12 O        3.6690    -6.9110     0.2700 O.2   1 <1>  -0.5700 
 13 C        2.3520    -8.8740     0.1540 C.3   1 <1>   0.1710 
 14 N        0.9610    -9.2500     0.5540 N.3   1 <1>  -0.8100 
 15 C        0.6900   -10.6690     0.2600 C.3   1 <1>   0.1100 
 16 C        0.7180    -8.9490     1.9830 C.3   1 <1>   0.1100 
 17 C       -0.8300   -10.9900     0.3440 C.3   1 <1>   0.0000 
 18 C       -0.5790    -9.5980     2.4950 C.3   1 <1>  -0.1600 
 19 C       -1.4930    -9.9760     1.3280 C.3   1 <1>   0.2000 
 20 C       -1.5070   -10.7610    -1.0310 C.3   1 <1>   0.1200 
 21 C       -1.0260   -12.4600     0.8320 C.3   1 <1>  -0.0170 
 22 O       -2.6970   -10.4350     1.8380 O.3   1 <1>  -0.6800 
 23 O       -0.8810   -11.4560    -2.0580 O.3   1 <1>  -0.6800 
 24 C       -0.4230   -13.5470    -0.0570 C.ar  1 <1>  -0.1430 
 25 C        0.9100   -13.9120     0.0600 C.ar  1 <1>  -0.1500 
 26 C       -1.2200   -14.1960    -0.9890 C.ar  1 <1>  -0.1500 
 27 C        1.4450   -14.8890    -0.7610 C.ar  1 <1>  -0.1500 
 28 C       -0.6870   -15.1730    -1.8110 C.ar  1 <1>  -0.1500 
 29 C        0.6470   -15.5180    -1.7000 C.ar  1 <1>  -0.1500 
 30 H       -0.8600     0.4810    -0.8240 H     1 <1>   0.3700 
 31 H       -1.4900    -1.0080    -0.1920 H     1 <1>   0.3700 
 32 H       -1.3390    -3.1390    -0.9040 H     1 <1>   0.1500 
 33 H        2.8240    -2.2700    -0.7410 H     1 <1>   0.1500 
 34 H       -0.8590    -5.4980    -0.5630 H     1 <1>   0.1500 
 35 H        3.3050    -4.6300    -0.4100 H     1 <1>   0.1500 
 36 H        0.6400    -7.2200    -0.3120 H     1 <1>   0.3700 
 37 H        3.0640    -9.2900     0.8450 H     1 <1>   0.0800 
 38 H        2.5640    -9.2800    -0.8190 H     1 <1>   0.0800 
 39 H        1.0700   -10.9240    -0.7150 H     1 <1>   0.0800 
 40 H        1.2290   -11.2630     0.9770 H     1 <1>   0.0800 
 41 H        1.5440    -9.2950     2.5830 H     1 <1>   0.0800 
 42 H        0.6490    -7.8810     2.1050 H     1 <1>   0.0800 
 43 H       -1.0790    -8.9060     3.1480 H     1 <1>   0.0800 
 44 H       -0.3260   -10.4740     3.0640 H     1 <1>   0.0800 
 45 H       -1.7200    -9.0680     0.7940 H     1 <1>   0.0800 
 46 H       -1.4720    -9.7180    -1.2960 H     1 <1>   0.0800 
 47 H       -2.5380   -11.0700    -0.9970 H     1 <1>   0.0800 
 48 H       -0.6100   -12.5660     1.8180 H     1 <1>   0.0800 
 49 H       -2.0770   -12.6700     0.9190 H     1 <1>   0.0800 
 50 H       -2.5420   -11.1060     2.5280 H     1 <1>   0.4000 
 51 H       -0.7300   -12.3910    -1.7900 H     1 <1>   0.4000 
 52 H        1.5450   -13.4460     0.7910 H     1 <1>   0.1500 
 53 H       -2.2630   -13.9440    -1.0860 H     1 <1>   0.1500 
 54 H        2.4810   -15.1630    -0.6690 H     1 <1>   0.1500 
 55 H       -1.3110   -15.6660    -2.5360 H     1 <1>   0.1500 
 56 H        1.0630   -16.2770    -2.3400 H     1 <1>   0.1500 
@<TRIPOS>BOND
  1   1   2  2   
  2   2   3  am  
  3   2   4  1   
  4   3  30  1   
  5   3  31  1   
  6   4   5  ar  
  7   4   6  ar  
  8   5   7  ar  
  9   5  32  1   
 10   6   8  ar  
 11   6  33  1   
 12   7   9  ar  
 13   7  34  1   
 14   8   9  ar  
 15   8  35  1   
 16   9  10  1   
 17  10  11  am  
 18  10  36  1   
 19  11  12  2   
 20  11  13  1   
 21  13  14  1   
 22  13  37  1   
 23  13  38  1   
 24  14  15  1   
 25  14  16  1   
 26  15  17  1   
 27  15  39  1   
 28  15  40  1   
 29  16  18  1   
 30  16  41  1   
 31  16  42  1   
 32  17  19  1   
 33  17  20  1   
 34  17  21  1   
 35  18  19  1   
 36  18  43  1   
 37  18  44  1   
 38  19  22  1   
 39  19  45  1   
 40  20  23  1   
 41  20  46  1   
 42  20  47  1   
 43  21  24  1   
 44  21  48  1   
 45  21  49  1   
 46  22  50  1   
 47  23  51  1   
 48  24  25  ar  
 49  24  26  ar  
 50  25  27  ar  
 51  25  52  1   
 52  26  28  ar  
 53  26  53  1   
 54  27  29  ar  
 55  27  54  1   
 56  28  29  ar  
 57  28  55  1   
 58  29  56  1   
@<TRIPOS>SUBSTRUCTURE
  1 ****  14 GROUP 4 **** **** 0

# MOE 2024.06 (io_trps.svl 2023.06)
