@<TRIPOS>MOLECULE
NONAME
48 50 1 0 0 
SMALL
USER_CHARGES


@<TRIPOS>ATOM
  1 O        1.5180    -0.0980    -0.8040 O.3   1 <1>  -0.5600 
  2 C        2.3640    -1.0520    -0.1990 C.3   1 <1>   0.4240 
  3 C        0.1910    -0.0400    -0.3790 C.3   1 <1>   0.1200 
  4 C        1.6300    -2.3810     0.1110 C.ar  1 <1>  -0.1440 
  5 C        2.9460    -0.3750     1.0630 C.3   1 <1>  -0.1600 
  6 C        3.4600    -1.2670    -1.2540 C.3   1 <1>  -0.1600 
  7 C       -0.4970    -1.3420    -0.7610 C.3   1 <1>  -0.0160 
  8 C        2.3000    -3.4780     0.6690 C.ar  1 <1>   0.0820 
  9 C        0.2720    -2.5070    -0.1720 C.ar  1 <1>  -0.1440 
 10 C        4.2240     0.4180     0.7860 C.3   1 <1>   0.3430 
 11 C        4.1200     0.0470    -1.6740 C.3   1 <1>   0.3430 
 12 O        3.6250    -3.3600     0.9600 O.3   1 <1>  -0.3630 
 13 C        1.6090    -4.6630     0.9180 C.ar  1 <1>  -0.1500 
 14 C       -0.4020    -3.6900     0.0790 C.ar  1 <1>  -0.1500 
 15 N        4.1300     1.0400    -0.5580 N.4   1 <1>  -0.9590 
 16 C        4.3740    -4.4270     1.5040 C.3   1 <1>   0.0400 
 17 C        0.2650    -4.7670     0.6230 C.ar  1 <1>  -0.1500 
 18 C        5.0520     2.1930    -0.7810 C.3   1 <1>   0.3430 
 19 C        4.5870     3.4320     0.0130 C.3   1 <1>   0.2000 
 20 O        3.1940     3.4840     0.0100 O.3   1 <1>  -0.6800 
 21 C        5.1250     4.7530    -0.5630 C.3   1 <1>   0.1200 
 22 O        4.4700     5.8160     0.0530 O.3   1 <1>  -0.6800 
 23 H       -0.2810     0.7940    -0.8690 H     1 <1>   0.0800 
 24 H        0.1600     0.1130     0.6860 H     1 <1>   0.0800 
 25 H        3.1810    -1.1060     1.8120 H     1 <1>   0.0800 
 26 H        2.2160     0.2750     1.5080 H     1 <1>   0.0800 
 27 H        3.0360    -1.7510    -2.1150 H     1 <1>   0.0800 
 28 H        4.2250    -1.9190    -0.8810 H     1 <1>   0.0800 
 29 H       -0.5350    -1.4320    -1.8320 H     1 <1>   0.0800 
 30 H       -1.5040    -1.3320    -0.3850 H     1 <1>   0.0800 
 31 H        5.0740    -0.2440     0.8170 H     1 <1>   0.0800 
 32 H        4.3450     1.1720     1.5460 H     1 <1>   0.0800 
 33 H        3.5650     0.4640    -2.5010 H     1 <1>   0.0800 
 34 H        5.1240    -0.1530    -2.0080 H     1 <1>   0.0800 
 35 H        2.0930    -5.5210     1.3430 H     1 <1>   0.1500 
 36 H       -1.4500    -3.7770    -0.1490 H     1 <1>   0.1500 
 37 H        3.1810     1.4750    -0.5650 H     1 <1>   0.4500 
 38 H        5.3880    -4.0960     1.6340 H     1 <1>   0.0800 
 39 H        4.3470    -5.2580     0.8210 H     1 <1>   0.0800 
 40 H        3.9550    -4.6990     2.4570 H     1 <1>   0.0800 
 41 H       -0.2620    -5.6850     0.8160 H     1 <1>   0.1500 
 42 H        5.0470     2.4490    -1.8270 H     1 <1>   0.0800 
 43 H        6.0610     1.9320    -0.5090 H     1 <1>   0.0800 
 44 H        4.9050     3.3460     1.0380 H     1 <1>   0.0800 
 45 H        2.9460     4.4100     0.2490 H     1 <1>   0.4000 
 46 H        4.9390     4.8120    -1.6220 H     1 <1>   0.0800 
 47 H        6.1810     4.8490    -0.3780 H     1 <1>   0.0800 
 48 H        4.7950     6.6790    -0.2810 H     1 <1>   0.4000 
@<TRIPOS>BOND
  1   1   2  1   
  2   1   3  1   
  3   2   4  1   
  4   2   5  1   
  5   2   6  1   
  6   3   7  1   
  7   3  23  1   
  8   3  24  1   
  9   4   8  ar  
 10   4   9  ar  
 11   5  10  1   
 12   5  25  1   
 13   5  26  1   
 14   6  11  1   
 15   6  27  1   
 16   6  28  1   
 17   7   9  1   
 18   7  29  1   
 19   7  30  1   
 20   8  12  1   
 21   8  13  ar  
 22   9  14  ar  
 23  10  15  1   
 24  10  31  1   
 25  10  32  1   
 26  11  15  1   
 27  11  33  1   
 28  11  34  1   
 29  12  16  1   
 30  13  17  ar  
 31  13  35  1   
 32  14  17  ar  
 33  14  36  1   
 34  15  18  1   
 35  15  37  1   
 36  16  38  1   
 37  16  39  1   
 38  16  40  1   
 39  17  41  1   
 40  18  19  1   
 41  18  42  1   
 42  18  43  1   
 43  19  20  1   
 44  19  21  1   
 45  19  44  1   
 46  20  45  1   
 47  21  22  1   
 48  21  46  1   
 49  21  47  1   
 50  22  48  1   
@<TRIPOS>SUBSTRUCTURE
  1 ****   2 GROUP 4 **** **** 0

# MOE 2024.06 (io_trps.svl 2023.06)
