@<TRIPOS>MOLECULE
NONAME
46 49 1 0 0 
SMALL
USER_CHARGES


@<TRIPOS>ATOM
  1 S        0.7400     1.5820     1.1880 S.3   1 <1>  -0.1570 
  2 C        2.5110     1.6230     1.1630 C.2   1 <1>   0.2420 
  3 C        0.7180     0.7540    -0.3930 C.2   1 <1>  -0.0370 
  4 N        3.3840     2.1260     1.9710 N.2   1 <1>  -0.5650 
  5 N        2.9710     1.0180     0.0520 N.pl3 1 <1>   0.3340 
  6 C        1.9720     0.5490    -0.8340 C.2   1 <1>  -0.1690 
  7 C       -0.6590     0.4490    -0.9480 C.3   1 <1>  -0.1020 
  8 C        4.5400     1.8280     1.3240 C.2   1 <1>   0.0460 
  9 C        4.3090     1.1470     0.1720 C.2   1 <1>  -0.3020 
 10 C        2.4270    -0.0910    -2.1360 C.3   1 <1>  -0.1020 
 11 C        5.8850     2.3160     1.8410 C.3   1 <1>   0.3900 
 12 N        6.0580     3.6770     1.3070 N.pl3 1 <1>  -0.8690 
 13 C        6.8350     3.8420     0.1910 C.ar  1 <1>   0.4100 
 14 N        8.1380     3.6780     0.3970 N.ar  1 <1>  -0.6200 
 15 C        6.2660     4.1450    -1.0600 C.ar  1 <1>   0.0860 
 16 C        8.9210     3.8390    -0.6510 C.ar  1 <1>   0.1600 
 17 C        4.8380     4.2390    -1.2300 C.2   1 <1>   0.5440 
 18 C        7.1230     4.3010    -2.1400 C.ar  1 <1>  -0.1500 
 19 C        8.4740     4.1490    -1.9240 C.ar  1 <1>  -0.1500 
 20 O        4.2810     3.5050    -2.0280 O.2   1 <1>  -0.5700 
 21 N        4.0740     5.1330    -0.5140 N.am  1 <1>  -0.6600 
 22 C        4.5710     6.3610     0.1480 C.3   1 <1>   0.1400 
 23 C        2.5990     5.0440    -0.4350 C.3   1 <1>   0.1400 
 24 C        3.3770     6.8670     0.9470 C.3   1 <1>  -0.1600 
 25 C        2.1590     6.3710     0.1730 C.3   1 <1>  -0.1600 
 26 H       -1.1930    -0.1870    -0.2660 H     1 <1>   0.0800 
 27 H       -0.5860    -0.0450    -1.8990 H     1 <1>   0.0800 
 28 H       -1.2110     1.3630    -1.0740 H     1 <1>   0.0800 
 29 H        4.9910     0.7890    -0.5760 H     1 <1>   0.1500 
 30 H        3.0330    -0.9550    -1.9320 H     1 <1>   0.0800 
 31 H        3.0100     0.6150    -2.7030 H     1 <1>   0.0800 
 32 H        1.5860    -0.3940    -2.7310 H     1 <1>   0.0800 
 33 H        6.6770     1.6740     1.4960 H     1 <1>   0.0800 
 34 H        5.8890     2.3370     2.9170 H     1 <1>   0.0800 
 35 H        5.1160     4.0800     1.2160 H     1 <1>   0.4000 
 36 H        9.9790     3.7180    -0.4910 H     1 <1>   0.1500 
 37 H        6.7290     4.5260    -3.1160 H     1 <1>   0.1500 
 38 H        9.1760     4.2630    -2.7300 H     1 <1>   0.1500 
 39 H        4.8460     7.0770    -0.6070 H     1 <1>   0.0800 
 40 H        5.4160     6.1670     0.7860 H     1 <1>   0.0800 
 41 H        2.3330     4.2270     0.2130 H     1 <1>   0.0800 
 42 H        2.1680     4.8870    -1.4100 H     1 <1>   0.0800 
 43 H        3.3900     7.9370     1.0530 H     1 <1>   0.0800 
 44 H        3.3960     6.4170     1.9250 H     1 <1>   0.0800 
 45 H        1.2940     6.2510     0.8010 H     1 <1>   0.0800 
 46 H        1.9240     7.0570    -0.6220 H     1 <1>   0.0800 
@<TRIPOS>BOND
  1   1   2  1   
  2   1   3  1   
  3   2   4  2   
  4   2   5  1   
  5   3   6  2   
  6   3   7  1   
  7   4   8  1   
  8   5   6  1   
  9   5   9  1   
 10   6  10  1   
 11   7  26  1   
 12   7  27  1   
 13   7  28  1   
 14   8   9  2   
 15   8  11  1   
 16   9  29  1   
 17  10  30  1   
 18  10  31  1   
 19  10  32  1   
 20  11  12  1   
 21  11  33  1   
 22  11  34  1   
 23  12  13  1   
 24  12  35  1   
 25  13  14  ar  
 26  13  15  ar  
 27  14  16  ar  
 28  15  17  1   
 29  15  18  ar  
 30  16  19  ar  
 31  16  36  1   
 32  17  20  2   
 33  17  21  am  
 34  18  19  ar  
 35  18  37  1   
 36  19  38  1   
 37  21  22  1   
 38  21  23  1   
 39  22  24  1   
 40  22  39  1   
 41  22  40  1   
 42  23  25  1   
 43  23  41  1   
 44  23  42  1   
 45  24  25  1   
 46  24  43  1   
 47  24  44  1   
 48  25  45  1   
 49  25  46  1   
@<TRIPOS>SUBSTRUCTURE
  1 ****  17 GROUP 4 **** **** 0

# MOE 2024.06 (io_trps.svl 2023.06)
