@<TRIPOS>MOLECULE
NONAME
46 48 1 0 0 
SMALL
USER_CHARGES


@<TRIPOS>ATOM
  1 O        3.6250    -0.1970     3.3540 O.2   1 <1>  -0.5750 
  2 C        4.3720     0.1140     2.4560 C.2   1 <1>   0.6860 
  3 N        4.2620     1.3240     1.7870 N.am  1 <1>  -0.4420 
  4 N        5.3530    -0.7630     2.0940 N.am  1 <1>  -0.4960 
  5 C        5.1810     1.5890     0.7820 C.2   1 <1>   0.4200 
  6 C        3.2190     2.3210     2.1640 C.3   1 <1>   0.0510 
  7 C        6.2590    -0.5210     1.1010 C.2   1 <1>   0.6990 
  8 N        5.2820     2.7090     0.0190 N.pl3 1 <1>  -0.7040 
  9 C        6.1600     0.7340     0.4150 C.2   1 <1>   0.2700 
 10 O        7.0910    -1.3700     0.8430 O.2   1 <1>  -0.5750 
 11 C        6.3390     2.5840    -0.7860 C.cat 1 <1>   1.0680 
 12 N        6.8770     1.3640    -0.6170 N.pl3 1 <1>  -0.7680 
 13 N        6.7470     3.5890    -1.5950 N.pl3 1 <1>  -0.5970 
 14 C        7.9830     0.6590    -1.3220 C.3   1 <1>   0.2670 
 15 C        8.1890     3.8950    -1.8280 C.3   1 <1>   0.3420 
 16 C        5.8090     4.6230    -2.1120 C.3   1 <1>   0.1600 
 17 C        8.9650     3.7000    -0.5410 C.2   1 <1>  -0.1890 
 18 C        5.7710     5.8340    -1.1790 C.3   1 <1>  -0.2480 
 19 C        8.6540     4.2650     0.6910 C.2   1 <1>   0.1310 
 20 C       10.0600     2.9470    -0.3000 C.2   1 <1>  -0.3090 
 21 N        9.4510     3.8640     1.6270 N.2   1 <1>  -0.7110 
 22 N       10.3360     3.0570     1.0150 N.pl3 1 <1>   0.3070 
 23 C       11.4360     2.3960     1.7490 C.3   1 <1>   0.0870 
 24 C       11.1700     0.8930     1.9110 C.3   1 <1>  -0.2480 
 25 H        5.4090    -1.6410     2.6040 H     1 <1>   0.3630 
 26 H        2.4890     1.8800     2.8230 H     1 <1>   0.0710 
 27 H        2.7080     2.6730     1.2850 H     1 <1>   0.0710 
 28 H        3.6770     3.1520     2.6720 H     1 <1>   0.0710 
 29 H        4.7340     3.5580     0.1100 H     1 <1>   0.4440 
 30 H        7.6620    -0.3280    -1.6080 H     1 <1>   0.0710 
 31 H        8.8310     0.5630    -0.6660 H     1 <1>   0.0710 
 32 H        8.2760     1.1850    -2.2110 H     1 <1>   0.0710 
 33 H        8.3080     4.9170    -2.1450 H     1 <1>   0.0710 
 34 H        8.5800     3.2660    -2.6070 H     1 <1>   0.0710 
 35 H        4.8190     4.2060    -2.2050 H     1 <1>   0.0710 
 36 H        6.1200     4.9320    -3.0970 H     1 <1>   0.0710 
 37 H        5.4650     5.5610    -0.1860 H     1 <1>   0.0710 
 38 H        5.0650     6.5520    -1.5580 H     1 <1>   0.0710 
 39 H        6.7310     6.3170    -1.1340 H     1 <1>   0.0710 
 40 H        7.8440     4.9520     0.8730 H     1 <1>   0.1420 
 41 H       10.6530     2.3430    -0.9630 H     1 <1>   0.1420 
 42 H       11.5220     2.8580     2.7160 H     1 <1>   0.0710 
 43 H       12.3520     2.5570     1.2110 H     1 <1>   0.0710 
 44 H       10.2510     0.7350     2.4470 H     1 <1>   0.0710 
 45 H       11.9710     0.4440     2.4700 H     1 <1>   0.0710 
 46 H       11.1150     0.4120     0.9510 H     1 <1>   0.0710 
@<TRIPOS>BOND
  1   1   2  2   
  2   2   3  am  
  3   2   4  am  
  4   3   5  1   
  5   3   6  1   
  6   4   7  am  
  7   4  25  1   
  8   5   8  1   
  9   5   9  2   
 10   6  26  1   
 11   6  27  1   
 12   6  28  1   
 13   7   9  1   
 14   7  10  2   
 15   8  11  ar  
 16   8  29  1   
 17   9  12  1   
 18  11  12  ar  
 19  11  13  ar  
 20  12  14  1   
 21  13  15  1   
 22  13  16  1   
 23  14  30  1   
 24  14  31  1   
 25  14  32  1   
 26  15  17  1   
 27  15  33  1   
 28  15  34  1   
 29  16  18  1   
 30  16  35  1   
 31  16  36  1   
 32  17  19  1   
 33  17  20  2   
 34  18  37  1   
 35  18  38  1   
 36  18  39  1   
 37  19  21  2   
 38  19  40  1   
 39  20  22  1   
 40  20  41  1   
 41  21  22  1   
 42  22  23  1   
 43  23  24  1   
 44  23  42  1   
 45  23  43  1   
 46  24  44  1   
 47  24  45  1   
 48  24  46  1   
@<TRIPOS>SUBSTRUCTURE
  1 ****  12 GROUP 4 **** **** 0

# MOE 2024.06 (io_trps.svl 2023.06)
