@<TRIPOS>MOLECULE
NONAME
55 57 1 0 0 
SMALL
USER_CHARGES


@<TRIPOS>ATOM
  1 O        0.1800    -1.2850    -1.3730 O.2   1 <1>  -0.5700 
  2 C        0.5160    -2.1500    -0.5870 C.2   1 <1>   0.7800 
  3 O       -0.3530    -3.0860    -0.1920 O.3   1 <1>  -0.4300 
  4 N        1.7810    -2.1990    -0.0540 N.am  1 <1>  -0.6600 
  5 C       -1.6830    -3.2610    -0.6300 C.3   1 <1>   0.2800 
  6 C        2.2020    -3.2580     0.9180 C.3   1 <1>   0.1400 
  7 C        2.8410    -1.2600    -0.5330 C.3   1 <1>   0.1400 
  8 C       -2.1900    -4.4930     0.1210 C.3   1 <1>  -0.2400 
  9 C       -1.7130    -3.5410    -2.1370 C.3   1 <1>  -0.2400 
 10 C       -2.5360    -2.0470    -0.2400 C.3   1 <1>  -0.2400 
 11 C        3.5460    -3.9070     0.5350 C.3   1 <1>  -0.0800 
 12 C        4.1550    -1.9880    -0.8730 C.3   1 <1>  -0.0800 
 13 C        4.5860    -2.8050     0.3430 C.3   1 <1>   0.2200 
 14 C        3.4340    -4.7650    -0.7430 C.3   1 <1>   0.1200 
 15 C        4.0130    -2.9000    -2.1110 C.3   1 <1>   0.1200 
 16 N        5.9330    -3.3820     0.1370 N.am  1 <1>  -0.7300 
 17 O        3.1570    -3.9800    -1.8670 O.3   1 <1>  -0.5600 
 18 C        7.0050    -3.1800     0.9290 C.2   1 <1>   0.7800 
 19 O        6.9750    -2.4870     1.9250 O.2   1 <1>  -0.5700 
 20 O        8.1190    -3.7920     0.5580 O.3   1 <1>  -0.4300 
 21 C        9.2930    -3.6410     1.3230 C.3   1 <1>   0.2630 
 22 C       10.4010    -4.4470     0.6670 C.ar  1 <1>  -0.1440 
 23 C       10.6130    -5.7690     1.0270 C.ar  1 <1>  -0.1500 
 24 C       11.2100    -3.8670    -0.2990 C.ar  1 <1>  -0.1500 
 25 C       11.6260    -6.5020     0.4320 C.ar  1 <1>  -0.1500 
 26 C       12.2220    -4.5990    -0.8950 C.ar  1 <1>  -0.1500 
 27 C       12.4310    -5.9170    -0.5290 C.ar  1 <1>  -0.1500 
 28 H        1.4530    -4.0270     0.9910 H     1 <1>   0.0800 
 29 H        2.2920    -2.8020     1.8890 H     1 <1>   0.0800 
 30 H        3.0230    -0.5350     0.2410 H     1 <1>   0.0800 
 31 H        2.5020    -0.7250    -1.4040 H     1 <1>   0.0800 
 32 H       -1.5880    -5.3500    -0.1220 H     1 <1>   0.0800 
 33 H       -3.2070    -4.7050    -0.1520 H     1 <1>   0.0800 
 34 H       -2.1500    -4.3250     1.1820 H     1 <1>   0.0800 
 35 H       -1.0430    -4.3470    -2.3800 H     1 <1>   0.0800 
 36 H       -1.4330    -2.6700    -2.6990 H     1 <1>   0.0800 
 37 H       -2.7060    -3.8180    -2.4400 H     1 <1>   0.0800 
 38 H       -2.4300    -1.8380     0.8080 H     1 <1>   0.0800 
 39 H       -3.5710    -2.2450    -0.4480 H     1 <1>   0.0800 
 40 H       -2.2530    -1.1780    -0.8050 H     1 <1>   0.0800 
 41 H        3.8490    -4.5380     1.3510 H     1 <1>   0.0800 
 42 H        4.8990    -1.2390    -1.0770 H     1 <1>   0.0800 
 43 H        4.6060    -2.1710     1.2150 H     1 <1>   0.0800 
 44 H        2.6350    -5.4780    -0.6460 H     1 <1>   0.0800 
 45 H        4.3470    -5.3020    -0.9290 H     1 <1>   0.0800 
 46 H        4.9670    -3.2940    -2.4110 H     1 <1>   0.0800 
 47 H        3.6000    -2.3460    -2.9370 H     1 <1>   0.0800 
 48 H        6.0620    -3.9850    -0.6740 H     1 <1>   0.3700 
 49 H        9.0990    -3.9960     2.3210 H     1 <1>   0.0800 
 50 H        9.5470    -2.5960     1.3590 H     1 <1>   0.0800 
 51 H        9.9900    -6.2340     1.7710 H     1 <1>   0.1500 
 52 H       11.0530    -2.8440    -0.5930 H     1 <1>   0.1500 
 53 H       11.7860    -7.5280     0.7160 H     1 <1>   0.1500 
 54 H       12.8470    -4.1440    -1.6430 H     1 <1>   0.1500 
 55 H       13.2180    -6.4870    -0.9920 H     1 <1>   0.1500 
@<TRIPOS>BOND
  1   1   2  2   
  2   2   3  1   
  3   2   4  am  
  4   3   5  1   
  5   4   6  1   
  6   4   7  1   
  7   5   8  1   
  8   5   9  1   
  9   5  10  1   
 10   6  11  1   
 11   6  28  1   
 12   6  29  1   
 13   7  12  1   
 14   7  30  1   
 15   7  31  1   
 16   8  32  1   
 17   8  33  1   
 18   8  34  1   
 19   9  35  1   
 20   9  36  1   
 21   9  37  1   
 22  10  38  1   
 23  10  39  1   
 24  10  40  1   
 25  11  13  1   
 26  11  14  1   
 27  11  41  1   
 28  12  13  1   
 29  12  15  1   
 30  12  42  1   
 31  13  16  1   
 32  13  43  1   
 33  14  17  1   
 34  14  44  1   
 35  14  45  1   
 36  15  17  1   
 37  15  46  1   
 38  15  47  1   
 39  16  18  am  
 40  16  48  1   
 41  18  19  2   
 42  18  20  1   
 43  20  21  1   
 44  21  22  1   
 45  21  49  1   
 46  21  50  1   
 47  22  23  ar  
 48  22  24  ar  
 49  23  25  ar  
 50  23  51  1   
 51  24  26  ar  
 52  24  52  1   
 53  25  27  ar  
 54  25  53  1   
 55  26  27  ar  
 56  26  54  1   
 57  27  55  1   
@<TRIPOS>SUBSTRUCTURE
  1 ****  13 GROUP 4 **** **** 0

# MOE 2024.06 (io_trps.svl 2023.06)
