@<TRIPOS>MOLECULE
NONAME
50 52 1 0 0 
SMALL
USER_CHARGES


@<TRIPOS>ATOM
  1 S       -0.0830    -0.3880     0.3590 S.3   1 <1>  -0.3320 
  2 C       -0.0010     1.4110     0.3900 C.ar  1 <1>   0.1020 
  3 C       -0.9390    -0.8990     1.9290 C.3   1 <1>   0.1310 
  4 C        0.3490     2.0460    -0.7860 C.ar  1 <1>  -0.1500 
  5 C       -0.2750     2.1390     1.5380 C.ar  1 <1>  -0.1500 
  6 C       -1.3190    -2.3730     1.9010 C.2   1 <1>   0.5690 
  7 C        0.4190     3.4280    -0.8310 C.ar  1 <1>   0.0830 
  8 C       -0.2050     3.5210     1.4950 C.ar  1 <1>  -0.1500 
  9 O       -0.7720    -3.1110     2.6870 O.2   1 <1>  -0.5700 
 10 N       -2.2770    -2.8360     1.0390 N.am  1 <1>  -0.6600 
 11 O        0.7620     3.9840    -2.0200 O.3   1 <1>  -0.3630 
 12 C        0.1380     4.1660     0.3170 C.ar  1 <1>  -0.1500 
 13 C       -2.9600    -2.0680    -0.0340 C.3   1 <1>   0.1400 
 14 C       -2.7310    -4.2430     1.0220 C.3   1 <1>   0.1400 
 15 C        0.8930     5.3800    -2.1680 C.3   1 <1>   0.0400 
 16 C       -3.9820    -3.0330    -0.6480 C.3   1 <1>   0.2000 
 17 C       -3.4060    -4.4190    -0.3400 C.3   1 <1>  -0.0800 
 18 O       -5.2140    -2.9000     0.0040 O.3   1 <1>  -0.5600 
 19 C       -4.4350    -5.5630    -0.3740 C.3   1 <1>   0.0200 
 20 C       -6.0510    -1.9090    -0.5050 C.3   1 <1>   0.0400 
 21 C       -3.8050    -6.9400    -0.2410 C.2   1 <1>  -0.0400 
 22 O       -4.5880    -7.9840    -0.1740 O.3   1 <1>  -0.0190 
 23 C       -2.5370    -7.3780    -0.1740 C.2   1 <1>  -0.1500 
 24 N       -3.9150    -9.0930    -0.0640 N.2   1 <1>  -0.4100 
 25 C       -2.6760    -8.7580    -0.0600 C.2   1 <1>   0.1080 
 26 C       -1.5300    -9.7370     0.0550 C.3   1 <1>  -0.0590 
 27 H       -0.2570    -0.7080     2.7370 H     1 <1>   0.0800 
 28 H       -1.8180    -0.2930     2.0320 H     1 <1>   0.0800 
 29 H        0.5670     1.4720    -1.6670 H     1 <1>   0.1500 
 30 H       -0.5330     1.6560     2.4600 H     1 <1>   0.1500 
 31 H       -0.4160     4.0980     2.3790 H     1 <1>   0.1500 
 32 H        0.1840     5.2390     0.3130 H     1 <1>   0.1500 
 33 H       -3.4290    -1.1830     0.3570 H     1 <1>   0.0800 
 34 H       -2.2360    -1.7960    -0.7820 H     1 <1>   0.0800 
 35 H       -1.9020    -4.9160     1.1570 H     1 <1>   0.0800 
 36 H       -3.4420    -4.3850     1.8180 H     1 <1>   0.0800 
 37 H        1.1820     5.5820    -3.1840 H     1 <1>   0.0800 
 38 H        1.6540     5.7330    -1.4950 H     1 <1>   0.0800 
 39 H       -0.0550     5.8440    -1.9600 H     1 <1>   0.0800 
 40 H       -4.1190    -2.8790    -1.7050 H     1 <1>   0.0800 
 41 H       -2.6370    -4.6220    -1.0650 H     1 <1>   0.0800 
 42 H       -4.9750    -5.5280    -1.3040 H     1 <1>   0.0800 
 43 H       -5.1490    -5.4350     0.4210 H     1 <1>   0.0800 
 44 H       -6.9490    -1.8960     0.0880 H     1 <1>   0.0800 
 45 H       -6.2980    -2.1430    -1.5260 H     1 <1>   0.0800 
 46 H       -5.5630    -0.9530    -0.4400 H     1 <1>   0.0800 
 47 H       -1.6100    -6.8380    -0.1990 H     1 <1>   0.1500 
 48 H       -0.9040    -9.6710    -0.8160 H     1 <1>   0.0800 
 49 H       -1.9100   -10.7400     0.1350 H     1 <1>   0.0800 
 50 H       -0.9470    -9.5150     0.9300 H     1 <1>   0.0800 
@<TRIPOS>BOND
  1   1   2  1   
  2   1   3  1   
  3   2   4  ar  
  4   2   5  ar  
  5   3   6  1   
  6   3  27  1   
  7   3  28  1   
  8   4   7  ar  
  9   4  29  1   
 10   5   8  ar  
 11   5  30  1   
 12   6   9  2   
 13   6  10  am  
 14   7  11  1   
 15   7  12  ar  
 16   8  12  ar  
 17   8  31  1   
 18  10  13  1   
 19  10  14  1   
 20  11  15  1   
 21  12  32  1   
 22  13  16  1   
 23  13  33  1   
 24  13  34  1   
 25  14  17  1   
 26  14  35  1   
 27  14  36  1   
 28  15  37  1   
 29  15  38  1   
 30  15  39  1   
 31  16  17  1   
 32  16  18  1   
 33  16  40  1   
 34  17  19  1   
 35  17  41  1   
 36  18  20  1   
 37  19  21  1   
 38  19  42  1   
 39  19  43  1   
 40  20  44  1   
 41  20  45  1   
 42  20  46  1   
 43  21  22  1   
 44  21  23  2   
 45  22  24  1   
 46  23  25  1   
 47  23  47  1   
 48  24  25  2   
 49  25  26  1   
 50  26  48  1   
 51  26  49  1   
 52  26  50  1   
@<TRIPOS>SUBSTRUCTURE
  1 ****  13 GROUP 4 **** **** 0

# MOE 2024.06 (io_trps.svl 2023.06)
