@<TRIPOS>MOLECULE
NONAME
56 58 1 0 0 
SMALL
USER_CHARGES


@<TRIPOS>ATOM
  1 O       -3.5150     4.7120    -1.3890 O.2   1 <1>  -0.5700 
  2 C       -3.0960     3.9690    -0.5370 C.2   1 <1>   0.5690 
  3 N       -3.5720     2.6820    -0.4330 N.am  1 <1>  -0.6600 
  4 C       -1.9750     4.5030     0.3470 C.3   1 <1>   0.1570 
  5 C       -3.9910     2.0150    -1.7030 C.3   1 <1>   0.3200 
  6 C       -3.5350     1.9160     0.8670 C.3   1 <1>   0.1400 
  7 N       -0.8200     3.5730     0.3320 N.pl3 1 <1>   0.0480 
  8 C       -3.3230     0.6610    -1.8160 C.2   1 <1>  -0.3320 
  9 C       -4.5990     0.8150     1.0720 C.3   1 <1>   0.3430 
 10 C       -0.5080     2.7350     1.3620 C.ar  1 <1>  -0.1520 
 11 C       -0.2120     3.0330    -0.7710 C.2   1 <1>   0.0060 
 12 N       -2.0060     0.4330    -1.6140 N.pl3 1 <1>   0.0330 
 13 C       -3.8810    -0.5330    -2.1100 C.2   1 <1>   0.0770 
 14 N       -4.0580    -0.5760     0.8640 N.4   1 <1>  -0.9590 
 15 C        0.2130     1.7020     0.7980 C.ar  1 <1>   0.2270 
 16 C       -0.7980     2.7410     2.7310 C.ar  1 <1>  -0.1500 
 17 N        0.3690     1.9060    -0.5350 N.2   1 <1>  -0.5650 
 18 C       -0.2030     3.7280    -2.1430 C.3   1 <1>   0.1000 
 19 C       -1.8670    -0.9020    -1.7310 C.2   1 <1>   0.0360 
 20 N       -2.9760    -1.5190    -1.9930 N.2   1 <1>  -0.5650 
 21 C       -5.1510    -1.5930     0.8460 C.3   1 <1>   0.2630 
 22 C       -2.9990    -0.9730     1.8460 C.3   1 <1>   0.2630 
 23 C        0.6500     0.6370     1.5830 C.ar  1 <1>  -0.1500 
 24 C       -0.3660     1.6850     3.5020 C.ar  1 <1>  -0.1500 
 25 C        0.2350     2.7900    -3.2780 C.3   1 <1>  -0.2400 
 26 C        0.7350     4.9390    -2.0980 C.3   1 <1>  -0.2400 
 27 C        0.3570     0.6310     2.9290 C.ar  1 <1>  -0.1500 
 28 H       -2.3330     4.6320     1.3490 H     1 <1>   0.0800 
 29 H       -1.6530     5.4580    -0.0250 H     1 <1>   0.0800 
 30 H       -3.7050     2.6110    -2.5560 H     1 <1>   0.0800 
 31 H       -5.0620     1.9120    -1.7220 H     1 <1>   0.0800 
 32 H       -3.6490     2.6240     1.6690 H     1 <1>   0.0800 
 33 H       -2.5700     1.4660     0.9660 H     1 <1>   0.0800 
 34 H       -5.4240     0.9980     0.4030 H     1 <1>   0.0800 
 35 H       -4.9730     0.8870     2.0800 H     1 <1>   0.0800 
 36 H       -1.2480     1.1060    -1.4050 H     1 <1>   0.2700 
 37 H       -4.9040    -0.7450    -2.3800 H     1 <1>   0.1500 
 38 H       -3.6190    -0.6090    -0.0850 H     1 <1>   0.4500 
 39 H       -1.3350     3.5600     3.1760 H     1 <1>   0.1500 
 40 H       -1.1900     4.0750    -2.3860 H     1 <1>   0.0800 
 41 H       -0.9100    -1.3850    -1.6130 H     1 <1>   0.1500 
 42 H       -5.6340    -1.6470     1.8080 H     1 <1>   0.0800 
 43 H       -4.7480    -2.5640     0.6040 H     1 <1>   0.0800 
 44 H       -5.8860    -1.3380     0.1000 H     1 <1>   0.0800 
 45 H       -3.3920    -0.9580     2.8490 H     1 <1>   0.0800 
 46 H       -2.1570    -0.3020     1.7920 H     1 <1>   0.0800 
 47 H       -2.6490    -1.9690     1.6260 H     1 <1>   0.0800 
 48 H        1.2180    -0.1490     1.1200 H     1 <1>   0.1500 
 49 H       -0.5650     1.6670     4.5610 H     1 <1>   0.1500 
 50 H        1.2310     2.4230    -3.0980 H     1 <1>   0.0800 
 51 H        0.2290     3.3130    -4.2180 H     1 <1>   0.0800 
 52 H       -0.4310     1.9520    -3.3550 H     1 <1>   0.0800 
 53 H        1.7360     4.6210    -1.8620 H     1 <1>   0.0800 
 54 H        0.4150     5.6400    -1.3490 H     1 <1>   0.0800 
 55 H        0.7460     5.4410    -3.0490 H     1 <1>   0.0800 
 56 H        0.6970    -0.1770     3.5560 H     1 <1>   0.1500 
@<TRIPOS>BOND
  1   1   2  2   
  2   2   3  am  
  3   2   4  1   
  4   3   5  1   
  5   3   6  1   
  6   4   7  1   
  7   4  28  1   
  8   4  29  1   
  9   5   8  1   
 10   5  30  1   
 11   5  31  1   
 12   6   9  1   
 13   6  32  1   
 14   6  33  1   
 15   7  10  1   
 16   7  11  1   
 17   8  12  1   
 18   8  13  2   
 19   9  14  1   
 20   9  34  1   
 21   9  35  1   
 22  10  15  ar  
 23  10  16  ar  
 24  11  17  2   
 25  11  18  1   
 26  12  19  1   
 27  12  36  1   
 28  13  20  1   
 29  13  37  1   
 30  14  21  1   
 31  14  22  1   
 32  14  38  1   
 33  15  17  1   
 34  15  23  ar  
 35  16  24  ar  
 36  16  39  1   
 37  18  25  1   
 38  18  26  1   
 39  18  40  1   
 40  19  20  2   
 41  19  41  1   
 42  21  42  1   
 43  21  43  1   
 44  21  44  1   
 45  22  45  1   
 46  22  46  1   
 47  22  47  1   
 48  23  27  ar  
 49  23  48  1   
 50  24  27  ar  
 51  24  49  1   
 52  25  50  1   
 53  25  51  1   
 54  25  52  1   
 55  26  53  1   
 56  26  54  1   
 57  26  55  1   
 58  27  56  1   
@<TRIPOS>SUBSTRUCTURE
  1 ****   6 GROUP 4 **** **** 0

# MOE 2024.06 (io_trps.svl 2023.06)
