@<TRIPOS>MOLECULE
NONAME
43 45 1 0 0 
SMALL
USER_CHARGES


@<TRIPOS>ATOM
  1 O        0.7840    -0.1360     0.2530 O.co2 1 <1>  -0.9000 
  2 C        1.8310    -0.2530    -0.4130 C.2   1 <1>   0.9790 
  3 O        1.8130    -0.9860    -1.4200 O.co2 1 <1>  -0.9000 
  4 C        3.0450     0.4530    -0.0250 C.ar  1 <1>  -0.1790 
  5 C        4.2230     0.3510    -0.7690 C.ar  1 <1>  -0.1500 
  6 C        3.0910     1.2660     1.1100 C.ar  1 <1>  -0.1500 
  7 C        5.3750     1.0220    -0.4050 C.ar  1 <1>  -0.1500 
  8 C        4.2420     1.9360     1.4770 C.ar  1 <1>  -0.1500 
  9 C        5.4060     1.8300     0.7270 C.ar  1 <1>   0.1000 
 10 N        6.5460     2.5320     1.1150 N.pl3 1 <1>  -0.8380 
 11 C        6.5150     4.0210     1.0530 C.3   1 <1>   0.2090 
 12 C        7.9090     1.9440     0.9660 C.3   1 <1>   0.2090 
 13 C        7.3190     4.5520    -0.1490 C.3   1 <1>   0.1100 
 14 C        8.6740     2.5590    -0.2250 C.3   1 <1>   0.1100 
 15 N        8.7140     4.0380    -0.1710 N.3   1 <1>  -0.8100 
 16 C        9.4460     4.5830    -1.3330 C.3   1 <1>   0.2900 
 17 C        9.7630     6.0510    -1.1240 C.2   1 <1>   0.0060 
 18 N        9.7730     6.9640    -2.0320 N.2   1 <1>  -0.3380 
 19 N       10.0700     6.5490     0.0690 N.pl3 1 <1>   0.0330 
 20 N       10.1000     8.1090    -1.4250 N.2   1 <1>  -0.3380 
 21 C       10.2720     7.8430    -0.1730 C.2   1 <1>   0.0060 
 22 C       10.6520     8.8330     0.9200 C.3   1 <1>   0.0200 
 23 C       10.8670    10.2580     0.3950 C.3   1 <1>  -0.2400 
 24 H        4.2140    -0.2710    -1.6490 H     1 <1>   0.1500 
 25 H        2.1980     1.3590     1.7050 H     1 <1>   0.1500 
 26 H        6.2510     0.9210    -1.0110 H     1 <1>   0.1500 
 27 H        4.2480     2.5460     2.3590 H     1 <1>   0.1500 
 28 H        6.9270     4.4190     1.9630 H     1 <1>   0.0800 
 29 H        5.4960     4.3590     0.9730 H     1 <1>   0.0800 
 30 H        7.8310     0.8780     0.8380 H     1 <1>   0.0800 
 31 H        8.4630     2.1240     1.8700 H     1 <1>   0.0800 
 32 H        7.3250     5.6270    -0.1070 H     1 <1>   0.0800 
 33 H        6.8070     4.2620    -1.0510 H     1 <1>   0.0800 
 34 H        8.2010     2.2410    -1.1380 H     1 <1>   0.0800 
 35 H        9.6790     2.1730    -0.2200 H     1 <1>   0.0800 
 36 H        8.8700     4.4590    -2.2350 H     1 <1>   0.0800 
 37 H       10.3770     4.0560    -1.4530 H     1 <1>   0.0800 
 38 H       10.1040     6.0210     0.9430 H     1 <1>   0.2700 
 39 H       11.5570     8.4970     1.3940 H     1 <1>   0.0800 
 40 H        9.8710     8.8490     1.6600 H     1 <1>   0.0800 
 41 H       11.6550    10.2660    -0.3380 H     1 <1>   0.0800 
 42 H       11.1350    10.9180     1.2000 H     1 <1>   0.0800 
 43 H        9.9660    10.6210    -0.0680 H     1 <1>   0.0800 
@<TRIPOS>BOND
  1   1   2  ar  
  2   2   3  ar  
  3   2   4  1   
  4   4   5  ar  
  5   4   6  ar  
  6   5   7  ar  
  7   5  24  1   
  8   6   8  ar  
  9   6  25  1   
 10   7   9  ar  
 11   7  26  1   
 12   8   9  ar  
 13   8  27  1   
 14   9  10  1   
 15  10  11  1   
 16  10  12  1   
 17  11  13  1   
 18  11  28  1   
 19  11  29  1   
 20  12  14  1   
 21  12  30  1   
 22  12  31  1   
 23  13  15  1   
 24  13  32  1   
 25  13  33  1   
 26  14  15  1   
 27  14  34  1   
 28  14  35  1   
 29  15  16  1   
 30  16  17  1   
 31  16  36  1   
 32  16  37  1   
 33  17  18  2   
 34  17  19  1   
 35  18  20  1   
 36  19  21  1   
 37  19  38  1   
 38  20  21  2   
 39  21  22  1   
 40  22  23  1   
 41  22  39  1   
 42  22  40  1   
 43  23  41  1   
 44  23  42  1   
 45  23  43  1   
@<TRIPOS>SUBSTRUCTURE
  1 ****  13 GROUP 4 **** **** 0

# MOE 2024.06 (io_trps.svl 2023.06)
