@<TRIPOS>MOLECULE
NONAME
60 62 1 0 0 
SMALL
USER_CHARGES


@<TRIPOS>ATOM
  1 O       -0.8170     0.1400    -0.5630 O.2   1 <1>  -0.5700 
  2 C       -1.7300     0.8630    -0.8760 C.2   1 <1>   0.5690 
  3 N       -2.8590     0.3510    -1.4680 N.am  1 <1>  -0.6600 
  4 C       -1.6110     2.3470    -0.5900 C.3   1 <1>  -0.0990 
  5 C       -4.1040     1.1240    -1.7920 C.3   1 <1>   0.1400 
  6 C       -2.9540    -1.1140    -1.7900 C.3   1 <1>   0.1400 
  7 C       -0.3500     2.7020     0.2120 C.3   1 <1>   0.0960 
  8 C       -5.3520     0.5350    -1.0770 C.3   1 <1>   0.4230 
  9 C       -4.3300    -1.7110    -1.4210 C.3   1 <1>   0.3430 
 10 N       -0.3050     4.1570     0.4610 N.pl3 1 <1>   0.3140 
 11 N       -5.0760    -0.8250    -0.4580 N.4   1 <1>  -0.9590 
 12 C       -6.5550     0.4750    -2.0470 C.3   1 <1>   0.1200 
 13 N       -1.2720     4.7370     1.1870 N.2   1 <1>  -0.7070 
 14 C        0.5910     5.0630     0.0220 C.2   1 <1>  -0.3320 
 15 C       -6.3390    -1.4060     0.1150 C.3   1 <1>   0.4230 
 16 O       -7.6700    -0.0910    -1.4220 O.3   1 <1>  -0.5600 
 17 C       -0.9700     5.9920     1.2090 C.2   1 <1>   0.1080 
 18 C        0.2080     6.2880     0.5050 C.2   1 <1>  -0.0860 
 19 C        1.7700     4.6940    -0.8730 C.3   1 <1>  -0.0600 
 20 C       -7.4840    -1.3880    -0.9250 C.3   1 <1>   0.1200 
 21 C       -6.0790    -2.8050     0.6970 C.3   1 <1>  -0.1600 
 22 C       -1.8340     6.9930     1.9470 C.3   1 <1>  -0.0590 
 23 C        0.7900     7.6020     0.3950 C.2   1 <1>   0.5950 
 24 C       -7.2180    -3.2790     1.6140 C.3   1 <1>  -0.1600 
 25 O        0.1520     8.6240     0.4100 O.2   1 <1>  -0.5700 
 26 C        2.2910     7.7540     0.2870 C.3   1 <1>  -0.1790 
 27 C       -6.8860    -4.6380     2.2370 C.3   1 <1>  -0.2400 
 28 H       -1.5950     2.8780    -1.5240 H     1 <1>   0.0800 
 29 H       -2.4660     2.6570    -0.0200 H     1 <1>   0.0800 
 30 H       -4.0090     2.1610    -1.5260 H     1 <1>   0.0800 
 31 H       -4.2470     1.0930    -2.8590 H     1 <1>   0.0800 
 32 H       -2.7660    -1.2630    -2.8400 H     1 <1>   0.0800 
 33 H       -2.1950    -1.6620    -1.2560 H     1 <1>   0.0800 
 34 H        0.5320     2.3950    -0.3170 H     1 <1>   0.0800 
 35 H       -0.3660     2.2010     1.1630 H     1 <1>   0.0800 
 36 H       -5.6220     1.2180    -0.2890 H     1 <1>   0.0800 
 37 H       -4.1720    -2.6870    -0.9940 H     1 <1>   0.0800 
 38 H       -4.9100    -1.8390    -2.3200 H     1 <1>   0.0800 
 39 H       -4.4210    -0.6500     0.3170 H     1 <1>   0.4500 
 40 H       -6.3260    -0.1030    -2.9250 H     1 <1>   0.0800 
 41 H       -6.8310     1.4690    -2.3560 H     1 <1>   0.0800 
 42 H       -6.6540    -0.7770     0.9320 H     1 <1>   0.0800 
 43 H        2.2200     5.5660    -1.3060 H     1 <1>   0.0800 
 44 H        1.4410     4.0690    -1.6840 H     1 <1>   0.0800 
 45 H        2.5140     4.1640    -0.3060 H     1 <1>   0.0800 
 46 H       -8.4110    -1.6860    -0.4660 H     1 <1>   0.0800 
 47 H       -7.2830    -2.0520    -1.7470 H     1 <1>   0.0800 
 48 H       -5.9590    -3.5240    -0.0960 H     1 <1>   0.0800 
 49 H       -5.1750    -2.7800     1.2800 H     1 <1>   0.0800 
 50 H       -1.2350     7.5590     2.6350 H     1 <1>   0.0800 
 51 H       -2.6050     6.4830     2.4950 H     1 <1>   0.0800 
 52 H       -2.2920     7.6640     1.2440 H     1 <1>   0.0800 
 53 H       -7.3770    -2.5650     2.4050 H     1 <1>   0.0800 
 54 H       -8.1370    -3.3740     1.0610 H     1 <1>   0.0800 
 55 H        2.7860     6.8990     0.7080 H     1 <1>   0.0800 
 56 H        2.6010     8.6300     0.8270 H     1 <1>   0.0800 
 57 H        2.5680     7.8680    -0.7440 H     1 <1>   0.0800 
 58 H       -5.9910    -4.5780     2.8310 H     1 <1>   0.0800 
 59 H       -6.7470    -5.3850     1.4750 H     1 <1>   0.0800 
 60 H       -7.6920    -4.9550     2.8760 H     1 <1>   0.0800 
@<TRIPOS>BOND
  1   1   2  2   
  2   2   3  am  
  3   2   4  1   
  4   3   5  1   
  5   3   6  1   
  6   4   7  1   
  7   4  28  1   
  8   4  29  1   
  9   5   8  1   
 10   5  30  1   
 11   5  31  1   
 12   6   9  1   
 13   6  32  1   
 14   6  33  1   
 15   7  10  1   
 16   7  34  1   
 17   7  35  1   
 18   8  11  1   
 19   8  12  1   
 20   8  36  1   
 21   9  11  1   
 22   9  37  1   
 23   9  38  1   
 24  10  13  1   
 25  10  14  1   
 26  11  15  1   
 27  11  39  1   
 28  12  16  1   
 29  12  40  1   
 30  12  41  1   
 31  13  17  2   
 32  14  18  2   
 33  14  19  1   
 34  15  20  1   
 35  15  21  1   
 36  15  42  1   
 37  16  20  1   
 38  17  18  1   
 39  17  22  1   
 40  18  23  1   
 41  19  43  1   
 42  19  44  1   
 43  19  45  1   
 44  20  46  1   
 45  20  47  1   
 46  21  24  1   
 47  21  48  1   
 48  21  49  1   
 49  22  50  1   
 50  22  51  1   
 51  22  52  1   
 52  23  25  2   
 53  23  26  1   
 54  24  27  1   
 55  24  53  1   
 56  24  54  1   
 57  26  55  1   
 58  26  56  1   
 59  26  57  1   
 60  27  58  1   
 61  27  59  1   
 62  27  60  1   
@<TRIPOS>SUBSTRUCTURE
  1 ****   4 GROUP 4 **** **** 0

# MOE 2024.06 (io_trps.svl 2023.06)
