@<TRIPOS>MOLECULE
NONAME
51 52 1 0 0 
SMALL
USER_CHARGES


@<TRIPOS>ATOM
  1 S        0.8130     1.3840     1.3950 S.o2  1 <1>   1.3330 
  2 O        1.4620     1.3310     2.6860 O.2   1 <1>  -0.6500 
  3 O       -0.1770     2.4050     1.1400 O.2   1 <1>  -0.6500 
  4 N        0.0890    -0.1290     1.1280 N.am  1 <1>  -0.8490 
  5 C        2.0380     1.4650     0.0870 C.3   1 <1>  -0.0550 
  6 C        0.8330    -1.2440     1.7250 C.3   1 <1>   0.1160 
  7 C       -1.3060    -0.1650     1.5780 C.3   1 <1>   0.1160 
  8 C        2.8260     2.7900     0.0470 C.3   1 <1>  -0.0800 
  9 C        3.6960     2.8650    -1.1970 C.3   1 <1>   0.2200 
 10 C        3.8810     2.8630     1.1490 C.3   1 <1>   0.1200 
 11 N        3.9710     4.2810    -1.5150 N.am  1 <1>  -0.7300 
 12 C        4.9820     2.1690    -0.7490 C.3   1 <1>   0.1200 
 13 O        4.9970     2.1890     0.6510 O.3   1 <1>  -0.5600 
 14 C        3.4540     4.9600    -2.5650 C.2   1 <1>   0.5690 
 15 O        2.7340     4.4210    -3.3680 O.2   1 <1>  -0.5700 
 16 C        3.7590     6.4350    -2.7590 C.3   1 <1>  -0.0990 
 17 C        5.0000     6.9800    -2.0250 C.3   1 <1>  -0.0170 
 18 C        4.8030     7.0930    -0.5120 C.ar  1 <1>  -0.1440 
 19 C        5.5010     6.2950     0.3950 C.ar  1 <1>   0.0820 
 20 C        3.9070     8.0370    -0.0310 C.ar  1 <1>  -0.1500 
 21 O        6.3650     5.3720    -0.1020 O.3   1 <1>  -0.3620 
 22 C        5.2860     6.4510     1.7630 C.ar  1 <1>  -0.1500 
 23 C        3.6960     8.1860     1.3270 C.ar  1 <1>  -0.1500 
 24 C        7.2440     4.6490     0.7350 C.3   1 <1>   0.0400 
 25 C        4.3850     7.3930     2.2250 C.ar  1 <1>  -0.1500 
 26 H        2.7220     0.6460     0.1880 H     1 <1>   0.0800 
 27 H        1.5250     1.3490    -0.8480 H     1 <1>   0.0800 
 28 H        0.3830    -2.1810     1.4450 H     1 <1>   0.0800 
 29 H        0.8360    -1.1630     2.8000 H     1 <1>   0.0800 
 30 H        1.8520    -1.2390     1.3770 H     1 <1>   0.0800 
 31 H       -1.7380    -1.1310     1.3810 H     1 <1>   0.0800 
 32 H       -1.8830     0.5750     1.0480 H     1 <1>   0.0800 
 33 H       -1.3640     0.0430     2.6340 H     1 <1>   0.0800 
 34 H        2.1380     3.6170     0.0970 H     1 <1>   0.0800 
 35 H        3.2550     2.3770    -2.0500 H     1 <1>   0.0800 
 36 H        3.5810     2.4110     2.0780 H     1 <1>   0.0800 
 37 H        4.1670     3.8850     1.3270 H     1 <1>   0.0800 
 38 H        4.6060     4.7690    -0.8680 H     1 <1>   0.3700 
 39 H        5.8620     2.6620    -1.1240 H     1 <1>   0.0800 
 40 H        4.9830     1.1390    -1.0570 H     1 <1>   0.0800 
 41 H        3.8980     6.5910    -3.8130 H     1 <1>   0.0800 
 42 H        2.8890     6.9920    -2.4680 H     1 <1>   0.0800 
 43 H        5.2110     7.9650    -2.4020 H     1 <1>   0.0800 
 44 H        5.8530     6.3720    -2.2700 H     1 <1>   0.0800 
 45 H        3.3660     8.6670    -0.7150 H     1 <1>   0.1500 
 46 H        5.8050     5.8490     2.4840 H     1 <1>   0.1500 
 47 H        2.9950     8.9210     1.6860 H     1 <1>   0.1500 
 48 H        7.8610     4.0250     0.1140 H     1 <1>   0.0800 
 49 H        6.6700     4.0340     1.4050 H     1 <1>   0.0800 
 50 H        7.8570     5.3430     1.2810 H     1 <1>   0.0800 
 51 H        4.2200     7.5090     3.2820 H     1 <1>   0.1500 
@<TRIPOS>BOND
  1   1   2  2   
  2   1   3  2   
  3   1   4  am  
  4   1   5  1   
  5   4   6  1   
  6   4   7  1   
  7   5   8  1   
  8   5  26  1   
  9   5  27  1   
 10   6  28  1   
 11   6  29  1   
 12   6  30  1   
 13   7  31  1   
 14   7  32  1   
 15   7  33  1   
 16   8   9  1   
 17   8  10  1   
 18   8  34  1   
 19   9  11  1   
 20   9  12  1   
 21   9  35  1   
 22  10  13  1   
 23  10  36  1   
 24  10  37  1   
 25  11  14  am  
 26  11  38  1   
 27  12  13  1   
 28  12  39  1   
 29  12  40  1   
 30  14  15  2   
 31  14  16  1   
 32  16  17  1   
 33  16  41  1   
 34  16  42  1   
 35  17  18  1   
 36  17  43  1   
 37  17  44  1   
 38  18  19  ar  
 39  18  20  ar  
 40  19  21  1   
 41  19  22  ar  
 42  20  23  ar  
 43  20  45  1   
 44  21  24  1   
 45  22  25  ar  
 46  22  46  1   
 47  23  25  ar  
 48  23  47  1   
 49  24  48  1   
 50  24  49  1   
 51  24  50  1   
 52  25  51  1   
@<TRIPOS>SUBSTRUCTURE
  1 ****   8 GROUP 4 **** **** 0

# MOE 2024.06 (io_trps.svl 2023.06)
