@<TRIPOS>MOLECULE
NONAME
51 53 1 0 0 
SMALL
USER_CHARGES


@<TRIPOS>ATOM
  1 CL      -1.0610    -0.4080    -2.5710 Cl    1 <1>  -0.1770 
  2 C       -1.9400     0.9130    -1.8450 C.ar  1 <1>   0.1770 
  3 C       -1.3860     2.1850    -1.8730 C.ar  1 <1>  -0.1500 
  4 C       -3.1690     0.6620    -1.2580 C.ar  1 <1>  -0.1500 
  5 C       -2.0710     3.2470    -1.2970 C.ar  1 <1>  -0.1440 
  6 C       -3.8450     1.7250    -0.6860 C.ar  1 <1>  -0.1440 
  7 C       -3.3000     2.9850    -0.7070 C.ar  1 <1>   0.0830 
  8 C       -1.5090     4.6540    -1.3110 C.3   1 <1>   0.4870 
  9 C       -5.1750     1.7740     0.0170 C.3   1 <1>   0.1440 
 10 O       -4.0750     3.8990    -0.0960 O.3   1 <1>  -0.3630 
 11 N       -1.5190     5.1760     0.0810 N.4   1 <1>  -0.9590 
 12 C       -5.2960     3.2890     0.3160 C.3   1 <1>   0.1200 
 13 C       -5.1270     0.9440     1.3060 C.3   1 <1>  -0.2400 
 14 C       -6.2980     1.2840    -0.9060 C.3   1 <1>  -0.2400 
 15 C       -1.4180     6.6720     0.0990 C.3   1 <1>   0.5230 
 16 C       -0.4670     4.5120     0.9100 C.3   1 <1>   0.2630 
 17 C       -0.0570     7.2080    -0.3470 C.2   1 <1>   0.0060 
 18 N        0.7640     6.5860    -1.1270 N.2   1 <1>  -0.3380 
 19 N        0.4320     8.4030     0.0190 N.pl3 1 <1>   0.0480 
 20 N        1.8260     7.3660    -1.2880 N.2   1 <1>  -0.3380 
 21 C        1.6120     8.4350    -0.6050 C.2   1 <1>   0.0360 
 22 C       -0.1100     9.4620     0.9060 C.3   1 <1>   0.0960 
 23 C       -1.2820    10.2100     0.2650 C.3   1 <1>   0.1200 
 24 O       -2.3470     9.3290     0.0810 O.3   1 <1>  -0.5600 
 25 C       -3.4750     9.9340    -0.4730 C.3   1 <1>   0.0400 
 26 H       -0.4300     2.3230    -2.3470 H     1 <1>   0.1500 
 27 H       -3.5760    -0.3330    -1.2520 H     1 <1>   0.1500 
 28 H       -2.1260     5.2720    -1.9430 H     1 <1>   0.0800 
 29 H       -0.5060     4.6520    -1.7080 H     1 <1>   0.0800 
 30 H       -2.4520     4.9030     0.4330 H     1 <1>   0.4500 
 31 H       -5.4390     3.4830     1.3640 H     1 <1>   0.0800 
 32 H       -6.0950     3.7380    -0.2470 H     1 <1>   0.0800 
 33 H       -4.3220     1.2760     1.9370 H     1 <1>   0.0800 
 34 H       -4.9700    -0.0950     1.0760 H     1 <1>   0.0800 
 35 H       -6.0510     1.0360     1.8490 H     1 <1>   0.0800 
 36 H       -6.3000     1.8450    -1.8240 H     1 <1>   0.0800 
 37 H       -7.2560     1.4000    -0.4290 H     1 <1>   0.0800 
 38 H       -6.1610     0.2450    -1.1460 H     1 <1>   0.0800 
 39 H       -1.6150     7.0280     1.0960 H     1 <1>   0.0800 
 40 H       -2.1760     7.0880    -0.5440 H     1 <1>   0.0800 
 41 H        0.5140     4.7310     0.5170 H     1 <1>   0.0800 
 42 H       -0.6070     3.4430     0.9040 H     1 <1>   0.0800 
 43 H       -0.5160     4.8600     1.9290 H     1 <1>   0.0800 
 44 H        2.2970     9.2610    -0.5380 H     1 <1>   0.1500 
 45 H        0.6770    10.1640     1.1180 H     1 <1>   0.0800 
 46 H       -0.4210     9.0260     1.8380 H     1 <1>   0.0800 
 47 H       -0.9940    10.6220    -0.6880 H     1 <1>   0.0800 
 48 H       -1.6070    11.0070     0.9140 H     1 <1>   0.0800 
 49 H       -4.2450     9.1890    -0.5780 H     1 <1>   0.0800 
 50 H       -3.2280    10.3360    -1.4420 H     1 <1>   0.0800 
 51 H       -3.8210    10.7170     0.1810 H     1 <1>   0.0800 
@<TRIPOS>BOND
  1   1   2  1   
  2   2   3  ar  
  3   2   4  ar  
  4   3   5  ar  
  5   3  26  1   
  6   4   6  ar  
  7   4  27  1   
  8   5   7  ar  
  9   5   8  1   
 10   6   7  ar  
 11   6   9  1   
 12   7  10  1   
 13   8  11  1   
 14   8  28  1   
 15   8  29  1   
 16   9  12  1   
 17   9  13  1   
 18   9  14  1   
 19  10  12  1   
 20  11  15  1   
 21  11  16  1   
 22  11  30  1   
 23  12  31  1   
 24  12  32  1   
 25  13  33  1   
 26  13  34  1   
 27  13  35  1   
 28  14  36  1   
 29  14  37  1   
 30  14  38  1   
 31  15  17  1   
 32  15  39  1   
 33  15  40  1   
 34  16  41  1   
 35  16  42  1   
 36  16  43  1   
 37  17  18  2   
 38  17  19  1   
 39  18  20  1   
 40  19  21  1   
 41  19  22  1   
 42  20  21  2   
 43  21  44  1   
 44  22  23  1   
 45  22  45  1   
 46  22  46  1   
 47  23  24  1   
 48  23  47  1   
 49  23  48  1   
 50  24  25  1   
 51  25  49  1   
 52  25  50  1   
 53  25  51  1   
@<TRIPOS>SUBSTRUCTURE
  1 ****  11 GROUP 4 **** **** 0

# MOE 2024.06 (io_trps.svl 2023.06)
