@<TRIPOS>MOLECULE
Untitled Document
43 44 1 0 0 
SMALL
USER_CHARGES


@<TRIPOS>ATOM
  1 S       -2.1200    -1.3410     1.2910 S.o2  1 <1>   1.0900 
  2 O       -2.6770    -1.5680     2.6020 O.2   1 <1>  -0.6500 
  3 O       -0.9260    -0.5460     1.1370 O.2   1 <1>  -0.6500 
  4 C       -3.3920    -0.6220     0.2670 C.3   1 <1>  -0.0550 
  5 C       -1.8250    -2.9280     0.5360 C.3   1 <1>  -0.1350 
  6 C       -3.7800     0.7560     0.7840 C.3   1 <1>   0.1200 
  7 O       -4.7970     1.2600    -0.0540 O.3   1 <1>  -0.4300 
  8 C       -5.4690     2.3660     0.2510 C.2   1 <1>   0.6590 
  9 O       -5.2010     3.0150     1.2300 O.2   1 <1>  -0.5700 
 10 C       -6.6060     2.7350    -0.7080 C.3   1 <1>   0.1240 
 11 C       -7.7190     1.6860    -0.6740 C.ar  1 <1>  -0.1440 
 12 C       -7.2100     4.1270    -0.4470 C.3   1 <1>  -0.2400 
 13 C       -8.1700     1.1550     0.5070 C.ar  1 <1>  -0.1500 
 14 C       -8.2960     1.2550    -1.8780 C.ar  1 <1>  -0.1500 
 15 C       -9.1840     0.1790     0.5440 C.ar  1 <1>   0.0000 
 16 C       -9.2860     0.3120    -1.8730 C.ar  1 <1>  -0.1500 
 17 C       -9.7540    -0.2540    -0.6710 C.ar  1 <1>   0.0000 
 18 C       -9.6500    -0.3860     1.7480 C.ar  1 <1>  -0.1500 
 19 C      -10.7650    -1.2330    -0.6340 C.ar  1 <1>  -0.1500 
 20 C      -10.6340    -1.3370     1.7580 C.ar  1 <1>  -0.1500 
 21 C      -11.2050    -1.7710     0.5460 C.ar  1 <1>   0.0820 
 22 O      -12.1820    -2.7080     0.4820 O.3   1 <1>  -0.3620 
 23 C      -12.7040    -3.3170     1.6420 C.3   1 <1>   0.0400 
 24 H       -3.0370    -0.5260    -0.7410 H     1 <1>   0.0800 
 25 H       -4.2620    -1.2500     0.2750 H     1 <1>   0.0800 
 26 H       -2.7180    -3.5230     0.5450 H     1 <1>   0.0800 
 27 H       -1.0640    -3.4540     1.0790 H     1 <1>   0.0800 
 28 H       -1.4950    -2.8100    -0.4780 H     1 <1>   0.0800 
 29 H       -2.9440     1.4360     0.7580 H     1 <1>   0.0800 
 30 H       -4.1620     0.6920     1.7910 H     1 <1>   0.0800 
 31 H       -6.1740     2.7450    -1.6910 H     1 <1>   0.0800 
 32 H       -7.6490     4.1630     0.5350 H     1 <1>   0.0800 
 33 H       -7.9730     4.3430    -1.1720 H     1 <1>   0.0800 
 34 H       -6.4460     4.8810    -0.5080 H     1 <1>   0.0800 
 35 H       -7.7570     1.4760     1.4480 H     1 <1>   0.1500 
 36 H       -7.9560     1.6720    -2.8100 H     1 <1>   0.1500 
 37 H       -9.7290    -0.0170    -2.7960 H     1 <1>   0.1500 
 38 H       -9.2110    -0.0510     2.6710 H     1 <1>   0.1500 
 39 H      -11.2010    -1.5630    -1.5580 H     1 <1>   0.1500 
 40 H      -10.9630    -1.7450     2.6930 H     1 <1>   0.1500 
 41 H      -13.4610    -4.0180     1.3380 H     1 <1>   0.0800 
 42 H      -13.1370    -2.5600     2.2700 H     1 <1>   0.0800 
 43 H      -11.9100    -3.8350     2.1510 H     1 <1>   0.0800 
@<TRIPOS>BOND
  1   1   2  2   
  2   1   3  2   
  3   1   4  1   
  4   1   5  1   
  5   4   6  1   
  6   4  24  1   
  7   4  25  1   
  8   5  26  1   
  9   5  27  1   
 10   5  28  1   
 11   6   7  1   
 12   6  29  1   
 13   6  30  1   
 14   7   8  1   
 15   8   9  2   
 16   8  10  1   
 17  10  11  1   
 18  10  12  1   
 19  10  31  1   
 20  11  13  ar  
 21  11  14  ar  
 22  12  32  1   
 23  12  33  1   
 24  12  34  1   
 25  13  15  ar  
 26  13  35  1   
 27  14  16  ar  
 28  14  36  1   
 29  15  17  ar  
 30  15  18  ar  
 31  16  17  ar  
 32  16  37  1   
 33  17  19  ar  
 34  18  20  ar  
 35  18  38  1   
 36  19  21  ar  
 37  19  39  1   
 38  20  21  ar  
 39  20  40  1   
 40  21  22  1   
 41  22  23  1   
 42  23  41  1   
 43  23  42  1   
 44  23  43  1   
@<TRIPOS>SUBSTRUCTURE
  1 ****  13 GROUP 4 **** **** 0

# MOE 2024.06 (io_trps.svl 2023.06)
