@<TRIPOS>MOLECULE
NONAME
55 58 1 0 0 
SMALL
USER_CHARGES


@<TRIPOS>ATOM
  1 O       -0.6120     0.5490    -0.6710 O.2   1 <1>  -0.5700 
  2 C       -1.7540     0.8770    -0.4070 C.2   1 <1>   0.5440 
  3 N       -1.9950     2.1820    -0.0330 N.am  1 <1>  -0.6600 
  4 C       -2.8020    -0.1110    -0.4850 C.ar  1 <1>   0.0860 
  5 C       -3.1920     2.6430     0.7340 C.3   1 <1>   0.1400 
  6 C       -0.9570     3.2460    -0.1800 C.3   1 <1>   0.1400 
  7 C       -2.6580    -1.3420     0.1480 C.ar  1 <1>   0.1600 
  8 C       -3.9840     0.0960    -1.1900 C.ar  1 <1>  -0.1500 
  9 C       -3.7060     3.9810     0.1750 C.3   1 <1>   0.1200 
 10 C       -1.5920     4.5560    -0.6750 C.3   1 <1>   0.1200 
 11 N       -3.5520    -2.3140     0.1680 N.ar  1 <1>  -0.6200 
 12 C       -4.9210    -0.9080    -1.1880 C.ar  1 <1>  -0.1500 
 13 O       -2.6740     4.9260     0.1340 O.3   1 <1>  -0.5600 
 14 C       -4.6790    -2.0930    -0.4980 C.ar  1 <1>   0.4100 
 15 N       -5.6360    -3.0730    -0.4990 N.pl3 1 <1>  -0.8690 
 16 C       -5.5590    -4.2820     0.3610 C.3   1 <1>   0.2890 
 17 C       -6.8870    -5.0440     0.4100 C.3   1 <1>   0.2000 
 18 C       -4.5840    -5.3180    -0.1920 C.3   1 <1>  -0.1600 
 19 O       -7.7770    -4.4380     1.3080 O.3   1 <1>  -0.5600 
 20 C       -6.4980    -6.4510     0.8630 C.3   1 <1>  -0.1600 
 21 C       -5.0660    -6.6700     0.3530 C.3   1 <1>  -0.1600 
 22 C       -9.1310    -4.5170     0.9700 C.3   1 <1>   0.2630 
 23 C       -9.6340    -5.9530     1.0450 C.ar  1 <1>  -0.1430 
 24 C       -9.6220    -6.6300     2.2550 C.ar  1 <1>  -0.1500 
 25 C      -10.1080    -6.5960    -0.0890 C.ar  1 <1>  -0.1500 
 26 C      -10.0760    -7.9350     2.3320 C.ar  1 <1>  -0.1500 
 27 C      -10.5620    -7.9020    -0.0130 C.ar  1 <1>  -0.1500 
 28 C      -10.5460    -8.5710     1.1980 C.ar  1 <1>  -0.1500 
 29 H       -3.9800     1.9130     0.7030 H     1 <1>   0.0800 
 30 H       -2.9140     2.7810     1.7640 H     1 <1>   0.0800 
 31 H       -0.4840     3.4140     0.7710 H     1 <1>   0.0800 
 32 H       -0.1990     2.9360    -0.8780 H     1 <1>   0.0800 
 33 H       -1.7350    -1.5220     0.6740 H     1 <1>   0.1500 
 34 H       -4.1440     1.0170    -1.7230 H     1 <1>   0.1500 
 35 H       -4.4830     4.3730     0.8060 H     1 <1>   0.0800 
 36 H       -4.0970     3.8540    -0.8190 H     1 <1>   0.0800 
 37 H       -1.9400     4.4470    -1.6880 H     1 <1>   0.0800 
 38 H       -0.8700     5.3530    -0.6430 H     1 <1>   0.0800 
 39 H       -5.8450    -0.7970    -1.7210 H     1 <1>   0.1500 
 40 H       -6.5960    -2.7360    -0.5690 H     1 <1>   0.4000 
 41 H       -5.2670    -4.0160     1.3640 H     1 <1>   0.0800 
 42 H       -7.3100    -5.0770    -0.5790 H     1 <1>   0.0800 
 43 H       -4.6390    -5.3210    -1.2670 H     1 <1>   0.0800 
 44 H       -3.5760    -5.1030     0.1140 H     1 <1>   0.0800 
 45 H       -6.5100    -6.5010     1.9380 H     1 <1>   0.0800 
 46 H       -7.1700    -7.1890     0.4620 H     1 <1>   0.0800 
 47 H       -4.4360    -6.9930     1.1650 H     1 <1>   0.0800 
 48 H       -5.0420    -7.4160    -0.4230 H     1 <1>   0.0800 
 49 H       -9.6720    -3.9110     1.6740 H     1 <1>   0.0800 
 50 H       -9.2670    -4.1020    -0.0130 H     1 <1>   0.0800 
 51 H       -9.2500    -6.1380     3.1370 H     1 <1>   0.1500 
 52 H      -10.1240    -6.0870    -1.0370 H     1 <1>   0.1500 
 53 H      -10.0620    -8.4530     3.2750 H     1 <1>   0.1500 
 54 H      -10.9290    -8.3970    -0.8950 H     1 <1>   0.1500 
 55 H      -10.9000    -9.5860     1.2570 H     1 <1>   0.1500 
@<TRIPOS>BOND
  1   1   2  2   
  2   2   3  am  
  3   2   4  1   
  4   3   5  1   
  5   3   6  1   
  6   4   7  ar  
  7   4   8  ar  
  8   5   9  1   
  9   5  29  1   
 10   5  30  1   
 11   6  10  1   
 12   6  31  1   
 13   6  32  1   
 14   7  11  ar  
 15   7  33  1   
 16   8  12  ar  
 17   8  34  1   
 18   9  13  1   
 19   9  35  1   
 20   9  36  1   
 21  10  13  1   
 22  10  37  1   
 23  10  38  1   
 24  11  14  ar  
 25  12  14  ar  
 26  12  39  1   
 27  14  15  1   
 28  15  16  1   
 29  15  40  1   
 30  16  17  1   
 31  16  18  1   
 32  16  41  1   
 33  17  19  1   
 34  17  20  1   
 35  17  42  1   
 36  18  21  1   
 37  18  43  1   
 38  18  44  1   
 39  19  22  1   
 40  20  21  1   
 41  20  45  1   
 42  20  46  1   
 43  21  47  1   
 44  21  48  1   
 45  22  23  1   
 46  22  49  1   
 47  22  50  1   
 48  23  24  ar  
 49  23  25  ar  
 50  24  26  ar  
 51  24  51  1   
 52  25  27  ar  
 53  25  52  1   
 54  26  28  ar  
 55  26  53  1   
 56  27  28  ar  
 57  27  54  1   
 58  28  55  1   
@<TRIPOS>SUBSTRUCTURE
  1 ****  15 GROUP 4 **** **** 0

# MOE 2024.06 (io_trps.svl 2023.06)
