@<TRIPOS>MOLECULE
NONAME
59 63 1 0 0 
SMALL
USER_CHARGES


@<TRIPOS>ATOM
  1 O       -0.3460    -0.2520    -0.2330 O.2   1 <1>  -0.5700 
  2 C        0.6690     0.3890    -0.4540 C.2   1 <1>   0.5440 
  3 N        0.7130     1.7160    -0.0730 N.am  1 <1>  -0.6600 
  4 C        1.7890    -0.2600    -1.0920 C.ar  1 <1>   0.0860 
  5 C       -0.5080     2.4430     0.3740 C.3   1 <1>   0.1400 
  6 C        1.9840     2.4540     0.1750 C.3   1 <1>   0.1400 
  7 C        2.3150    -1.4570    -0.5730 C.ar  1 <1>   0.4100 
  8 C        2.3770     0.2640    -2.2360 C.ar  1 <1>  -0.1500 
  9 C       -0.4040     2.7540     1.8710 C.3   1 <1>  -0.1600 
 10 C        2.1110     2.7700     1.6700 C.3   1 <1>  -0.1600 
 11 N        3.3490    -2.1060    -1.1040 N.ar  1 <1>  -0.6200 
 12 N        1.7620    -2.0270     0.5470 N.pl3 1 <1>  -0.8690 
 13 C        3.4450    -0.4080    -2.7840 C.ar  1 <1>  -0.1500 
 14 C        0.8830     3.5240     2.1990 C.3   1 <1>  -0.1600 
 15 C        3.8870    -1.5740    -2.1830 C.ar  1 <1>   0.1600 
 16 C        1.7180    -3.4920     0.7470 C.3   1 <1>   0.2890 
 17 C        0.3500    -3.9130     1.2430 C.3   1 <1>  -0.0800 
 18 C        2.6420    -3.9790     1.8570 C.3   1 <1>   0.1200 
 19 C        0.6890    -5.2020     1.9860 C.3   1 <1>   0.1200 
 20 C       -0.6670    -4.0710     0.0980 C.3   1 <1>  -0.0170 
 21 O        1.9640    -5.0130     2.5210 O.3   1 <1>  -0.5600 
 22 C       -2.0810    -4.5060     0.5000 C.ar  1 <1>  -0.1440 
 23 C       -2.9940    -4.9460    -0.4910 C.ar  1 <1>   0.0000 
 24 C       -2.5340    -4.4790     1.7890 C.ar  1 <1>  -0.1500 
 25 C       -4.2810    -5.3610    -0.0710 C.ar  1 <1>   0.3100 
 26 C       -2.7110    -4.9860    -1.8770 C.ar  1 <1>  -0.1500 
 27 C       -3.8320    -4.9030     2.0960 C.ar  1 <1>   0.1600 
 28 N       -4.6830    -5.3380     1.2240 N.ar  1 <1>  -0.6200 
 29 C       -5.1990    -5.8150    -1.0310 C.ar  1 <1>  -0.1500 
 30 C       -3.6300    -5.4310    -2.7890 C.ar  1 <1>  -0.1500 
 31 C       -4.8900    -5.8550    -2.3630 C.ar  1 <1>  -0.1500 
 32 H       -0.5930     3.3590    -0.1840 H     1 <1>   0.0800 
 33 H       -1.3930     1.8590     0.1840 H     1 <1>   0.0800 
 34 H        2.8370     1.8750    -0.1330 H     1 <1>   0.0800 
 35 H        1.9740     3.3690    -0.3920 H     1 <1>   0.0800 
 36 H        1.9990     1.1710    -2.6750 H     1 <1>   0.1500 
 37 H       -1.2600     3.3300     2.1740 H     1 <1>   0.0800 
 38 H       -0.4240     1.8260     2.4160 H     1 <1>   0.0800 
 39 H        2.2270     1.8450     2.2090 H     1 <1>   0.0800 
 40 H        2.9950     3.3580     1.8360 H     1 <1>   0.0800 
 41 H        0.8820    -1.5740     0.8330 H     1 <1>   0.4000 
 42 H        3.9340    -0.0390    -3.6680 H     1 <1>   0.1500 
 43 H        0.9670     3.6540     3.2640 H     1 <1>   0.0800 
 44 H        0.8400     4.5000     1.7460 H     1 <1>   0.0800 
 45 H        4.7250    -2.0930    -2.6160 H     1 <1>   0.1500 
 46 H        1.9650    -4.0110    -0.1640 H     1 <1>   0.0800 
 47 H        0.0010    -3.1900     1.9590 H     1 <1>   0.0800 
 48 H        2.8320    -3.1970     2.5710 H     1 <1>   0.0800 
 49 H        3.5660    -4.3600     1.4610 H     1 <1>   0.0800 
 50 H        0.7390    -6.0400     1.3120 H     1 <1>   0.0800 
 51 H        0.0040    -5.4180     2.7860 H     1 <1>   0.0800 
 52 H       -0.2670    -4.7940    -0.5900 H     1 <1>   0.0800 
 53 H       -0.7440    -3.1320    -0.4240 H     1 <1>   0.0800 
 54 H       -1.9340    -4.1350     2.6090 H     1 <1>   0.1500 
 55 H       -1.7540    -4.6550    -2.2340 H     1 <1>   0.1500 
 56 H       -4.1400    -4.8670     3.1270 H     1 <1>   0.1500 
 57 H       -6.1640    -6.1310    -0.6800 H     1 <1>   0.1500 
 58 H       -3.3970    -5.4580    -3.8390 H     1 <1>   0.1500 
 59 H       -5.6050    -6.2050    -3.0880 H     1 <1>   0.1500 
@<TRIPOS>BOND
  1   1   2  2   
  2   2   3  am  
  3   2   4  1   
  4   3   5  1   
  5   3   6  1   
  6   4   7  ar  
  7   4   8  ar  
  8   5   9  1   
  9   5  32  1   
 10   5  33  1   
 11   6  10  1   
 12   6  34  1   
 13   6  35  1   
 14   7  11  ar  
 15   7  12  1   
 16   8  13  ar  
 17   8  36  1   
 18   9  14  1   
 19   9  37  1   
 20   9  38  1   
 21  10  14  1   
 22  10  39  1   
 23  10  40  1   
 24  11  15  ar  
 25  12  16  1   
 26  12  41  1   
 27  13  15  ar  
 28  13  42  1   
 29  14  43  1   
 30  14  44  1   
 31  15  45  1   
 32  16  17  1   
 33  16  18  1   
 34  16  46  1   
 35  17  19  1   
 36  17  20  1   
 37  17  47  1   
 38  18  21  1   
 39  18  48  1   
 40  18  49  1   
 41  19  21  1   
 42  19  50  1   
 43  19  51  1   
 44  20  22  1   
 45  20  52  1   
 46  20  53  1   
 47  22  23  ar  
 48  22  24  ar  
 49  23  25  ar  
 50  23  26  ar  
 51  24  27  ar  
 52  24  54  1   
 53  25  28  ar  
 54  25  29  ar  
 55  26  30  ar  
 56  26  55  1   
 57  27  28  ar  
 58  27  56  1   
 59  29  31  ar  
 60  29  57  1   
 61  30  31  ar  
 62  30  58  1   
 63  31  59  1   
@<TRIPOS>SUBSTRUCTURE
  1 ****  20 GROUP 4 **** **** 0

# MOE 2024.06 (io_trps.svl 2023.06)
