@<TRIPOS>MOLECULE
NONAME
63 66 1 0 0 
SMALL
USER_CHARGES


@<TRIPOS>ATOM
  1 O        0.1880    -0.9200    -0.7010 O.2   1 <1>  -0.5700 
  2 C        0.9750    -1.7620    -0.3570 C.2   1 <1>   0.5690 
  3 N        0.5860    -2.8600     0.3230 N.am  1 <1>  -0.7300 
  4 C        2.4480    -1.6200    -0.6700 C.3   1 <1>  -0.0990 
  5 C        1.5190    -3.8850     0.8250 C.3   1 <1>   0.1400 
  6 C        3.0280    -2.9740    -1.1260 C.3   1 <1>  -0.0800 
  7 C        2.6200    -4.1660    -0.2230 C.3   1 <1>  -0.0800 
  8 C        4.5640    -2.9710    -1.1960 C.3   1 <1>  -0.1600 
  9 C        3.9260    -4.6760     0.3980 C.3   1 <1>  -0.1600 
 10 C        4.9850    -4.3300    -0.6470 C.3   1 <1>   0.4230 
 11 N        6.4070    -4.3770    -0.1830 N.4   1 <1>  -0.9590 
 12 C        6.7160    -3.8960     1.2030 C.3   1 <1>   0.4860 
 13 C        6.9500    -5.7570    -0.3670 C.3   1 <1>   0.2630 
 14 C        6.7170    -2.3800     1.2550 C.ar  1 <1>  -0.1440 
 15 C        7.7120    -1.6560     0.6140 C.ar  1 <1>  -0.1500 
 16 C        5.7280    -1.7010     1.9530 C.ar  1 <1>  -0.1500 
 17 C        7.7200    -0.2710     0.6550 C.ar  1 <1>   0.0820 
 18 C        5.7240    -0.3180     1.9900 C.ar  1 <1>  -0.1500 
 19 O        8.7390     0.3530     0.0130 O.3   1 <1>  -0.3620 
 20 C        6.7130     0.4000     1.3420 C.ar  1 <1>  -0.1500 
 21 C        8.9670     1.7350     0.1770 C.3   1 <1>   0.1200 
 22 C       10.2630     2.0840    -0.5630 C.3   1 <1>   0.3430 
 23 N       10.6310     3.5330    -0.4430 N.4   1 <1>  -0.9590 
 24 C       11.7300     3.9160    -1.3940 C.3   1 <1>   0.3430 
 25 C       10.9890     3.9730     0.9530 C.3   1 <1>   0.3430 
 26 C       12.0740     5.4200    -1.2800 C.3   1 <1>   0.1200 
 27 C       11.4330     5.4540     0.9850 C.3   1 <1>   0.1200 
 28 O       11.3110     6.0430    -0.2820 O.3   1 <1>  -0.5600 
 29 H       -0.4070    -2.9320     0.5630 H     1 <1>   0.3700 
 30 H        2.5770    -0.8810    -1.4400 H     1 <1>   0.0800 
 31 H        2.9390    -1.2720     0.2200 H     1 <1>   0.0800 
 32 H        1.9510    -3.5190     1.7410 H     1 <1>   0.0800 
 33 H        0.9790    -4.7910     1.0450 H     1 <1>   0.0800 
 34 H        2.6360    -3.1700    -2.1120 H     1 <1>   0.0800 
 35 H        2.2430    -4.9380    -0.8740 H     1 <1>   0.0800 
 36 H        4.9490    -2.1680    -0.6010 H     1 <1>   0.0800 
 37 H        4.8960    -2.8430    -2.2110 H     1 <1>   0.0800 
 38 H        3.8800    -5.7340     0.5890 H     1 <1>   0.0800 
 39 H        4.0940    -4.1430     1.3130 H     1 <1>   0.0800 
 40 H        4.8670    -5.0300    -1.4600 H     1 <1>   0.0800 
 41 H        6.9220    -3.7420    -0.8080 H     1 <1>   0.4500 
 42 H        6.0130    -4.2970     1.9130 H     1 <1>   0.0800 
 43 H        7.6970    -4.2350     1.4910 H     1 <1>   0.0800 
 44 H        6.4340    -6.4520     0.2760 H     1 <1>   0.0800 
 45 H        8.0020    -5.7830    -0.1290 H     1 <1>   0.0800 
 46 H        6.8250    -6.0760    -1.3890 H     1 <1>   0.0800 
 47 H        8.5050    -2.1500     0.0810 H     1 <1>   0.1500 
 48 H        4.9500    -2.2310     2.4760 H     1 <1>   0.1500 
 49 H        4.9490     0.2030     2.5280 H     1 <1>   0.1500 
 50 H        6.6750     1.4720     1.3890 H     1 <1>   0.1500 
 51 H        8.1300     2.2640    -0.2460 H     1 <1>   0.0800 
 52 H        9.0550     1.9320     1.2310 H     1 <1>   0.0800 
 53 H       10.1310     1.8360    -1.6030 H     1 <1>   0.0800 
 54 H       11.0630     1.4780    -0.1690 H     1 <1>   0.0800 
 55 H        9.8360     4.1310    -0.7210 H     1 <1>   0.4500 
 56 H       12.6160     3.3390    -1.1850 H     1 <1>   0.0800 
 57 H       11.4360     3.7000    -2.4090 H     1 <1>   0.0800 
 58 H       10.1420     3.8530     1.6080 H     1 <1>   0.0800 
 59 H       11.7870     3.3620     1.3400 H     1 <1>   0.0800 
 60 H       11.8650     5.9200    -2.2110 H     1 <1>   0.0800 
 61 H       13.1180     5.5570    -1.0540 H     1 <1>   0.0800 
 62 H       12.4570     5.5400     1.3080 H     1 <1>   0.0800 
 63 H       10.8170     6.0130     1.6680 H     1 <1>   0.0800 
@<TRIPOS>BOND
  1   1   2  2   
  2   2   3  am  
  3   2   4  1   
  4   3   5  1   
  5   3  29  1   
  6   4   6  1   
  7   4  30  1   
  8   4  31  1   
  9   5   7  1   
 10   5  32  1   
 11   5  33  1   
 12   6   7  1   
 13   6   8  1   
 14   6  34  1   
 15   7   9  1   
 16   7  35  1   
 17   8  10  1   
 18   8  36  1   
 19   8  37  1   
 20   9  10  1   
 21   9  38  1   
 22   9  39  1   
 23  10  11  1   
 24  10  40  1   
 25  11  12  1   
 26  11  13  1   
 27  11  41  1   
 28  12  14  1   
 29  12  42  1   
 30  12  43  1   
 31  13  44  1   
 32  13  45  1   
 33  13  46  1   
 34  14  15  ar  
 35  14  16  ar  
 36  15  17  ar  
 37  15  47  1   
 38  16  18  ar  
 39  16  48  1   
 40  17  19  1   
 41  17  20  ar  
 42  18  20  ar  
 43  18  49  1   
 44  19  21  1   
 45  20  50  1   
 46  21  22  1   
 47  21  51  1   
 48  21  52  1   
 49  22  23  1   
 50  22  53  1   
 51  22  54  1   
 52  23  24  1   
 53  23  25  1   
 54  23  55  1   
 55  24  26  1   
 56  24  56  1   
 57  24  57  1   
 58  25  27  1   
 59  25  58  1   
 60  25  59  1   
 61  26  28  1   
 62  26  60  1   
 63  26  61  1   
 64  27  28  1   
 65  27  62  1   
 66  27  63  1   
@<TRIPOS>SUBSTRUCTURE
  1 ****  17 GROUP 4 **** **** 0

# MOE 2024.06 (io_trps.svl 2023.06)
