@<TRIPOS>MOLECULE
NONAME
46 48 1 0 0 
SMALL
USER_CHARGES


@<TRIPOS>ATOM
  1 S       -2.5230    -1.9110    -0.9000 S.3   1 <1>  -0.0800 
  2 C       -2.8390    -1.0010     0.5780 C.2   1 <1>  -0.0450 
  3 C       -1.2160    -0.8450    -1.3680 C.2   1 <1>  -0.1400 
  4 C       -3.9100    -1.4510     1.4290 C.2   1 <1>   0.7150 
  5 C       -1.9580     0.0310     0.6470 C.2   1 <1>  -0.1500 
  6 C       -1.0490     0.1200    -0.4470 C.2   1 <1>  -0.1500 
  7 C       -0.5050    -1.1520    -2.6680 C.3   1 <1>  -0.0600 
  8 O       -3.9110    -2.5990     1.8390 O.2   1 <1>  -0.5700 
  9 N       -4.9550    -0.6250     1.7900 N.am  1 <1>  -0.6600 
 10 C       -6.1210    -1.1810     2.5380 C.3   1 <1>   0.1400 
 11 C       -5.2060     0.6950     1.1530 C.3   1 <1>   0.1400 
 12 C       -6.9930    -2.1010     1.6610 C.3   1 <1>   0.1400 
 13 C       -6.0230     0.5500    -0.1360 C.3   1 <1>  -0.1600 
 14 N       -7.1500    -1.6310     0.2430 N.am  1 <1>  -0.6600 
 15 C       -7.3660    -0.1690     0.0440 C.3   1 <1>   0.1400 
 16 C       -7.0910    -2.4800    -0.8470 C.2   1 <1>   0.5440 
 17 O       -7.2060    -2.0140    -1.9650 O.2   1 <1>  -0.5700 
 18 C       -6.9480    -3.9100    -0.7130 C.ar  1 <1>   0.0860 
 19 C       -5.7330    -4.5020    -0.3780 C.ar  1 <1>   0.1600 
 20 C       -8.0250    -4.7590    -0.9300 C.ar  1 <1>  -0.1500 
 21 N       -5.5200    -5.8010    -0.2360 N.ar  1 <1>  -0.6200 
 22 C       -7.8260    -6.1130    -0.7910 C.ar  1 <1>  -0.1500 
 23 C       -6.5630    -6.5910    -0.4430 C.ar  1 <1>   0.3930 
 24 O       -6.3050    -7.9030    -0.2910 O.3   1 <1>  -0.3620 
 25 C       -7.2620    -8.9150    -0.5140 C.3   1 <1>   0.0400 
 26 H       -1.9180     0.7420     1.4530 H     1 <1>   0.1500 
 27 H       -0.3100     0.9020    -0.4930 H     1 <1>   0.1500 
 28 H       -1.2040    -1.1160    -3.4850 H     1 <1>   0.0800 
 29 H       -0.0730    -2.1360    -2.6240 H     1 <1>   0.0800 
 30 H        0.2760    -0.4350    -2.8440 H     1 <1>   0.0800 
 31 H       -6.7240    -0.3770     2.9210 H     1 <1>   0.0800 
 32 H       -5.7650    -1.7420     3.3860 H     1 <1>   0.0800 
 33 H       -4.2760     1.1850     0.9280 H     1 <1>   0.0800 
 34 H       -5.7340     1.3270     1.8460 H     1 <1>   0.0800 
 35 H       -7.9670    -2.1920     2.1100 H     1 <1>   0.0800 
 36 H       -6.5470    -3.0790     1.6800 H     1 <1>   0.0800 
 37 H       -5.4410     0.0410    -0.8840 H     1 <1>   0.0800 
 38 H       -6.2210     1.5360    -0.5120 H     1 <1>   0.0800 
 39 H       -7.9640    -0.0160    -0.8390 H     1 <1>   0.0800 
 40 H       -7.9100     0.2430     0.8750 H     1 <1>   0.0800 
 41 H       -4.8860    -3.8550    -0.2170 H     1 <1>   0.1500 
 42 H       -8.9830    -4.3520    -1.2050 H     1 <1>   0.1500 
 43 H       -8.6470    -6.7820    -0.9550 H     1 <1>   0.1500 
 44 H       -6.7870    -9.8640    -0.3410 H     1 <1>   0.0800 
 45 H       -7.6000    -8.8570    -1.5340 H     1 <1>   0.0800 
 46 H       -8.0770    -8.7840     0.1740 H     1 <1>   0.0800 
@<TRIPOS>BOND
  1   1   2  1   
  2   1   3  1   
  3   2   4  1   
  4   2   5  2   
  5   3   6  2   
  6   3   7  1   
  7   4   8  2   
  8   4   9  am  
  9   5   6  1   
 10   5  26  1   
 11   6  27  1   
 12   7  28  1   
 13   7  29  1   
 14   7  30  1   
 15   9  10  1   
 16   9  11  1   
 17  10  12  1   
 18  10  31  1   
 19  10  32  1   
 20  11  13  1   
 21  11  33  1   
 22  11  34  1   
 23  12  14  1   
 24  12  35  1   
 25  12  36  1   
 26  13  15  1   
 27  13  37  1   
 28  13  38  1   
 29  14  15  1   
 30  14  16  am  
 31  15  39  1   
 32  15  40  1   
 33  16  17  2   
 34  16  18  1   
 35  18  19  ar  
 36  18  20  ar  
 37  19  21  ar  
 38  19  41  1   
 39  20  22  ar  
 40  20  42  1   
 41  21  23  ar  
 42  22  23  ar  
 43  22  43  1   
 44  23  24  1   
 45  24  25  1   
 46  25  44  1   
 47  25  45  1   
 48  25  46  1   
@<TRIPOS>SUBSTRUCTURE
  1 ****  19 GROUP 4 **** **** 0

# MOE 2024.06 (io_trps.svl 2023.06)
