@<TRIPOS>MOLECULE
NONAME
52 54 1 0 0 
SMALL
USER_CHARGES


@<TRIPOS>ATOM
  1 O        0.8150     2.7010    -1.5370 O.co2 1 <1>  -0.9000 
  2 C        0.4310     2.9150    -0.3870 C.2   1 <1>   0.9060 
  3 O        1.2100     3.2560     0.5080 O.co2 1 <1>  -0.9000 
  4 C       -1.0560     3.0480    -0.1840 C.3   1 <1>  -0.1860 
  5 C       -1.5720     3.4160     1.2250 C.3   1 <1>   0.2000 
  6 C       -1.4700     4.1250    -1.1790 C.3   1 <1>   0.3430 
  7 O       -0.7110     2.9330     2.1780 O.3   1 <1>  -0.6800 
  8 C       -1.7230     4.9280     1.4490 C.3   1 <1>  -0.1600 
  9 N       -0.8910     5.4730    -0.8290 N.4   1 <1>  -0.9590 
 10 C       -0.6790     5.6910     0.6430 C.3   1 <1>   0.3430 
 11 C        0.4190     5.6550    -1.5270 C.3   1 <1>   0.4860 
 12 C        0.6670     7.1460    -1.6500 C.ar  1 <1>  -0.1430 
 13 C        1.4230     7.8040    -0.6930 C.ar  1 <1>  -0.1500 
 14 C        0.1390     7.8690    -2.7070 C.ar  1 <1>  -0.1500 
 15 C        1.6400     9.1690    -0.7680 C.ar  1 <1>   0.0830 
 16 C        0.3470     9.2360    -2.7960 C.ar  1 <1>  -0.1500 
 17 O        2.3880     9.6900     0.2390 O.3   1 <1>  -0.3630 
 18 C        1.0900     9.9070    -1.8270 C.ar  1 <1>   0.0830 
 19 C        3.3470    10.6910    -0.0330 C.3   1 <1>   0.2630 
 20 O        1.2790    11.2580    -1.8730 O.3   1 <1>  -0.3630 
 21 C        4.4550    10.6000     1.0050 C.ar  1 <1>  -0.1430 
 22 C        0.6840    12.0680    -2.8630 C.3   1 <1>   0.0400 
 23 C        5.2440     9.4620     1.0810 C.ar  1 <1>  -0.1500 
 24 C        4.6920    11.6490     1.8810 C.ar  1 <1>  -0.1500 
 25 C        6.2590     9.3730     2.0180 C.ar  1 <1>  -0.1500 
 26 C        5.7060    11.5620     2.8190 C.ar  1 <1>  -0.1500 
 27 C        6.4910    10.4250     2.8870 C.ar  1 <1>  -0.1500 
 28 H       -1.4950     2.1160    -0.4790 H     1 <1>   0.0800 
 29 H       -2.5240     2.9440     1.4050 H     1 <1>   0.0800 
 30 H       -2.5450     4.1900    -1.1790 H     1 <1>   0.0800 
 31 H       -1.1550     3.8330    -2.1690 H     1 <1>   0.0800 
 32 H        0.2190     2.9920     1.8010 H     1 <1>   0.4000 
 33 H       -2.7030     5.2480     1.1460 H     1 <1>   0.0800 
 34 H       -1.6190     5.1550     2.4960 H     1 <1>   0.0800 
 35 H       -1.5030     6.2110    -1.1880 H     1 <1>   0.4500 
 36 H        0.2970     5.3280     0.9280 H     1 <1>   0.0800 
 37 H       -0.7220     6.7440     0.8700 H     1 <1>   0.0800 
 38 H        1.2150     5.1810    -0.9730 H     1 <1>   0.0800 
 39 H        0.3890     5.2060    -2.5070 H     1 <1>   0.0800 
 40 H        1.8600     7.2630     0.1300 H     1 <1>   0.1500 
 41 H       -0.4370     7.3770    -3.4730 H     1 <1>   0.1500 
 42 H       -0.0800     9.7590    -3.6300 H     1 <1>   0.1500 
 43 H        3.7480    10.5290    -1.0180 H     1 <1>   0.0800 
 44 H        2.8570    11.6460     0.0090 H     1 <1>   0.0800 
 45 H        0.9550    13.0900    -2.6660 H     1 <1>   0.0800 
 46 H       -0.3850    11.9590    -2.8110 H     1 <1>   0.0800 
 47 H        1.0570    11.7740    -3.8280 H     1 <1>   0.0800 
 48 H        5.0630     8.6390     0.4110 H     1 <1>   0.1500 
 49 H        4.0870    12.5380     1.8390 H     1 <1>   0.1500 
 50 H        6.8650     8.4860     2.0700 H     1 <1>   0.1500 
 51 H        5.8840    12.3790     3.4960 H     1 <1>   0.1500 
 52 H        7.2800    10.3570     3.6160 H     1 <1>   0.1500 
@<TRIPOS>BOND
  1   1   2  ar  
  2   2   3  ar  
  3   2   4  1   
  4   4   5  1   
  5   4   6  1   
  6   4  28  1   
  7   5   7  1   
  8   5   8  1   
  9   5  29  1   
 10   6   9  1   
 11   6  30  1   
 12   6  31  1   
 13   7  32  1   
 14   8  10  1   
 15   8  33  1   
 16   8  34  1   
 17   9  10  1   
 18   9  11  1   
 19   9  35  1   
 20  10  36  1   
 21  10  37  1   
 22  11  12  1   
 23  11  38  1   
 24  11  39  1   
 25  12  13  ar  
 26  12  14  ar  
 27  13  15  ar  
 28  13  40  1   
 29  14  16  ar  
 30  14  41  1   
 31  15  17  1   
 32  15  18  ar  
 33  16  18  ar  
 34  16  42  1   
 35  17  19  1   
 36  18  20  1   
 37  19  21  1   
 38  19  43  1   
 39  19  44  1   
 40  20  22  1   
 41  21  23  ar  
 42  21  24  ar  
 43  22  45  1   
 44  22  46  1   
 45  22  47  1   
 46  23  25  ar  
 47  23  48  1   
 48  24  26  ar  
 49  24  49  1   
 50  25  27  ar  
 51  25  50  1   
 52  26  27  ar  
 53  26  51  1   
 54  27  52  1   
@<TRIPOS>SUBSTRUCTURE
  1 ****  13 GROUP 4 **** **** 0

# MOE 2024.06 (io_trps.svl 2023.06)
