@<TRIPOS>MOLECULE
NONAME
47 49 1 0 0 
SMALL
USER_CHARGES


@<TRIPOS>ATOM
  1 O        0.0020     0.9700    -0.1850 O.2   1 <1>  -0.5700 
  2 C       -0.1720     2.1630    -0.2630 C.2   1 <1>   0.5690 
  3 N       -1.0770     2.8270     0.5210 N.am  1 <1>  -0.6600 
  4 C        0.6380     2.9450    -1.2950 C.3   1 <1>   0.1810 
  5 C       -1.3090     4.3020     0.3670 C.3   1 <1>   0.3640 
  6 C       -1.8510     2.1470     1.6000 C.3   1 <1>   0.0600 
  7 O        0.7790     4.3010    -0.9500 O.3   1 <1>  -0.5600 
  8 C       -2.8050     4.6090     0.1890 C.ar  1 <1>  -0.1440 
  9 C       -0.4540     4.9780    -0.7390 C.3   1 <1>   0.2610 
 10 C       -3.6390     4.0010    -0.7570 C.ar  1 <1>  -0.1440 
 11 C       -3.3480     5.5650     1.0400 C.ar  1 <1>  -0.1500 
 12 C       -0.1880     6.4360    -0.3500 C.2   1 <1>   0.5690 
 13 C       -4.9790     4.3590    -0.8150 C.ar  1 <1>  -0.1500 
 14 C       -3.1670     2.9420    -1.7470 C.3   1 <1>  -0.0960 
 15 C       -4.6830     5.9150     0.9700 C.ar  1 <1>  -0.1500 
 16 O       -1.0700     7.2550    -0.4470 O.2   1 <1>  -0.5700 
 17 N        1.0480     6.7840     0.1010 N.am  1 <1>  -0.7300 
 18 C       -5.5020     5.3080     0.0410 C.ar  1 <1>  -0.1500 
 19 C        1.4550     8.1430     0.5290 C.3   1 <1>   0.1400 
 20 C        2.0510     8.9110    -0.6500 C.3   1 <1>   0.0210 
 21 C        2.4890    10.2940    -0.2070 C.2   1 <1>  -0.1810 
 22 C        3.6410    10.6210     0.5030 C.2   1 <1>   0.1390 
 23 C        1.8600    11.4720    -0.3990 C.2   1 <1>  -0.3020 
 24 N        3.7280    11.8940     0.7390 N.2   1 <1>  -0.7070 
 25 N        2.6240    12.4210     0.1770 N.pl3 1 <1>   0.3000 
 26 H        0.1650     2.8800    -2.2570 H     1 <1>   0.0800 
 27 H        1.6240     2.5220    -1.3640 H     1 <1>   0.0800 
 28 H       -0.9960     4.7430     1.2980 H     1 <1>   0.0800 
 29 H       -1.7040     2.6600     2.5340 H     1 <1>   0.0800 
 30 H       -1.5290     1.1260     1.7150 H     1 <1>   0.0800 
 31 H       -2.8990     2.1500     1.3590 H     1 <1>   0.0800 
 32 H       -0.9920     4.9820    -1.6680 H     1 <1>   0.0800 
 33 H       -2.7300     6.0620     1.7680 H     1 <1>   0.1500 
 34 H       -5.6330     3.8970    -1.5330 H     1 <1>   0.1500 
 35 H       -3.9030     2.7760    -2.5130 H     1 <1>   0.0800 
 36 H       -3.0040     2.0090    -1.2380 H     1 <1>   0.0800 
 37 H       -2.2600     3.2420    -2.2320 H     1 <1>   0.0800 
 38 H       -5.0810     6.6600     1.6360 H     1 <1>   0.1500 
 39 H        1.7780     6.0640     0.0550 H     1 <1>   0.3700 
 40 H       -6.5420     5.5760    -0.0190 H     1 <1>   0.1500 
 41 H        0.5960     8.6760     0.9010 H     1 <1>   0.0800 
 42 H        2.1750     8.0670     1.3250 H     1 <1>   0.0800 
 43 H        2.8970     8.3810    -1.0490 H     1 <1>   0.0800 
 44 H        1.3070     9.0070    -1.4210 H     1 <1>   0.0800 
 45 H        4.3840     9.9100     0.8250 H     1 <1>   0.1500 
 46 H        0.9330    11.6850    -0.9010 H     1 <1>   0.1500 
 47 H        2.4230    13.4280     0.2060 H     1 <1>   0.2700 
@<TRIPOS>BOND
  1   1   2  2   
  2   2   3  am  
  3   2   4  1   
  4   3   5  1   
  5   3   6  1   
  6   4   7  1   
  7   4  26  1   
  8   4  27  1   
  9   5   8  1   
 10   5   9  1   
 11   5  28  1   
 12   6  29  1   
 13   6  30  1   
 14   6  31  1   
 15   7   9  1   
 16   8  10  ar  
 17   8  11  ar  
 18   9  12  1   
 19   9  32  1   
 20  10  13  ar  
 21  10  14  1   
 22  11  15  ar  
 23  11  33  1   
 24  12  16  2   
 25  12  17  am  
 26  13  18  ar  
 27  13  34  1   
 28  14  35  1   
 29  14  36  1   
 30  14  37  1   
 31  15  18  ar  
 32  15  38  1   
 33  17  19  1   
 34  17  39  1   
 35  18  40  1   
 36  19  20  1   
 37  19  41  1   
 38  19  42  1   
 39  20  21  1   
 40  20  43  1   
 41  20  44  1   
 42  21  22  1   
 43  21  23  2   
 44  22  24  2   
 45  22  45  1   
 46  23  25  1   
 47  23  46  1   
 48  24  25  1   
 49  25  47  1   
@<TRIPOS>SUBSTRUCTURE
  1 ****  12 GROUP 4 **** **** 0

# MOE 2024.06 (io_trps.svl 2023.06)
