@<TRIPOS>MOLECULE
NONAME
41 42 1 0 0 
SMALL
USER_CHARGES


@<TRIPOS>ATOM
  1 O       -1.2340     0.8510     1.8210 O.3   1 <1>  -0.0190 
  2 N       -0.1330     1.5380     1.9190 N.2   1 <1>  -0.4100 
  3 C       -1.9530     1.2290     0.7980 C.2   1 <1>  -0.0400 
  4 C       -0.1400     2.3690     0.9370 C.2   1 <1>   0.1080 
  5 C       -1.2980     2.2210     0.1770 C.2   1 <1>  -0.1500 
  6 C       -3.2760     0.5500     0.5100 C.3   1 <1>   0.3890 
  7 C        0.9680     3.3690     0.6550 C.3   1 <1>   0.0210 
  8 N       -3.0270    -0.8080     0.0010 N.pl3 1 <1>  -0.8690 
  9 C        1.6960     3.0890    -0.6740 C.3   1 <1>  -0.0800 
 10 C       -4.0190    -1.7160    -0.1030 C.ar  1 <1>   0.7200 
 11 C        2.3750     1.7120    -0.6700 C.3   1 <1>  -0.2400 
 12 C        2.7410     4.1780    -0.9500 C.3   1 <1>  -0.2400 
 13 N       -3.6130    -2.9660    -0.0330 N.ar  1 <1>  -0.6200 
 14 N       -5.2510    -1.2610    -0.2510 N.ar  1 <1>  -0.6200 
 15 C       -4.5570    -3.8670    -0.1400 C.ar  1 <1>   0.3930 
 16 C       -6.1760    -2.1820    -0.3550 C.ar  1 <1>   0.3930 
 17 O       -4.1290    -5.1440    -0.0740 O.3   1 <1>  -0.3630 
 18 C       -5.8820    -3.5270    -0.3080 C.ar  1 <1>  -0.1500 
 19 O       -7.4290    -1.7090    -0.5100 O.3   1 <1>  -0.3630 
 20 C       -4.9880    -6.2550    -0.2090 C.3   1 <1>   0.0400 
 21 C       -8.5520    -2.5420    -0.6890 C.3   1 <1>   0.0400 
 22 H       -1.5660     2.7810    -0.6990 H     1 <1>   0.1500 
 23 H       -3.8200     1.1090    -0.2320 H     1 <1>   0.0800 
 24 H       -3.8670     0.5040     1.4090 H     1 <1>   0.0800 
 25 H        1.6740     3.3420     1.4670 H     1 <1>   0.0800 
 26 H        0.5350     4.3520     0.6310 H     1 <1>   0.0800 
 27 H       -2.1560    -1.2250     0.3250 H     1 <1>   0.4000 
 28 H        0.9730     3.1080    -1.4720 H     1 <1>   0.0800 
 29 H        3.0900     1.6430     0.1310 H     1 <1>   0.0800 
 30 H        2.8830     1.5410    -1.6020 H     1 <1>   0.0800 
 31 H        1.6460     0.9300    -0.5410 H     1 <1>   0.0800 
 32 H        3.4900     4.1890    -0.1770 H     1 <1>   0.0800 
 33 H        2.2740     5.1460    -0.9910 H     1 <1>   0.0800 
 34 H        3.2260     3.9980    -1.8930 H     1 <1>   0.0800 
 35 H       -6.6430    -4.2700    -0.3940 H     1 <1>   0.1500 
 36 H       -4.3910    -7.1460    -0.1330 H     1 <1>   0.0800 
 37 H       -5.4620    -6.2160    -1.1740 H     1 <1>   0.0800 
 38 H       -5.7150    -6.2350     0.5830 H     1 <1>   0.0800 
 39 H       -9.4170    -1.9130    -0.8070 H     1 <1>   0.0800 
 40 H       -8.6710    -3.1640     0.1810 H     1 <1>   0.0800 
 41 H       -8.4110    -3.1360    -1.5750 H     1 <1>   0.0800 
@<TRIPOS>BOND
  1   1   2  1   
  2   1   3  1   
  3   2   4  2   
  4   3   5  2   
  5   3   6  1   
  6   4   5  1   
  7   4   7  1   
  8   5  22  1   
  9   6   8  1   
 10   6  23  1   
 11   6  24  1   
 12   7   9  1   
 13   7  25  1   
 14   7  26  1   
 15   8  10  1   
 16   8  27  1   
 17   9  11  1   
 18   9  12  1   
 19   9  28  1   
 20  10  13  ar  
 21  10  14  ar  
 22  11  29  1   
 23  11  30  1   
 24  11  31  1   
 25  12  32  1   
 26  12  33  1   
 27  12  34  1   
 28  13  15  ar  
 29  14  16  ar  
 30  15  17  1   
 31  15  18  ar  
 32  16  18  ar  
 33  16  19  1   
 34  17  20  1   
 35  18  35  1   
 36  19  21  1   
 37  20  36  1   
 38  20  37  1   
 39  20  38  1   
 40  21  39  1   
 41  21  40  1   
 42  21  41  1   
@<TRIPOS>SUBSTRUCTURE
  1 ****   8 GROUP 4 **** **** 0

# MOE 2024.06 (io_trps.svl 2023.06)
