@<TRIPOS>MOLECULE
NONAME
45 46 1 0 0 
SMALL
USER_CHARGES


@<TRIPOS>ATOM
  1 O       -0.8310    -0.7810     0.4220 O.2   1 <1>  -0.5700 
  2 C       -1.3780     0.2770     0.2050 C.2   1 <1>   0.5690 
  3 N       -2.7000     0.4550     0.5280 N.am  1 <1>  -0.6600 
  4 C       -0.5540     1.3580    -0.4780 C.3   1 <1>  -0.0990 
  5 C       -3.4220    -0.6100     1.2860 C.3   1 <1>   0.3200 
  6 C       -3.5750     1.5500     0.0100 C.3   1 <1>   0.1400 
  7 C        0.3240     2.2100     0.4690 C.3   1 <1>   0.1440 
  8 C       -3.9340    -1.6740     0.3320 C.2   1 <1>   0.0060 
  9 C       -4.0830     1.2200    -1.3990 C.3   1 <1>   0.1200 
 10 C        1.0440     3.2740    -0.3930 C.ar  1 <1>  -0.1440 
 11 C        1.3790     1.3410     1.1790 C.3   1 <1>  -0.2400 
 12 C       -0.5440     2.8440     1.5750 C.3   1 <1>  -0.2400 
 13 N       -5.1820    -1.9290     0.0940 N.2   1 <1>  -0.5650 
 14 N       -3.0780    -2.4480    -0.3660 N.pl3 1 <1>   0.0330 
 15 O       -4.8460     2.2800    -1.8640 O.3   1 <1>  -0.6800 
 16 C        1.9750     2.8670    -1.3440 C.ar  1 <1>  -0.1500 
 17 C        0.7970     4.6410    -0.2790 C.ar  1 <1>  -0.1500 
 18 C       -5.1350    -2.9300    -0.8080 C.2   1 <1>   0.0770 
 19 C       -3.8580    -3.2590    -1.1030 C.2   1 <1>  -0.3020 
 20 C        2.6340     3.7800    -2.1480 C.ar  1 <1>  -0.1500 
 21 C        1.4540     5.5580    -1.0800 C.ar  1 <1>  -0.1500 
 22 C        2.3740     5.1300    -2.0170 C.ar  1 <1>  -0.1500 
 23 H       -1.1840     2.0090    -1.0510 H     1 <1>   0.0800 
 24 H        0.0790     0.8620    -1.1890 H     1 <1>   0.0800 
 25 H       -4.2490    -0.1850     1.8280 H     1 <1>   0.0800 
 26 H       -2.7590    -1.0630     2.0020 H     1 <1>   0.0800 
 27 H       -3.0310     2.4760    -0.0170 H     1 <1>   0.0800 
 28 H       -4.4150     1.6810     0.6690 H     1 <1>   0.0800 
 29 H       -4.6950     0.3350    -1.4010 H     1 <1>   0.0800 
 30 H       -3.2570     1.0900    -2.0760 H     1 <1>   0.0800 
 31 H        1.9370     0.7490     0.4780 H     1 <1>   0.0800 
 32 H        0.9160     0.6660     1.8780 H     1 <1>   0.0800 
 33 H        2.0670     1.9660     1.7190 H     1 <1>   0.0800 
 34 H       -1.3320     3.4390     1.1520 H     1 <1>   0.0800 
 35 H        0.0600     3.4700     2.2070 H     1 <1>   0.0800 
 36 H       -0.9910     2.0890     2.1970 H     1 <1>   0.0800 
 37 H       -2.0520    -2.3720    -0.3260 H     1 <1>   0.2700 
 38 H       -5.7500     2.2400    -1.4940 H     1 <1>   0.4000 
 39 H        2.2020     1.8250    -1.4770 H     1 <1>   0.1500 
 40 H        0.0910     5.0300     0.4300 H     1 <1>   0.1500 
 41 H       -6.0360    -3.3670    -1.2040 H     1 <1>   0.1500 
 42 H       -3.4720    -4.0020    -1.7760 H     1 <1>   0.1500 
 43 H        3.3500     3.4390    -2.8750 H     1 <1>   0.1500 
 44 H        1.2470     6.6090    -0.9740 H     1 <1>   0.1500 
 45 H        2.8840     5.8430    -2.6410 H     1 <1>   0.1500 
@<TRIPOS>BOND
  1   1   2  2   
  2   2   3  am  
  3   2   4  1   
  4   3   5  1   
  5   3   6  1   
  6   4   7  1   
  7   4  23  1   
  8   4  24  1   
  9   5   8  1   
 10   5  25  1   
 11   5  26  1   
 12   6   9  1   
 13   6  27  1   
 14   6  28  1   
 15   7  10  1   
 16   7  11  1   
 17   7  12  1   
 18   8  13  2   
 19   8  14  1   
 20   9  15  1   
 21   9  29  1   
 22   9  30  1   
 23  10  16  ar  
 24  10  17  ar  
 25  11  31  1   
 26  11  32  1   
 27  11  33  1   
 28  12  34  1   
 29  12  35  1   
 30  12  36  1   
 31  13  18  1   
 32  14  19  1   
 33  14  37  1   
 34  15  38  1   
 35  16  20  ar  
 36  16  39  1   
 37  17  21  ar  
 38  17  40  1   
 39  18  19  2   
 40  18  41  1   
 41  19  42  1   
 42  20  22  ar  
 43  20  43  1   
 44  21  22  ar  
 45  21  44  1   
 46  22  45  1   
@<TRIPOS>SUBSTRUCTURE
  1 ****   4 GROUP 4 **** **** 0

# MOE 2024.06 (io_trps.svl 2023.06)
