@<TRIPOS>MOLECULE
NONAME
58 60 1 0 0 
SMALL
USER_CHARGES


@<TRIPOS>ATOM
  1 O        1.3900     0.3880     0.7700 O.2   1 <1>  -0.5700 
  2 C        1.9390     0.1520    -0.2820 C.2   1 <1>   0.5690 
  3 N        2.3520     1.1800    -1.1040 N.am  1 <1>  -0.6600 
  4 C        2.1350    -1.3410    -0.6320 C.3   1 <1>   0.4040 
  5 C        3.2600     1.0270    -2.2920 C.3   1 <1>   0.1400 
  6 C        1.8140     2.5600    -0.8780 C.3   1 <1>   0.1400 
  7 N        1.2880    -2.2690     0.2160 N.4   1 <1>  -0.9590 
  8 C        4.4000     2.0730    -2.3150 C.3   1 <1>   0.3430 
  9 C        2.7190     3.3480     0.0770 C.3   1 <1>  -0.1600 
 10 C        1.8600    -3.6370     0.3340 C.3   1 <1>   0.4230 
 11 C       -0.1390    -2.2510    -0.2370 C.3   1 <1>   0.2630 
 12 N        4.8000     2.4570    -0.9240 N.4   1 <1>  -0.9590 
 13 C        4.1080     3.6920    -0.4640 C.3   1 <1>   0.3430 
 14 C        1.0100    -4.5320     1.2350 C.3   1 <1>  -0.1600 
 15 C        3.2450    -3.6170     0.9920 C.3   1 <1>  -0.1600 
 16 C        6.2790     2.5190    -0.7400 C.3   1 <1>   0.4860 
 17 C        1.9910    -5.5570     1.7910 C.3   1 <1>  -0.1600 
 18 C        3.2830    -4.7730     2.0000 C.3   1 <1>  -0.1600 
 19 C        6.6210     2.5130     0.7470 C.ar  1 <1>  -0.1440 
 20 C        6.3300     1.4100     1.5580 C.ar  1 <1>   0.0730 
 21 C        7.2480     3.6250     1.2910 C.ar  1 <1>  -0.1500 
 22 C        5.6560     0.2610     1.0220 C.1   1 <1>   0.4840 
 23 C        6.6810     1.4530     2.9030 C.ar  1 <1>  -0.1500 
 24 C        7.5860     3.6510     2.6310 C.ar  1 <1>  -0.1500 
 25 N        5.0400    -0.5060     0.4430 N.1   1 <1>  -0.5570 
 26 C        7.3030     2.5650     3.4370 C.ar  1 <1>  -0.1500 
 27 H        3.1730    -1.5770    -0.4880 H     1 <1>   0.0800 
 28 H        1.9040    -1.4900    -1.6710 H     1 <1>   0.0800 
 29 H        2.6850     1.1130    -3.2000 H     1 <1>   0.0800 
 30 H        3.7080     0.0490    -2.2860 H     1 <1>   0.0800 
 31 H        0.8290     2.4900    -0.4430 H     1 <1>   0.0800 
 32 H        1.7080     3.0790    -1.8160 H     1 <1>   0.0800 
 33 H        1.3040    -1.8460     1.1610 H     1 <1>   0.4500 
 34 H        4.0720     2.9460    -2.8550 H     1 <1>   0.0800 
 35 H        5.2380     1.6570    -2.8500 H     1 <1>   0.0800 
 36 H        2.8120     2.8130     1.0060 H     1 <1>   0.0800 
 37 H        2.2240     4.2750     0.3110 H     1 <1>   0.0800 
 38 H        1.9390    -4.1000    -0.6370 H     1 <1>   0.0800 
 39 H       -0.2280    -2.6740    -1.2250 H     1 <1>   0.0800 
 40 H       -0.5110    -1.2390    -0.2540 H     1 <1>   0.0800 
 41 H       -0.7550    -2.8230     0.4390 H     1 <1>   0.0800 
 42 H        4.4320     1.7050    -0.3220 H     1 <1>   0.4500 
 43 H        4.6730     4.1580     0.3280 H     1 <1>   0.0800 
 44 H        4.0270     4.3970    -1.2760 H     1 <1>   0.0800 
 45 H        0.2160    -5.0140     0.6930 H     1 <1>   0.0800 
 46 H        0.6050    -3.9660     2.0560 H     1 <1>   0.0800 
 47 H        3.4300    -2.6960     1.5170 H     1 <1>   0.0800 
 48 H        4.0060    -3.7580     0.2450 H     1 <1>   0.0800 
 49 H        6.6730     3.4090    -1.2050 H     1 <1>   0.0800 
 50 H        6.7440     1.6650    -1.2060 H     1 <1>   0.0800 
 51 H        2.1560    -6.3360     1.0650 H     1 <1>   0.0800 
 52 H        1.6380    -6.0040     2.7060 H     1 <1>   0.0800 
 53 H        3.3030    -4.3780     3.0030 H     1 <1>   0.0800 
 54 H        4.1490    -5.3990     1.8630 H     1 <1>   0.0800 
 55 H        7.4890     4.4830     0.6850 H     1 <1>   0.1500 
 56 H        6.4670     0.6150     3.5460 H     1 <1>   0.1500 
 57 H        8.0740     4.5160     3.0510 H     1 <1>   0.1500 
 58 H        7.5710     2.5870     4.4810 H     1 <1>   0.1500 
@<TRIPOS>BOND
  1   1   2  2   
  2   2   3  am  
  3   2   4  1   
  4   3   5  1   
  5   3   6  1   
  6   4   7  1   
  7   4  27  1   
  8   4  28  1   
  9   5   8  1   
 10   5  29  1   
 11   5  30  1   
 12   6   9  1   
 13   6  31  1   
 14   6  32  1   
 15   7  10  1   
 16   7  11  1   
 17   7  33  1   
 18   8  12  1   
 19   8  34  1   
 20   8  35  1   
 21   9  13  1   
 22   9  36  1   
 23   9  37  1   
 24  10  14  1   
 25  10  15  1   
 26  10  38  1   
 27  11  39  1   
 28  11  40  1   
 29  11  41  1   
 30  12  13  1   
 31  12  16  1   
 32  12  42  1   
 33  13  43  1   
 34  13  44  1   
 35  14  17  1   
 36  14  45  1   
 37  14  46  1   
 38  15  18  1   
 39  15  47  1   
 40  15  48  1   
 41  16  19  1   
 42  16  49  1   
 43  16  50  1   
 44  17  18  1   
 45  17  51  1   
 46  17  52  1   
 47  18  53  1   
 48  18  54  1   
 49  19  20  ar  
 50  19  21  ar  
 51  20  22  1   
 52  20  23  ar  
 53  21  24  ar  
 54  21  55  1   
 55  22  25  3   
 56  23  26  ar  
 57  23  56  1   
 58  24  26  ar  
 59  24  57  1   
 60  26  58  1   
@<TRIPOS>SUBSTRUCTURE
  1 ****  25 GROUP 4 **** **** 0

# MOE 2024.06 (io_trps.svl 2023.06)
