@<TRIPOS>MOLECULE
NONAME
46 48 1 0 0 
SMALL
USER_CHARGES


@<TRIPOS>ATOM
  1 S        0.3570     0.3350    -1.4470 S.o2  1 <1>   1.3330 
  2 O        1.7430     0.6230    -1.7410 O.2   1 <1>  -0.6500 
  3 O       -0.5190    -0.1850    -2.4670 O.2   1 <1>  -0.6500 
  4 N        0.3060    -0.6960    -0.1010 N.am  1 <1>  -0.8490 
  5 C       -0.3480     1.8590    -0.8060 C.3   1 <1>  -0.0550 
  6 C       -0.9980    -1.3510     0.0750 C.3   1 <1>   0.1160 
  7 C        1.3510    -1.7270    -0.1590 C.3   1 <1>   0.1160 
  8 C        0.4120     2.4470     0.4080 C.3   1 <1>  -0.0800 
  9 C       -0.3080     3.6700     0.9700 C.3   1 <1>   0.2000 
 10 C        1.8090     2.9780     0.0330 C.3   1 <1>   0.3430 
 11 O        0.0820     3.8320     2.2950 O.3   1 <1>  -0.6800 
 12 C        0.2740     4.8230     0.1500 C.3   1 <1>   0.3430 
 13 N        1.7130     4.4690    -0.0700 N.4   1 <1>  -0.9590 
 14 C        2.5850     5.1090     0.9570 C.3   1 <1>   0.4860 
 15 C        2.5040     6.6190     0.8190 C.ar  1 <1>  -0.1440 
 16 C        3.1370     7.2640    -0.2410 C.ar  1 <1>  -0.1500 
 17 C        1.7920     7.3600     1.7640 C.ar  1 <1>  -0.1500 
 18 C        3.0250     8.6370    -0.3260 C.ar  1 <1>   0.0820 
 19 C        1.6920     8.7410     1.6620 C.ar  1 <1>  -0.1500 
 20 O        3.5450     9.4470    -1.2550 O.3   1 <1>  -0.3620 
 21 C        2.3200     9.3580     0.6000 C.ar  1 <1>   0.0820 
 22 C        3.1340    10.7530    -0.8760 C.3   1 <1>   1.2400 
 23 O        2.3540    10.6630     0.3060 O.3   1 <1>  -0.3630 
 24 F        4.1940    11.5200    -0.6670 F     1 <1>  -0.3400 
 25 F        2.4210    11.3020    -1.8490 F     1 <1>  -0.3400 
 26 H       -0.3810     2.5800    -1.6000 H     1 <1>   0.0800 
 27 H       -1.3620     1.6580    -0.5160 H     1 <1>   0.0800 
 28 H       -1.0010    -1.9340     0.9800 H     1 <1>   0.0800 
 29 H       -1.2090    -2.0020    -0.7580 H     1 <1>   0.0800 
 30 H       -1.7820    -0.6170     0.1430 H     1 <1>   0.0800 
 31 H        1.3020    -2.3600     0.7110 H     1 <1>   0.0800 
 32 H        2.3260    -1.2700    -0.1860 H     1 <1>   0.0800 
 33 H        1.2310    -2.3340    -1.0420 H     1 <1>   0.0800 
 34 H        0.4970     1.6790     1.1580 H     1 <1>   0.0800 
 35 H       -1.3840     3.6220     0.9250 H     1 <1>   0.0800 
 36 H        2.1590     2.5650    -0.8970 H     1 <1>   0.0800 
 37 H        2.5080     2.7060     0.8070 H     1 <1>   0.0800 
 38 H       -0.3990     3.2140     2.8880 H     1 <1>   0.4000 
 39 H        0.1500     5.7650     0.6590 H     1 <1>   0.0800 
 40 H       -0.2320     4.8700    -0.7990 H     1 <1>   0.0800 
 41 H        2.0210     4.8000    -0.9930 H     1 <1>   0.4500 
 42 H        2.2660     4.8170     1.9460 H     1 <1>   0.0800 
 43 H        3.6070     4.7930     0.8240 H     1 <1>   0.0800 
 44 H        3.7080     6.7350    -0.9840 H     1 <1>   0.1500 
 45 H        1.3080     6.8670     2.5930 H     1 <1>   0.1500 
 46 H        1.1460     9.3250     2.3840 H     1 <1>   0.1500 
@<TRIPOS>BOND
  1   1   2  2   
  2   1   3  2   
  3   1   4  am  
  4   1   5  1   
  5   4   6  1   
  6   4   7  1   
  7   5   8  1   
  8   5  26  1   
  9   5  27  1   
 10   6  28  1   
 11   6  29  1   
 12   6  30  1   
 13   7  31  1   
 14   7  32  1   
 15   7  33  1   
 16   8   9  1   
 17   8  10  1   
 18   8  34  1   
 19   9  11  1   
 20   9  12  1   
 21   9  35  1   
 22  10  13  1   
 23  10  36  1   
 24  10  37  1   
 25  11  38  1   
 26  12  13  1   
 27  12  39  1   
 28  12  40  1   
 29  13  14  1   
 30  13  41  1   
 31  14  15  1   
 32  14  42  1   
 33  14  43  1   
 34  15  16  ar  
 35  15  17  ar  
 36  16  18  ar  
 37  16  44  1   
 38  17  19  ar  
 39  17  45  1   
 40  18  20  1   
 41  18  21  ar  
 42  19  21  ar  
 43  19  46  1   
 44  20  22  1   
 45  21  23  1   
 46  22  23  1   
 47  22  24  1   
 48  22  25  1   
@<TRIPOS>SUBSTRUCTURE
  1 ****  13 GROUP 4 **** **** 0

# MOE 2024.06 (io_trps.svl 2023.06)
