@<TRIPOS>MOLECULE
NONAME
54 57 1 0 0 
SMALL
USER_CHARGES


@<TRIPOS>ATOM
  1 O        2.3100    -0.6210    -2.4800 O.2   1 <1>  -0.5700 
  2 C        2.3840    -0.8540    -1.3000 C.2   1 <1>   0.5690 
  3 N        2.5750     0.1560    -0.3890 N.am  1 <1>  -0.6600 
  4 C        2.2820    -2.3060    -0.8720 C.3   1 <1>  -0.0990 
  5 C        3.2240    -0.0290     0.9390 C.3   1 <1>   0.1400 
  6 C        2.2900     1.5690    -0.7680 C.3   1 <1>   0.1400 
  7 C        0.8940    -2.6100    -0.3010 C.3   1 <1>   0.0200 
  8 C        4.7570    -0.1180     0.7810 C.3   1 <1>   0.3430 
  9 C        3.5690     2.4100    -0.8500 C.3   1 <1>  -0.1600 
 10 C        0.8130    -4.0540     0.1640 C.2   1 <1>  -0.3320 
 11 N        5.4030     1.1130     0.2040 N.4   1 <1>  -0.9590 
 12 C        4.8410     1.5980    -1.0980 C.3   1 <1>   0.3430 
 13 N        0.6670    -5.1340    -0.6430 N.pl3 1 <1>   0.3140 
 14 C        0.8590    -4.5220     1.4300 C.2   1 <1>  -0.1500 
 15 C        6.8870     0.9690     0.1060 C.3   1 <1>   0.5240 
 16 N        0.6320    -6.2720     0.0690 N.2   1 <1>  -0.7070 
 17 C        0.5400    -5.1640    -2.1070 C.3   1 <1>   0.0160 
 18 C        0.7430    -5.9000     1.3060 C.2   1 <1>   0.1390 
 19 C        7.5250     2.3500     0.1670 C.2   1 <1>   0.1080 
 20 N        6.9610     3.3610     0.7330 N.2   1 <1>  -0.4100 
 21 C        8.7640     2.7100    -0.3620 C.2   1 <1>  -0.1500 
 22 O        7.7850     4.3600     0.5910 O.3   1 <1>  -0.0190 
 23 C        8.8670     4.0110    -0.0540 C.2   1 <1>   0.0550 
 24 C        9.9520     5.0360    -0.3200 C.3   1 <1>  -0.0150 
 25 C       11.3780     4.6270    -0.5100 C.3   1 <1>  -0.2000 
 26 C       10.9600     5.3520     0.7380 C.3   1 <1>  -0.2000 
 27 H        3.0390    -2.5480    -0.1520 H     1 <1>   0.0800 
 28 H        2.4530    -2.9260    -1.7330 H     1 <1>   0.0800 
 29 H        2.8580    -0.9290     1.4000 H     1 <1>   0.0800 
 30 H        2.9680     0.7870     1.5920 H     1 <1>   0.0800 
 31 H        1.6080     2.0030    -0.0560 H     1 <1>   0.0800 
 32 H        1.7950     1.5920    -1.7260 H     1 <1>   0.0800 
 33 H        0.1370    -2.4170    -1.0430 H     1 <1>   0.0800 
 34 H        0.6980    -1.9620     0.5350 H     1 <1>   0.0800 
 35 H        4.9780    -0.9650     0.1520 H     1 <1>   0.0800 
 36 H        5.1820    -0.3160     1.7510 H     1 <1>   0.0800 
 37 H        3.6760     3.0160     0.0320 H     1 <1>   0.0800 
 38 H        3.4440     3.0940    -1.6710 H     1 <1>   0.0800 
 39 H        5.2880     1.9040     0.8610 H     1 <1>   0.4500 
 40 H        5.5580     2.2470    -1.5750 H     1 <1>   0.0800 
 41 H        4.6360     0.7740    -1.7650 H     1 <1>   0.0800 
 42 H        0.9580    -3.9850     2.3560 H     1 <1>   0.1500 
 43 H        7.1590     0.4720    -0.8110 H     1 <1>   0.0800 
 44 H        7.2570     0.3900     0.9360 H     1 <1>   0.0800 
 45 H       -0.0880    -4.3580    -2.4320 H     1 <1>   0.0800 
 46 H        0.1000    -6.1000    -2.3990 H     1 <1>   0.0800 
 47 H        1.5150    -5.0760    -2.5470 H     1 <1>   0.0800 
 48 H        0.7440    -6.5900     2.1320 H     1 <1>   0.1500 
 49 H        9.4650     2.0880    -0.8900 H     1 <1>   0.1500 
 50 H        9.5920     5.8610    -0.9110 H     1 <1>   0.1000 
 51 H       11.9740     5.1530    -1.2370 H     1 <1>   0.1000 
 52 H       11.6540     3.5910    -0.4250 H     1 <1>   0.1000 
 53 H       10.9210     4.8090     1.6660 H     1 <1>   0.1000 
 54 H       11.2600     6.3770     0.8710 H     1 <1>   0.1000 
@<TRIPOS>BOND
  1   1   2  2   
  2   2   3  am  
  3   2   4  1   
  4   3   5  1   
  5   3   6  1   
  6   4   7  1   
  7   4  27  1   
  8   4  28  1   
  9   5   8  1   
 10   5  29  1   
 11   5  30  1   
 12   6   9  1   
 13   6  31  1   
 14   6  32  1   
 15   7  10  1   
 16   7  33  1   
 17   7  34  1   
 18   8  11  1   
 19   8  35  1   
 20   8  36  1   
 21   9  12  1   
 22   9  37  1   
 23   9  38  1   
 24  10  13  1   
 25  10  14  2   
 26  11  12  1   
 27  11  15  1   
 28  11  39  1   
 29  12  40  1   
 30  12  41  1   
 31  13  16  1   
 32  13  17  1   
 33  14  18  1   
 34  14  42  1   
 35  15  19  1   
 36  15  43  1   
 37  15  44  1   
 38  16  18  2   
 39  17  45  1   
 40  17  46  1   
 41  17  47  1   
 42  18  48  1   
 43  19  20  2   
 44  19  21  1   
 45  20  22  1   
 46  21  23  2   
 47  21  49  1   
 48  22  23  1   
 49  23  24  1   
 50  24  25  1   
 51  24  26  1   
 52  24  50  1   
 53  25  26  1   
 54  25  51  1   
 55  25  52  1   
 56  26  53  1   
 57  26  54  1   
@<TRIPOS>SUBSTRUCTURE
  1 ****   8 GROUP 4 **** **** 0

# MOE 2024.06 (io_trps.svl 2023.06)
