@<TRIPOS>MOLECULE
NONAME
42 44 1 0 0 
SMALL
USER_CHARGES


@<TRIPOS>ATOM
  1 S        0.0540    -0.6510     0.7610 S.3   1 <1>  -0.0800 
  2 C        0.0800    -1.7740    -0.5740 C.2   1 <1>  -0.1400 
  3 C        0.9070     0.5110    -0.2300 C.2   1 <1>   0.2280 
  4 C        0.7130    -1.1920    -1.6050 C.2   1 <1>   0.0770 
  5 C       -0.5470    -3.1400    -0.4050 C.3   1 <1>   0.5230 
  6 N        1.1680     0.0990    -1.4060 N.2   1 <1>  -0.5650 
  7 N       -2.0260    -2.9890    -0.4130 N.4   1 <1>  -0.9590 
  8 C       -2.6840    -4.1880    -1.0490 C.3   1 <1>   0.3430 
  9 C       -2.5470    -2.7480     0.9680 C.3   1 <1>   0.3430 
 10 C       -4.1770    -3.9810    -1.3790 C.3   1 <1>   0.1400 
 11 C       -3.6780    -1.7150     0.9620 C.3   1 <1>  -0.1600 
 12 N       -4.9410    -3.5110    -0.1870 N.am  1 <1>  -0.6600 
 13 C       -4.8680    -2.0460     0.0510 C.3   1 <1>   0.1400 
 14 C       -5.5040    -4.3440     0.7610 C.2   1 <1>   0.5690 
 15 O       -5.9570    -3.8790     1.7810 O.2   1 <1>  -0.5700 
 16 C       -5.5490    -5.8810     0.6170 C.3   1 <1>   0.2610 
 17 O       -4.3370    -6.4460     0.1770 O.3   1 <1>  -0.5600 
 18 C       -6.5960    -6.4030    -0.3670 C.3   1 <1>  -0.1600 
 19 C       -4.5910    -7.7360    -0.2780 C.3   1 <1>   0.1200 
 20 C       -5.9620    -7.6640    -0.9430 C.3   1 <1>  -0.1600 
 21 H        1.1420     1.4640     0.2120 H     1 <1>   0.1500 
 22 H        0.9010    -1.6300    -2.5730 H     1 <1>   0.1500 
 23 H       -0.2120    -3.6000     0.5110 H     1 <1>   0.0800 
 24 H       -0.2390    -3.7600    -1.2300 H     1 <1>   0.0800 
 25 H       -2.2330    -2.1520    -0.9700 H     1 <1>   0.4500 
 26 H       -2.1740    -4.4360    -1.9650 H     1 <1>   0.0800 
 27 H       -2.5950    -5.0370    -0.3910 H     1 <1>   0.0800 
 28 H       -2.9130    -3.6730     1.3870 H     1 <1>   0.0800 
 29 H       -1.7600    -2.3880     1.6090 H     1 <1>   0.0800 
 30 H       -4.5900    -4.9060    -1.7410 H     1 <1>   0.0800 
 31 H       -4.2770    -3.2680    -2.1780 H     1 <1>   0.0800 
 32 H       -4.0540    -1.6490     1.9680 H     1 <1>   0.0800 
 33 H       -3.2940    -0.7410     0.7170 H     1 <1>   0.0800 
 34 H       -4.7720    -1.5300    -0.8890 H     1 <1>   0.0800 
 35 H       -5.7830    -1.7060     0.5100 H     1 <1>   0.0800 
 36 H       -5.7460    -6.3000     1.5890 H     1 <1>   0.0800 
 37 H       -7.5200    -6.6090     0.1440 H     1 <1>   0.0800 
 38 H       -6.7840    -5.6820    -1.1420 H     1 <1>   0.0800 
 39 H       -3.8150    -8.0380    -0.9590 H     1 <1>   0.0800 
 40 H       -4.6090    -8.3940     0.5760 H     1 <1>   0.0800 
 41 H       -5.8530    -7.5840    -2.0100 H     1 <1>   0.0800 
 42 H       -6.5380    -8.5450    -0.7170 H     1 <1>   0.0800 
@<TRIPOS>BOND
  1   1   2  1   
  2   1   3  1   
  3   2   4  2   
  4   2   5  1   
  5   3   6  2   
  6   3  21  1   
  7   4   6  1   
  8   4  22  1   
  9   5   7  1   
 10   5  23  1   
 11   5  24  1   
 12   7   8  1   
 13   7   9  1   
 14   7  25  1   
 15   8  10  1   
 16   8  26  1   
 17   8  27  1   
 18   9  11  1   
 19   9  28  1   
 20   9  29  1   
 21  10  12  1   
 22  10  30  1   
 23  10  31  1   
 24  11  13  1   
 25  11  32  1   
 26  11  33  1   
 27  12  13  1   
 28  12  14  am  
 29  13  34  1   
 30  13  35  1   
 31  14  15  2   
 32  14  16  1   
 33  16  17  1   
 34  16  18  1   
 35  16  36  1   
 36  17  19  1   
 37  18  20  1   
 38  18  37  1   
 39  18  38  1   
 40  19  20  1   
 41  19  39  1   
 42  19  40  1   
 43  20  41  1   
 44  20  42  1   
@<TRIPOS>SUBSTRUCTURE
  1 ****   7 GROUP 4 **** **** 0

# MOE 2024.06 (io_trps.svl 2023.06)
