@<TRIPOS>MOLECULE
NONAME
50 52 1 0 0 
SMALL
USER_CHARGES


@<TRIPOS>ATOM
  1 O       -1.9020     1.0570     1.0340 O.co2 1 <1>  -0.9000 
  2 C       -1.4010     1.5130    -0.0060 C.2   1 <1>   0.9060 
  3 O       -1.7430     1.0700    -1.1090 O.co2 1 <1>  -0.9000 
  4 C       -0.3430     2.6340     0.0800 C.3   1 <1>  -0.1060 
  5 C       -0.6830     3.6780     1.1880 C.3   1 <1>   0.2000 
  6 C       -0.3280     3.3660    -1.2940 C.3   1 <1>   0.1400 
  7 C        1.0620     2.0480     0.4100 C.3   1 <1>  -0.1600 
  8 O       -1.1590     3.0940     2.3420 O.3   1 <1>  -0.6800 
  9 C       -1.6910     4.7190     0.7080 C.3   1 <1>  -0.1600 
 10 N       -0.0120     4.8240    -1.1550 N.am  1 <1>  -0.6600 
 11 C        1.5210     0.8840    -0.4870 C.3   1 <1>  -0.1600 
 12 C       -1.0480     5.5870    -0.3860 C.3   1 <1>   0.1400 
 13 C        1.1610     5.3530    -1.6400 C.2   1 <1>   0.5690 
 14 C        2.9100     0.3910    -0.0720 C.3   1 <1>  -0.2400 
 15 O        1.9870     4.6750    -2.2060 O.2   1 <1>  -0.5700 
 16 C        1.4670     6.8390    -1.4990 C.3   1 <1>   0.0440 
 17 C        1.8590     7.3110    -0.0910 C.ar  1 <1>  -0.1430 
 18 C        1.8770     8.7020     0.2030 C.ar  1 <1>   0.0000 
 19 C        2.1860     6.3990     0.8810 C.ar  1 <1>  -0.1500 
 20 C        2.1900     9.1110     1.5210 C.ar  1 <1>   0.0000 
 21 C        1.6040     9.7190    -0.7450 C.ar  1 <1>  -0.1500 
 22 C        2.5070     6.8100     2.1770 C.ar  1 <1>  -0.1500 
 23 C        2.5040     8.1380     2.4880 C.ar  1 <1>  -0.1500 
 24 C        2.1870    10.4840     1.8400 C.ar  1 <1>  -0.1500 
 25 C        1.6140    11.0440    -0.4090 C.ar  1 <1>  -0.1500 
 26 C        1.9050    11.4340     0.9010 C.ar  1 <1>  -0.1500 
 27 H        0.2140     4.2020     1.4710 H     1 <1>   0.0800 
 28 H       -1.3020     3.3040    -1.7490 H     1 <1>   0.0800 
 29 H        0.3510     2.8890    -1.9770 H     1 <1>   0.0800 
 30 H        1.7900     2.8380     0.3520 H     1 <1>   0.0800 
 31 H        1.0440     1.6930     1.4260 H     1 <1>   0.0800 
 32 H       -1.5740     2.2170     2.0570 H     1 <1>   0.4000 
 33 H       -2.5610     4.2230     0.3160 H     1 <1>   0.0800 
 34 H       -1.9950     5.3470     1.5250 H     1 <1>   0.0800 
 35 H        0.8210     0.0670    -0.4100 H     1 <1>   0.0800 
 36 H        1.5550     1.1900    -1.5170 H     1 <1>   0.0800 
 37 H       -0.5970     6.4400     0.0870 H     1 <1>   0.0800 
 38 H       -1.8080     5.9380    -1.0620 H     1 <1>   0.0800 
 39 H        2.8940     0.0500     0.9490 H     1 <1>   0.0800 
 40 H        3.6300     1.1830    -0.1670 H     1 <1>   0.0800 
 41 H        3.2100    -0.4270    -0.7030 H     1 <1>   0.0800 
 42 H        2.2670     7.0820    -2.1740 H     1 <1>   0.0800 
 43 H        0.5940     7.3680    -1.8290 H     1 <1>   0.0800 
 44 H        2.2040     5.3400     0.6860 H     1 <1>   0.1500 
 45 H        1.3890     9.4530    -1.7610 H     1 <1>   0.1500 
 46 H        2.7500     6.0650     2.9150 H     1 <1>   0.1500 
 47 H        2.7450     8.4610     3.4850 H     1 <1>   0.1500 
 48 H        2.4170    10.7740     2.8500 H     1 <1>   0.1500 
 49 H        1.4020    11.8030    -1.1430 H     1 <1>   0.1500 
 50 H        1.9050    12.4800     1.1500 H     1 <1>   0.1500 
@<TRIPOS>BOND
  1   1   2  ar  
  2   2   3  ar  
  3   2   4  1   
  4   4   5  1   
  5   4   6  1   
  6   4   7  1   
  7   5   8  1   
  8   5   9  1   
  9   5  27  1   
 10   6  10  1   
 11   6  28  1   
 12   6  29  1   
 13   7  11  1   
 14   7  30  1   
 15   7  31  1   
 16   8  32  1   
 17   9  12  1   
 18   9  33  1   
 19   9  34  1   
 20  10  12  1   
 21  10  13  am  
 22  11  14  1   
 23  11  35  1   
 24  11  36  1   
 25  12  37  1   
 26  12  38  1   
 27  13  15  2   
 28  13  16  1   
 29  14  39  1   
 30  14  40  1   
 31  14  41  1   
 32  16  17  1   
 33  16  42  1   
 34  16  43  1   
 35  17  18  ar  
 36  17  19  ar  
 37  18  20  ar  
 38  18  21  ar  
 39  19  22  ar  
 40  19  44  1   
 41  20  23  ar  
 42  20  24  ar  
 43  21  25  ar  
 44  21  45  1   
 45  22  23  ar  
 46  22  46  1   
 47  23  47  1   
 48  24  26  ar  
 49  24  48  1   
 50  25  26  ar  
 51  25  49  1   
 52  26  50  1   
@<TRIPOS>SUBSTRUCTURE
  1 ****  10 GROUP 4 **** **** 0

# MOE 2024.06 (io_trps.svl 2023.06)
