@<TRIPOS>MOLECULE
NONAME
24 25 1 0 0 
SMALL
USER_CHARGES


@<TRIPOS>ATOM
  1 O       -0.0310     0.2900     0.4970 O.2   1 <1>  -0.5700 
  2 C       -0.1690     1.4690     0.2500 C.2   1 <1>   0.7060 
  3 O       -1.3860     2.0120     0.2740 O.3   1 <1>  -0.4300 
  4 C        0.9340     2.3360    -0.0610 C.2   1 <1>  -0.1240 
  5 C       -2.5290     1.2430     0.5690 C.3   1 <1>   0.1200 
  6 C        1.0790     3.6400    -0.3170 C.2   1 <1>  -0.2880 
  7 C        2.3380     1.7800    -0.1270 C.3   1 <1>   0.3380 
  8 C       -3.7450     2.1620     0.5130 C.3   1 <1>  -0.2400 
  9 C        2.5560     3.8680    -0.5350 C.3   1 <1>   0.3380 
 10 O        2.8810     2.6360    -1.0750 O.3   1 <1>  -0.5600 
 11 C        3.1150     2.2450     1.1120 C.3   1 <1>  -0.1600 
 12 C        3.2680     3.7550     0.8180 C.3   1 <1>  -0.1600 
 13 H       -2.4090     0.8180     1.5520 H     1 <1>   0.0800 
 14 H       -2.6060     0.4540    -0.1600 H     1 <1>   0.0800 
 15 H        0.3690     4.4450    -0.3640 H     1 <1>   0.1500 
 16 H        2.4390     0.7490    -0.4220 H     1 <1>   0.0800 
 17 H       -3.6470     2.9500     1.2380 H     1 <1>   0.0800 
 18 H       -4.6340     1.6000     0.7340 H     1 <1>   0.0800 
 19 H       -3.8430     2.5870    -0.4700 H     1 <1>   0.0800 
 20 H        2.8370     4.6720    -1.1940 H     1 <1>   0.0800 
 21 H        4.0710     1.7550     1.1540 H     1 <1>   0.0800 
 22 H        2.5640     2.0490     2.0150 H     1 <1>   0.0800 
 23 H        2.7960     4.3730     1.5610 H     1 <1>   0.0800 
 24 H        4.3020     4.0300     0.7160 H     1 <1>   0.0800 
@<TRIPOS>BOND
  1   1   2  2   
  2   2   3  1   
  3   2   4  1   
  4   3   5  1   
  5   4   6  2   
  6   4   7  1   
  7   5   8  1   
  8   5  13  1   
  9   5  14  1   
 10   6   9  1   
 11   6  15  1   
 12   7  10  1   
 13   7  11  1   
 14   7  16  1   
 15   8  17  1   
 16   8  18  1   
 17   8  19  1   
 18   9  10  1   
 19   9  12  1   
 20   9  20  1   
 21  11  12  1   
 22  11  21  1   
 23  11  22  1   
 24  12  23  1   
 25  12  24  1   
@<TRIPOS>SUBSTRUCTURE
  1 ****   4 GROUP 4 **** **** 0

# MOE 2024.06 (io_trps.svl 2023.06)
