@<TRIPOS>MOLECULE
NONAME
50 53 1 0 0 
SMALL
USER_CHARGES


@<TRIPOS>ATOM
  1 O       -2.9150     0.6640    -2.0300 O.2   1 <1>  -0.5700 
  2 C       -2.5310     0.6940    -0.8890 C.2   1 <1>   0.5690 
  3 N       -2.2000    -0.4310    -0.2140 N.am  1 <1>  -0.7300 
  4 C       -2.4230     2.0290    -0.1800 C.3   1 <1>  -0.0990 
  5 C       -2.1770    -1.7960    -0.7950 C.3   1 <1>   0.2200 
  6 C       -1.0110     2.6250    -0.3090 C.3   1 <1>  -0.1600 
  7 C       -3.3900    -2.6120    -0.3620 C.3   1 <1>  -0.0800 
  8 C       -1.0640    -2.5840    -0.1210 C.3   1 <1>   0.1200 
  9 C       -0.9130     3.9960     0.3780 C.3   1 <1>   0.0960 
 10 C       -2.9740    -3.1140     1.0280 C.3   1 <1>   0.1200 
 11 C       -4.7360    -1.8580    -0.4020 C.3   1 <1>  -0.0160 
 12 O       -1.5870    -2.9460     1.1210 O.3   1 <1>  -0.5600 
 13 N        0.4400     4.5640     0.2300 N.pl3 1 <1>   0.3140 
 14 C       -5.9940    -2.6760    -0.0850 C.ar  1 <1>  -0.1440 
 15 N        0.7530     5.4380    -0.7150 N.2   1 <1>  -0.7070 
 16 C        1.5290     4.3260     0.9670 C.2   1 <1>   0.0360 
 17 C       -7.2390    -2.0140     0.0580 C.ar  1 <1>   0.0000 
 18 C       -5.9970    -4.0350     0.0660 C.ar  1 <1>  -0.1500 
 19 C        2.0050     5.6630    -0.4830 C.2   1 <1>   0.3660 
 20 N        2.5390     4.9990     0.5510 N.2   1 <1>  -0.5650 
 21 C       -8.3760    -2.7950     0.3810 C.ar  1 <1>   0.3100 
 22 C       -7.4250    -0.6210    -0.1080 C.ar  1 <1>  -0.1500 
 23 C       -7.1810    -4.7140     0.3750 C.ar  1 <1>   0.1600 
 24 N       -8.3300    -4.1410     0.5370 N.ar  1 <1>  -0.6200 
 25 C       -9.6170    -2.1600     0.5460 C.ar  1 <1>  -0.1500 
 26 C       -8.6500    -0.0320     0.0550 C.ar  1 <1>  -0.1500 
 27 C       -9.7610    -0.8080     0.3890 C.ar  1 <1>  -0.1500 
 28 H       -1.9220    -0.4030     0.7690 H     1 <1>   0.3700 
 29 H       -3.1400     2.6990    -0.6200 H     1 <1>   0.0800 
 30 H       -2.6810     1.8990     0.8550 H     1 <1>   0.0800 
 31 H       -2.0630    -1.7520    -1.8660 H     1 <1>   0.0800 
 32 H       -0.7760     2.7390    -1.3550 H     1 <1>   0.0800 
 33 H       -0.2960     1.9480     0.1270 H     1 <1>   0.0800 
 34 H       -3.4520    -3.4580    -1.0220 H     1 <1>   0.0800 
 35 H       -0.1650    -2.0090     0.0140 H     1 <1>   0.0800 
 36 H       -0.8470    -3.4860    -0.6660 H     1 <1>   0.0800 
 37 H       -1.1350     3.9100     1.4260 H     1 <1>   0.0800 
 38 H       -1.6120     4.6810    -0.0670 H     1 <1>   0.0800 
 39 H       -3.2030    -4.1560     1.1690 H     1 <1>   0.0800 
 40 H       -3.4270    -2.5340     1.8130 H     1 <1>   0.0800 
 41 H       -4.8540    -1.4300    -1.3830 H     1 <1>   0.0800 
 42 H       -4.6880    -1.0470     0.3020 H     1 <1>   0.0800 
 43 H        1.5370     3.6500     1.8020 H     1 <1>   0.1500 
 44 H       -5.1160    -4.6360    -0.0430 H     1 <1>   0.1500 
 45 H        2.6040     6.3390    -1.0710 H     1 <1>   0.1500 
 46 H       -6.5890    -0.0020    -0.3760 H     1 <1>   0.1500 
 47 H       -7.1320    -5.7840     0.4880 H     1 <1>   0.1500 
 48 H      -10.4580    -2.7780     0.7990 H     1 <1>   0.1500 
 49 H       -8.7740     1.0290    -0.0740 H     1 <1>   0.1500 
 50 H      -10.7190    -0.3340     0.5180 H     1 <1>   0.1500 
@<TRIPOS>BOND
  1   1   2  2   
  2   2   3  am  
  3   2   4  1   
  4   3   5  1   
  5   3  28  1   
  6   4   6  1   
  7   4  29  1   
  8   4  30  1   
  9   5   7  1   
 10   5   8  1   
 11   5  31  1   
 12   6   9  1   
 13   6  32  1   
 14   6  33  1   
 15   7  10  1   
 16   7  11  1   
 17   7  34  1   
 18   8  12  1   
 19   8  35  1   
 20   8  36  1   
 21   9  13  1   
 22   9  37  1   
 23   9  38  1   
 24  10  12  1   
 25  10  39  1   
 26  10  40  1   
 27  11  14  1   
 28  11  41  1   
 29  11  42  1   
 30  13  15  1   
 31  13  16  1   
 32  14  17  ar  
 33  14  18  ar  
 34  15  19  2   
 35  16  20  2   
 36  16  43  1   
 37  17  21  ar  
 38  17  22  ar  
 39  18  23  ar  
 40  18  44  1   
 41  19  20  1   
 42  19  45  1   
 43  21  24  ar  
 44  21  25  ar  
 45  22  26  ar  
 46  22  46  1   
 47  23  24  ar  
 48  23  47  1   
 49  25  27  ar  
 50  25  48  1   
 51  26  27  ar  
 52  26  49  1   
 53  27  50  1   
@<TRIPOS>SUBSTRUCTURE
  1 ****   3 GROUP 4 **** **** 0

# MOE 2024.06 (io_trps.svl 2023.06)
