@<TRIPOS>MOLECULE
NONAME
58 61 1 0 0 
SMALL
USER_CHARGES


@<TRIPOS>ATOM
  1 O       -1.2840     1.8330    -1.4060 O.2   1 <1>  -0.5700 
  2 C       -1.5110     1.4090    -0.2920 C.2   1 <1>   0.5690 
  3 N       -1.7060     0.0690    -0.0590 N.am  1 <1>  -0.6600 
  4 C       -1.5630     2.4370     0.8760 C.3   1 <1>   0.4840 
  5 C       -1.9260    -0.8630    -1.2010 C.3   1 <1>   0.1400 
  6 C       -2.0610    -0.5080     1.2810 C.3   1 <1>   0.1400 
  7 N       -0.7330     3.6840     0.7020 N.4   1 <1>  -0.9590 
  8 C       -2.9780     2.9970     1.0440 C.3   1 <1>  -0.1600 
  9 C       -3.4250    -1.1680    -1.3100 C.3   1 <1>  -0.1600 
 10 C       -3.0470    -1.6770     1.1590 C.3   1 <1>  -0.1600 
 11 C       -1.5530     4.5860    -0.1400 C.3   1 <1>   0.3430 
 12 C        0.6110     3.4340     0.1360 C.3   1 <1>   0.4810 
 13 C       -2.9820     4.3580     0.3380 C.3   1 <1>  -0.1600 
 14 C       -4.0990    -1.4350     0.0610 C.3   1 <1>   0.4240 
 15 C        1.4370     4.6670     0.4150 C.2   1 <1>  -0.2880 
 16 O       -4.7110    -0.2240     0.4600 O.3   1 <1>  -0.5600 
 17 C       -5.1100    -2.6120     0.0110 C.ar  1 <1>  -0.1430 
 18 C        2.4150     4.7550     1.3240 C.2   1 <1>  -0.3000 
 19 C       -5.9990     0.0250    -0.0090 C.3   1 <1>   0.1200 
 20 C       -4.7080    -3.9140    -0.3150 C.ar  1 <1>   0.0820 
 21 C       -6.4550    -2.3880     0.2980 C.ar  1 <1>  -0.1430 
 22 C       -6.9410    -0.9910     0.6220 C.3   1 <1>  -0.0170 
 23 O       -3.4020    -4.1390    -0.6270 O.3   1 <1>  -0.3620 
 24 C       -5.6400    -4.9510    -0.3250 C.ar  1 <1>  -0.1500 
 25 C       -7.3710    -3.4260     0.2860 C.ar  1 <1>  -0.1500 
 26 C       -2.9180    -5.4130    -0.9930 C.3   1 <1>   0.0400 
 27 C       -6.9640    -4.7080    -0.0230 C.ar  1 <1>  -0.1500 
 28 H       -1.2640     1.9250     1.7730 H     1 <1>   0.0800 
 29 H       -1.5700    -0.4420    -2.1270 H     1 <1>   0.0800 
 30 H       -1.3770    -1.7730    -1.0250 H     1 <1>   0.0800 
 31 H       -1.1670    -0.8460     1.7770 H     1 <1>   0.0800 
 32 H       -2.5270     0.2420     1.8940 H     1 <1>   0.0800 
 33 H       -0.6020     4.1270     1.6170 H     1 <1>   0.4500 
 34 H       -3.7140     2.3300     0.6270 H     1 <1>   0.0800 
 35 H       -3.1920     3.1190     2.0910 H     1 <1>   0.0800 
 36 H       -3.5360    -2.0210    -1.9520 H     1 <1>   0.0800 
 37 H       -3.9070    -0.3510    -1.8120 H     1 <1>   0.0800 
 38 H       -3.5460    -1.8350     2.0980 H     1 <1>   0.0800 
 39 H       -2.4860    -2.5670     0.9590 H     1 <1>   0.0800 
 40 H       -1.2530     5.6170    -0.0360 H     1 <1>   0.0800 
 41 H       -1.4710     4.2900    -1.1750 H     1 <1>   0.0800 
 42 H        1.0630     2.5850     0.6250 H     1 <1>   0.0800 
 43 H        0.5580     3.2340    -0.9230 H     1 <1>   0.0800 
 44 H       -3.2760     5.1400     1.0170 H     1 <1>   0.0800 
 45 H       -3.6540     4.3640    -0.5040 H     1 <1>   0.0800 
 46 H        1.1660     5.5010    -0.2110 H     1 <1>   0.1500 
 47 H        2.9930     5.6490     1.4970 H     1 <1>   0.1500 
 48 H        2.7330     3.9530     1.9700 H     1 <1>   0.1500 
 49 H       -6.2730     1.0240     0.2790 H     1 <1>   0.0800 
 50 H       -6.0110    -0.0530    -1.0820 H     1 <1>   0.0800 
 51 H       -6.9670    -0.8490     1.6870 H     1 <1>   0.0800 
 52 H       -7.9320    -0.8410     0.2330 H     1 <1>   0.0800 
 53 H       -5.3590    -5.9580    -0.5640 H     1 <1>   0.1500 
 54 H       -8.4060    -3.2420     0.5170 H     1 <1>   0.1500 
 55 H       -1.8670    -5.3250    -1.1990 H     1 <1>   0.0800 
 56 H       -3.4370    -5.7440    -1.8760 H     1 <1>   0.0800 
 57 H       -3.0740    -6.0940    -0.1750 H     1 <1>   0.0800 
 58 H       -7.6780    -5.5130    -0.0300 H     1 <1>   0.1500 
@<TRIPOS>BOND
  1   1   2  2   
  2   2   3  am  
  3   2   4  1   
  4   3   5  1   
  5   3   6  1   
  6   4   7  1   
  7   4   8  1   
  8   4  28  1   
  9   5   9  1   
 10   5  29  1   
 11   5  30  1   
 12   6  10  1   
 13   6  31  1   
 14   6  32  1   
 15   7  11  1   
 16   7  12  1   
 17   7  33  1   
 18   8  13  1   
 19   8  34  1   
 20   8  35  1   
 21   9  14  1   
 22   9  36  1   
 23   9  37  1   
 24  10  14  1   
 25  10  38  1   
 26  10  39  1   
 27  11  13  1   
 28  11  40  1   
 29  11  41  1   
 30  12  15  1   
 31  12  42  1   
 32  12  43  1   
 33  13  44  1   
 34  13  45  1   
 35  14  16  1   
 36  14  17  1   
 37  15  18  2   
 38  15  46  1   
 39  16  19  1   
 40  17  20  ar  
 41  17  21  ar  
 42  18  47  1   
 43  18  48  1   
 44  19  22  1   
 45  19  49  1   
 46  19  50  1   
 47  20  23  1   
 48  20  24  ar  
 49  21  22  1   
 50  21  25  ar  
 51  22  51  1   
 52  22  52  1   
 53  23  26  1   
 54  24  27  ar  
 55  24  53  1   
 56  25  27  ar  
 57  25  54  1   
 58  26  55  1   
 59  26  56  1   
 60  26  57  1   
 61  27  58  1   
@<TRIPOS>SUBSTRUCTURE
  1 ****   3 GROUP 4 **** **** 0

# MOE 2024.06 (io_trps.svl 2023.06)
