@<TRIPOS>MOLECULE
NONAME
54 55 1 0 0 
SMALL
USER_CHARGES


@<TRIPOS>ATOM
  1 O        1.7240    -1.2200    -2.5180 O.2   1 <1>  -0.5700 
  2 C        1.7020    -1.4490    -1.3310 C.2   1 <1>   0.5690 
  3 N        1.7590    -0.4690    -0.3870 N.am  1 <1>  -0.4930 
  4 C        1.5960    -2.9100    -0.8880 C.3   1 <1>  -0.0190 
  5 C        1.8480     0.9330    -0.5570 C.2   1 <1>   0.0630 
  6 C        0.1700    -3.3190    -0.4210 C.3   1 <1>  -0.0190 
  7 C        2.6610    -3.3070     0.1530 C.3   1 <1>  -0.1600 
  8 C        2.0120     1.6810    -1.7230 C.2   1 <1>   0.1390 
  9 C        1.7740     1.8520     0.4260 C.2   1 <1>  -0.3020 
 10 C       -0.5520    -2.1990     0.3270 C.2   1 <1>   0.5690 
 11 C        0.1690    -4.6180     0.4250 C.3   1 <1>  -0.1600 
 12 C        2.6960    -4.8330     0.3760 C.3   1 <1>  -0.1600 
 13 N        2.0340     2.9600    -1.4900 N.2   1 <1>  -0.7070 
 14 N        1.8880     3.0690    -0.1520 N.pl3 1 <1>   0.3140 
 15 O       -0.0670    -1.7820     1.3550 O.2   1 <1>  -0.5700 
 16 N       -1.6840    -1.6860    -0.2230 N.am  1 <1>  -0.7300 
 17 C        1.3540    -5.5310     0.0880 C.3   1 <1>  -0.1600 
 18 C        1.8410     4.3760     0.5640 C.3   1 <1>   0.1760 
 19 C       -2.5050    -0.5630     0.2380 C.3   1 <1>   0.3000 
 20 C        0.5990     5.1750     0.1440 C.3   1 <1>  -0.2400 
 21 C        3.1220     5.1840     0.3100 C.3   1 <1>  -0.2400 
 22 C       -1.6660     0.7150     0.2690 C.3   1 <1>  -0.2400 
 23 C       -3.0910    -0.8810     1.6130 C.3   1 <1>  -0.2400 
 24 C       -3.6330    -0.4070    -0.7790 C.3   1 <1>  -0.2400 
 25 H        1.5040    -0.7700     0.5620 H     1 <1>   0.3700 
 26 H        1.8130    -3.4910    -1.7680 H     1 <1>   0.0800 
 27 H       -0.3900    -3.5190    -1.3170 H     1 <1>   0.0800 
 28 H        3.6330    -2.9700    -0.1650 H     1 <1>   0.0800 
 29 H        2.4390    -2.8220     1.0890 H     1 <1>   0.0800 
 30 H        2.1060     1.2510    -2.7060 H     1 <1>   0.1500 
 31 H        1.6450     1.7090     1.4820 H     1 <1>   0.1500 
 32 H        0.2300    -4.3700     1.4720 H     1 <1>   0.0800 
 33 H       -0.7580    -5.1440     0.2750 H     1 <1>   0.0800 
 34 H        3.4510    -5.2710    -0.2560 H     1 <1>   0.0800 
 35 H        2.9860    -5.0210     1.3960 H     1 <1>   0.0800 
 36 H       -1.9910    -2.0470    -1.1240 H     1 <1>   0.3700 
 37 H        1.2920    -6.4400     0.6610 H     1 <1>   0.0800 
 38 H        1.3040    -5.8010    -0.9530 H     1 <1>   0.0800 
 39 H        1.7730     4.1660     1.6160 H     1 <1>   0.0800 
 40 H        0.6400     5.4010    -0.9070 H     1 <1>   0.0800 
 41 H        0.5460     6.0980     0.6930 H     1 <1>   0.0800 
 42 H       -0.2920     4.6060     0.3450 H     1 <1>   0.0800 
 43 H        3.2140     5.4180    -0.7360 H     1 <1>   0.0800 
 44 H        3.9820     4.6170     0.6180 H     1 <1>   0.0800 
 45 H        3.1000     6.1020     0.8670 H     1 <1>   0.0800 
 46 H       -2.2840     1.5600     0.5100 H     1 <1>   0.0800 
 47 H       -1.2060     0.8910    -0.6870 H     1 <1>   0.0800 
 48 H       -0.8980     0.6450     1.0170 H     1 <1>   0.0800 
 49 H       -3.7540    -0.0940     1.9240 H     1 <1>   0.0800 
 50 H       -2.3120    -0.9670     2.3480 H     1 <1>   0.0800 
 51 H       -3.6450    -1.8020     1.5820 H     1 <1>   0.0800 
 52 H       -4.2770     0.4060    -0.4930 H     1 <1>   0.0800 
 53 H       -4.2270    -1.3020    -0.8280 H     1 <1>   0.0800 
 54 H       -3.2360    -0.1880    -1.7550 H     1 <1>   0.0800 
@<TRIPOS>BOND
  1   1   2  2   
  2   2   3  am  
  3   2   4  1   
  4   3   5  1   
  5   3  25  1   
  6   4   6  1   
  7   4   7  1   
  8   4  26  1   
  9   5   8  1   
 10   5   9  2   
 11   6  10  1   
 12   6  11  1   
 13   6  27  1   
 14   7  12  1   
 15   7  28  1   
 16   7  29  1   
 17   8  13  2   
 18   8  30  1   
 19   9  14  1   
 20   9  31  1   
 21  10  15  2   
 22  10  16  am  
 23  11  17  1   
 24  11  32  1   
 25  11  33  1   
 26  12  17  1   
 27  12  34  1   
 28  12  35  1   
 29  13  14  1   
 30  14  18  1   
 31  16  19  1   
 32  16  36  1   
 33  17  37  1   
 34  17  38  1   
 35  18  20  1   
 36  18  21  1   
 37  18  39  1   
 38  19  22  1   
 39  19  23  1   
 40  19  24  1   
 41  20  40  1   
 42  20  41  1   
 43  20  42  1   
 44  21  43  1   
 45  21  44  1   
 46  21  45  1   
 47  22  46  1   
 48  22  47  1   
 49  22  48  1   
 50  23  49  1   
 51  23  50  1   
 52  23  51  1   
 53  24  52  1   
 54  24  53  1   
 55  24  54  1   
@<TRIPOS>SUBSTRUCTURE
  1 ****   3 GROUP 4 **** **** 0

# MOE 2024.06 (io_trps.svl 2023.06)
