@<TRIPOS>MOLECULE
NONAME
56 58 1 0 0 
SMALL
USER_CHARGES


@<TRIPOS>ATOM
  1 O       -0.6520    -0.6410     1.7990 O.3   1 <1>  -0.5600 
  2 C       -0.0660    -1.5360     0.9060 C.3   1 <1>   0.2800 
  3 C       -1.2380     0.5470     1.3110 C.3   1 <1>   0.1200 
  4 C       -1.1180    -2.0250    -0.1320 C.3   1 <1>  -0.1600 
  5 C        0.4180    -2.6910     1.7930 C.3   1 <1>  -0.1600 
  6 C        1.1580    -0.8540     0.2650 C.3   1 <1>  -0.1600 
  7 C       -2.0020     0.3240    -0.0040 C.3   1 <1>   0.2000 
  8 C       -2.3900    -1.1610    -0.1830 C.3   1 <1>   0.2800 
  9 C        1.2930    -3.6790     1.0300 C.3   1 <1>   0.3430 
 10 C        2.0560    -1.8430    -0.4770 C.3   1 <1>   0.3430 
 11 O       -3.1200     1.1500    -0.0490 O.3   1 <1>  -0.6800 
 12 O       -2.9480    -1.3140    -1.4380 O.3   1 <1>  -0.6800 
 13 C       -3.4550    -1.6500     0.8120 C.3   1 <1>  -0.2400 
 14 N        2.4400    -2.9570     0.4270 N.4   1 <1>  -0.9590 
 15 C        3.4480    -3.8570    -0.1990 C.3   1 <1>   0.5240 
 16 C        4.8140    -3.2110    -0.0020 C.2   1 <1>   0.1080 
 17 N        5.0510    -2.3520     0.9490 N.2   1 <1>  -0.7070 
 18 C        5.9380    -3.4480    -0.7860 C.2   1 <1>  -0.1500 
 19 N        6.3540    -2.0280     0.7940 N.pl3 1 <1>   0.3000 
 20 C        6.9110    -2.6750    -0.2520 C.2   1 <1>  -0.3320 
 21 C        8.3710    -2.4920    -0.6550 C.3   1 <1>   0.1800 
 22 C        8.6210    -1.0220    -1.0070 C.3   1 <1>  -0.2400 
 23 C        8.7030    -3.3590    -1.8750 C.3   1 <1>  -0.2400 
 24 C        9.2760    -2.9080     0.5100 C.3   1 <1>  -0.2400 
 25 H       -1.9150     0.8940     2.0730 H     1 <1>   0.0800 
 26 H       -0.4640     1.2810     1.1760 H     1 <1>   0.0800 
 27 H       -0.6660    -2.0260    -1.1070 H     1 <1>   0.0800 
 28 H       -1.4020    -3.0400     0.0740 H     1 <1>   0.0800 
 29 H        0.9850    -2.2980     2.6180 H     1 <1>   0.0800 
 30 H       -0.4290    -3.2120     2.2040 H     1 <1>   0.0800 
 31 H        0.8470    -0.0990    -0.4320 H     1 <1>   0.0800 
 32 H        1.7430    -0.3730     1.0310 H     1 <1>   0.0800 
 33 H       -1.3680     0.6170    -0.8220 H     1 <1>   0.0800 
 34 H        0.7130    -4.1570     0.2570 H     1 <1>   0.0800 
 35 H        1.6500    -4.4380     1.7090 H     1 <1>   0.0800 
 36 H        2.9420    -1.3310    -0.8200 H     1 <1>   0.0800 
 37 H        1.5340    -2.2320    -1.3360 H     1 <1>   0.0800 
 38 H       -3.6640     0.8790    -0.8190 H     1 <1>   0.4000 
 39 H       -3.4980    -2.1210    -1.4560 H     1 <1>   0.4000 
 40 H       -3.0930    -1.5620     1.8210 H     1 <1>   0.0800 
 41 H       -3.7040    -2.6810     0.6400 H     1 <1>   0.0800 
 42 H       -4.3480    -1.0560     0.7350 H     1 <1>   0.0800 
 43 H        3.0120    -2.5220     1.1810 H     1 <1>   0.4500 
 44 H        3.4520    -4.8130     0.2960 H     1 <1>   0.0800 
 45 H        3.2420    -4.0000    -1.2460 H     1 <1>   0.0800 
 46 H        6.0020    -4.1120    -1.6310 H     1 <1>   0.1500 
 47 H        6.8440    -1.3680     1.4120 H     1 <1>   0.2700 
 48 H        9.6380    -0.8820    -1.3300 H     1 <1>   0.0800 
 49 H        8.4480    -0.3860    -0.1600 H     1 <1>   0.0800 
 50 H        7.9670    -0.7160    -1.8040 H     1 <1>   0.0800 
 51 H        9.7320    -3.2320    -2.1600 H     1 <1>   0.0800 
 52 H        8.0850    -3.0850    -2.7110 H     1 <1>   0.0800 
 53 H        8.5410    -4.3990    -1.6520 H     1 <1>   0.0800 
 54 H       10.3110    -2.8230     0.2310 H     1 <1>   0.0800 
 55 H        9.0810    -3.9300     0.7840 H     1 <1>   0.0800 
 56 H        9.1090    -2.2870     1.3710 H     1 <1>   0.0800 
@<TRIPOS>BOND
  1   1   2  1   
  2   1   3  1   
  3   2   4  1   
  4   2   5  1   
  5   2   6  1   
  6   3   7  1   
  7   3  25  1   
  8   3  26  1   
  9   4   8  1   
 10   4  27  1   
 11   4  28  1   
 12   5   9  1   
 13   5  29  1   
 14   5  30  1   
 15   6  10  1   
 16   6  31  1   
 17   6  32  1   
 18   7   8  1   
 19   7  11  1   
 20   7  33  1   
 21   8  12  1   
 22   8  13  1   
 23   9  14  1   
 24   9  34  1   
 25   9  35  1   
 26  10  14  1   
 27  10  36  1   
 28  10  37  1   
 29  11  38  1   
 30  12  39  1   
 31  13  40  1   
 32  13  41  1   
 33  13  42  1   
 34  14  15  1   
 35  14  43  1   
 36  15  16  1   
 37  15  44  1   
 38  15  45  1   
 39  16  17  2   
 40  16  18  1   
 41  17  19  1   
 42  18  20  2   
 43  18  46  1   
 44  19  20  1   
 45  19  47  1   
 46  20  21  1   
 47  21  22  1   
 48  21  23  1   
 49  21  24  1   
 50  22  48  1   
 51  22  49  1   
 52  22  50  1   
 53  23  51  1   
 54  23  52  1   
 55  23  53  1   
 56  24  54  1   
 57  24  55  1   
 58  24  56  1   
@<TRIPOS>SUBSTRUCTURE
  1 ****  10 GROUP 4 **** **** 0

# MOE 2024.06 (io_trps.svl 2023.06)
