@<TRIPOS>MOLECULE
NONAME
54 56 1 0 0 
SMALL
USER_CHARGES


@<TRIPOS>ATOM
  1 S       -0.0920     0.2880    -0.5190 S.o2  1 <1>   1.3330 
  2 O       -0.3280     1.3900    -1.4240 O.2   1 <1>  -0.6500 
  3 O       -0.9200     0.1440     0.6580 O.2   1 <1>  -0.6500 
  4 N       -0.1910    -1.1590    -1.4010 N.am  1 <1>  -0.8490 
  5 C        1.6360     0.3350    -0.0420 C.3   1 <1>  -0.0550 
  6 C       -0.3980    -2.3420    -0.5590 C.3   1 <1>   0.1160 
  7 C       -1.2170    -1.1050    -2.4470 C.3   1 <1>   0.1160 
  8 C        2.0320     1.6200     0.7140 C.3   1 <1>  -0.0800 
  9 C        3.5380     1.7090     0.8870 C.3   1 <1>   0.2200 
 10 C        1.5350     1.6140     2.1660 C.3   1 <1>   0.1200 
 11 N        3.9200     3.1270     1.0670 N.am  1 <1>  -0.7300 
 12 C        3.7460     0.9580     2.1960 C.3   1 <1>   0.1200 
 13 O        2.6090     1.2110     2.9650 O.3   1 <1>  -0.5600 
 14 C        4.7870     3.8200     0.2730 C.2   1 <1>   0.5440 
 15 O        5.3040     3.2410    -0.6620 O.2   1 <1>  -0.5700 
 16 C        5.0930     5.2120     0.5520 C.ar  1 <1>   0.0860 
 17 C        6.3440     5.7430     0.2510 C.ar  1 <1>  -0.1500 
 18 C        4.1540     6.0680     1.1300 C.ar  1 <1>  -0.1500 
 19 C        6.6750     7.0680     0.5080 C.ar  1 <1>   0.0000 
 20 C        4.4600     7.3890     1.3990 C.ar  1 <1>  -0.1500 
 21 C        7.9840     7.5870     0.1820 C.ar  1 <1>   0.0000 
 22 C        5.7130     7.8830     1.0920 C.ar  1 <1>  -0.1500 
 23 C        8.3620     7.8890    -1.1290 C.ar  1 <1>  -0.1440 
 24 C        8.9060     7.7970     1.2020 C.ar  1 <1>  -0.1500 
 25 C        9.6300     8.3820    -1.3910 C.ar  1 <1>  -0.1500 
 26 C        7.3900     7.6830    -2.2840 C.3   1 <1>  -0.0970 
 27 C       10.1700     8.2910     0.9380 C.ar  1 <1>  -0.1500 
 28 C       10.5330     8.5850    -0.3630 C.ar  1 <1>  -0.1500 
 29 H        1.8660    -0.5230     0.5590 H     1 <1>   0.0800 
 30 H        2.2230     0.2740    -0.9380 H     1 <1>   0.0800 
 31 H       -0.3580    -3.2350    -1.1600 H     1 <1>   0.0800 
 32 H       -1.3570    -2.2930    -0.0690 H     1 <1>   0.0800 
 33 H        0.3710    -2.4040     0.1920 H     1 <1>   0.0800 
 34 H       -1.2420    -2.0300    -2.9950 H     1 <1>   0.0800 
 35 H       -0.9970    -0.3100    -3.1400 H     1 <1>   0.0800 
 36 H       -2.1860    -0.9230    -2.0110 H     1 <1>   0.0800 
 37 H        1.6550     2.4710     0.1710 H     1 <1>   0.0800 
 38 H        4.0890     1.2650     0.0740 H     1 <1>   0.0800 
 39 H        0.7110     0.9450     2.3370 H     1 <1>   0.0800 
 40 H        1.2550     2.6060     2.4760 H     1 <1>   0.0800 
 41 H        3.5970     3.5390     1.9440 H     1 <1>   0.3700 
 42 H        4.6240     1.2840     2.7260 H     1 <1>   0.0800 
 43 H        3.7970    -0.1020     2.0240 H     1 <1>   0.0800 
 44 H        7.0850     5.1060    -0.2010 H     1 <1>   0.1500 
 45 H        3.1700     5.7010     1.3620 H     1 <1>   0.1500 
 46 H        3.7230     8.0360     1.8460 H     1 <1>   0.1500 
 47 H        5.9540     8.9110     1.2980 H     1 <1>   0.1500 
 48 H        8.6260     7.5670     2.2150 H     1 <1>   0.1500 
 49 H        9.9240     8.6130    -2.3990 H     1 <1>   0.1500 
 50 H        7.7820     8.0910    -3.1970 H     1 <1>   0.0800 
 51 H        6.4550     8.1690    -2.0710 H     1 <1>   0.0800 
 52 H        7.2100     6.6330    -2.4290 H     1 <1>   0.0800 
 53 H       10.8680     8.4460     1.7410 H     1 <1>   0.1500 
 54 H       11.5160     8.9690    -0.5760 H     1 <1>   0.1500 
@<TRIPOS>BOND
  1   1   2  2   
  2   1   3  2   
  3   1   4  am  
  4   1   5  1   
  5   4   6  1   
  6   4   7  1   
  7   5   8  1   
  8   5  29  1   
  9   5  30  1   
 10   6  31  1   
 11   6  32  1   
 12   6  33  1   
 13   7  34  1   
 14   7  35  1   
 15   7  36  1   
 16   8   9  1   
 17   8  10  1   
 18   8  37  1   
 19   9  11  1   
 20   9  12  1   
 21   9  38  1   
 22  10  13  1   
 23  10  39  1   
 24  10  40  1   
 25  11  14  am  
 26  11  41  1   
 27  12  13  1   
 28  12  42  1   
 29  12  43  1   
 30  14  15  2   
 31  14  16  1   
 32  16  17  ar  
 33  16  18  ar  
 34  17  19  ar  
 35  17  44  1   
 36  18  20  ar  
 37  18  45  1   
 38  19  21  1   
 39  19  22  ar  
 40  20  22  ar  
 41  20  46  1   
 42  21  23  ar  
 43  21  24  ar  
 44  22  47  1   
 45  23  25  ar  
 46  23  26  1   
 47  24  27  ar  
 48  24  48  1   
 49  25  28  ar  
 50  25  49  1   
 51  26  50  1   
 52  26  51  1   
 53  26  52  1   
 54  27  28  ar  
 55  27  53  1   
 56  28  54  1   
@<TRIPOS>SUBSTRUCTURE
  1 ****  14 GROUP 4 **** **** 0

# MOE 2024.06 (io_trps.svl 2023.06)
