@<TRIPOS>MOLECULE
NONAME
50 52 1 0 0 
SMALL
USER_CHARGES


@<TRIPOS>ATOM
  1 F        0.7240     1.1650     1.4190 F     1 <1>  -0.1900 
  2 C        1.8240     1.8440     1.2380 C.ar  1 <1>   0.1900 
  3 C        2.7180     1.4210     0.2730 C.ar  1 <1>  -0.1500 
  4 C        2.0530     2.9620     2.0170 C.ar  1 <1>  -0.1500 
  5 C        3.8810     2.1480     0.0860 C.ar  1 <1>  -0.1500 
  6 C        3.2220     3.6790     1.8200 C.ar  1 <1>  -0.1500 
  7 C        4.1380     3.2770     0.8560 C.ar  1 <1>  -0.1430 
  8 C        5.4240     4.0680     0.6440 C.3   1 <1>   0.2540 
  9 N        5.5630     4.5040    -0.7620 N.3   1 <1>  -0.8100 
 10 C        6.9110     5.0890    -1.0020 C.3   1 <1>   0.1710 
 11 C        4.4660     5.3920    -1.1730 C.3   1 <1>   0.0300 
 12 C        7.2440     6.3530    -0.1980 C.2   1 <1>   0.5690 
 13 O        7.8100     6.2340     0.8630 O.2   1 <1>  -0.5700 
 14 N        6.8740     7.5640    -0.7190 N.am  1 <1>  -0.4940 
 15 C        6.9550     8.8650    -0.1670 C.2   1 <1>  -0.0880 
 16 N        8.0160     9.4460     0.4760 N.pl3 1 <1>   0.3140 
 17 C        5.9690     9.7930    -0.2030 C.2   1 <1>  -0.1810 
 18 N        7.7040    10.7170     0.8510 N.2   1 <1>  -0.7070 
 19 C        9.3790     8.8660     0.7170 C.3   1 <1>   0.1760 
 20 C        6.4910    10.9050     0.4420 C.2   1 <1>   0.1390 
 21 C        4.5720     9.7060    -0.7910 C.3   1 <1>  -0.0590 
 22 C       10.3870     9.8410     1.3390 C.3   1 <1>  -0.1600 
 23 C       10.0670     8.3840    -0.5720 C.3   1 <1>  -0.1600 
 24 C       11.7460     9.2440     0.9900 C.3   1 <1>  -0.1600 
 25 C       11.5650     8.6830    -0.4190 C.3   1 <1>  -0.1600 
 26 H        2.5050     0.5480    -0.3160 H     1 <1>   0.1500 
 27 H        1.3340     3.2590     2.7580 H     1 <1>   0.1500 
 28 H        4.5920     1.8440    -0.6640 H     1 <1>   0.1500 
 29 H        3.4140     4.5520     2.4210 H     1 <1>   0.1500 
 30 H        6.2570     3.4380     0.9060 H     1 <1>   0.0800 
 31 H        5.4400     4.9240     1.2970 H     1 <1>   0.0800 
 32 H        7.0130     5.3080    -2.0490 H     1 <1>   0.0800 
 33 H        7.6530     4.3460    -0.7660 H     1 <1>   0.0800 
 34 H        3.5300     4.8600    -1.1350 H     1 <1>   0.0800 
 35 H        4.6160     5.7210    -2.1870 H     1 <1>   0.0800 
 36 H        4.4020     6.2460    -0.5200 H     1 <1>   0.0800 
 37 H        6.3070     7.5060    -1.5630 H     1 <1>   0.3700 
 38 H        9.2760     8.0400     1.3940 H     1 <1>   0.0800 
 39 H        5.9590    11.8290     0.5940 H     1 <1>   0.1500 
 40 H        4.3770     8.7220    -1.1730 H     1 <1>   0.0800 
 41 H        4.4670    10.4170    -1.5900 H     1 <1>   0.0800 
 42 H        3.8450     9.9280    -0.0300 H     1 <1>   0.0800 
 43 H       10.2460     9.9350     2.4010 H     1 <1>   0.0800 
 44 H       10.3060    10.8090     0.8750 H     1 <1>   0.0800 
 45 H        9.6810     8.9140    -1.4260 H     1 <1>   0.0800 
 46 H        9.9080     7.3290    -0.7030 H     1 <1>   0.0800 
 47 H       11.9700     8.4410     1.6720 H     1 <1>   0.0800 
 48 H       12.5330     9.9780     1.0370 H     1 <1>   0.0800 
 49 H       11.8550     9.4280    -1.1410 H     1 <1>   0.0800 
 50 H       12.1660     7.8020    -0.5670 H     1 <1>   0.0800 
@<TRIPOS>BOND
  1   1   2  1   
  2   2   3  ar  
  3   2   4  ar  
  4   3   5  ar  
  5   3  26  1   
  6   4   6  ar  
  7   4  27  1   
  8   5   7  ar  
  9   5  28  1   
 10   6   7  ar  
 11   6  29  1   
 12   7   8  1   
 13   8   9  1   
 14   8  30  1   
 15   8  31  1   
 16   9  10  1   
 17   9  11  1   
 18  10  12  1   
 19  10  32  1   
 20  10  33  1   
 21  11  34  1   
 22  11  35  1   
 23  11  36  1   
 24  12  13  2   
 25  12  14  am  
 26  14  15  1   
 27  14  37  1   
 28  15  16  1   
 29  15  17  2   
 30  16  18  1   
 31  16  19  1   
 32  17  20  1   
 33  17  21  1   
 34  18  20  2   
 35  19  22  1   
 36  19  23  1   
 37  19  38  1   
 38  20  39  1   
 39  21  40  1   
 40  21  41  1   
 41  21  42  1   
 42  22  24  1   
 43  22  43  1   
 44  22  44  1   
 45  23  25  1   
 46  23  45  1   
 47  23  46  1   
 48  24  25  1   
 49  24  47  1   
 50  24  48  1   
 51  25  49  1   
 52  25  50  1   
@<TRIPOS>SUBSTRUCTURE
  1 ****  12 GROUP 4 **** **** 0

# MOE 2024.06 (io_trps.svl 2023.06)
