@<TRIPOS>MOLECULE
NONAME
45 46 1 0 0 
SMALL
USER_CHARGES


@<TRIPOS>ATOM
  1 S        0.3290    -0.2030     2.0580 S.o2  1 <1>   1.5010 
  2 O        1.4060    -1.0340     2.5480 O.2   1 <1>  -0.6500 
  3 O       -0.2380     0.8220     2.9010 O.2   1 <1>  -0.6500 
  4 N       -0.9460    -1.2410     1.7340 N.am  1 <1>  -0.9140 
  5 C        0.7110     0.4300     0.4180 C.2   1 <1>  -0.0630 
  6 C       -0.5480    -2.5190     1.1610 C.3   1 <1>   0.2760 
  7 C       -0.0940     1.2810    -0.3350 C.2   1 <1>   0.1080 
  8 C        1.7690     0.1890    -0.3970 C.2   1 <1>  -0.3020 
  9 C       -1.7230    -3.1250     0.4090 C.3   1 <1>  -0.0800 
 10 C       -0.3700    -3.5550     2.2690 C.3   1 <1>   0.1200 
 11 N        0.4100     1.5400    -1.5010 N.2   1 <1>  -0.7070 
 12 C       -1.4180     1.8680     0.1050 C.3   1 <1>  -0.0590 
 13 N        1.5670     0.8700    -1.5380 N.pl3 1 <1>   0.3140 
 14 C       -2.5140    -3.8290     1.5200 C.3   1 <1>   0.1200 
 15 C       -2.5370    -2.1160    -0.4330 C.3   1 <1>  -0.0550 
 16 O       -1.6690    -3.9010     2.6330 O.3   1 <1>  -0.5600 
 17 C        2.4420     0.9180    -2.7150 C.3   1 <1>   0.0160 
 18 S       -3.7240    -2.8760    -1.5430 S.o2  1 <1>   1.3330 
 19 O       -3.0410    -3.9290    -2.2600 O.2   1 <1>  -0.6500 
 20 O       -4.4190    -1.8420    -2.2740 O.2   1 <1>  -0.6500 
 21 N       -4.8520    -3.6030    -0.5000 N.am  1 <1>  -0.8490 
 22 C       -5.8490    -2.6620     0.0230 C.3   1 <1>   0.1160 
 23 C       -5.5310    -4.7390    -1.1320 C.3   1 <1>   0.1160 
 24 H       -1.3410    -1.4600     2.6500 H     1 <1>   0.4200 
 25 H        0.3240    -2.4220     0.5330 H     1 <1>   0.0800 
 26 H        2.6350    -0.4230    -0.2190 H     1 <1>   0.1500 
 27 H       -1.3360    -3.8860    -0.2470 H     1 <1>   0.0800 
 28 H        0.1620    -3.1830     3.1270 H     1 <1>   0.0800 
 29 H        0.1170    -4.4380     1.8940 H     1 <1>   0.0800 
 30 H       -2.0850     1.0890     0.4230 H     1 <1>   0.0800 
 31 H       -1.8720     2.4000    -0.7110 H     1 <1>   0.0800 
 32 H       -1.2610     2.5530     0.9190 H     1 <1>   0.0800 
 33 H       -2.8040    -4.8260     1.2340 H     1 <1>   0.0800 
 34 H       -3.3850    -3.2690     1.8120 H     1 <1>   0.0800 
 35 H       -1.8500    -1.5430    -1.0250 H     1 <1>   0.0800 
 36 H       -3.0460    -1.4300     0.2150 H     1 <1>   0.0800 
 37 H        3.3800     0.4490    -2.4890 H     1 <1>   0.0800 
 38 H        2.6030     1.9450    -2.9840 H     1 <1>   0.0800 
 39 H        1.9600     0.4060    -3.5270 H     1 <1>   0.0800 
 40 H       -6.4810    -3.1540     0.7420 H     1 <1>   0.0800 
 41 H       -6.4610    -2.2770    -0.7770 H     1 <1>   0.0800 
 42 H       -5.3610    -1.8350     0.5110 H     1 <1>   0.0800 
 43 H       -6.2310    -5.1860    -0.4460 H     1 <1>   0.0800 
 44 H       -4.8110    -5.4900    -1.4130 H     1 <1>   0.0800 
 45 H       -6.0570    -4.4170    -2.0160 H     1 <1>   0.0800 
@<TRIPOS>BOND
  1   1   2  2   
  2   1   3  2   
  3   1   4  am  
  4   1   5  1   
  5   4   6  1   
  6   4  24  1   
  7   5   7  1   
  8   5   8  2   
  9   6   9  1   
 10   6  10  1   
 11   6  25  1   
 12   7  11  2   
 13   7  12  1   
 14   8  13  1   
 15   8  26  1   
 16   9  14  1   
 17   9  15  1   
 18   9  27  1   
 19  10  16  1   
 20  10  28  1   
 21  10  29  1   
 22  11  13  1   
 23  12  30  1   
 24  12  31  1   
 25  12  32  1   
 26  13  17  1   
 27  14  16  1   
 28  14  33  1   
 29  14  34  1   
 30  15  18  1   
 31  15  35  1   
 32  15  36  1   
 33  17  37  1   
 34  17  38  1   
 35  17  39  1   
 36  18  19  2   
 37  18  20  2   
 38  18  21  am  
 39  21  22  1   
 40  21  23  1   
 41  22  40  1   
 42  22  41  1   
 43  22  42  1   
 44  23  43  1   
 45  23  44  1   
 46  23  45  1   
@<TRIPOS>SUBSTRUCTURE
  1 ****  15 GROUP 4 **** **** 0

# MOE 2024.06 (io_trps.svl 2023.06)
