@<TRIPOS>MOLECULE
NONAME
45 46 1 0 0 
SMALL
USER_CHARGES


@<TRIPOS>ATOM
  1 S       -0.0640     0.3160     1.3370 S.o2  1 <1>   1.4470 
  2 O        0.4350    -0.8310     2.0590 O.2   1 <1>  -0.6500 
  3 O       -0.4900     1.4590     2.1120 O.2   1 <1>  -0.6500 
  4 N       -1.3560    -0.1610     0.3470 N.am  1 <1>  -0.8490 
  5 C        1.1980     0.8690     0.1310 C.ar  1 <1>  -0.0090 
  6 C       -1.1730    -1.2600    -0.6270 C.3   1 <1>   0.1960 
  7 C       -2.7210     0.0680     0.8210 C.3   1 <1>   0.1960 
  8 C        1.1750     2.0900    -0.5700 C.ar  1 <1>  -0.1440 
  9 C        2.2550    -0.0030    -0.1200 C.ar  1 <1>  -0.1500 
 10 C       -1.8470    -2.6000    -0.2420 C.3   1 <1>  -0.1060 
 11 C       -3.3770    -1.2280     1.2880 C.3   1 <1>  -0.1600 
 12 C        2.2090     2.3780    -1.4640 C.ar  1 <1>  -0.1500 
 13 C        0.0610     3.1470    -0.3870 C.3   1 <1>   1.1640 
 14 C        3.2650     0.2920    -1.0130 C.ar  1 <1>  -0.1500 
 15 C       -1.9260    -3.4660    -1.5040 C.2   1 <1>   0.9060 
 16 C       -3.2980    -2.2690     0.1730 C.3   1 <1>   0.2000 
 17 C       -1.0750    -3.3740     0.8740 C.3   1 <1>  -0.1600 
 18 C        3.2430     1.4920    -1.6870 C.ar  1 <1>  -0.1500 
 19 F       -1.1670     2.6550    -0.4110 F     1 <1>  -0.3400 
 20 F        0.1920     3.8240     0.7440 F     1 <1>  -0.3400 
 21 F        0.0750     4.0670    -1.3460 F     1 <1>  -0.3400 
 22 O       -1.2180    -3.1910    -2.4810 O.co2 1 <1>  -0.9000 
 23 O       -2.7150    -4.4230    -1.5260 O.co2 1 <1>  -0.9000 
 24 O       -3.9600    -3.4070     0.5860 O.3   1 <1>  -0.6800 
 25 C        0.3580    -3.7920     0.4990 C.3   1 <1>  -0.1600 
 26 C        1.0250    -4.5470     1.6510 C.3   1 <1>  -0.2400 
 27 H       -1.6130    -0.9290    -1.5530 H     1 <1>   0.0800 
 28 H       -0.1300    -1.4140    -0.8360 H     1 <1>   0.0800 
 29 H       -2.7390     0.7920     1.6180 H     1 <1>   0.0800 
 30 H       -3.2950     0.4730     0.0060 H     1 <1>   0.0800 
 31 H        2.2960    -0.9480     0.3970 H     1 <1>   0.1500 
 32 H       -4.4080    -1.0340     1.5180 H     1 <1>   0.0800 
 33 H       -2.8920    -1.5800     2.1790 H     1 <1>   0.0800 
 34 H        2.2300     3.3080    -2.0090 H     1 <1>   0.1500 
 35 H        4.0630    -0.4120    -1.1810 H     1 <1>   0.1500 
 36 H       -3.8280    -1.9010    -0.6900 H     1 <1>   0.0800 
 37 H       -1.0480    -2.7930     1.7750 H     1 <1>   0.0800 
 38 H       -1.6200    -4.2730     1.1030 H     1 <1>   0.0800 
 39 H        4.0270     1.7350    -2.3850 H     1 <1>   0.1500 
 40 H       -3.7320    -4.0980    -0.1020 H     1 <1>   0.4000 
 41 H        0.3360    -4.4250    -0.3730 H     1 <1>   0.0800 
 42 H        0.9520    -2.9290     0.2670 H     1 <1>   0.0800 
 43 H        0.4600    -5.4300     1.8940 H     1 <1>   0.0800 
 44 H        1.0800    -3.9170     2.5220 H     1 <1>   0.0800 
 45 H        2.0200    -4.8400     1.3720 H     1 <1>   0.0800 
@<TRIPOS>BOND
  1   1   2  2   
  2   1   3  2   
  3   1   4  am  
  4   1   5  1   
  5   4   6  1   
  6   4   7  1   
  7   5   8  ar  
  8   5   9  ar  
  9   6  10  1   
 10   6  27  1   
 11   6  28  1   
 12   7  11  1   
 13   7  29  1   
 14   7  30  1   
 15   8  12  ar  
 16   8  13  1   
 17   9  14  ar  
 18   9  31  1   
 19  10  15  1   
 20  10  16  1   
 21  10  17  1   
 22  11  16  1   
 23  11  32  1   
 24  11  33  1   
 25  12  18  ar  
 26  12  34  1   
 27  13  19  1   
 28  13  20  1   
 29  13  21  1   
 30  14  18  ar  
 31  14  35  1   
 32  15  22  ar  
 33  15  23  ar  
 34  16  24  1   
 35  16  36  1   
 36  17  25  1   
 37  17  37  1   
 38  17  38  1   
 39  18  39  1   
 40  24  40  1   
 41  25  26  1   
 42  25  41  1   
 43  25  42  1   
 44  26  43  1   
 45  26  44  1   
 46  26  45  1   
@<TRIPOS>SUBSTRUCTURE
  1 ****   4 GROUP 4 **** **** 0

# MOE 2024.06 (io_trps.svl 2023.06)
