@<TRIPOS>MOLECULE
NONAME
54 55 1 0 0 
SMALL
USER_CHARGES


@<TRIPOS>ATOM
  1 O       -0.8050     1.0930     2.7100 O.2   1 <1>  -0.5700 
  2 C       -0.4710     2.1480     2.2360 C.2   1 <1>   0.5690 
  3 N       -1.3620     3.1610     2.1210 N.am  1 <1>  -0.7300 
  4 C        0.9680     2.3390     1.7260 C.3   1 <1>   0.1810 
  5 C       -0.9690     4.5050     1.6510 C.3   1 <1>   0.3640 
  6 O        1.3130     3.6850     1.4400 O.3   1 <1>  -0.5600 
  7 C       -2.0910     5.1610     0.8490 C.ar  1 <1>  -0.1440 
  8 C        0.3000     4.4150     0.7770 C.3   1 <1>   0.2610 
  9 C       -2.3560     6.5080     1.0440 C.ar  1 <1>  -0.1500 
 10 C       -2.8140     4.4690    -0.1110 C.ar  1 <1>  -0.1500 
 11 C        0.7450     5.8280     0.3680 C.2   1 <1>   0.5690 
 12 C       -3.2910     7.1760     0.2740 C.ar  1 <1>   0.0820 
 13 C       -3.7600     5.1210    -0.8840 C.ar  1 <1>  -0.1500 
 14 O        0.7430     6.7190     1.1900 O.2   1 <1>  -0.5700 
 15 N        1.0510     6.1030    -0.9430 N.am  1 <1>  -0.6600 
 16 O       -3.4320     8.5040     0.5330 O.3   1 <1>  -0.3620 
 17 C       -4.0000     6.4830    -0.7170 C.ar  1 <1>   0.0820 
 18 C        0.3880     7.2310    -1.6800 C.3   1 <1>   0.1400 
 19 C        1.7450     5.1040    -1.8060 C.3   1 <1>   0.0600 
 20 C       -4.7360     9.0240     0.7010 C.3   1 <1>   0.0400 
 21 O       -4.8800     7.1640    -1.5040 O.3   1 <1>  -0.3630 
 22 C        1.0830     8.5950    -1.4830 C.3   1 <1>   0.3430 
 23 C       -5.7360     6.5020    -2.4110 C.3   1 <1>   0.0400 
 24 N        0.9220     9.1260    -0.0950 N.4   1 <1>  -0.9590 
 25 C       -0.4640     9.6180     0.1760 C.3   1 <1>   0.2630 
 26 C        1.9490    10.1490     0.2450 C.3   1 <1>   0.2630 
 27 H       -2.2980     3.0440     2.5140 H     1 <1>   0.3700 
 28 H        1.1000     1.7630     0.8280 H     1 <1>   0.0800 
 29 H        1.6560     1.9770     2.4680 H     1 <1>   0.0800 
 30 H       -0.7520     5.1110     2.5150 H     1 <1>   0.0800 
 31 H        0.0500     3.8750    -0.1170 H     1 <1>   0.0800 
 32 H       -1.8260     7.0630     1.7980 H     1 <1>   0.1500 
 33 H       -2.6400     3.4170    -0.2700 H     1 <1>   0.1500 
 34 H       -4.2920     4.5470    -1.6190 H     1 <1>   0.1500 
 35 H        0.3860     7.0050    -2.7320 H     1 <1>   0.0800 
 36 H       -0.6420     7.3000    -1.3750 H     1 <1>   0.0800 
 37 H        2.4780     5.5960    -2.4220 H     1 <1>   0.0800 
 38 H        1.0340     4.6000    -2.4380 H     1 <1>   0.0800 
 39 H        2.2540     4.3730    -1.1980 H     1 <1>   0.0800 
 40 H       -4.6710     9.9120     1.3030 H     1 <1>   0.0800 
 41 H       -5.3500     8.2900     1.1950 H     1 <1>   0.0800 
 42 H       -5.1440     9.2690    -0.2630 H     1 <1>   0.0800 
 43 H        0.6760     9.3050    -2.1830 H     1 <1>   0.0800 
 44 H        2.1300     8.4720    -1.7070 H     1 <1>   0.0800 
 45 H       -6.3820     7.2370    -2.8580 H     1 <1>   0.0800 
 46 H       -6.3240     5.7800    -1.8730 H     1 <1>   0.0800 
 47 H       -5.1430     6.0280    -3.1720 H     1 <1>   0.0800 
 48 H        1.0660     8.2980     0.5300 H     1 <1>   0.4500 
 49 H       -0.6950    10.4640    -0.4500 H     1 <1>   0.0800 
 50 H       -0.5600     9.9120     1.2080 H     1 <1>   0.0800 
 51 H       -1.1810     8.8380    -0.0180 H     1 <1>   0.0800 
 52 H        1.8390    11.0160    -0.3850 H     1 <1>   0.0800 
 53 H        2.9380     9.7430     0.1100 H     1 <1>   0.0800 
 54 H        1.8430    10.4530     1.2740 H     1 <1>   0.0800 
@<TRIPOS>BOND
  1   1   2  2   
  2   2   3  am  
  3   2   4  1   
  4   3   5  1   
  5   3  27  1   
  6   4   6  1   
  7   4  28  1   
  8   4  29  1   
  9   5   7  1   
 10   5   8  1   
 11   5  30  1   
 12   6   8  1   
 13   7   9  ar  
 14   7  10  ar  
 15   8  11  1   
 16   8  31  1   
 17   9  12  ar  
 18   9  32  1   
 19  10  13  ar  
 20  10  33  1   
 21  11  14  2   
 22  11  15  am  
 23  12  16  1   
 24  12  17  ar  
 25  13  17  ar  
 26  13  34  1   
 27  15  18  1   
 28  15  19  1   
 29  16  20  1   
 30  17  21  1   
 31  18  22  1   
 32  18  35  1   
 33  18  36  1   
 34  19  37  1   
 35  19  38  1   
 36  19  39  1   
 37  20  40  1   
 38  20  41  1   
 39  20  42  1   
 40  21  23  1   
 41  22  24  1   
 42  22  43  1   
 43  22  44  1   
 44  23  45  1   
 45  23  46  1   
 46  23  47  1   
 47  24  25  1   
 48  24  26  1   
 49  24  48  1   
 50  25  49  1   
 51  25  50  1   
 52  25  51  1   
 53  26  52  1   
 54  26  53  1   
 55  26  54  1   
@<TRIPOS>SUBSTRUCTURE
  1 ****   7 GROUP 4 **** **** 0

# MOE 2024.06 (io_trps.svl 2023.06)
