@<TRIPOS>MOLECULE
NONAME
49 51 1 0 0 
SMALL
USER_CHARGES


@<TRIPOS>ATOM
  1 F       -3.6260    -0.1870     1.4430 F     1 <1>  -0.1900 
  2 C       -3.1410     0.6010     0.5210 C.ar  1 <1>   0.1900 
  3 C       -2.6550     0.0510    -0.6620 C.ar  1 <1>   0.0860 
  4 C       -3.1430     1.9590     0.7780 C.ar  1 <1>  -0.1500 
  5 C       -2.6660    -1.3710    -0.9220 C.2   1 <1>   0.5440 
  6 C       -2.1420     0.9480    -1.5980 C.ar  1 <1>  -0.1500 
  7 C       -2.6370     2.8280    -0.1740 C.ar  1 <1>  -0.1440 
  8 O       -1.6050    -1.9530    -1.0440 O.2   1 <1>  -0.5700 
  9 N       -3.8360    -2.0860    -1.0690 N.am  1 <1>  -0.6600 
 10 C       -2.1350     2.3130    -1.3600 C.ar  1 <1>  -0.1500 
 11 C       -2.6200     4.3270     0.0690 C.3   1 <1>  -0.0970 
 12 C       -5.2080    -1.4940    -1.0700 C.3   1 <1>   0.1400 
 13 C       -3.8570    -3.5800    -1.1210 C.3   1 <1>   0.1400 
 14 C       -6.0860    -2.1670     0.0000 C.3   1 <1>   0.2950 
 15 C       -4.8300    -4.1550    -0.0670 C.3   1 <1>   0.2000 
 16 O       -6.0890    -3.5530    -0.1870 O.3   1 <1>  -0.5600 
 17 C       -7.5370    -1.6840    -0.0760 C.3   1 <1>  -0.1950 
 18 C       -5.0490    -5.6670    -0.2080 C.3   1 <1>  -0.1600 
 19 C       -7.9700    -0.4330     0.6240 C.3   1 <1>  -0.2000 
 20 C       -8.4480    -1.7740     1.1070 C.3   1 <1>  -0.2000 
 21 C       -3.7750    -6.4880     0.0510 C.3   1 <1>  -0.1600 
 22 C       -4.0690    -7.9910    -0.0090 C.3   1 <1>  -0.1600 
 23 C       -2.8020    -8.8110     0.2460 C.3   1 <1>  -0.2400 
 24 H       -3.5340     2.3220     1.7120 H     1 <1>   0.1500 
 25 H       -1.7400     0.5610    -2.5190 H     1 <1>   0.1500 
 26 H       -1.7320     2.9780    -2.1050 H     1 <1>   0.1500 
 27 H       -3.0620     4.8410    -0.7660 H     1 <1>   0.0800 
 28 H       -1.6060     4.6660     0.1880 H     1 <1>   0.0800 
 29 H       -3.1730     4.5800     0.9550 H     1 <1>   0.0800 
 30 H       -5.1780    -0.4360    -0.8890 H     1 <1>   0.0800 
 31 H       -5.6550    -1.6480    -2.0360 H     1 <1>   0.0800 
 32 H       -4.1650    -3.8940    -2.1020 H     1 <1>   0.0800 
 33 H       -2.8720    -3.9730    -0.9440 H     1 <1>   0.0800 
 34 H       -5.6890    -1.9610     0.9800 H     1 <1>   0.0800 
 35 H       -4.4540    -3.9430     0.9200 H     1 <1>   0.0800 
 36 H       -7.9730    -1.8790    -1.0410 H     1 <1>   0.1000 
 37 H       -5.8020    -5.9630     0.5020 H     1 <1>   0.0800 
 38 H       -5.4190    -5.8780    -1.1960 H     1 <1>   0.0800 
 39 H       -7.2660     0.1050     1.2360 H     1 <1>   0.1000 
 40 H       -8.6750     0.2180     0.1370 H     1 <1>   0.1000 
 41 H       -9.4730    -2.0570     0.9420 H     1 <1>   0.1000 
 42 H       -8.0560    -2.1710     2.0280 H     1 <1>   0.1000 
 43 H       -3.0270    -6.2490    -0.6840 H     1 <1>   0.0800 
 44 H       -3.3820    -6.2410     1.0230 H     1 <1>   0.0800 
 45 H       -4.8100    -8.2460     0.7300 H     1 <1>   0.0800 
 46 H       -4.4650    -8.2440    -0.9790 H     1 <1>   0.0800 
 47 H       -2.4000    -8.5900     1.2200 H     1 <1>   0.0800 
 48 H       -2.0540    -8.5890    -0.4960 H     1 <1>   0.0800 
 49 H       -3.0280    -9.8610     0.2000 H     1 <1>   0.0800 
@<TRIPOS>BOND
  1   1   2  1   
  2   2   3  ar  
  3   2   4  ar  
  4   3   5  1   
  5   3   6  ar  
  6   4   7  ar  
  7   4  24  1   
  8   5   8  2   
  9   5   9  am  
 10   6  10  ar  
 11   6  25  1   
 12   7  10  ar  
 13   7  11  1   
 14   9  12  1   
 15   9  13  1   
 16  10  26  1   
 17  11  27  1   
 18  11  28  1   
 19  11  29  1   
 20  12  14  1   
 21  12  30  1   
 22  12  31  1   
 23  13  15  1   
 24  13  32  1   
 25  13  33  1   
 26  14  16  1   
 27  14  17  1   
 28  14  34  1   
 29  15  16  1   
 30  15  18  1   
 31  15  35  1   
 32  17  19  1   
 33  17  20  1   
 34  17  36  1   
 35  18  21  1   
 36  18  37  1   
 37  18  38  1   
 38  19  20  1   
 39  19  39  1   
 40  19  40  1   
 41  20  41  1   
 42  20  42  1   
 43  21  22  1   
 44  21  43  1   
 45  21  44  1   
 46  22  23  1   
 47  22  45  1   
 48  22  46  1   
 49  23  47  1   
 50  23  48  1   
 51  23  49  1   
@<TRIPOS>SUBSTRUCTURE
  1 ****   9 GROUP 4 **** **** 0

# MOE 2024.06 (io_trps.svl 2023.06)
