@<TRIPOS>MOLECULE
NONAME
35 36 1 0 0 
SMALL
USER_CHARGES


@<TRIPOS>ATOM
  1 O       -0.0670    -0.9950     1.7230 O.2   1 <1>  -0.5700 
  2 C       -0.2210    -1.8340     0.8630 C.2   1 <1>   0.5690 
  3 N        0.8490    -2.4030     0.2140 N.am  1 <1>  -0.6600 
  4 C       -1.6670    -2.2510     0.4850 C.3   1 <1>   0.3500 
  5 C        0.6280    -3.5010    -0.7650 C.3   1 <1>   0.1400 
  6 C        2.2570    -1.9800     0.4430 C.3   1 <1>   0.0600 
  7 N       -1.8190    -3.6220    -0.1380 N.pl3 1 <1>  -0.8210 
  8 C       -2.2670    -1.2450    -0.5020 C.3   1 <1>  -0.2400 
  9 C       -0.5510    -4.3920    -0.3420 C.3   1 <1>   0.2090 
 10 C       -2.9350    -4.3610     0.2580 C.2   1 <1>   0.5990 
 11 N       -4.0240    -3.8780     0.7210 N.2   1 <1>  -0.4100 
 12 N       -2.9480    -5.6860     0.1670 N.2   1 <1>  -0.5650 
 13 O       -4.8190    -4.8870     0.9600 O.3   1 <1>  -0.0190 
 14 C       -4.1140    -5.9320     0.6040 C.2   1 <1>   0.2980 
 15 C       -4.7320    -7.3100     0.7430 C.3   1 <1>   0.0200 
 16 C       -5.9010    -7.5090    -0.2330 C.3   1 <1>  -0.1600 
 17 C       -6.5140    -8.9070    -0.1040 C.3   1 <1>  -0.2400 
 18 H       -2.2360    -2.2110     1.3970 H     1 <1>   0.0800 
 19 H        1.5130    -4.1080    -0.8350 H     1 <1>   0.0800 
 20 H        0.4280    -3.0790    -1.7350 H     1 <1>   0.0800 
 21 H        2.2960    -1.1440     1.1200 H     1 <1>   0.0800 
 22 H        2.7060    -1.6870    -0.4900 H     1 <1>   0.0800 
 23 H        2.8170    -2.7940     0.8690 H     1 <1>   0.0800 
 24 H       -1.7120    -1.2550    -1.4220 H     1 <1>   0.0800 
 25 H       -2.2230    -0.2570    -0.0830 H     1 <1>   0.0800 
 26 H       -3.2950    -1.4880    -0.7000 H     1 <1>   0.0800 
 27 H       -0.2960    -4.9040     0.5700 H     1 <1>   0.0800 
 28 H       -0.7120    -5.1350    -1.1040 H     1 <1>   0.0800 
 29 H       -5.0710    -7.4350     1.7550 H     1 <1>   0.0800 
 30 H       -3.9730    -8.0480     0.5500 H     1 <1>   0.0800 
 31 H       -5.5480    -7.3660    -1.2410 H     1 <1>   0.0800 
 32 H       -6.6600    -6.7690    -0.0410 H     1 <1>   0.0800 
 33 H       -5.7800    -9.6640    -0.3190 H     1 <1>   0.0800 
 34 H       -7.3280    -9.0160    -0.7990 H     1 <1>   0.0800 
 35 H       -6.8940    -9.0640     0.8910 H     1 <1>   0.0800 
@<TRIPOS>BOND
  1   1   2  2   
  2   2   3  am  
  3   2   4  1   
  4   3   5  1   
  5   3   6  1   
  6   4   7  1   
  7   4   8  1   
  8   4  18  1   
  9   5   9  1   
 10   5  19  1   
 11   5  20  1   
 12   6  21  1   
 13   6  22  1   
 14   6  23  1   
 15   7   9  1   
 16   7  10  1   
 17   8  24  1   
 18   8  25  1   
 19   8  26  1   
 20   9  27  1   
 21   9  28  1   
 22  10  11  2   
 23  10  12  1   
 24  11  13  1   
 25  12  14  2   
 26  13  14  1   
 27  14  15  1   
 28  15  16  1   
 29  15  29  1   
 30  15  30  1   
 31  16  17  1   
 32  16  31  1   
 33  16  32  1   
 34  17  33  1   
 35  17  34  1   
 36  17  35  1   
@<TRIPOS>SUBSTRUCTURE
  1 ****  10 GROUP 4 **** **** 0

# MOE 2024.06 (io_trps.svl 2023.06)
