@<TRIPOS>MOLECULE
NONAME
23 24 1 0 0 
SMALL
USER_CHARGES


@<TRIPOS>ATOM
  1 O        6.5360     0.6980     0.3030 O.3   1 <1>  -0.5600 
  2 C        5.3630     0.0170     0.6460 C.3   1 <1>   0.2950 
  3 C        6.4830     2.0900     0.4110 C.3   1 <1>   0.1200 
  4 C        5.6610    -1.4840     0.5250 C.3   1 <1>  -0.1950 
  5 C        4.2080     0.4960    -0.2690 C.3   1 <1>   0.3430 
  6 C        5.4060     2.6560    -0.5340 C.3   1 <1>   0.3430 
  7 C        5.6640    -2.2300    -0.7730 C.3   1 <1>  -0.2000 
  8 C        4.6060    -2.5150     0.2580 C.3   1 <1>  -0.2000 
  9 N        4.0770     1.9980    -0.3010 N.4   1 <1>  -0.9060 
 10 H        5.1320     0.2390     1.6740 H     1 <1>   0.0800 
 11 H        7.4520     2.4740     0.1390 H     1 <1>   0.0800 
 12 H        6.2880     2.3550     1.4360 H     1 <1>   0.0800 
 13 H        6.4210    -1.7690     1.2340 H     1 <1>   0.1000 
 14 H        3.2870     0.0490     0.0650 H     1 <1>   0.0800 
 15 H        4.4050     0.1330    -1.2640 H     1 <1>   0.0800 
 16 H        5.7250     2.4830    -1.5490 H     1 <1>   0.0800 
 17 H        5.3240     3.7220    -0.3910 H     1 <1>   0.0800 
 18 H        6.4370    -2.9640    -0.9360 H     1 <1>   0.1000 
 19 H        5.3830    -1.7380    -1.6880 H     1 <1>   0.1000 
 20 H        3.5920    -2.2440     0.0230 H     1 <1>   0.1000 
 21 H        4.6570    -3.4520     0.7890 H     1 <1>   0.1000 
 22 H        3.6910     2.3230     0.5940 H     1 <1>   0.4500 
 23 H        3.4130     2.2750    -1.0370 H     1 <1>   0.4500 
@<TRIPOS>BOND
  1   1   2  1   
  2   1   3  1   
  3   2   4  1   
  4   2   5  1   
  5   2  10  1   
  6   3   6  1   
  7   3  11  1   
  8   3  12  1   
  9   4   7  1   
 10   4   8  1   
 11   4  13  1   
 12   5   9  1   
 13   5  14  1   
 14   5  15  1   
 15   6   9  1   
 16   6  16  1   
 17   6  17  1   
 18   7   8  1   
 19   7  18  1   
 20   7  19  1   
 21   8  20  1   
 22   8  21  1   
 23   9  22  1   
 24   9  23  1   
@<TRIPOS>SUBSTRUCTURE
  1 ****   2 GROUP 4 **** **** 0

# MOE 2024.06 (io_trps.svl 2023.06)
