@<TRIPOS>MOLECULE
NONAME
48 51 1 0 0 
SMALL
USER_CHARGES


@<TRIPOS>ATOM
  1 S       -0.1220    -0.4030    -1.6640 S.o2  1 <1>   1.4470 
  2 O       -0.0220    -1.8400    -1.4930 O.2   1 <1>  -0.6500 
  3 O       -0.1870     0.1440    -2.9990 O.2   1 <1>  -0.6500 
  4 N       -1.5620     0.0260    -0.8740 N.am  1 <1>  -0.8490 
  5 C        1.1670     0.4400    -0.7080 C.ar  1 <1>  -0.0090 
  6 C       -1.7690    -0.7360     0.3830 C.3   1 <1>   0.1960 
  7 C       -2.7150    -0.0110    -1.8090 C.3   1 <1>   0.1960 
  8 C        1.0000     1.7560    -0.2880 C.ar  1 <1>  -0.1500 
  9 C        2.3600    -0.2030    -0.3870 C.ar  1 <1>  -0.1500 
 10 C       -2.6440    -1.9690     0.0870 C.3   1 <1>   0.4230 
 11 C       -4.0600    -0.2450    -1.0990 C.3   1 <1>  -0.1600 
 12 C        1.9860     2.4060     0.4330 C.ar  1 <1>   0.0830 
 13 C        3.3510     0.4350     0.3410 C.ar  1 <1>  -0.1500 
 14 N       -2.6120    -3.0700     1.0820 N.4   1 <1>  -0.9060 
 15 C       -4.0840    -1.4980    -0.1660 C.3   1 <1>  -0.1060 
 16 O        1.7840     3.6950     0.8050 O.3   1 <1>  -0.3630 
 17 C        3.1660     1.7390     0.7600 C.ar  1 <1>   0.0830 
 18 C       -3.3200    -4.2760     0.5810 C.3   1 <1>   0.3430 
 19 C       -4.7600    -1.1080     1.1600 C.2   1 <1>   0.9060 
 20 C       -4.8240    -2.6960    -0.8050 C.3   1 <1>  -0.1600 
 21 C        2.9200     4.4230     1.2340 C.3   1 <1>   0.1200 
 22 O        4.1390     2.3430     1.4850 O.3   1 <1>  -0.3630 
 23 C       -4.7460    -3.9310     0.1200 C.3   1 <1>  -0.1600 
 24 O       -5.8980    -0.6480     1.1320 O.co2 1 <1>  -0.9000 
 25 O       -4.1640    -1.3210     2.2290 O.co2 1 <1>  -0.9000 
 26 C        3.7990     3.5500     2.1420 C.3   1 <1>   0.1200 
 27 H       -0.8230    -1.0320     0.8030 H     1 <1>   0.0800 
 28 H       -2.2590    -0.0970     1.0990 H     1 <1>   0.0800 
 29 H       -2.7490     0.9150    -2.3600 H     1 <1>   0.0800 
 30 H       -2.5770    -0.8050    -2.5270 H     1 <1>   0.0800 
 31 H        0.0950     2.2880    -0.5270 H     1 <1>   0.1500 
 32 H        2.5180    -1.2180    -0.7120 H     1 <1>   0.1500 
 33 H       -2.2660    -2.3780    -0.8340 H     1 <1>   0.0800 
 34 H       -4.2670     0.6410    -0.5200 H     1 <1>   0.0800 
 35 H       -4.8480    -0.3120    -1.8280 H     1 <1>   0.0800 
 36 H        4.2680    -0.0720     0.5870 H     1 <1>   0.1500 
 37 H       -1.6650    -3.2610     1.4100 H     1 <1>   0.4500 
 38 H       -3.1570    -2.6580     1.8840 H     1 <1>   0.4500 
 39 H       -2.7710    -4.6860    -0.2510 H     1 <1>   0.0800 
 40 H       -3.3650    -5.0220     1.3570 H     1 <1>   0.0800 
 41 H       -5.8580    -2.4360    -0.9620 H     1 <1>   0.0800 
 42 H       -4.3910    -2.9290    -1.7630 H     1 <1>   0.0800 
 43 H        3.4700     4.7280     0.3620 H     1 <1>   0.0800 
 44 H        2.5750     5.2950     1.7590 H     1 <1>   0.0800 
 45 H       -5.1670    -4.7810    -0.3870 H     1 <1>   0.0800 
 46 H       -5.3550    -3.7590     0.9920 H     1 <1>   0.0800 
 47 H        3.2710     3.3020     3.0460 H     1 <1>   0.0800 
 48 H        4.7110     4.0590     2.3940 H     1 <1>   0.0800 
@<TRIPOS>BOND
  1   1   2  2   
  2   1   3  2   
  3   1   4  am  
  4   1   5  1   
  5   4   6  1   
  6   4   7  1   
  7   5   8  ar  
  8   5   9  ar  
  9   6  10  1   
 10   6  27  1   
 11   6  28  1   
 12   7  11  1   
 13   7  29  1   
 14   7  30  1   
 15   8  12  ar  
 16   8  31  1   
 17   9  13  ar  
 18   9  32  1   
 19  10  14  1   
 20  10  15  1   
 21  10  33  1   
 22  11  15  1   
 23  11  34  1   
 24  11  35  1   
 25  12  16  1   
 26  12  17  ar  
 27  13  17  ar  
 28  13  36  1   
 29  14  18  1   
 30  14  37  1   
 31  14  38  1   
 32  15  19  1   
 33  15  20  1   
 34  16  21  1   
 35  17  22  1   
 36  18  23  1   
 37  18  39  1   
 38  18  40  1   
 39  19  24  ar  
 40  19  25  ar  
 41  20  23  1   
 42  20  41  1   
 43  20  42  1   
 44  21  26  1   
 45  21  43  1   
 46  21  44  1   
 47  22  26  1   
 48  23  45  1   
 49  23  46  1   
 50  26  47  1   
 51  26  48  1   
@<TRIPOS>SUBSTRUCTURE
  1 ****   6 GROUP 4 **** **** 0

# MOE 2024.06 (io_trps.svl 2023.06)
