@<TRIPOS>MOLECULE
NONAME
37 38 1 0 0 
SMALL
USER_CHARGES


@<TRIPOS>ATOM
  1 CL       0.8340    -2.0080    -3.7030 Cl    1 <1>  -0.1770 
  2 C        1.7850    -1.9610    -2.2280 C.ar  1 <1>   0.1770 
  3 C        1.5850    -2.8910    -1.2150 C.ar  1 <1>   0.4100 
  4 C        2.7450    -1.0040    -2.0510 C.ar  1 <1>   0.1600 
  5 N        2.3140    -2.8440    -0.1140 N.ar  1 <1>  -0.6200 
  6 N        0.6380    -3.8860    -1.3140 N.pl3 1 <1>  -0.8690 
  7 N        3.4780    -0.9480    -0.9510 N.ar  1 <1>  -0.6200 
  8 C        3.2120    -1.8770    -0.0470 C.ar  1 <1>   0.4770 
  9 C        0.3980    -4.9250    -0.2940 C.3   1 <1>   0.2090 
 10 C        4.0420    -1.8320     1.2140 C.3   1 <1>  -0.0970 
 11 C       -0.9830    -5.5330    -0.5230 C.3   1 <1>  -0.1600 
 12 C       -1.3030    -6.5960     0.5320 C.3   1 <1>   0.0210 
 13 C       -2.6830    -7.1800     0.2860 C.2   1 <1>  -0.1810 
 14 C       -2.9910    -8.3000    -0.4850 C.2   1 <1>   0.1080 
 15 C       -3.8740    -6.7440     0.7500 C.2   1 <1>  -0.3320 
 16 N       -4.2610    -8.5520    -0.5010 N.2   1 <1>  -0.7070 
 17 C       -1.9990    -9.1610    -1.2340 C.3   1 <1>  -0.0590 
 18 N       -4.8070    -7.5890     0.2620 N.pl3 1 <1>   0.3000 
 19 C       -4.2140    -5.5590     1.6380 C.3   1 <1>  -0.0600 
 20 H        2.9210    -0.2720    -2.8190 H     1 <1>   0.1500 
 21 H        0.1170    -3.9770    -2.1910 H     1 <1>   0.4000 
 22 H        0.4500    -4.4840     0.6880 H     1 <1>   0.0800 
 23 H        1.1610    -5.6810    -0.3730 H     1 <1>   0.0800 
 24 H        3.4640    -2.1830     2.0480 H     1 <1>   0.0800 
 25 H        4.3610    -0.8250     1.4110 H     1 <1>   0.0800 
 26 H        4.9050    -2.4580     1.0920 H     1 <1>   0.0800 
 27 H       -1.0220    -5.9820    -1.4990 H     1 <1>   0.0800 
 28 H       -1.7260    -4.7560    -0.4710 H     1 <1>   0.0800 
 29 H       -1.2750    -6.1570     1.5140 H     1 <1>   0.0800 
 30 H       -0.5690    -7.3820     0.5040 H     1 <1>   0.0800 
 31 H       -1.3150    -8.5440    -1.7850 H     1 <1>   0.0800 
 32 H       -2.5210    -9.8010    -1.9220 H     1 <1>   0.0800 
 33 H       -1.4540    -9.7710    -0.5380 H     1 <1>   0.0800 
 34 H       -5.8180    -7.5370     0.4290 H     1 <1>   0.2700 
 35 H       -3.3300    -4.9920     1.8680 H     1 <1>   0.0800 
 36 H       -4.6510    -5.9000     2.5590 H     1 <1>   0.0800 
 37 H       -4.9110    -4.9100     1.1380 H     1 <1>   0.0800 
@<TRIPOS>BOND
  1   1   2  1   
  2   2   3  ar  
  3   2   4  ar  
  4   3   5  ar  
  5   3   6  1   
  6   4   7  ar  
  7   4  20  1   
  8   5   8  ar  
  9   6   9  1   
 10   6  21  1   
 11   7   8  ar  
 12   8  10  1   
 13   9  11  1   
 14   9  22  1   
 15   9  23  1   
 16  10  24  1   
 17  10  25  1   
 18  10  26  1   
 19  11  12  1   
 20  11  27  1   
 21  11  28  1   
 22  12  13  1   
 23  12  29  1   
 24  12  30  1   
 25  13  14  1   
 26  13  15  2   
 27  14  16  2   
 28  14  17  1   
 29  15  18  1   
 30  15  19  1   
 31  16  18  1   
 32  17  31  1   
 33  17  32  1   
 34  17  33  1   
 35  18  34  1   
 36  19  35  1   
 37  19  36  1   
 38  19  37  1   
@<TRIPOS>SUBSTRUCTURE
  1 ****   9 GROUP 4 **** **** 0

# MOE 2024.06 (io_trps.svl 2023.06)
