@<TRIPOS>MOLECULE
NONAME
42 43 1 0 0 
SMALL
USER_CHARGES


@<TRIPOS>ATOM
  1 S        0.7460    -0.3870    -0.8720 S.o2  1 <1>   1.3330 
  2 O        0.3020    -0.6550    -2.2210 O.2   1 <1>  -0.6500 
  3 O        1.9600    -1.0070    -0.3880 O.2   1 <1>  -0.6500 
  4 N       -0.5230    -0.8450     0.1610 N.am  1 <1>  -0.8490 
  5 C        0.8580     1.3950    -0.6400 C.3   1 <1>  -0.0550 
  6 C       -0.3790    -2.2230     0.6420 C.3   1 <1>   0.1160 
  7 C       -1.8530    -0.6650    -0.4320 C.3   1 <1>   0.1160 
  8 C        1.5910     1.9210     0.6180 C.3   1 <1>  -0.0800 
  9 C        3.0910     1.6110     0.6260 C.3   1 <1>   0.2200 
 10 C        1.1000     1.4060     1.9770 C.3   1 <1>   0.1200 
 11 N        3.8500     2.8810     0.6950 N.am  1 <1>  -0.7300 
 12 C        3.2710     0.8240     1.9220 C.3   1 <1>   0.1200 
 13 O        2.2480     1.2710     2.7500 O.3   1 <1>  -0.5600 
 14 C        4.1660     3.6500    -0.3860 C.2   1 <1>   0.5440 
 15 O        3.7560     3.3030    -1.4760 O.2   1 <1>  -0.5700 
 16 C        4.9450     4.8690    -0.2420 C.ar  1 <1>   0.0860 
 17 C        5.7770     5.0870     0.8570 C.ar  1 <1>  -0.1500 
 18 C        4.8910     5.8740    -1.2130 C.ar  1 <1>  -0.1500 
 19 C        6.4910     6.2630     0.9490 C.ar  1 <1>   0.1900 
 20 C        5.6140     7.0590    -1.1200 C.ar  1 <1>   0.0730 
 21 F        7.2600     6.4480     1.9860 F     1 <1>  -0.1900 
 22 C        6.4270     7.2510    -0.0110 C.ar  1 <1>  -0.1500 
 23 C        5.5230     8.0630    -2.1430 C.1   1 <1>   0.4840 
 24 N        5.4520     8.8650    -2.9490 N.1   1 <1>  -0.5570 
 25 H        1.3690     1.8050    -1.4910 H     1 <1>   0.0800 
 26 H       -0.1320     1.8050    -0.6520 H     1 <1>   0.0800 
 27 H       -1.1930    -2.4780     1.2990 H     1 <1>   0.0800 
 28 H        0.5410    -2.3270     1.1930 H     1 <1>   0.0800 
 29 H       -0.3640    -2.9090    -0.1890 H     1 <1>   0.0800 
 30 H       -2.6160    -0.8770     0.2990 H     1 <1>   0.0800 
 31 H       -1.9830    -1.3250    -1.2740 H     1 <1>   0.0800 
 32 H       -1.9780     0.3500    -0.7680 H     1 <1>   0.0800 
 33 H        1.4540     2.9880     0.6220 H     1 <1>   0.0800 
 34 H        3.4190     1.0380    -0.2260 H     1 <1>   0.0800 
 35 H        0.6420     0.4370     1.9210 H     1 <1>   0.0800 
 36 H        0.4310     2.0960     2.4620 H     1 <1>   0.0800 
 37 H        3.9550     3.2450     1.6430 H     1 <1>   0.3700 
 38 H        4.2230     0.9940     2.3910 H     1 <1>   0.0800 
 39 H        3.1270    -0.2300     1.7540 H     1 <1>   0.0800 
 40 H        5.8780     4.3500     1.6320 H     1 <1>   0.1500 
 41 H        4.2590     5.7170    -2.0730 H     1 <1>   0.1500 
 42 H        7.0050     8.1520     0.1060 H     1 <1>   0.1500 
@<TRIPOS>BOND
  1   1   2  2   
  2   1   3  2   
  3   1   4  am  
  4   1   5  1   
  5   4   6  1   
  6   4   7  1   
  7   5   8  1   
  8   5  25  1   
  9   5  26  1   
 10   6  27  1   
 11   6  28  1   
 12   6  29  1   
 13   7  30  1   
 14   7  31  1   
 15   7  32  1   
 16   8   9  1   
 17   8  10  1   
 18   8  33  1   
 19   9  11  1   
 20   9  12  1   
 21   9  34  1   
 22  10  13  1   
 23  10  35  1   
 24  10  36  1   
 25  11  14  am  
 26  11  37  1   
 27  12  13  1   
 28  12  38  1   
 29  12  39  1   
 30  14  15  2   
 31  14  16  1   
 32  16  17  ar  
 33  16  18  ar  
 34  17  19  ar  
 35  17  40  1   
 36  18  20  ar  
 37  18  41  1   
 38  19  21  1   
 39  19  22  ar  
 40  20  22  ar  
 41  20  23  1   
 42  22  42  1   
 43  23  24  3   
@<TRIPOS>SUBSTRUCTURE
  1 ****  11 GROUP 4 **** **** 0

# MOE 2024.06 (io_trps.svl 2023.06)
