@<TRIPOS>MOLECULE
NONAME
56 59 1 0 0 
SMALL
USER_CHARGES


@<TRIPOS>ATOM
  1 O       -2.0390     0.6700    -3.2270 O.2   1 <1>  -0.5700 
  2 C       -2.5940     1.2610    -2.3200 C.2   1 <1>   0.6160 
  3 N       -3.6710     0.6490    -1.7150 N.am  1 <1>  -0.6600 
  4 C       -2.1020     2.5300    -1.8850 C.2   1 <1>   0.0290 
  5 C       -3.5860    -0.7950    -1.3960 C.3   1 <1>   0.1400 
  6 C       -4.7840     1.3860    -1.0570 C.3   1 <1>   0.1400 
  7 C       -1.5000     2.6070    -0.5920 C.2   1 <1>   0.4690 
  8 C       -2.1700     3.6490    -2.6670 C.2   1 <1>  -0.0500 
  9 C       -3.4460    -0.9640     0.1340 C.3   1 <1>   0.4230 
 10 C       -4.7140     1.1920     0.4640 C.3   1 <1>  -0.1600 
 11 O       -1.4160     1.6120     0.1280 O.2   1 <1>  -0.5700 
 12 C       -0.9990     3.8810    -0.1360 C.ar  1 <1>   0.0860 
 13 N       -1.7070     4.8510    -2.2270 N.pl3 1 <1>  -0.6000 
 14 N       -3.1440    -2.3940     0.5640 N.4   1 <1>  -0.9590 
 15 C       -4.6210    -0.2960     0.9120 C.3   1 <1>   0.0000 
 16 C       -1.1210     5.0000    -0.9750 C.ar  1 <1>   0.1000 
 17 C       -0.3960     4.0530     1.1150 C.ar  1 <1>  -0.1500 
 18 C       -3.4280    -2.6740     2.0080 C.3   1 <1>   0.3430 
 19 C       -3.7430    -3.4680    -0.2950 C.3   1 <1>   0.2630 
 20 C       -4.3160    -0.3320     2.4400 C.3   1 <1>  -0.1600 
 21 C       -5.9540    -1.0350     0.6030 C.3   1 <1>   0.1200 
 22 C       -0.6560     6.2440    -0.5570 C.ar  1 <1>  -0.1500 
 23 C        0.0660     5.2930     1.5250 C.ar  1 <1>   0.0820 
 24 C       -3.2880    -1.4050     2.8460 C.3   1 <1>  -0.1600 
 25 O       -7.0460    -0.3660     1.1300 O.3   1 <1>  -0.6800 
 26 C       -0.0700     6.3880     0.6810 C.ar  1 <1>  -0.1500 
 27 O        0.6590     5.5270     2.7230 O.3   1 <1>  -0.3620 
 28 C        0.9130     4.4780     3.6310 C.3   1 <1>   0.0400 
 29 H       -4.4630    -1.2830    -1.7770 H     1 <1>   0.0800 
 30 H       -2.7220    -1.2190    -1.8780 H     1 <1>   0.0800 
 31 H       -4.7310     2.4350    -1.2950 H     1 <1>   0.0800 
 32 H       -5.7240     1.0150    -1.4320 H     1 <1>   0.0800 
 33 H       -2.5950     3.6020    -3.6580 H     1 <1>   0.1500 
 34 H       -2.5750    -0.3860     0.3980 H     1 <1>   0.0800 
 35 H       -3.8580     1.7350     0.8200 H     1 <1>   0.0800 
 36 H       -5.5710     1.6690     0.9090 H     1 <1>   0.0800 
 37 H       -1.7580     5.6810    -2.8320 H     1 <1>   0.4000 
 38 H       -2.1210    -2.4670     0.4610 H     1 <1>   0.4500 
 39 H       -0.3010     3.1930     1.7500 H     1 <1>   0.1500 
 40 H       -4.4330    -3.0460     2.1170 H     1 <1>   0.0800 
 41 H       -2.7510    -3.4300     2.3740 H     1 <1>   0.0800 
 42 H       -4.8190    -3.4130    -0.2740 H     1 <1>   0.0800 
 43 H       -3.4420    -4.4400     0.0590 H     1 <1>   0.0800 
 44 H       -3.4120    -3.3650    -1.3160 H     1 <1>   0.0800 
 45 H       -3.9310     0.6170     2.7740 H     1 <1>   0.0800 
 46 H       -5.2240    -0.4940     2.9960 H     1 <1>   0.0800 
 47 H       -5.9580    -2.0280     1.0120 H     1 <1>   0.0800 
 48 H       -6.1280    -1.1030    -0.4560 H     1 <1>   0.0800 
 49 H       -0.7540     7.0970    -1.2040 H     1 <1>   0.1500 
 50 H       -3.4240    -1.6490     3.8850 H     1 <1>   0.0800 
 51 H       -2.2880    -1.0190     2.7390 H     1 <1>   0.0800 
 52 H       -7.0010    -0.2910     2.1030 H     1 <1>   0.4000 
 53 H        0.2920     7.3460     1.0120 H     1 <1>   0.1500 
 54 H        1.4100     4.8920     4.4890 H     1 <1>   0.0800 
 55 H        1.5480     3.7510     3.1570 H     1 <1>   0.0800 
 56 H       -0.0230     4.0390     3.9280 H     1 <1>   0.0800 
@<TRIPOS>BOND
  1   1   2  2   
  2   2   3  am  
  3   2   4  1   
  4   3   5  1   
  5   3   6  1   
  6   4   7  1   
  7   4   8  2   
  8   5   9  1   
  9   5  29  1   
 10   5  30  1   
 11   6  10  1   
 12   6  31  1   
 13   6  32  1   
 14   7  11  2   
 15   7  12  1   
 16   8  13  1   
 17   8  33  1   
 18   9  14  1   
 19   9  15  1   
 20   9  34  1   
 21  10  15  1   
 22  10  35  1   
 23  10  36  1   
 24  12  16  ar  
 25  12  17  ar  
 26  13  16  1   
 27  13  37  1   
 28  14  18  1   
 29  14  19  1   
 30  14  38  1   
 31  15  20  1   
 32  15  21  1   
 33  16  22  ar  
 34  17  23  ar  
 35  17  39  1   
 36  18  24  1   
 37  18  40  1   
 38  18  41  1   
 39  19  42  1   
 40  19  43  1   
 41  19  44  1   
 42  20  24  1   
 43  20  45  1   
 44  20  46  1   
 45  21  25  1   
 46  21  47  1   
 47  21  48  1   
 48  22  26  ar  
 49  22  49  1   
 50  23  26  ar  
 51  23  27  1   
 52  24  50  1   
 53  24  51  1   
 54  25  52  1   
 55  26  53  1   
 56  27  28  1   
 57  28  54  1   
 58  28  55  1   
 59  28  56  1   
@<TRIPOS>SUBSTRUCTURE
  1 ****  11 GROUP 4 **** **** 0

# MOE 2024.06 (io_trps.svl 2023.06)
