@<TRIPOS>MOLECULE
NONAME
52 55 1 0 0 
SMALL
USER_CHARGES


@<TRIPOS>ATOM
  1 O       -0.5040    -0.0140     1.2570 O.2   1 <1>  -0.5700 
  2 C       -1.2470     0.5220     0.4680 C.2   1 <1>   0.5690 
  3 N       -2.0890    -0.2250    -0.3200 N.am  1 <1>  -0.6600 
  4 C       -1.1790     2.0560     0.4260 C.3   1 <1>  -0.0190 
  5 C       -2.1790    -1.7070    -0.0820 C.3   1 <1>   0.3210 
  6 C       -2.9220     0.2670    -1.4720 C.3   1 <1>   0.1400 
  7 C       -2.5140     2.7420     0.7900 C.3   1 <1>  -0.1600 
  8 C       -0.5300     2.6100    -0.8670 C.3   1 <1>  -0.1600 
  9 C       -3.6010    -2.1950    -0.3070 C.2   1 <1>  -0.1810 
 10 C       -4.4220    -0.0090    -1.2540 C.3   1 <1>   0.0200 
 11 C       -2.3720     4.2720     0.9220 C.3   1 <1>   0.2000 
 12 C       -1.0110     4.0260    -1.2320 C.3   1 <1>  -0.1600 
 13 C       -4.1210    -3.4750    -0.0220 C.ar  1 <1>   0.0000 
 14 C       -4.6020    -1.4480    -0.8200 C.2   1 <1>  -0.3320 
 15 O       -3.6040     4.8490     0.5630 O.3   1 <1>  -0.5600 
 16 C       -1.2480     4.8620     0.0270 C.3   1 <1>   0.2000 
 17 C       -5.4650    -3.4380    -0.3830 C.ar  1 <1>  -0.1520 
 18 C       -3.5810    -4.6520     0.5050 C.ar  1 <1>  -0.1500 
 19 N       -5.7510    -2.1830    -0.8690 N.pl3 1 <1>   0.0330 
 20 C       -4.5630     4.8730     1.5750 C.3   1 <1>   0.0400 
 21 O       -1.6010     6.1360    -0.3680 O.3   1 <1>  -0.6800 
 22 C       -6.2800    -4.5610    -0.2280 C.ar  1 <1>  -0.1500 
 23 C       -4.3780    -5.7630     0.6610 C.ar  1 <1>   0.0820 
 24 C       -5.7370    -5.7140     0.2910 C.ar  1 <1>  -0.1500 
 25 O       -3.7870    -6.8760     1.1790 O.3   1 <1>  -0.3620 
 26 C       -4.5320    -8.0480     1.4190 C.3   1 <1>   0.0400 
 27 H       -0.5070     2.3280     1.2230 H     1 <1>   0.0800 
 28 H       -1.5120    -2.2160    -0.7550 H     1 <1>   0.0800 
 29 H       -1.8910    -1.9430     0.9280 H     1 <1>   0.0800 
 30 H       -2.7760     1.3130    -1.6520 H     1 <1>   0.0800 
 31 H       -2.6050    -0.2580    -2.3560 H     1 <1>   0.0800 
 32 H       -2.8730     2.3390     1.7200 H     1 <1>   0.0800 
 33 H       -3.2470     2.5330     0.0350 H     1 <1>   0.0800 
 34 H        0.5360     2.6310    -0.7180 H     1 <1>   0.0800 
 35 H       -0.7040     1.9570    -1.7030 H     1 <1>   0.0800 
 36 H       -4.9510     0.1730    -2.1720 H     1 <1>   0.0800 
 37 H       -4.8100     0.6500    -0.4990 H     1 <1>   0.0800 
 38 H       -2.1470     4.5360     1.9420 H     1 <1>   0.0800 
 39 H       -1.9330     3.9600    -1.7820 H     1 <1>   0.0800 
 40 H       -0.2760     4.5050    -1.8560 H     1 <1>   0.0800 
 41 H       -0.3290     4.9330     0.5830 H     1 <1>   0.0800 
 42 H       -2.5460    -4.6840     0.7870 H     1 <1>   0.1500 
 43 H       -6.6690    -1.8750    -1.2030 H     1 <1>   0.2700 
 44 H       -5.4520     5.3350     1.1830 H     1 <1>   0.0800 
 45 H       -4.1910     5.4510     2.4030 H     1 <1>   0.0800 
 46 H       -4.7870     3.8670     1.8850 H     1 <1>   0.0800 
 47 H       -2.5860     6.1530    -0.3570 H     1 <1>   0.4000 
 48 H       -7.3160    -4.5150    -0.5120 H     1 <1>   0.1500 
 49 H       -6.3670    -6.5740     0.4080 H     1 <1>   0.1500 
 50 H       -3.8710    -8.7830     1.8420 H     1 <1>   0.0800 
 51 H       -4.9260    -8.4080     0.4850 H     1 <1>   0.0800 
 52 H       -5.3220    -7.8240     2.1130 H     1 <1>   0.0800 
@<TRIPOS>BOND
  1   1   2  2   
  2   2   3  am  
  3   2   4  1   
  4   3   5  1   
  5   3   6  1   
  6   4   7  1   
  7   4   8  1   
  8   4  27  1   
  9   5   9  1   
 10   5  28  1   
 11   5  29  1   
 12   6  10  1   
 13   6  30  1   
 14   6  31  1   
 15   7  11  1   
 16   7  32  1   
 17   7  33  1   
 18   8  12  1   
 19   8  34  1   
 20   8  35  1   
 21   9  13  1   
 22   9  14  2   
 23  10  14  1   
 24  10  36  1   
 25  10  37  1   
 26  11  15  1   
 27  11  16  1   
 28  11  38  1   
 29  12  16  1   
 30  12  39  1   
 31  12  40  1   
 32  13  17  ar  
 33  13  18  ar  
 34  14  19  1   
 35  15  20  1   
 36  16  21  1   
 37  16  41  1   
 38  17  19  1   
 39  17  22  ar  
 40  18  23  ar  
 41  18  42  1   
 42  19  43  1   
 43  20  44  1   
 44  20  45  1   
 45  20  46  1   
 46  21  47  1   
 47  22  24  ar  
 48  22  48  1   
 49  23  24  ar  
 50  23  25  1   
 51  24  49  1   
 52  25  26  1   
 53  26  50  1   
 54  26  51  1   
 55  26  52  1   
@<TRIPOS>SUBSTRUCTURE
  1 ****   3 GROUP 4 **** **** 0

# MOE 2024.06 (io_trps.svl 2023.06)
