@<TRIPOS>MOLECULE
NONAME
50 51 1 0 0 
SMALL
USER_CHARGES


@<TRIPOS>ATOM
  1 S        1.0360     1.8190    -0.9030 S.o2  1 <1>   1.3330 
  2 O        2.3180     2.2970    -0.4290 O.2   1 <1>  -0.6500 
  3 O        0.2260     2.7330    -1.6720 O.2   1 <1>  -0.6500 
  4 N        1.2360     0.3650    -1.7440 N.am  1 <1>  -0.8490 
  5 C        0.0690     1.3590     0.5400 C.3   1 <1>  -0.0550 
  6 C        1.1650     0.5250    -3.2020 C.3   1 <1>   0.1160 
  7 C        2.4460    -0.3810    -1.3760 C.3   1 <1>   0.1160 
  8 C       -0.2460     2.4990     1.5460 C.3   1 <1>  -0.0800 
  9 C       -1.0800     3.6360     0.9410 C.3   1 <1>   0.2000 
 10 C        1.0010     3.2140     2.0770 C.3   1 <1>   0.3430 
 11 O       -1.9310     4.1200     1.9270 O.3   1 <1>  -0.6800 
 12 C       -0.0830     4.7360     0.5410 C.3   1 <1>   0.3430 
 13 N        1.2340     4.3540     1.1540 N.4   1 <1>  -0.9590 
 14 C        1.9980     5.4910     1.7320 C.3   1 <1>   0.4860 
 15 C        2.1260     6.5850     0.6880 C.ar  1 <1>  -0.1430 
 16 C        2.9560     6.4660    -0.4270 C.ar  1 <1>  -0.1430 
 17 C        1.3710     7.7380     0.8600 C.ar  1 <1>  -0.1500 
 18 C        2.9990     7.4950    -1.3550 C.ar  1 <1>  -0.1500 
 19 C        3.8340     5.2490    -0.6940 C.3   1 <1>  -0.0970 
 20 C        1.4240     8.7570    -0.0700 C.ar  1 <1>  -0.1500 
 21 C        2.2330     8.6440    -1.1850 C.ar  1 <1>   0.0820 
 22 O        2.2230     9.6840    -2.0530 O.3   1 <1>  -0.3630 
 23 C        3.0150     9.6800    -3.2200 C.3   1 <1>   0.0400 
 24 H       -0.8590     0.9360     0.2040 H     1 <1>   0.0800 
 25 H        0.5910     0.5810     1.0620 H     1 <1>   0.0800 
 26 H        1.2560    -0.4310    -3.6880 H     1 <1>   0.0800 
 27 H        1.9530     1.1740    -3.5480 H     1 <1>   0.0800 
 28 H        0.2160     0.9530    -3.4810 H     1 <1>   0.0800 
 29 H        2.4580    -1.3360    -1.8750 H     1 <1>   0.0800 
 30 H        2.4680    -0.5550    -0.3140 H     1 <1>   0.0800 
 31 H        3.3290     0.1710    -1.6560 H     1 <1>   0.0800 
 32 H       -0.7770     2.0460     2.3660 H     1 <1>   0.0800 
 33 H       -1.6920     3.3250     0.1090 H     1 <1>   0.0800 
 34 H        1.8560     2.5560     2.1140 H     1 <1>   0.0800 
 35 H        0.7990     3.5870     3.0680 H     1 <1>   0.0800 
 36 H       -1.4660     4.4410     2.7220 H     1 <1>   0.4000 
 37 H       -0.4260     5.6930     0.8950 H     1 <1>   0.0800 
 38 H        0.0160     4.7780    -0.5320 H     1 <1>   0.0800 
 39 H        1.8220     3.9980     0.3740 H     1 <1>   0.4500 
 40 H        1.4860     5.8780     2.5970 H     1 <1>   0.0800 
 41 H        2.9790     5.1650     2.0360 H     1 <1>   0.0800 
 42 H        0.7310     7.8610     1.7170 H     1 <1>   0.1500 
 43 H        3.6350     7.3930    -2.2140 H     1 <1>   0.1500 
 44 H        4.7600     5.5570    -1.1490 H     1 <1>   0.0800 
 45 H        3.3370     4.5820    -1.3760 H     1 <1>   0.0800 
 46 H        4.0820     4.7160     0.2040 H     1 <1>   0.0800 
 47 H        0.8400     9.6520     0.0590 H     1 <1>   0.1500 
 48 H        2.8350    10.5980    -3.7490 H     1 <1>   0.0800 
 49 H        2.7290     8.8440    -3.8340 H     1 <1>   0.0800 
 50 H        4.0510     9.6170    -2.9390 H     1 <1>   0.0800 
@<TRIPOS>BOND
  1   1   2  2   
  2   1   3  2   
  3   1   4  am  
  4   1   5  1   
  5   4   6  1   
  6   4   7  1   
  7   5   8  1   
  8   5  24  1   
  9   5  25  1   
 10   6  26  1   
 11   6  27  1   
 12   6  28  1   
 13   7  29  1   
 14   7  30  1   
 15   7  31  1   
 16   8   9  1   
 17   8  10  1   
 18   8  32  1   
 19   9  11  1   
 20   9  12  1   
 21   9  33  1   
 22  10  13  1   
 23  10  34  1   
 24  10  35  1   
 25  11  36  1   
 26  12  13  1   
 27  12  37  1   
 28  12  38  1   
 29  13  14  1   
 30  13  39  1   
 31  14  15  1   
 32  14  40  1   
 33  14  41  1   
 34  15  16  ar  
 35  15  17  ar  
 36  16  18  ar  
 37  16  19  1   
 38  17  20  ar  
 39  17  42  1   
 40  18  21  ar  
 41  18  43  1   
 42  19  44  1   
 43  19  45  1   
 44  19  46  1   
 45  20  21  ar  
 46  20  47  1   
 47  21  22  1   
 48  22  23  1   
 49  23  48  1   
 50  23  49  1   
 51  23  50  1   
@<TRIPOS>SUBSTRUCTURE
  1 ****  13 GROUP 4 **** **** 0

# MOE 2024.06 (io_trps.svl 2023.06)
