@<TRIPOS>MOLECULE
NONAME
43 45 1 0 0 
SMALL
USER_CHARGES


@<TRIPOS>ATOM
  1 F        0.6900    -3.5880     2.0750 F     1 <1>  -0.3400 
  2 C        0.0300    -3.5760     0.9220 C.3   1 <1>   1.1640 
  3 F       -0.1520    -4.8490     0.5900 F     1 <1>  -0.3400 
  4 F        0.8610    -3.0690     0.0220 F     1 <1>  -0.3400 
  5 C       -1.2850    -2.7830     1.0050 C.ar  1 <1>  -0.1440 
  6 C       -2.4010    -3.1650     0.2680 C.ar  1 <1>  -0.1500 
  7 C       -1.3810    -1.6550     1.8130 C.ar  1 <1>  -0.1500 
  8 C       -3.6040    -2.4640     0.3230 C.ar  1 <1>   0.0860 
  9 C       -2.5600    -0.9350     1.8780 C.ar  1 <1>  -0.1500 
 10 C       -4.7520    -2.8990    -0.4540 C.2   1 <1>   0.5440 
 11 C       -3.6560    -1.3350     1.1390 C.ar  1 <1>  -0.1500 
 12 O       -4.5990    -3.1490    -1.6350 O.2   1 <1>  -0.5700 
 13 N       -6.0050    -3.0510     0.1090 N.am  1 <1>  -0.6600 
 14 C       -7.1940    -3.2150    -0.7810 C.3   1 <1>   0.2200 
 15 C       -6.1920    -3.2250     1.5820 C.3   1 <1>   0.0600 
 16 C       -7.5830    -4.6770    -0.9620 C.3   1 <1>  -0.1600 
 17 C       -8.4710    -2.5390    -0.2840 C.3   1 <1>  -0.1600 
 18 C       -9.0230    -4.6260    -1.4900 C.3   1 <1>  -0.0800 
 19 C       -9.5990    -3.2600    -1.0360 C.3   1 <1>  -0.0800 
 20 C       -9.8470    -5.8670    -1.0930 C.3   1 <1>   0.1400 
 21 C      -10.9050    -3.3590    -0.2220 C.3   1 <1>  -0.0990 
 22 N      -11.2880    -5.5660    -1.2100 N.am  1 <1>  -0.7300 
 23 C      -11.8330    -4.3960    -0.8180 C.2   1 <1>   0.5690 
 24 O      -13.0120    -4.1820    -0.9230 O.2   1 <1>  -0.5700 
 25 H       -2.3570    -4.0270    -0.3790 H     1 <1>   0.1500 
 26 H       -0.5350    -1.3260     2.3960 H     1 <1>   0.1500 
 27 H       -2.6220    -0.0600     2.5030 H     1 <1>   0.1500 
 28 H       -4.5680    -0.7660     1.1840 H     1 <1>   0.1500 
 29 H       -6.9710    -2.8070    -1.7540 H     1 <1>   0.0800 
 30 H       -6.9000    -4.0100     1.7810 H     1 <1>   0.0800 
 31 H       -6.5540    -2.3080     2.0120 H     1 <1>   0.0800 
 32 H       -5.2630    -3.4900     2.0560 H     1 <1>   0.0800 
 33 H       -6.9220    -5.1670    -1.6550 H     1 <1>   0.0800 
 34 H       -7.5520    -5.1840    -0.0160 H     1 <1>   0.0800 
 35 H       -8.5980    -2.6870     0.7710 H     1 <1>   0.0800 
 36 H       -8.4640    -1.4860    -0.5010 H     1 <1>   0.0800 
 37 H       -8.9720    -4.6080    -2.5660 H     1 <1>   0.0800 
 38 H       -9.8170    -2.7000    -1.9310 H     1 <1>   0.0800 
 39 H       -9.6410    -6.1420    -0.0730 H     1 <1>   0.0800 
 40 H       -9.5920    -6.6970    -1.7300 H     1 <1>   0.0800 
 41 H      -11.4000    -2.4050    -0.1980 H     1 <1>   0.0800 
 42 H      -10.6990    -3.6570     0.7890 H     1 <1>   0.0800 
 43 H      -11.9160    -6.2790    -1.5860 H     1 <1>   0.3700 
@<TRIPOS>BOND
  1   1   2  1   
  2   2   3  1   
  3   2   4  1   
  4   2   5  1   
  5   5   6  ar  
  6   5   7  ar  
  7   6   8  ar  
  8   6  25  1   
  9   7   9  ar  
 10   7  26  1   
 11   8  10  1   
 12   8  11  ar  
 13   9  11  ar  
 14   9  27  1   
 15  10  12  2   
 16  10  13  am  
 17  11  28  1   
 18  13  14  1   
 19  13  15  1   
 20  14  16  1   
 21  14  17  1   
 22  14  29  1   
 23  15  30  1   
 24  15  31  1   
 25  15  32  1   
 26  16  18  1   
 27  16  33  1   
 28  16  34  1   
 29  17  19  1   
 30  17  35  1   
 31  17  36  1   
 32  18  19  1   
 33  18  20  1   
 34  18  37  1   
 35  19  21  1   
 36  19  38  1   
 37  20  22  1   
 38  20  39  1   
 39  20  40  1   
 40  21  23  1   
 41  21  41  1   
 42  21  42  1   
 43  22  23  am  
 44  22  43  1   
 45  23  24  2   
@<TRIPOS>SUBSTRUCTURE
  1 ****  13 GROUP 4 **** **** 0

# MOE 2024.06 (io_trps.svl 2023.06)
