@<TRIPOS>MOLECULE
NONAME
51 53 1 0 0 
SMALL
USER_CHARGES


@<TRIPOS>ATOM
  1 O       -6.1580    -2.1500     3.6050 O.2   1 <1>  -0.5700 
  2 C       -5.8360    -1.8150     2.4800 C.2   1 <1>   0.5410 
  3 C       -6.1290    -2.5970     1.3360 C.2   1 <1>  -0.1360 
  4 C       -5.1420    -0.6000     2.2330 C.2   1 <1>  -0.1360 
  5 C       -5.7800    -2.1920     0.0830 C.2   1 <1>   0.0910 
  6 C       -4.8040    -0.2450     0.9730 C.2   1 <1>  -0.0620 
  7 O       -5.1160    -1.0270    -0.0660 O.3   1 <1>  -0.1530 
  8 C       -6.0500    -2.9500    -1.1210 C.2   1 <1>   0.6160 
  9 C       -4.0630     1.0210     0.5930 C.3   1 <1>  -0.1020 
 10 O       -5.8050    -4.1440    -1.1160 O.2   1 <1>  -0.5700 
 11 N       -6.6160    -2.4060    -2.2610 N.am  1 <1>  -0.6600 
 12 C       -7.0720    -3.3110    -3.3580 C.3   1 <1>   0.1400 
 13 C       -7.1870    -1.0330    -2.3460 C.3   1 <1>   0.1400 
 14 C       -8.3220    -4.1190    -2.9550 C.3   1 <1>   0.1400 
 15 C       -8.6230    -0.9830    -1.8070 C.3   1 <1>  -0.1600 
 16 N       -9.2590    -3.3710    -2.0460 N.am  1 <1>  -0.6600 
 17 C       -9.5910    -1.9800    -2.4620 C.3   1 <1>   0.1400 
 18 C       -9.6980    -3.8370    -0.8300 C.2   1 <1>   0.5690 
 19 O      -10.4310    -3.1760    -0.1320 O.2   1 <1>  -0.5700 
 20 C       -9.2810    -5.2080    -0.3250 C.3   1 <1>  -0.0990 
 21 C       -9.8410    -5.5140     1.0710 C.3   1 <1>   0.0960 
 22 N       -9.5160    -6.8990     1.4590 N.pl3 1 <1>   0.3140 
 23 N       -8.3040    -7.2150     1.9490 N.2   1 <1>  -0.7070 
 24 C      -10.3080    -7.9940     1.3660 C.2   1 <1>  -0.3320 
 25 C       -8.3510    -8.4940     2.1600 C.2   1 <1>   0.1390 
 26 C       -9.5800    -9.0390     1.8140 C.2   1 <1>  -0.1500 
 27 C      -11.7370    -7.9980     0.8480 C.3   1 <1>  -0.0600 
 28 H       -6.6390    -3.5270     1.5090 H     1 <1>   0.1500 
 29 H       -4.9120    -0.0030     3.0950 H     1 <1>   0.1500 
 30 H       -3.1420     0.7710     0.0970 H     1 <1>   0.0800 
 31 H       -3.8360     1.6050     1.4670 H     1 <1>   0.0800 
 32 H       -4.6650     1.6140    -0.0710 H     1 <1>   0.0800 
 33 H       -6.2790    -3.9940    -3.6120 H     1 <1>   0.0800 
 34 H       -7.2890    -2.7360    -4.2400 H     1 <1>   0.0800 
 35 H       -7.1810    -0.7140    -3.3740 H     1 <1>   0.0800 
 36 H       -6.5780    -0.3350    -1.8040 H     1 <1>   0.0800 
 37 H       -7.9820    -5.0230    -2.4860 H     1 <1>   0.0800 
 38 H       -8.8530    -4.4090    -3.8440 H     1 <1>   0.0800 
 39 H       -9.0030     0.0080    -1.9760 H     1 <1>   0.0800 
 40 H       -8.6170    -1.1350    -0.7430 H     1 <1>   0.0800 
 41 H       -9.5580    -1.8950    -3.5340 H     1 <1>   0.0800 
 42 H      -10.5960    -1.7520    -2.1480 H     1 <1>   0.0800 
 43 H       -8.2080    -5.2500    -0.2750 H     1 <1>   0.0800 
 44 H       -9.6340    -5.9470    -1.0190 H     1 <1>   0.0800 
 45 H      -10.9080    -5.3890     1.0850 H     1 <1>   0.0800 
 46 H       -9.4110    -4.8480     1.7950 H     1 <1>   0.0800 
 47 H       -7.5240    -9.0570     2.5570 H     1 <1>   0.1500 
 48 H       -9.8580   -10.0740     1.8980 H     1 <1>   0.1500 
 49 H      -11.7690    -7.6310    -0.1620 H     1 <1>   0.0800 
 50 H      -12.3590    -7.3770     1.4680 H     1 <1>   0.0800 
 51 H      -12.1320    -8.9980     0.8620 H     1 <1>   0.0800 
@<TRIPOS>BOND
  1   1   2  2   
  2   2   3  1   
  3   2   4  1   
  4   3   5  2   
  5   3  28  1   
  6   4   6  2   
  7   4  29  1   
  8   5   7  1   
  9   5   8  1   
 10   6   7  1   
 11   6   9  1   
 12   8  10  2   
 13   8  11  am  
 14   9  30  1   
 15   9  31  1   
 16   9  32  1   
 17  11  12  1   
 18  11  13  1   
 19  12  14  1   
 20  12  33  1   
 21  12  34  1   
 22  13  15  1   
 23  13  35  1   
 24  13  36  1   
 25  14  16  1   
 26  14  37  1   
 27  14  38  1   
 28  15  17  1   
 29  15  39  1   
 30  15  40  1   
 31  16  17  1   
 32  16  18  am  
 33  17  41  1   
 34  17  42  1   
 35  18  19  2   
 36  18  20  1   
 37  20  21  1   
 38  20  43  1   
 39  20  44  1   
 40  21  22  1   
 41  21  45  1   
 42  21  46  1   
 43  22  23  1   
 44  22  24  1   
 45  23  25  2   
 46  24  26  2   
 47  24  27  1   
 48  25  26  1   
 49  25  47  1   
 50  26  48  1   
 51  27  49  1   
 52  27  50  1   
 53  27  51  1   
@<TRIPOS>SUBSTRUCTURE
  1 ****  18 GROUP 4 **** **** 0

# MOE 2024.06 (io_trps.svl 2023.06)
