@<TRIPOS>MOLECULE
NONAME
54 57 1 0 0 
SMALL
USER_CHARGES


@<TRIPOS>ATOM
  1 O        0.3510    -0.2120     0.5400 O.3   1 <1>  -0.5600 
  2 C        1.4420    -0.7000    -0.1980 C.3   1 <1>   0.4240 
  3 C       -0.8910    -0.8250     0.3450 C.3   1 <1>   0.1200 
  4 C        1.3860    -2.2230    -0.4090 C.ar  1 <1>  -0.1440 
  5 C        2.6740    -0.3290     0.6320 C.3   1 <1>  -0.1600 
  6 C        1.4630     0.0570    -1.5320 C.3   1 <1>  -0.1600 
  7 C       -0.8090    -2.2810     0.7970 C.3   1 <1>  -0.0160 
  8 C        0.3240    -2.9760     0.0680 C.ar  1 <1>  -0.1440 
  9 C        2.4050    -2.8780    -1.0870 C.ar  1 <1>  -0.1500 
 10 C        2.7490     1.1810     0.8440 C.3   1 <1>   0.3430 
 11 C        1.5420     1.5640    -1.2920 C.3   1 <1>   0.3430 
 12 C        0.2940    -4.3480    -0.1200 C.ar  1 <1>  -0.1500 
 13 C        2.3920    -4.2470    -1.2940 C.ar  1 <1>   0.0830 
 14 N        2.7330     1.9000    -0.4630 N.4   1 <1>  -0.9590 
 15 C        1.3200    -5.0070    -0.7950 C.ar  1 <1>   0.0830 
 16 O        3.4760    -4.7040    -1.9880 O.3   1 <1>  -0.3630 
 17 C        4.0300     1.8090    -1.1870 C.3   1 <1>   0.5240 
 18 O        1.2910    -6.3620    -0.9650 O.3   1 <1>  -0.3620 
 19 C        3.5900    -6.0250    -2.4670 C.3   1 <1>   0.0400 
 20 C        5.0130     2.7010    -0.4450 C.2   1 <1>   0.0460 
 21 C        0.3070    -7.1810    -0.3720 C.3   1 <1>   0.0400 
 22 N        4.6060     3.9180    -0.0210 N.2   1 <1>  -0.5650 
 23 C        6.3010     2.4720    -0.0940 C.2   1 <1>  -0.3320 
 24 C        5.6520     4.4070     0.5630 C.2   1 <1>   0.0360 
 25 N        6.7160     3.5780     0.5540 N.pl3 1 <1>   0.0330 
 26 C        7.2080     1.2730    -0.3210 C.3   1 <1>  -0.0600 
 27 H       -1.1580    -0.7610    -0.6950 H     1 <1>   0.0800 
 28 H       -1.6200    -0.2930     0.9300 H     1 <1>   0.0800 
 29 H        3.5730    -0.6780     0.1620 H     1 <1>   0.0800 
 30 H        2.6060    -0.8200     1.5870 H     1 <1>   0.0800 
 31 H        0.5740    -0.1750    -2.0890 H     1 <1>   0.0800 
 32 H        2.2960    -0.2600    -2.1300 H     1 <1>   0.0800 
 33 H       -1.7430    -2.7700     0.5860 H     1 <1>   0.0800 
 34 H       -0.6390    -2.3210     1.8580 H     1 <1>   0.0800 
 35 H        3.2440    -2.3360    -1.4780 H     1 <1>   0.1500 
 36 H        3.6390     1.4350     1.3970 H     1 <1>   0.0800 
 37 H        1.8950     1.4880     1.4280 H     1 <1>   0.0800 
 38 H        0.6500     1.8760    -0.7720 H     1 <1>   0.0800 
 39 H        1.5830     2.0880    -2.2340 H     1 <1>   0.0800 
 40 H       -0.5450    -4.8900     0.2690 H     1 <1>   0.1500 
 41 H        2.7150     2.9100    -0.2250 H     1 <1>   0.4500 
 42 H        3.9190     2.1860    -2.1890 H     1 <1>   0.0800 
 43 H        4.3880     0.7950    -1.2260 H     1 <1>   0.0800 
 44 H        4.4790    -6.0900    -3.0670 H     1 <1>   0.0800 
 45 H        2.7260    -6.2550    -3.0650 H     1 <1>   0.0800 
 46 H        3.6660    -6.6940    -1.6290 H     1 <1>   0.0800 
 47 H        0.5400    -8.2040    -0.6070 H     1 <1>   0.0800 
 48 H       -0.6540    -6.9240    -0.7800 H     1 <1>   0.0800 
 49 H        0.3290    -7.0380     0.6940 H     1 <1>   0.0800 
 50 H        5.6930     5.3820     1.0200 H     1 <1>   0.1500 
 51 H        7.6420     3.7650     0.9540 H     1 <1>   0.2700 
 52 H        6.6940     0.4940    -0.8550 H     1 <1>   0.0800 
 53 H        7.5420     0.8750     0.6210 H     1 <1>   0.0800 
 54 H        8.0700     1.5650    -0.8950 H     1 <1>   0.0800 
@<TRIPOS>BOND
  1   1   2  1   
  2   1   3  1   
  3   2   4  1   
  4   2   5  1   
  5   2   6  1   
  6   3   7  1   
  7   3  27  1   
  8   3  28  1   
  9   4   8  ar  
 10   4   9  ar  
 11   5  10  1   
 12   5  29  1   
 13   5  30  1   
 14   6  11  1   
 15   6  31  1   
 16   6  32  1   
 17   7   8  1   
 18   7  33  1   
 19   7  34  1   
 20   8  12  ar  
 21   9  13  ar  
 22   9  35  1   
 23  10  14  1   
 24  10  36  1   
 25  10  37  1   
 26  11  14  1   
 27  11  38  1   
 28  11  39  1   
 29  12  15  ar  
 30  12  40  1   
 31  13  15  ar  
 32  13  16  1   
 33  14  17  1   
 34  14  41  1   
 35  15  18  1   
 36  16  19  1   
 37  17  20  1   
 38  17  42  1   
 39  17  43  1   
 40  18  21  1   
 41  19  44  1   
 42  19  45  1   
 43  19  46  1   
 44  20  22  1   
 45  20  23  2   
 46  21  47  1   
 47  21  48  1   
 48  21  49  1   
 49  22  24  2   
 50  23  25  1   
 51  23  26  1   
 52  24  25  1   
 53  24  50  1   
 54  25  51  1   
 55  26  52  1   
 56  26  53  1   
 57  26  54  1   
@<TRIPOS>SUBSTRUCTURE
  1 ****   2 GROUP 4 **** **** 0

# MOE 2024.06 (io_trps.svl 2023.06)
