@<TRIPOS>MOLECULE
NONAME
52 55 1 0 0 
SMALL
USER_CHARGES


@<TRIPOS>ATOM
  1 S        0.0680     0.5730     0.3920 S.3   1 <1>  -0.2420 
  2 C        1.7030     0.0070     0.0500 C.2   1 <1>   0.6410 
  3 C       -0.5530    -1.0910     0.4180 C.2   1 <1>  -0.0490 
  4 N        2.7080     0.7890    -0.0970 N.2   1 <1>  -0.6610 
  5 N        1.7100    -1.3770    -0.0280 N.pl3 1 <1>  -0.1080 
  6 C        0.4420    -1.9660     0.1800 C.2   1 <1>   0.2090 
  7 C        3.8710     0.1130    -0.3550 C.2   1 <1>   0.7810 
  8 N        2.8580    -2.0890    -0.2860 N.2   1 <1>  -0.4920 
  9 N        0.3910    -3.3640     0.1120 N.am  1 <1>  -0.5390 
 10 O        4.8830     0.7860    -0.5090 O.2   1 <1>  -0.5700 
 11 C        3.9020    -1.3360    -0.4420 C.2   1 <1>   0.3890 
 12 C       -0.6740    -4.1970     0.2770 C.2   1 <1>   0.5690 
 13 C        5.2270    -2.0280    -0.7320 C.3   1 <1>  -0.1790 
 14 O       -1.7870    -3.7970     0.5140 O.2   1 <1>  -0.5700 
 15 C       -0.4500    -5.6970     0.1550 C.3   1 <1>  -0.0190 
 16 C       -1.8100    -6.3890    -0.0150 C.3   1 <1>   0.3430 
 17 C        0.3000    -6.2560     1.3790 C.3   1 <1>  -0.1600 
 18 N       -1.6720    -7.8810    -0.0680 N.4   1 <1>  -0.9590 
 19 C        0.3670    -7.7900     1.3310 C.3   1 <1>  -0.1600 
 20 C       -2.9850    -8.5150    -0.3880 C.3   1 <1>   0.4230 
 21 C       -1.0200    -8.4150     1.1690 C.3   1 <1>   0.3430 
 22 C       -3.9900    -8.4320     0.7750 C.3   1 <1>  -0.1600 
 23 C       -2.7740    -9.9680    -0.8300 C.3   1 <1>  -0.1600 
 24 C       -5.3280    -9.0720     0.3780 C.3   1 <1>  -0.1600 
 25 C       -4.1100   -10.6140    -1.2300 C.3   1 <1>  -0.1600 
 26 C       -5.1340   -10.5200    -0.0910 C.3   1 <1>  -0.1600 
 27 H       -1.6030    -1.2230     0.6110 H     1 <1>   0.1500 
 28 H        1.3100    -3.7710    -0.0750 H     1 <1>   0.3700 
 29 H        5.6170    -1.6870    -1.6740 H     1 <1>   0.0800 
 30 H        5.1020    -3.0950    -0.7750 H     1 <1>   0.0800 
 31 H        5.9360    -1.7930     0.0410 H     1 <1>   0.0800 
 32 H        0.1300    -5.8710    -0.7340 H     1 <1>   0.0800 
 33 H       -2.2810    -6.0270    -0.9150 H     1 <1>   0.0800 
 34 H       -2.4410    -6.1140     0.8160 H     1 <1>   0.0800 
 35 H       -0.2110    -5.9520     2.2790 H     1 <1>   0.0800 
 36 H        1.2980    -5.8520     1.4210 H     1 <1>   0.0800 
 37 H       -1.0510    -8.1060    -0.8530 H     1 <1>   0.4500 
 38 H        0.8050    -8.1530     2.2450 H     1 <1>   0.0800 
 39 H        1.0020    -8.1110     0.5240 H     1 <1>   0.0800 
 40 H       -3.4180    -7.9900    -1.2250 H     1 <1>   0.0800 
 41 H       -0.9250    -9.4870     1.1090 H     1 <1>   0.0800 
 42 H       -1.6220    -8.1750     2.0310 H     1 <1>   0.0800 
 43 H       -4.1730    -7.4070     1.0440 H     1 <1>   0.0800 
 44 H       -3.6170    -8.9550     1.6380 H     1 <1>   0.0800 
 45 H       -2.3490   -10.5490    -0.0310 H     1 <1>   0.0800 
 46 H       -2.1100   -10.0030    -1.6750 H     1 <1>   0.0800 
 47 H       -5.7850    -8.5000    -0.4130 H     1 <1>   0.0800 
 48 H       -6.0020    -9.0570     1.2190 H     1 <1>   0.0800 
 49 H       -3.9510   -11.6490    -1.4840 H     1 <1>   0.0800 
 50 H       -4.5040   -10.1220    -2.1040 H     1 <1>   0.0800 
 51 H       -6.0780   -10.9190    -0.4250 H     1 <1>   0.0800 
 52 H       -4.8050   -11.1250     0.7380 H     1 <1>   0.0800 
@<TRIPOS>BOND
  1   1   2  1   
  2   1   3  1   
  3   2   4  2   
  4   2   5  1   
  5   3   6  2   
  6   3  27  1   
  7   4   7  1   
  8   5   6  1   
  9   5   8  1   
 10   6   9  1   
 11   7  10  2   
 12   7  11  1   
 13   8  11  2   
 14   9  12  am  
 15   9  28  1   
 16  11  13  1   
 17  12  14  2   
 18  12  15  1   
 19  13  29  1   
 20  13  30  1   
 21  13  31  1   
 22  15  16  1   
 23  15  17  1   
 24  15  32  1   
 25  16  18  1   
 26  16  33  1   
 27  16  34  1   
 28  17  19  1   
 29  17  35  1   
 30  17  36  1   
 31  18  20  1   
 32  18  21  1   
 33  18  37  1   
 34  19  21  1   
 35  19  38  1   
 36  19  39  1   
 37  20  22  1   
 38  20  23  1   
 39  20  40  1   
 40  21  41  1   
 41  21  42  1   
 42  22  24  1   
 43  22  43  1   
 44  22  44  1   
 45  23  25  1   
 46  23  45  1   
 47  23  46  1   
 48  24  26  1   
 49  24  47  1   
 50  24  48  1   
 51  25  26  1   
 52  25  49  1   
 53  25  50  1   
 54  26  51  1   
 55  26  52  1   
@<TRIPOS>SUBSTRUCTURE
  1 ****  12 GROUP 4 **** **** 0

# MOE 2024.06 (io_trps.svl 2023.06)
