@<TRIPOS>MOLECULE
NONAME
36 37 1 0 0 
SMALL
USER_CHARGES


@<TRIPOS>ATOM
  1 O       -0.0730     0.2700    -0.6520 O.2   1 <1>  -0.5700 
  2 C       -0.8990     1.1050    -0.3450 C.2   1 <1>   0.7800 
  3 O       -2.1440     0.7810     0.0010 O.3   1 <1>  -0.4300 
  4 N       -0.5900     2.4330    -0.3280 N.am  1 <1>  -0.6600 
  5 C       -2.7000    -0.5150     0.0610 C.3   1 <1>   0.2800 
  6 C        0.6910     3.0150    -0.7060 C.3   1 <1>   0.2200 
  7 C       -1.5260     3.5520    -0.0030 C.3   1 <1>   0.1400 
  8 C       -2.6860    -1.1620    -1.3290 C.3   1 <1>  -0.2400 
  9 C       -4.1480    -0.3080     0.5060 C.3   1 <1>  -0.2400 
 10 C       -1.9640    -1.3600     1.1070 C.3   1 <1>  -0.2400 
 11 C        0.7320     4.2090     0.1980 C.3   1 <1>   0.4230 
 12 C        2.0540     2.4180    -0.4230 C.3   1 <1>  -0.1600 
 13 C       -0.6400     4.8220     0.0040 C.3   1 <1>  -0.1600 
 14 N        2.0120     4.8510    -0.1330 N.4   1 <1>  -0.9060 
 15 C        2.9420     3.6780    -0.3190 C.3   1 <1>   0.3430 
 16 H        0.6300     3.3250    -1.7370 H     1 <1>   0.0800 
 17 H       -2.3090     3.6160    -0.7420 H     1 <1>   0.0800 
 18 H       -1.9660     3.3780     0.9660 H     1 <1>   0.0800 
 19 H       -3.2310    -2.0880    -1.3070 H     1 <1>   0.0800 
 20 H       -1.6840    -1.3860    -1.6450 H     1 <1>   0.0800 
 21 H       -3.1490    -0.5130    -2.0500 H     1 <1>   0.0800 
 22 H       -4.6540    -1.2530     0.5790 H     1 <1>   0.0800 
 23 H       -4.6740     0.3030    -0.2040 H     1 <1>   0.0800 
 24 H       -4.1790     0.1670     1.4710 H     1 <1>   0.0800 
 25 H       -2.4760    -2.2950     1.2460 H     1 <1>   0.0800 
 26 H       -1.9340    -0.8470     2.0510 H     1 <1>   0.0800 
 27 H       -0.9620    -1.5850     0.7920 H     1 <1>   0.0800 
 28 H        0.7910     3.8390     1.2100 H     1 <1>   0.0800 
 29 H        2.0540     1.8810     0.5100 H     1 <1>   0.0800 
 30 H        2.3780     1.7630    -1.2130 H     1 <1>   0.0800 
 31 H       -0.9160     5.4840     0.8060 H     1 <1>   0.0800 
 32 H       -0.7210     5.3270    -0.9430 H     1 <1>   0.0800 
 33 H        1.9260     5.3900    -1.0030 H     1 <1>   0.4500 
 34 H        2.3240     5.4800     0.6180 H     1 <1>   0.4500 
 35 H        3.5210     3.8030    -1.2210 H     1 <1>   0.0800 
 36 H        3.6170     3.5830     0.5170 H     1 <1>   0.0800 
@<TRIPOS>BOND
  1   1   2  2   
  2   2   3  1   
  3   2   4  am  
  4   3   5  1   
  5   4   6  1   
  6   4   7  1   
  7   5   8  1   
  8   5   9  1   
  9   5  10  1   
 10   6  11  1   
 11   6  12  1   
 12   6  16  1   
 13   7  13  1   
 14   7  17  1   
 15   7  18  1   
 16   8  19  1   
 17   8  20  1   
 18   8  21  1   
 19   9  22  1   
 20   9  23  1   
 21   9  24  1   
 22  10  25  1   
 23  10  26  1   
 24  10  27  1   
 25  11  13  1   
 26  11  14  1   
 27  11  28  1   
 28  12  15  1   
 29  12  29  1   
 30  12  30  1   
 31  13  31  1   
 32  13  32  1   
 33  14  15  1   
 34  14  33  1   
 35  14  34  1   
 36  15  35  1   
 37  15  36  1   
@<TRIPOS>SUBSTRUCTURE
  1 ****   4 GROUP 4 **** **** 0

# MOE 2024.06 (io_trps.svl 2023.06)
