@<TRIPOS>MOLECULE
NONAME
38 41 1 0 0 
SMALL
USER_CHARGES


@<TRIPOS>ATOM
  1 S       -1.0470     0.2650    -0.7800 S.3   1 <1>  -0.0800 
  2 C       -0.5660     1.8110    -0.1130 C.2   1 <1>  -0.1400 
  3 C        0.5210     0.0890    -1.5530 C.2   1 <1>  -0.1100 
  4 C        0.6880     2.1340    -0.4520 C.2   1 <1>  -0.1810 
  5 C       -1.4840     2.6510     0.7320 C.3   1 <1>   0.0200 
  6 C        1.3120     1.1470    -1.2870 C.2   1 <1>  -0.1500 
  7 C        1.3270     3.4380     0.0340 C.3   1 <1>   0.4610 
  8 C       -0.9060     4.0760     0.7510 C.3   1 <1>   0.1200 
  9 O        0.4820     4.0580     0.9890 O.3   1 <1>  -0.5600 
 10 C        2.6410     3.1440     0.7670 C.3   1 <1>  -0.1600 
 11 C        1.5640     4.4040    -1.1350 C.3   1 <1>  -0.1600 
 12 C        3.3380     4.4320     1.1960 C.3   1 <1>   0.2090 
 13 C        2.2810     5.6710    -0.6740 C.3   1 <1>   0.2090 
 14 N        3.5490     5.2770    -0.0070 N.pl3 1 <1>  -0.8380 
 15 C        4.6520     6.1350    -0.0260 C.ar  1 <1>   0.1000 
 16 C        4.6300     7.5260     0.0840 C.ar  1 <1>   0.1900 
 17 C        5.9240     5.6050    -0.1650 C.ar  1 <1>  -0.1500 
 18 F        3.4920     8.1650     0.2350 F     1 <1>  -0.1900 
 19 C        5.7930     8.2700     0.0510 C.ar  1 <1>   0.1600 
 20 C        7.0360     6.4280    -0.1870 C.ar  1 <1>   0.1600 
 21 N        7.0100     7.7510    -0.0830 N.ar  1 <1>  -0.6200 
 22 H        0.6870    -0.8010    -2.1330 H     1 <1>   0.1500 
 23 H       -1.5320     2.2540     1.7300 H     1 <1>   0.0800 
 24 H       -2.4740     2.6640     0.3150 H     1 <1>   0.0800 
 25 H        2.3180     1.2750    -1.6480 H     1 <1>   0.1500 
 26 H       -1.3670     4.6530     1.5330 H     1 <1>   0.0800 
 27 H       -1.0860     4.5650    -0.1890 H     1 <1>   0.0800 
 28 H        3.3050     2.6000     0.1220 H     1 <1>   0.0800 
 29 H        2.4390     2.5300     1.6250 H     1 <1>   0.0800 
 30 H        0.6350     4.6540    -1.6090 H     1 <1>   0.0800 
 31 H        2.1780     3.9210    -1.8720 H     1 <1>   0.0800 
 32 H        4.2830     4.2040     1.6590 H     1 <1>   0.0800 
 33 H        2.7310     4.9660     1.9080 H     1 <1>   0.0800 
 34 H        1.6630     6.2170     0.0190 H     1 <1>   0.0800 
 35 H        2.4940     6.3020    -1.5200 H     1 <1>   0.0800 
 36 H        6.0350     4.5420    -0.2610 H     1 <1>   0.1500 
 37 H        5.7210     9.3390     0.1420 H     1 <1>   0.1500 
 38 H        8.0070     5.9740    -0.2990 H     1 <1>   0.1500 
@<TRIPOS>BOND
  1   1   2  1   
  2   1   3  1   
  3   2   4  2   
  4   2   5  1   
  5   3   6  2   
  6   3  22  1   
  7   4   6  1   
  8   4   7  1   
  9   5   8  1   
 10   5  23  1   
 11   5  24  1   
 12   6  25  1   
 13   7   9  1   
 14   7  10  1   
 15   7  11  1   
 16   8   9  1   
 17   8  26  1   
 18   8  27  1   
 19  10  12  1   
 20  10  28  1   
 21  10  29  1   
 22  11  13  1   
 23  11  30  1   
 24  11  31  1   
 25  12  14  1   
 26  12  32  1   
 27  12  33  1   
 28  13  14  1   
 29  13  34  1   
 30  13  35  1   
 31  14  15  1   
 32  15  16  ar  
 33  15  17  ar  
 34  16  18  1   
 35  16  19  ar  
 36  17  20  ar  
 37  17  36  1   
 38  19  21  ar  
 39  19  37  1   
 40  20  21  ar  
 41  20  38  1   
@<TRIPOS>SUBSTRUCTURE
  1 ****  14 GROUP 4 **** **** 0

# MOE 2024.06 (io_trps.svl 2023.06)
