@<TRIPOS>MOLECULE
NONAME
39 41 1 0 0 
SMALL
USER_CHARGES


@<TRIPOS>ATOM
  1 O       -0.9970     0.0520    -0.4970 O.3   1 <1>  -0.3400 
  2 C       -0.6410     1.3570    -0.3890 C.ar  1 <1>   0.0830 
  3 C       -2.0450    -0.3530    -1.3610 C.3   1 <1>   0.2580 
  4 C        0.3210     1.6620     0.5610 C.ar  1 <1>  -0.1500 
  5 C       -1.1830     2.3770    -1.1670 C.ar  1 <1>  -0.1500 
  6 C       -3.4470    -0.0890    -0.7660 C.3   1 <1>   0.2450 
  7 C       -2.3670    -1.8540    -1.2020 C.3   1 <1>   0.2450 
  8 C        0.7480     2.9670     0.7450 C.ar  1 <1>  -0.1440 
  9 C       -0.7600     3.6820    -0.9830 C.ar  1 <1>  -0.1500 
 10 N       -3.8240    -1.4860    -1.1720 N.3   1 <1>  -0.5900 
 11 C        0.2010     3.9760    -0.0310 C.ar  1 <1>  -0.1500 
 12 C        1.8010     3.2960     1.7880 C.3   1 <1>  -0.0970 
 13 C       -4.7250    -2.2170    -0.4410 C.ar  1 <1>   0.7200 
 14 N       -5.7310    -1.5470     0.1200 N.ar  1 <1>  -0.6200 
 15 N       -4.5180    -3.5310    -0.3700 N.ar  1 <1>  -0.6200 
 16 C       -6.5900    -2.2560     0.8050 C.ar  1 <1>   0.1670 
 17 C       -5.3900    -4.2200     0.3200 C.ar  1 <1>   0.1670 
 18 C       -6.4610    -3.6180     0.9370 C.ar  1 <1>  -0.1500 
 19 C       -7.7380    -1.5080     1.4480 C.3   1 <1>  -0.0970 
 20 C       -5.1680    -5.7150     0.4090 C.3   1 <1>  -0.0970 
 21 H       -1.8890    -0.0360    -2.3770 H     1 <1>   0.0000 
 22 H        0.7300     0.8650     1.1550 H     1 <1>   0.1500 
 23 H       -1.9260     2.1800    -1.9150 H     1 <1>   0.1500 
 24 H       -4.0170     0.6460    -1.3070 H     1 <1>   0.0000 
 25 H       -3.4550     0.0310     0.3040 H     1 <1>   0.0000 
 26 H       -2.0440    -2.2750    -0.2650 H     1 <1>   0.0000 
 27 H       -2.1270    -2.4430    -2.0680 H     1 <1>   0.0000 
 28 H       -1.1780     4.4710    -1.5820 H     1 <1>   0.1500 
 29 H        0.5220     4.9940     0.1030 H     1 <1>   0.1500 
 30 H        2.3580     2.4160     2.0560 H     1 <1>   0.0800 
 31 H        1.3290     3.6900     2.6690 H     1 <1>   0.0800 
 32 H        2.4880     4.0280     1.4030 H     1 <1>   0.0800 
 33 H       -7.1720    -4.1920     1.5000 H     1 <1>   0.1500 
 34 H       -8.3090    -1.0060     0.6890 H     1 <1>   0.0800 
 35 H       -7.3500    -0.7740     2.1310 H     1 <1>   0.0800 
 36 H       -8.3850    -2.1770     1.9850 H     1 <1>   0.0800 
 37 H       -4.2130    -5.9090     0.8620 H     1 <1>   0.0800 
 38 H       -5.1740    -6.1370    -0.5790 H     1 <1>   0.0800 
 39 H       -5.9350    -6.1870     0.9940 H     1 <1>   0.0800 
@<TRIPOS>BOND
  1   1   2  1   
  2   1   3  1   
  3   2   4  ar  
  4   2   5  ar  
  5   3   6  1   
  6   3   7  1   
  7   3  21  1   
  8   4   8  ar  
  9   4  22  1   
 10   5   9  ar  
 11   5  23  1   
 12   6  10  1   
 13   6  24  1   
 14   6  25  1   
 15   7  10  1   
 16   7  26  1   
 17   7  27  1   
 18   8  11  ar  
 19   8  12  1   
 20   9  11  ar  
 21   9  28  1   
 22  10  13  1   
 23  11  29  1   
 24  12  30  1   
 25  12  31  1   
 26  12  32  1   
 27  13  14  ar  
 28  13  15  ar  
 29  14  16  ar  
 30  15  17  ar  
 31  16  18  ar  
 32  16  19  1   
 33  17  18  ar  
 34  17  20  1   
 35  18  33  1   
 36  19  34  1   
 37  19  35  1   
 38  19  36  1   
 39  20  37  1   
 40  20  38  1   
 41  20  39  1   
@<TRIPOS>SUBSTRUCTURE
  1 ****   6 GROUP 4 **** **** 0

# MOE 2024.06 (io_trps.svl 2023.06)
