@<TRIPOS>MOLECULE
NONAME
48 51 1 0 0 
SMALL
USER_CHARGES


@<TRIPOS>ATOM
  1 O        0.2370     1.2860     0.7510 O.2   1 <1>  -0.5700 
  2 C       -0.4950     2.0310     0.1290 C.2   1 <1>   0.5440 
  3 N       -1.8610     1.8730     0.2400 N.am  1 <1>  -0.6600 
  4 C        0.0950     3.0700    -0.6910 C.ar  1 <1>   0.0860 
  5 C       -2.8590     2.8940    -0.2120 C.3   1 <1>   0.1400 
  6 C       -2.4290     0.6980     0.9730 C.3   1 <1>   0.1400 
  7 C       -0.2120     3.2430    -2.0330 C.ar  1 <1>  -0.1500 
  8 C        1.0200     3.9690    -0.1810 C.ar  1 <1>  -0.1500 
  9 C       -3.6950     3.4280     0.9700 C.3   1 <1>   0.1440 
 10 C       -3.9100     0.8950     1.3370 C.3   1 <1>  -0.1600 
 11 C        0.3630     4.2730    -2.7530 C.ar  1 <1>   0.1600 
 12 C        1.5410     4.9650    -0.9840 C.ar  1 <1>   0.1600 
 13 C       -4.8560     4.1970     0.3660 C.ar  1 <1>   0.1660 
 14 C       -4.1500     2.2930     1.9290 C.3   1 <1>  -0.1600 
 15 C       -2.9320     4.5440     1.7340 C.3   1 <1>  -0.1600 
 16 N        1.2250     5.1450    -2.2560 N.ar  1 <1>  -0.6200 
 17 N       -5.9100     3.6590    -0.1960 N.ar  1 <1>  -0.6200 
 18 C       -4.6610     5.5420     0.4420 C.ar  1 <1>  -0.1430 
 19 C       -3.3550     5.8860     1.1110 C.3   1 <1>  -0.0170 
 20 C       -6.8030     4.5260    -0.6820 C.ar  1 <1>   0.7200 
 21 C       -5.6310     6.3570    -0.0840 C.ar  1 <1>   0.1600 
 22 N       -6.7060     5.8590    -0.6480 N.ar  1 <1>  -0.6200 
 23 N       -7.9290     3.9940    -1.2790 N.pl3 1 <1>  -0.8380 
 24 C       -8.0540     2.5430    -1.5890 C.3   1 <1>   0.1290 
 25 C       -9.1190     4.8290    -1.6030 C.3   1 <1>   0.1290 
 26 H       -3.5150     2.4300    -0.9280 H     1 <1>   0.0800 
 27 H       -2.3840     3.7220    -0.7040 H     1 <1>   0.0800 
 28 H       -1.8650     0.5540     1.8800 H     1 <1>   0.0800 
 29 H       -2.3130    -0.1850     0.3690 H     1 <1>   0.0800 
 30 H       -0.9010     2.5710    -2.5120 H     1 <1>   0.1500 
 31 H        1.3290     3.8820     0.8450 H     1 <1>   0.1500 
 32 H       -4.2020     0.1430     2.0480 H     1 <1>   0.0800 
 33 H       -4.5190     0.7610     0.4590 H     1 <1>   0.0800 
 34 H        0.1010     4.3890    -3.7910 H     1 <1>   0.1500 
 35 H        2.2560     5.6500    -0.5610 H     1 <1>   0.1500 
 36 H       -5.1920     2.4110     2.1730 H     1 <1>   0.0800 
 37 H       -3.5970     2.3480     2.8500 H     1 <1>   0.0800 
 38 H       -1.8660     4.4020     1.7080 H     1 <1>   0.0800 
 39 H       -3.2460     4.5550     2.7640 H     1 <1>   0.0800 
 40 H       -2.6410     6.2050     0.3710 H     1 <1>   0.0800 
 41 H       -3.4760     6.6500     1.8590 H     1 <1>   0.0800 
 42 H       -5.5240     7.4270    -0.0470 H     1 <1>   0.1500 
 43 H       -7.0890     2.1210    -1.8120 H     1 <1>   0.0800 
 44 H       -8.6900     2.4000    -2.4450 H     1 <1>   0.0800 
 45 H       -8.4740     2.0290    -0.7430 H     1 <1>   0.0800 
 46 H       -9.2040     5.6490    -0.9100 H     1 <1>   0.0800 
 47 H      -10.0160     4.2400    -1.5390 H     1 <1>   0.0800 
 48 H       -9.0200     5.2230    -2.5990 H     1 <1>   0.0800 
@<TRIPOS>BOND
  1   1   2  2   
  2   2   3  am  
  3   2   4  1   
  4   3   5  1   
  5   3   6  1   
  6   4   7  ar  
  7   4   8  ar  
  8   5   9  1   
  9   5  26  1   
 10   5  27  1   
 11   6  10  1   
 12   6  28  1   
 13   6  29  1   
 14   7  11  ar  
 15   7  30  1   
 16   8  12  ar  
 17   8  31  1   
 18   9  13  1   
 19   9  14  1   
 20   9  15  1   
 21  10  14  1   
 22  10  32  1   
 23  10  33  1   
 24  11  16  ar  
 25  11  34  1   
 26  12  16  ar  
 27  12  35  1   
 28  13  17  ar  
 29  13  18  ar  
 30  14  36  1   
 31  14  37  1   
 32  15  19  1   
 33  15  38  1   
 34  15  39  1   
 35  17  20  ar  
 36  18  19  1   
 37  18  21  ar  
 38  19  40  1   
 39  19  41  1   
 40  20  22  ar  
 41  20  23  1   
 42  21  22  ar  
 43  21  42  1   
 44  23  24  1   
 45  23  25  1   
 46  24  43  1   
 47  24  44  1   
 48  24  45  1   
 49  25  46  1   
 50  25  47  1   
 51  25  48  1   
@<TRIPOS>SUBSTRUCTURE
  1 ****   5 GROUP 4 **** **** 0

# MOE 2024.06 (io_trps.svl 2023.06)
