@<TRIPOS>MOLECULE
NONAME
53 54 1 0 0 
SMALL
USER_CHARGES


@<TRIPOS>ATOM
  1 O        0.4280     0.2300     1.6720 O.2   1 <1>  -0.5700 
  2 C        1.2930    -0.3740     1.0650 C.2   1 <1>   0.7160 
  3 N        2.5170     0.2220     0.8930 N.am  1 <1>  -0.6600 
  4 C        1.0060    -1.7020     0.5740 C.2   1 <1>  -0.0860 
  5 C        2.5890     1.7120     0.8040 C.3   1 <1>   0.3200 
  6 C        3.7870    -0.5470     0.7790 C.3   1 <1>   0.1400 
  7 C        1.2790    -2.2900    -0.6240 C.2   1 <1>  -0.0400 
  8 C        0.3100    -2.6920     1.2950 C.2   1 <1>  -0.1500 
  9 C        3.4740     2.1920    -0.3480 C.2   1 <1>   0.0060 
 10 C        4.6450    -0.3220     2.0220 C.3   1 <1>  -0.2400 
 11 O        0.8270    -3.5200    -0.6570 O.3   1 <1>  -0.2800 
 12 C        1.9650    -1.7420    -1.8610 C.3   1 <1>  -0.0600 
 13 C        0.2340    -3.7720     0.4920 C.2   1 <1>  -0.0400 
 14 N        3.3400     1.7950    -1.5770 N.2   1 <1>  -0.5650 
 15 N        4.4780     3.0910    -0.1800 N.pl3 1 <1>   0.0480 
 16 C       -0.4160    -5.1230     0.7150 C.3   1 <1>   0.5230 
 17 C        4.3020     2.4590    -2.2420 C.2   1 <1>   0.0770 
 18 C        5.0050     3.2520    -1.4070 C.2   1 <1>  -0.3020 
 19 C        4.9240     3.7830     1.0430 C.3   1 <1>   0.0160 
 20 N       -1.5640    -5.2630    -0.2300 N.4   1 <1>  -0.9590 
 21 C       -2.6500    -6.1230     0.3050 C.3   1 <1>   0.3430 
 22 C       -1.0860    -5.7090    -1.5650 C.3   1 <1>   0.3430 
 23 C       -3.4120    -5.3700     1.3890 C.3   1 <1>  -0.2400 
 24 C       -2.1010    -5.3020    -2.6270 C.3   1 <1>  -0.2400 
 25 H        2.9480     2.0920     1.7420 H     1 <1>   0.0800 
 26 H        1.6030     2.1150     0.6470 H     1 <1>   0.0800 
 27 H        4.3240    -0.2490    -0.1060 H     1 <1>   0.0800 
 28 H        3.5790    -1.5990     0.6930 H     1 <1>   0.0800 
 29 H       -0.0680    -2.5420     2.2930 H     1 <1>   0.1500 
 30 H        4.9560     0.7030     2.0910 H     1 <1>   0.0800 
 31 H        5.5250    -0.9370     1.9640 H     1 <1>   0.0800 
 32 H        4.0970    -0.5940     2.9070 H     1 <1>   0.0800 
 33 H        2.1900    -0.6980    -1.7410 H     1 <1>   0.0800 
 34 H        1.3230    -1.8520    -2.7150 H     1 <1>   0.0800 
 35 H        2.8810    -2.2750    -2.0410 H     1 <1>   0.0800 
 36 H       -0.7630    -5.1690     1.7330 H     1 <1>   0.0800 
 37 H        0.3030    -5.9100     0.5620 H     1 <1>   0.0800 
 38 H        4.4380     2.3310    -3.3030 H     1 <1>   0.1500 
 39 H        5.8300     3.9070    -1.6200 H     1 <1>   0.1500 
 40 H        4.0890     4.2870     1.4940 H     1 <1>   0.0800 
 41 H        5.6800     4.5050     0.7930 H     1 <1>   0.0800 
 42 H        5.3320     3.0660     1.7320 H     1 <1>   0.0800 
 43 H       -1.9250    -4.3060    -0.3520 H     1 <1>   0.4500 
 44 H       -2.2420    -7.0410     0.7010 H     1 <1>   0.0800 
 45 H       -3.3380    -6.3760    -0.4850 H     1 <1>   0.0800 
 46 H       -0.9400    -6.7770    -1.5760 H     1 <1>   0.0800 
 47 H       -0.1430    -5.2400    -1.7980 H     1 <1>   0.0800 
 48 H       -2.7950    -5.1630     2.2440 H     1 <1>   0.0800 
 49 H       -4.2370    -5.9750     1.7230 H     1 <1>   0.0800 
 50 H       -3.8160    -4.4500     1.0020 H     1 <1>   0.0800 
 51 H       -3.0450    -5.7960    -2.4860 H     1 <1>   0.0800 
 52 H       -1.7260    -5.5810    -3.5950 H     1 <1>   0.0800 
 53 H       -2.2430    -4.2350    -2.6250 H     1 <1>   0.0800 
@<TRIPOS>BOND
  1   1   2  2   
  2   2   3  am  
  3   2   4  1   
  4   3   5  1   
  5   3   6  1   
  6   4   7  2   
  7   4   8  1   
  8   5   9  1   
  9   5  25  1   
 10   5  26  1   
 11   6  10  1   
 12   6  27  1   
 13   6  28  1   
 14   7  11  1   
 15   7  12  1   
 16   8  13  2   
 17   8  29  1   
 18   9  14  2   
 19   9  15  1   
 20  10  30  1   
 21  10  31  1   
 22  10  32  1   
 23  11  13  1   
 24  12  33  1   
 25  12  34  1   
 26  12  35  1   
 27  13  16  1   
 28  14  17  1   
 29  15  18  1   
 30  15  19  1   
 31  16  20  1   
 32  16  36  1   
 33  16  37  1   
 34  17  18  2   
 35  17  38  1   
 36  18  39  1   
 37  19  40  1   
 38  19  41  1   
 39  19  42  1   
 40  20  21  1   
 41  20  22  1   
 42  20  43  1   
 43  21  23  1   
 44  21  44  1   
 45  21  45  1   
 46  22  24  1   
 47  22  46  1   
 48  22  47  1   
 49  23  48  1   
 50  23  49  1   
 51  23  50  1   
 52  24  51  1   
 53  24  52  1   
 54  24  53  1   
@<TRIPOS>SUBSTRUCTURE
  1 ****   4 GROUP 4 **** **** 0

# MOE 2024.06 (io_trps.svl 2023.06)
