@<TRIPOS>MOLECULE
NONAME
49 50 1 0 0 
SMALL
USER_CHARGES


@<TRIPOS>ATOM
  1 O       -0.8180    -0.7030    -0.1180 O.2   1 <1>  -0.5700 
  2 C       -1.7460    -0.0300    -0.4820 C.2   1 <1>   0.4230 
  3 C       -3.1110    -0.4420    -0.3110 C.ar  1 <1>   0.0860 
  4 C       -1.4060     1.2600    -1.2020 C.3   1 <1>  -0.1790 
  5 C       -4.1730     0.3590     0.1010 C.ar  1 <1>   0.1660 
  6 C       -3.4500    -1.7590    -0.5720 C.ar  1 <1>   0.1600 
  7 N       -5.4010    -0.0850     0.1700 N.ar  1 <1>  -0.6200 
  8 C       -3.9930     1.8060     0.5320 C.3   1 <1>  -0.0960 
  9 N       -4.6700    -2.2260    -0.5020 N.ar  1 <1>  -0.6200 
 10 C       -5.6180    -1.3620    -0.1430 C.ar  1 <1>   0.7200 
 11 N       -6.9080    -1.8260    -0.0760 N.pl3 1 <1>  -0.8380 
 12 C       -7.3310    -3.1500    -0.6300 C.3   1 <1>   0.2090 
 13 C       -7.9980    -1.1050     0.6360 C.3   1 <1>   0.2090 
 14 C       -7.7980    -4.1020     0.4980 C.3   1 <1>   0.0000 
 15 C       -8.5180    -1.9820     1.7790 C.3   1 <1>  -0.1600 
 16 C       -8.9260    -3.3840     1.2890 C.3   1 <1>  -0.1600 
 17 C       -6.5800    -4.4140     1.4050 C.3   1 <1>   0.1200 
 18 C       -8.4060    -5.3930    -0.1220 C.3   1 <1>  -0.1600 
 19 O       -6.9460    -5.2050     2.4890 O.3   1 <1>  -0.6800 
 20 C       -7.4550    -6.2950    -0.9500 C.3   1 <1>  -0.0800 
 21 C       -8.1720    -6.8210    -2.2000 C.3   1 <1>  -0.2400 
 22 C       -6.9540    -7.4920    -0.1300 C.3   1 <1>  -0.2400 
 23 H       -2.2320     1.5960    -1.8000 H     1 <1>   0.0800 
 24 H       -0.5640     1.0930    -1.8500 H     1 <1>   0.0800 
 25 H       -1.1400     2.0180    -0.4900 H     1 <1>   0.0800 
 26 H       -2.6690    -2.4440    -0.8570 H     1 <1>   0.1500 
 27 H       -3.0560     1.9440     1.0380 H     1 <1>   0.0800 
 28 H       -4.7770     2.0840     1.2140 H     1 <1>   0.0800 
 29 H       -4.0460     2.4540    -0.3230 H     1 <1>   0.0800 
 30 H       -6.5330    -3.5990    -1.1920 H     1 <1>   0.0800 
 31 H       -8.1420    -2.9850    -1.3170 H     1 <1>   0.0800 
 32 H       -8.7920    -0.8990    -0.0610 H     1 <1>   0.0800 
 33 H       -7.6590    -0.1650     1.0360 H     1 <1>   0.0800 
 34 H       -9.3650    -1.4990     2.2310 H     1 <1>   0.0800 
 35 H       -7.7530    -2.0560     2.5310 H     1 <1>   0.0800 
 36 H       -9.2410    -3.9810     2.1260 H     1 <1>   0.0800 
 37 H       -9.7830    -3.2690     0.6480 H     1 <1>   0.0800 
 38 H       -6.1430    -3.5110     1.7930 H     1 <1>   0.0800 
 39 H       -5.8160    -4.9340     0.8550 H     1 <1>   0.0800 
 40 H       -9.2250    -5.0900    -0.7520 H     1 <1>   0.0800 
 41 H       -8.8440    -5.9840     0.6640 H     1 <1>   0.0800 
 42 H       -7.5990    -4.7290     3.0350 H     1 <1>   0.4000 
 43 H       -6.5970    -5.7370    -1.2820 H     1 <1>   0.0800 
 44 H       -9.0400    -7.3950    -1.9250 H     1 <1>   0.0800 
 45 H       -7.5130    -7.4500    -2.7720 H     1 <1>   0.0800 
 46 H       -8.4820    -6.0040    -2.8270 H     1 <1>   0.0800 
 47 H       -7.7780    -8.1060     0.1880 H     1 <1>   0.0800 
 48 H       -6.4210    -7.1650     0.7430 H     1 <1>   0.0800 
 49 H       -6.2860    -8.0950    -0.7190 H     1 <1>   0.0800 
@<TRIPOS>BOND
  1   1   2  2   
  2   2   3  1   
  3   2   4  1   
  4   3   5  ar  
  5   3   6  ar  
  6   4  23  1   
  7   4  24  1   
  8   4  25  1   
  9   5   7  ar  
 10   5   8  1   
 11   6   9  ar  
 12   6  26  1   
 13   7  10  ar  
 14   8  27  1   
 15   8  28  1   
 16   8  29  1   
 17   9  10  ar  
 18  10  11  1   
 19  11  12  1   
 20  11  13  1   
 21  12  14  1   
 22  12  30  1   
 23  12  31  1   
 24  13  15  1   
 25  13  32  1   
 26  13  33  1   
 27  14  16  1   
 28  14  17  1   
 29  14  18  1   
 30  15  16  1   
 31  15  34  1   
 32  15  35  1   
 33  16  36  1   
 34  16  37  1   
 35  17  19  1   
 36  17  38  1   
 37  17  39  1   
 38  18  20  1   
 39  18  40  1   
 40  18  41  1   
 41  19  42  1   
 42  20  21  1   
 43  20  22  1   
 44  20  43  1   
 45  21  44  1   
 46  21  45  1   
 47  21  46  1   
 48  22  47  1   
 49  22  48  1   
 50  22  49  1   
@<TRIPOS>SUBSTRUCTURE
  1 ****  10 GROUP 4 **** **** 0

# MOE 2024.06 (io_trps.svl 2023.06)
