@<TRIPOS>MOLECULE
NONAME
60 63 1 0 0 
SMALL
USER_CHARGES


@<TRIPOS>ATOM
  1 O       -1.4350    -2.6220    -1.3190 O.2   1 <1>  -0.5700 
  2 C       -1.0910    -2.4870    -0.1710 C.2   1 <1>   0.5690 
  3 N       -1.9530    -2.0410     0.7910 N.am  1 <1>  -0.7300 
  4 C        0.3490    -2.9180     0.1570 C.3   1 <1>   0.4040 
  5 C       -3.3360    -1.5380     0.5470 C.3   1 <1>   0.1400 
  6 N        0.6380    -4.3030    -0.3660 N.4   1 <1>  -0.9060 
  7 C       -4.3310    -2.7080     0.4010 C.3   1 <1>  -0.0800 
  8 C        0.5640    -5.3620     0.6700 C.3   1 <1>   0.3430 
  9 C       -5.8030    -2.4230     0.7300 C.3   1 <1>   0.4230 
 10 C       -4.4230    -3.2770    -1.0150 C.3   1 <1>  -0.1600 
 11 C        0.2160    -6.7090     0.0340 C.3   1 <1>  -0.1600 
 12 N       -6.6060    -3.3720    -0.1040 N.4   1 <1>  -0.9590 
 13 C       -6.3210    -1.0320     0.3580 C.3   1 <1>  -0.1600 
 14 C       -5.6860    -4.1300    -0.9890 C.3   1 <1>   0.5660 
 15 C       -1.1980    -6.7150    -0.5730 C.3   1 <1>  -0.1600 
 16 C       -7.6330    -2.6100    -0.8650 C.3   1 <1>   0.3430 
 17 C       -7.7360    -1.2760    -0.1480 C.3   1 <1>  -0.1600 
 18 C       -5.3380    -5.5020    -0.4050 C.ar  1 <1>  -0.1440 
 19 C       -1.7180    -8.1430    -0.8300 C.3   1 <1>   0.1200 
 20 C       -4.4790    -6.2950    -1.1570 C.ar  1 <1>  -0.1500 
 21 C       -5.7650    -5.9830     0.8330 C.ar  1 <1>  -0.1500 
 22 O       -3.0140    -8.0890    -1.3980 O.3   1 <1>  -0.3630 
 23 C       -3.9870    -7.4890    -0.6680 C.ar  1 <1>   0.0820 
 24 C       -5.3240    -7.2100     1.3020 C.ar  1 <1>  -0.1500 
 25 C       -4.4370    -7.9710     0.5620 C.ar  1 <1>   0.0820 
 26 O       -4.0280    -9.1500     1.0870 O.3   1 <1>  -0.3620 
 27 C       -4.3530   -10.3160     0.3600 C.3   1 <1>   0.0400 
 28 H       -1.6320    -1.9050     1.7560 H     1 <1>   0.3700 
 29 H        0.5110    -2.8730     1.2200 H     1 <1>   0.0800 
 30 H        1.0100    -2.2120    -0.3160 H     1 <1>   0.0800 
 31 H       -3.6190    -0.9180     1.3810 H     1 <1>   0.0800 
 32 H       -3.3430    -0.9240    -0.3400 H     1 <1>   0.0800 
 33 H       -0.0690    -4.4810    -1.0990 H     1 <1>   0.4500 
 34 H        1.5480    -4.3290    -0.8430 H     1 <1>   0.4500 
 35 H       -4.0200    -3.4880     1.0760 H     1 <1>   0.0800 
 36 H        1.5060    -5.4350     1.1910 H     1 <1>   0.0800 
 37 H       -0.2000    -5.1180     1.3920 H     1 <1>   0.0800 
 38 H       -5.9950    -2.6030     1.7770 H     1 <1>   0.0800 
 39 H       -3.5570    -3.8520    -1.2800 H     1 <1>   0.0800 
 40 H       -4.5380    -2.4910    -1.7410 H     1 <1>   0.0800 
 41 H        0.9500    -6.9850    -0.7050 H     1 <1>   0.0800 
 42 H        0.2550    -7.4510     0.8140 H     1 <1>   0.0800 
 43 H       -7.0760    -4.0530     0.4970 H     1 <1>   0.4500 
 44 H       -6.3030    -0.3640     1.2020 H     1 <1>   0.0800 
 45 H       -5.7330    -0.6030    -0.4350 H     1 <1>   0.0800 
 46 H       -6.0980    -4.2510    -1.9790 H     1 <1>   0.0800 
 47 H       -1.2080    -6.1740    -1.5030 H     1 <1>   0.0800 
 48 H       -1.8630    -6.2300     0.1200 H     1 <1>   0.0800 
 49 H       -7.2950    -2.4420    -1.8750 H     1 <1>   0.0800 
 50 H       -8.5810    -3.1250    -0.8860 H     1 <1>   0.0800 
 51 H       -8.0780    -0.4950    -0.8060 H     1 <1>   0.0800 
 52 H       -8.4240    -1.3620     0.6760 H     1 <1>   0.0800 
 53 H       -1.7670    -8.7120     0.0830 H     1 <1>   0.0800 
 54 H       -1.0840    -8.6610    -1.5280 H     1 <1>   0.0800 
 55 H       -4.1380    -5.9810    -2.1290 H     1 <1>   0.1500 
 56 H       -6.4340    -5.4350     1.4700 H     1 <1>   0.1500 
 57 H       -5.6590    -7.5870     2.2530 H     1 <1>   0.1500 
 58 H       -4.0800   -11.1690     0.9540 H     1 <1>   0.0800 
 59 H       -3.8080   -10.3260    -0.5660 H     1 <1>   0.0800 
 60 H       -5.4120   -10.3240     0.1700 H     1 <1>   0.0800 
@<TRIPOS>BOND
  1   1   2  2   
  2   2   3  am  
  3   2   4  1   
  4   3   5  1   
  5   3  28  1   
  6   4   6  1   
  7   4  29  1   
  8   4  30  1   
  9   5   7  1   
 10   5  31  1   
 11   5  32  1   
 12   6   8  1   
 13   6  33  1   
 14   6  34  1   
 15   7   9  1   
 16   7  10  1   
 17   7  35  1   
 18   8  11  1   
 19   8  36  1   
 20   8  37  1   
 21   9  12  1   
 22   9  13  1   
 23   9  38  1   
 24  10  14  1   
 25  10  39  1   
 26  10  40  1   
 27  11  15  1   
 28  11  41  1   
 29  11  42  1   
 30  12  14  1   
 31  12  16  1   
 32  12  43  1   
 33  13  17  1   
 34  13  44  1   
 35  13  45  1   
 36  14  18  1   
 37  14  46  1   
 38  15  19  1   
 39  15  47  1   
 40  15  48  1   
 41  16  17  1   
 42  16  49  1   
 43  16  50  1   
 44  17  51  1   
 45  17  52  1   
 46  18  20  ar  
 47  18  21  ar  
 48  19  22  1   
 49  19  53  1   
 50  19  54  1   
 51  20  23  ar  
 52  20  55  1   
 53  21  24  ar  
 54  21  56  1   
 55  22  23  1   
 56  23  25  ar  
 57  24  25  ar  
 58  24  57  1   
 59  25  26  1   
 60  26  27  1   
 61  27  58  1   
 62  27  59  1   
 63  27  60  1   
@<TRIPOS>SUBSTRUCTURE
  1 ****  18 GROUP 4 **** **** 0

# MOE 2024.06 (io_trps.svl 2023.06)
