@<TRIPOS>MOLECULE
NONAME
45 47 1 0 0 
SMALL
USER_CHARGES


@<TRIPOS>ATOM
  1 O        1.9860     0.1570     2.0340 O.2   1 <1>  -0.5700 
  2 C        2.2200    -0.1050     0.8700 C.2   1 <1>   0.5440 
  3 N        2.0980     0.8890    -0.0810 N.am  1 <1>  -0.6600 
  4 C        2.6240    -1.4540     0.5310 C.ar  1 <1>   0.0860 
  5 C        2.1750     0.6350    -1.5580 C.3   1 <1>   0.1400 
  6 C        1.9550     2.3130     0.3320 C.3   1 <1>   0.1400 
  7 C        1.7900    -2.5430     0.7060 C.ar  1 <1>  -0.1500 
  8 C        3.8770    -1.7500     0.0140 C.ar  1 <1>  -0.1500 
  9 C        3.0900     1.6230    -2.3000 C.3   1 <1>   0.1400 
 10 C        3.3410     2.9200     0.5880 C.3   1 <1>  -0.1600 
 11 C        2.2100    -3.8130     0.3550 C.ar  1 <1>   0.3920 
 12 C        4.2090    -3.0510    -0.3080 C.ar  1 <1>   0.1600 
 13 N        4.3210     1.9410    -1.5120 N.am  1 <1>  -0.6600 
 14 C        4.2000     3.1590    -0.6650 C.3   1 <1>   0.1400 
 15 O        1.3340    -4.8210     0.5470 O.3   1 <1>  -0.3630 
 16 N        3.4070    -4.0900    -0.1550 N.ar  1 <1>  -0.6200 
 17 C        5.4540     1.1670    -1.6420 C.2   1 <1>   0.7150 
 18 C        1.6810    -6.1550     0.2300 C.3   1 <1>   0.0400 
 19 O        5.4770     0.3120    -2.5100 O.2   1 <1>  -0.5700 
 20 C        6.6260     1.2970    -0.8130 C.2   1 <1>  -0.2370 
 21 N        7.8500     0.9520    -1.3120 N.pl3 1 <1>   0.0330 
 22 C        6.8230     1.6860     0.4890 C.2   1 <1>  -0.1500 
 23 C        8.7830     1.1370    -0.3520 C.2   1 <1>  -0.3020 
 24 C        8.1870     1.5950     0.7880 C.2   1 <1>   0.0190 
 25 C        8.7910     1.9200     2.0500 C.1   1 <1>   0.5380 
 26 N        9.2650     2.1840     3.0530 N.1   1 <1>  -0.5570 
 27 H        1.1850     0.6980    -1.9730 H     1 <1>   0.0800 
 28 H        2.5340    -0.3580    -1.7530 H     1 <1>   0.0800 
 29 H        1.3740     2.3630     1.2380 H     1 <1>   0.0800 
 30 H        1.4260     2.8700    -0.4210 H     1 <1>   0.0800 
 31 H        0.8080    -2.4060     1.1180 H     1 <1>   0.1500 
 32 H        4.5900    -0.9610    -0.1350 H     1 <1>   0.1500 
 33 H        2.5460     2.5280    -2.5010 H     1 <1>   0.0800 
 34 H        3.3570     1.2050    -3.2560 H     1 <1>   0.0800 
 35 H        3.8650     2.2910     1.2830 H     1 <1>   0.0800 
 36 H        3.2020     3.8680     1.0750 H     1 <1>   0.0800 
 37 H        5.1870    -3.2470    -0.7140 H     1 <1>   0.1500 
 38 H        5.1740     3.5110    -0.3780 H     1 <1>   0.0800 
 39 H        3.7520     3.9430    -1.2530 H     1 <1>   0.0800 
 40 H        0.8430    -6.7870     0.4620 H     1 <1>   0.0800 
 41 H        2.5360    -6.4400     0.8170 H     1 <1>   0.0800 
 42 H        1.9100    -6.2140    -0.8200 H     1 <1>   0.0800 
 43 H        7.9940     0.5920    -2.2660 H     1 <1>   0.2700 
 44 H        6.0800     1.9990     1.1990 H     1 <1>   0.1500 
 45 H        9.8280     0.9320    -0.5120 H     1 <1>   0.1500 
@<TRIPOS>BOND
  1   1   2  2   
  2   2   3  am  
  3   2   4  1   
  4   3   5  1   
  5   3   6  1   
  6   4   7  ar  
  7   4   8  ar  
  8   5   9  1   
  9   5  27  1   
 10   5  28  1   
 11   6  10  1   
 12   6  29  1   
 13   6  30  1   
 14   7  11  ar  
 15   7  31  1   
 16   8  12  ar  
 17   8  32  1   
 18   9  13  1   
 19   9  33  1   
 20   9  34  1   
 21  10  14  1   
 22  10  35  1   
 23  10  36  1   
 24  11  15  1   
 25  11  16  ar  
 26  12  16  ar  
 27  12  37  1   
 28  13  14  1   
 29  13  17  am  
 30  14  38  1   
 31  14  39  1   
 32  15  18  1   
 33  17  19  2   
 34  17  20  1   
 35  18  40  1   
 36  18  41  1   
 37  18  42  1   
 38  20  21  1   
 39  20  22  2   
 40  21  23  1   
 41  21  43  1   
 42  22  24  1   
 43  22  44  1   
 44  23  24  2   
 45  23  45  1   
 46  24  25  1   
 47  25  26  3   
@<TRIPOS>SUBSTRUCTURE
  1 ****   8 GROUP 4 **** **** 0

# MOE 2024.06 (io_trps.svl 2023.06)
