@<TRIPOS>MOLECULE
NONAME
53 56 1 0 0 
SMALL
USER_CHARGES


@<TRIPOS>ATOM
  1 O       -1.2060    -1.8970     1.5010 O.2   1 <1>  -0.5700 
  2 C       -0.2890    -2.3960     0.8700 C.2   1 <1>   0.5440 
  3 N        0.0450    -1.8010    -0.3330 N.am  1 <1>  -0.6600 
  4 C        0.4030    -3.5600     1.4280 C.ar  1 <1>   0.3960 
  5 C        1.1980    -2.1510    -1.1920 C.3   1 <1>   0.1400 
  6 C       -0.6910    -0.6410    -0.8840 C.3   1 <1>   0.1400 
  7 N        0.9310    -4.5070     0.6320 N.ar  1 <1>  -0.6200 
  8 C        0.4810    -3.6580     2.8220 C.ar  1 <1>   0.1600 
  9 C        1.3310    -0.9810    -2.1590 C.3   1 <1>  -0.1600 
 10 C       -0.0780    -0.4040    -2.2600 C.3   1 <1>  -0.1600 
 11 C        1.5090    -5.4870     1.2900 C.ar  1 <1>   0.4100 
 12 N        1.0690    -4.6370     3.5000 N.ar  1 <1>  -0.6200 
 13 N        2.0170    -6.4620     0.4780 N.pl3 1 <1>  -0.8690 
 14 C        1.5830    -5.5390     2.6900 C.ar  1 <1>   0.1600 
 15 C        1.5240    -7.8550     0.6180 C.3   1 <1>   0.2890 
 16 C        0.0450    -7.9590     0.2110 C.3   1 <1>   0.2000 
 17 C        2.2470    -8.7220    -0.4080 C.3   1 <1>  -0.1600 
 18 O       -0.4740    -9.1550     0.7260 O.3   1 <1>  -0.5600 
 19 C        0.0660    -8.0480    -1.3190 C.3   1 <1>  -0.1600 
 20 C        1.4470    -8.5940    -1.7120 C.3   1 <1>  -0.1600 
 21 C       -1.7370    -9.0550     1.3180 C.3   1 <1>   0.2630 
 22 C       -2.7950    -8.7160     0.2760 C.ar  1 <1>  -0.1440 
 23 C       -3.3860    -7.4610     0.2490 C.ar  1 <1>  -0.1500 
 24 C       -3.1780    -9.6670    -0.6570 C.ar  1 <1>  -0.1500 
 25 C       -4.3460    -7.1610    -0.7020 C.ar  1 <1>  -0.1500 
 26 C       -4.1390    -9.3690    -1.6080 C.ar  1 <1>  -0.1500 
 27 C       -4.7230    -8.1150    -1.6310 C.ar  1 <1>  -0.1500 
 28 H        2.0930    -2.2870    -0.6080 H     1 <1>   0.0800 
 29 H        0.9720    -3.0570    -1.7290 H     1 <1>   0.0800 
 30 H       -1.7450    -0.8530    -0.9460 H     1 <1>   0.0800 
 31 H       -0.5320     0.2100    -0.2440 H     1 <1>   0.0800 
 32 H        0.0290    -2.8750     3.4070 H     1 <1>   0.1500 
 33 H        1.9960    -0.2500    -1.7330 H     1 <1>   0.0800 
 34 H        1.7180    -1.2930    -3.1130 H     1 <1>   0.0800 
 35 H       -0.6460    -0.9510    -2.9920 H     1 <1>   0.0800 
 36 H       -0.0780     0.6390    -2.5230 H     1 <1>   0.0800 
 37 H        1.9620    -6.1720    -0.5010 H     1 <1>   0.4000 
 38 H        2.0950    -6.3730     3.1310 H     1 <1>   0.1500 
 39 H        1.6830    -8.2060     1.6230 H     1 <1>   0.0800 
 40 H       -0.5280    -7.1210     0.5690 H     1 <1>   0.0800 
 41 H        3.2810    -8.4470    -0.5220 H     1 <1>   0.0800 
 42 H        2.1970    -9.7440    -0.0750 H     1 <1>   0.0800 
 43 H       -0.7330    -8.6620    -1.6930 H     1 <1>   0.0800 
 44 H       -0.0490    -7.0570    -1.7220 H     1 <1>   0.0800 
 45 H        1.3580    -9.5530    -2.1930 H     1 <1>   0.0800 
 46 H        1.9350    -7.9110    -2.3850 H     1 <1>   0.0800 
 47 H       -1.9590   -10.0080     1.7640 H     1 <1>   0.0800 
 48 H       -1.6970    -8.3130     2.0970 H     1 <1>   0.0800 
 49 H       -3.1010    -6.7090     0.9640 H     1 <1>   0.1500 
 50 H       -2.7200   -10.6410    -0.6470 H     1 <1>   0.1500 
 51 H       -4.7990    -6.1850    -0.7190 H     1 <1>   0.1500 
 52 H       -4.4300   -10.1120    -2.3300 H     1 <1>   0.1500 
 53 H       -5.4700    -7.8810    -2.3700 H     1 <1>   0.1500 
@<TRIPOS>BOND
  1   1   2  2   
  2   2   3  am  
  3   2   4  1   
  4   3   5  1   
  5   3   6  1   
  6   4   7  ar  
  7   4   8  ar  
  8   5   9  1   
  9   5  28  1   
 10   5  29  1   
 11   6  10  1   
 12   6  30  1   
 13   6  31  1   
 14   7  11  ar  
 15   8  12  ar  
 16   8  32  1   
 17   9  10  1   
 18   9  33  1   
 19   9  34  1   
 20  10  35  1   
 21  10  36  1   
 22  11  13  1   
 23  11  14  ar  
 24  12  14  ar  
 25  13  15  1   
 26  13  37  1   
 27  14  38  1   
 28  15  16  1   
 29  15  17  1   
 30  15  39  1   
 31  16  18  1   
 32  16  19  1   
 33  16  40  1   
 34  17  20  1   
 35  17  41  1   
 36  17  42  1   
 37  18  21  1   
 38  19  20  1   
 39  19  43  1   
 40  19  44  1   
 41  20  45  1   
 42  20  46  1   
 43  21  22  1   
 44  21  47  1   
 45  21  48  1   
 46  22  23  ar  
 47  22  24  ar  
 48  23  25  ar  
 49  23  49  1   
 50  24  26  ar  
 51  24  50  1   
 52  25  27  ar  
 53  25  51  1   
 54  26  27  ar  
 55  26  52  1   
 56  27  53  1   
@<TRIPOS>SUBSTRUCTURE
  1 ****   7 GROUP 4 **** **** 0

# MOE 2024.06 (io_trps.svl 2023.06)
