@<TRIPOS>MOLECULE
NONAME
48 51 1 0 0 
SMALL
USER_CHARGES


@<TRIPOS>ATOM
  1 O       -0.6780     0.5790     2.0880 O.2   1 <1>  -0.5700 
  2 C       -1.2790     1.1000     1.1800 C.2   1 <1>   0.5690 
  3 N       -2.1420     0.3870     0.4000 N.am  1 <1>  -0.6600 
  4 C       -1.0660     2.5770     0.9090 C.3   1 <1>  -0.0990 
  5 C       -2.9810     0.9010    -0.7150 C.3   1 <1>   0.1400 
  6 C       -2.3900    -1.0620     0.6060 C.3   1 <1>   0.1400 
  7 C        0.0850     3.1610     1.7400 C.3   1 <1>   0.0960 
  8 C       -4.0660    -0.1610    -0.8900 C.3   1 <1>   0.2000 
  9 C       -3.3590    -1.4680    -0.5130 C.3   1 <1>  -0.0800 
 10 N        0.2710     4.5860     1.4150 N.pl3 1 <1>   0.0480 
 11 O       -5.0760     0.1020     0.0230 O.3   1 <1>  -0.6800 
 12 C       -4.2990    -2.6290    -0.1360 C.3   1 <1>   0.0200 
 13 C        0.9030     5.1010     0.3270 C.ar  1 <1>  -0.1520 
 14 C       -0.2280     5.6590     2.0830 C.2   1 <1>   0.0360 
 15 C       -3.5680    -3.9420     0.0890 C.2   1 <1>  -0.0400 
 16 C        0.7370     6.4710     0.4180 C.ar  1 <1>   0.2270 
 17 C        1.6080     4.5290    -0.7360 C.ar  1 <1>  -0.1500 
 18 N        0.0220     6.7940     1.5310 N.2   1 <1>  -0.5650 
 19 O       -4.2430    -4.9640     0.5450 O.3   1 <1>  -0.0190 
 20 C       -2.2960    -4.3400    -0.0830 C.2   1 <1>  -0.1500 
 21 C        1.2720     7.3050    -0.5630 C.ar  1 <1>  -0.1500 
 22 C        2.1340     5.3600    -1.7000 C.ar  1 <1>  -0.1500 
 23 N       -3.4950    -6.0190     0.6900 N.2   1 <1>  -0.4100 
 24 C       -2.3160    -5.6720     0.3200 C.2   1 <1>   0.1080 
 25 C        1.9650     6.7480    -1.6150 C.ar  1 <1>  -0.1500 
 26 C       -1.1170    -6.5950     0.3250 C.3   1 <1>  -0.0590 
 27 H       -0.8470     2.7050    -0.1350 H     1 <1>   0.0800 
 28 H       -1.9750     3.0990     1.1440 H     1 <1>   0.0800 
 29 H       -3.4050     1.8660    -0.4970 H     1 <1>   0.0800 
 30 H       -2.3810     0.9600    -1.6060 H     1 <1>   0.0800 
 31 H       -1.4670    -1.6130     0.5570 H     1 <1>   0.0800 
 32 H       -2.8360    -1.2070     1.5760 H     1 <1>   0.0800 
 33 H        1.0000     2.6350     1.5320 H     1 <1>   0.0800 
 34 H       -0.1290     3.0660     2.7900 H     1 <1>   0.0800 
 35 H       -4.4920    -0.1720    -1.8790 H     1 <1>   0.0800 
 36 H       -2.7700    -1.7710    -1.3610 H     1 <1>   0.0800 
 37 H       -4.6820     0.2270     0.9090 H     1 <1>   0.4000 
 38 H       -5.0200    -2.7740    -0.9210 H     1 <1>   0.0800 
 39 H       -4.8420    -2.3880     0.7610 H     1 <1>   0.0800 
 40 H       -0.7870     5.5430     2.9950 H     1 <1>   0.1500 
 41 H        1.7380     3.4630    -0.7930 H     1 <1>   0.1500 
 42 H       -1.4380    -3.8050    -0.4410 H     1 <1>   0.1500 
 43 H        1.1270     8.3640    -0.4700 H     1 <1>   0.1500 
 44 H        2.6830     4.9510    -2.5300 H     1 <1>   0.1500 
 45 H        2.3850     7.3770    -2.3800 H     1 <1>   0.1500 
 46 H       -0.3550    -6.1980     0.9700 H     1 <1>   0.0800 
 47 H       -0.7270    -6.6920    -0.6710 H     1 <1>   0.0800 
 48 H       -1.4050    -7.5670     0.6830 H     1 <1>   0.0800 
@<TRIPOS>BOND
  1   1   2  2   
  2   2   3  am  
  3   2   4  1   
  4   3   5  1   
  5   3   6  1   
  6   4   7  1   
  7   4  27  1   
  8   4  28  1   
  9   5   8  1   
 10   5  29  1   
 11   5  30  1   
 12   6   9  1   
 13   6  31  1   
 14   6  32  1   
 15   7  10  1   
 16   7  33  1   
 17   7  34  1   
 18   8   9  1   
 19   8  11  1   
 20   8  35  1   
 21   9  12  1   
 22   9  36  1   
 23  10  13  1   
 24  10  14  1   
 25  11  37  1   
 26  12  15  1   
 27  12  38  1   
 28  12  39  1   
 29  13  16  ar  
 30  13  17  ar  
 31  14  18  2   
 32  14  40  1   
 33  15  19  1   
 34  15  20  2   
 35  16  18  1   
 36  16  21  ar  
 37  17  22  ar  
 38  17  41  1   
 39  19  23  1   
 40  20  24  1   
 41  20  42  1   
 42  21  25  ar  
 43  21  43  1   
 44  22  25  ar  
 45  22  44  1   
 46  23  24  2   
 47  24  26  1   
 48  25  45  1   
 49  26  46  1   
 50  26  47  1   
 51  26  48  1   
@<TRIPOS>SUBSTRUCTURE
  1 ****   2 GROUP 4 **** **** 0

# MOE 2024.06 (io_trps.svl 2023.06)
