@<TRIPOS>MOLECULE
NONAME
46 49 1 0 0 
SMALL
USER_CHARGES


@<TRIPOS>ATOM
  1 O       -0.3570     1.2240     1.6210 O.2   1 <1>  -0.5700 
  2 C       -0.1560     2.3310     1.1570 C.2   1 <1>   0.5440 
  3 N       -1.2360     3.1210     0.8140 N.am  1 <1>  -0.6600 
  4 C        1.2120     2.7750     0.9670 C.ar  1 <1>   0.0860 
  5 C       -2.6320     2.7480     1.1950 C.3   1 <1>   0.1400 
  6 C       -1.1530     4.3080    -0.0820 C.3   1 <1>   0.1400 
  7 C        2.1190     2.0290     0.2490 C.ar  1 <1>  -0.1500 
  8 C        1.6620     3.9900     1.5250 C.ar  1 <1>  -0.1500 
  9 C       -3.5000     2.4590    -0.0560 C.3   1 <1>   0.0000 
 10 C       -1.9970     4.0740    -1.3400 C.3   1 <1>  -0.1600 
 11 C        3.4460     2.4450     0.0380 C.ar  1 <1>   0.0000 
 12 C        2.9450     4.4240     1.3420 C.ar  1 <1>  -0.1500 
 13 C       -4.9530     2.0960     0.3140 C.3   1 <1>   0.2000 
 14 C       -3.4450     3.6790    -1.0010 C.3   1 <1>  -0.1600 
 15 C       -3.0300     1.1680    -0.7500 C.3   1 <1>  -0.1600 
 16 C        3.8700     3.6720     0.5920 C.ar  1 <1>   0.0000 
 17 C        4.3710     1.6850    -0.7070 C.ar  1 <1>  -0.1500 
 18 O       -5.4330     2.8080     1.4000 O.3   1 <1>  -0.6800 
 19 C       -4.9750     0.5960     0.6170 C.3   1 <1>  -0.1600 
 20 C       -3.6740     0.0260     0.0390 C.3   1 <1>  -0.1600 
 21 C        5.1970     4.0920     0.3770 C.ar  1 <1>  -0.1500 
 22 C        5.6540     2.1160    -0.9000 C.ar  1 <1>  -0.1500 
 23 C        6.0720     3.3340    -0.3530 C.ar  1 <1>  -0.1500 
 24 H       -2.6290     1.8950     1.8500 H     1 <1>   0.0800 
 25 H       -3.0530     3.5730     1.7420 H     1 <1>   0.0800 
 26 H       -1.5200     5.1700     0.4480 H     1 <1>   0.0800 
 27 H       -0.1360     4.5010    -0.3760 H     1 <1>   0.0800 
 28 H        1.8050     1.0890    -0.1690 H     1 <1>   0.1500 
 29 H        0.9640     4.5670     2.1060 H     1 <1>   0.1500 
 30 H       -2.0010     4.9720    -1.9320 H     1 <1>   0.0800 
 31 H       -1.5350     3.3010    -1.9290 H     1 <1>   0.0800 
 32 H        3.2730     5.3530     1.7730 H     1 <1>   0.1500 
 33 H       -5.6010     2.3000    -0.5230 H     1 <1>   0.0800 
 34 H       -3.9840     3.4710    -1.9090 H     1 <1>   0.0800 
 35 H       -3.9310     4.5110    -0.5190 H     1 <1>   0.0800 
 36 H       -3.4000     1.1430    -1.7600 H     1 <1>   0.0800 
 37 H       -1.9580     1.0700    -0.7770 H     1 <1>   0.0800 
 38 H        4.0440     0.7490    -1.1240 H     1 <1>   0.1500 
 39 H       -5.0140     2.4830     2.2180 H     1 <1>   0.4000 
 40 H       -5.0190     0.4000     1.6740 H     1 <1>   0.0800 
 41 H       -5.8260     0.1450     0.1370 H     1 <1>   0.0800 
 42 H       -3.0170    -0.2650     0.8420 H     1 <1>   0.0800 
 43 H       -3.8540    -0.8310    -0.5880 H     1 <1>   0.0800 
 44 H        5.5150     5.0270     0.8010 H     1 <1>   0.1500 
 45 H        6.3540     1.5310    -1.4700 H     1 <1>   0.1500 
 46 H        7.0850     3.6590    -0.5140 H     1 <1>   0.1500 
@<TRIPOS>BOND
  1   1   2  2   
  2   2   3  am  
  3   2   4  1   
  4   3   5  1   
  5   3   6  1   
  6   4   7  ar  
  7   4   8  ar  
  8   5   9  1   
  9   5  24  1   
 10   5  25  1   
 11   6  10  1   
 12   6  26  1   
 13   6  27  1   
 14   7  11  ar  
 15   7  28  1   
 16   8  12  ar  
 17   8  29  1   
 18   9  13  1   
 19   9  14  1   
 20   9  15  1   
 21  10  14  1   
 22  10  30  1   
 23  10  31  1   
 24  11  16  ar  
 25  11  17  ar  
 26  12  16  ar  
 27  12  32  1   
 28  13  18  1   
 29  13  19  1   
 30  13  33  1   
 31  14  34  1   
 32  14  35  1   
 33  15  20  1   
 34  15  36  1   
 35  15  37  1   
 36  16  21  ar  
 37  17  22  ar  
 38  17  38  1   
 39  18  39  1   
 40  19  20  1   
 41  19  40  1   
 42  19  41  1   
 43  20  42  1   
 44  20  43  1   
 45  21  23  ar  
 46  21  44  1   
 47  22  23  ar  
 48  22  45  1   
 49  23  46  1   
@<TRIPOS>SUBSTRUCTURE
  1 ****   2 GROUP 4 **** **** 0

# MOE 2024.06 (io_trps.svl 2023.06)
