@<TRIPOS>MOLECULE
NONAME
51 54 1 0 0 
SMALL
USER_CHARGES


@<TRIPOS>ATOM
  1 O       -3.3890    -0.0540    -2.7000 O.2   1 <1>  -0.5700 
  2 C       -3.2120    -0.6810    -1.6920 C.2   1 <1>   0.5690 
  3 N       -2.7570    -0.0720    -0.5840 N.am  1 <1>  -0.7300 
  4 C       -3.5390    -2.1490    -1.6600 C.3   1 <1>  -0.0190 
  5 C       -2.5210    -0.7250     0.7230 C.3   1 <1>   0.2200 
  6 C       -2.2940    -3.0060    -1.3400 C.3   1 <1>   0.1200 
  7 C       -4.7660    -2.3560    -0.7620 C.3   1 <1>   0.3430 
  8 C       -1.4560    -1.8420     0.5830 C.3   1 <1>   0.1200 
  9 C       -3.8630    -1.2150     1.3390 C.3   1 <1>   0.3430 
 10 O       -1.9690    -3.0260     0.0250 O.3   1 <1>  -0.5600 
 11 N       -4.4510    -2.4470     0.7040 N.4   1 <1>  -0.9590 
 12 C       -5.5890    -3.0000     1.4910 C.3   1 <1>   0.4860 
 13 C       -5.8820    -4.4140     1.0130 C.ar  1 <1>  -0.1440 
 14 C       -6.9010    -4.7380     0.0650 C.ar  1 <1>   0.0000 
 15 C       -5.0800    -5.3870     1.5520 C.ar  1 <1>  -0.1500 
 16 C       -7.7980    -3.8080    -0.5550 C.ar  1 <1>   0.0820 
 17 C       -7.0320    -6.1070    -0.3000 C.ar  1 <1>   0.0000 
 18 C       -5.2220    -6.7210     1.1870 C.ar  1 <1>  -0.1500 
 19 O       -7.6990    -2.4900    -0.2360 O.3   1 <1>  -0.3620 
 20 C       -8.7420    -4.2260    -1.4650 C.ar  1 <1>  -0.1500 
 21 C       -6.1770    -7.0830     0.2740 C.ar  1 <1>   0.0820 
 22 C       -8.0200    -6.4800    -1.2370 C.ar  1 <1>  -0.1500 
 23 C       -8.6880    -1.5430    -0.5920 C.3   1 <1>   0.0400 
 24 C       -8.8550    -5.5690    -1.8080 C.ar  1 <1>  -0.1500 
 25 O       -6.3470    -8.3710    -0.1210 O.3   1 <1>  -0.3620 
 26 C       -5.6120    -9.4430     0.4300 C.3   1 <1>   0.0400 
 27 H       -2.5020     0.9170    -0.6870 H     1 <1>   0.3700 
 28 H       -3.8410    -2.4030    -2.6600 H     1 <1>   0.0800 
 29 H       -2.1160     0.0280     1.3780 H     1 <1>   0.0800 
 30 H       -1.4370    -2.6610    -1.8960 H     1 <1>   0.0800 
 31 H       -2.4840    -4.0270    -1.6270 H     1 <1>   0.0800 
 32 H       -5.2330    -3.2750    -1.0730 H     1 <1>   0.0800 
 33 H       -5.4760    -1.5630    -0.9370 H     1 <1>   0.0800 
 34 H       -1.0850    -2.1000     1.5600 H     1 <1>   0.0800 
 35 H       -0.6200    -1.5070    -0.0090 H     1 <1>   0.0800 
 36 H       -4.5760    -0.4080     1.2920 H     1 <1>   0.0800 
 37 H       -3.6810    -1.4260     2.3790 H     1 <1>   0.0800 
 38 H       -3.6910    -3.1540     0.7340 H     1 <1>   0.4500 
 39 H       -5.3070    -3.0530     2.5290 H     1 <1>   0.0800 
 40 H       -6.4500    -2.3620     1.4350 H     1 <1>   0.0800 
 41 H       -4.3140    -5.1540     2.2730 H     1 <1>   0.1500 
 42 H       -4.5640    -7.4390     1.6410 H     1 <1>   0.1500 
 43 H       -9.4230    -3.5510    -1.9490 H     1 <1>   0.1500 
 44 H       -8.1170    -7.5170    -1.5080 H     1 <1>   0.1500 
 45 H       -8.4440    -0.6050    -0.1270 H     1 <1>   0.0800 
 46 H       -9.6460    -1.8840    -0.2380 H     1 <1>   0.0800 
 47 H       -8.6960    -1.4250    -1.6620 H     1 <1>   0.0800 
 48 H       -9.6020    -5.8750    -2.5210 H     1 <1>   0.1500 
 49 H       -5.9560   -10.3530    -0.0280 H     1 <1>   0.0800 
 50 H       -5.7880    -9.4790     1.4900 H     1 <1>   0.0800 
 51 H       -4.5680    -9.3000     0.2140 H     1 <1>   0.0800 
@<TRIPOS>BOND
  1   1   2  2   
  2   2   3  am  
  3   2   4  1   
  4   3   5  1   
  5   3  27  1   
  6   4   6  1   
  7   4   7  1   
  8   4  28  1   
  9   5   8  1   
 10   5   9  1   
 11   5  29  1   
 12   6  10  1   
 13   6  30  1   
 14   6  31  1   
 15   7  11  1   
 16   7  32  1   
 17   7  33  1   
 18   8  10  1   
 19   8  34  1   
 20   8  35  1   
 21   9  11  1   
 22   9  36  1   
 23   9  37  1   
 24  11  12  1   
 25  11  38  1   
 26  12  13  1   
 27  12  39  1   
 28  12  40  1   
 29  13  14  ar  
 30  13  15  ar  
 31  14  16  ar  
 32  14  17  ar  
 33  15  18  ar  
 34  15  41  1   
 35  16  19  1   
 36  16  20  ar  
 37  17  21  ar  
 38  17  22  ar  
 39  18  21  ar  
 40  18  42  1   
 41  19  23  1   
 42  20  24  ar  
 43  20  43  1   
 44  21  25  1   
 45  22  24  ar  
 46  22  44  1   
 47  23  45  1   
 48  23  46  1   
 49  23  47  1   
 50  24  48  1   
 51  25  26  1   
 52  26  49  1   
 53  26  50  1   
 54  26  51  1   
@<TRIPOS>SUBSTRUCTURE
  1 ****  13 GROUP 4 **** **** 0

# MOE 2024.06 (io_trps.svl 2023.06)
