@<TRIPOS>MOLECULE
NONAME
54 57 1 0 0 
SMALL
USER_CHARGES


@<TRIPOS>ATOM
  1 O        1.2270     0.2380     2.3580 O.2   1 <1>  -0.5700 
  2 C        1.7210     0.6210     1.3120 C.2   1 <1>   0.5440 
  3 N        1.2890     1.8160     0.7820 N.am  1 <1>  -0.6600 
  4 C        2.7510    -0.1430     0.6570 C.ar  1 <1>   0.0860 
  5 C        1.6900     2.3640    -0.5320 C.3   1 <1>   0.1400 
  6 C        0.2010     2.6140     1.3870 C.3   1 <1>   0.1400 
  7 C        2.4970    -1.3400    -0.0490 C.ar  1 <1>   0.4100 
  8 C        4.0590     0.3190     0.7180 C.ar  1 <1>  -0.1500 
  9 C        0.5690     3.3300    -0.8960 C.3   1 <1>  -0.1600 
 10 C        0.0190     3.8030     0.4480 C.3   1 <1>  -0.1600 
 11 N        3.4630    -2.0340    -0.6570 N.ar  1 <1>  -0.6200 
 12 N        1.2350    -1.9090    -0.1830 N.pl3 1 <1>  -0.8380 
 13 C        5.0420    -0.4070     0.0880 C.ar  1 <1>  -0.1500 
 14 C        4.6900    -1.5650    -0.5780 C.ar  1 <1>   0.1600 
 15 C        1.0990    -3.4040    -0.1940 C.3   1 <1>   0.2090 
 16 C       -0.0060    -1.1070    -0.3970 C.3   1 <1>   0.2090 
 17 C       -0.3070    -3.8350     0.2410 C.3   1 <1>   0.1000 
 18 C       -0.9900    -1.8730    -1.2860 C.3   1 <1>  -0.1600 
 19 C       -0.3760    -5.3520     0.3800 C.2   1 <1>   0.2980 
 20 C       -1.3810    -3.2480    -0.7070 C.3   1 <1>  -0.1600 
 21 O        0.3510    -5.9120     1.3170 O.3   1 <1>  -0.0190 
 22 N       -1.0740    -6.1600    -0.3170 N.2   1 <1>  -0.5650 
 23 N        0.0940    -7.1790     1.2040 N.2   1 <1>  -0.4100 
 24 C       -0.7380    -7.3120     0.2480 C.2   1 <1>   0.3350 
 25 C       -1.3380    -8.6290    -0.2500 C.3   1 <1>   0.1010 
 26 C       -2.7330    -8.8480     0.3530 C.3   1 <1>  -0.2400 
 27 C       -0.4400    -9.8390     0.0520 C.3   1 <1>  -0.2400 
 28 H        1.7980     1.5860    -1.2700 H     1 <1>   0.0800 
 29 H        2.6200     2.8940    -0.4210 H     1 <1>   0.0800 
 30 H        0.4690     2.9270     2.3820 H     1 <1>   0.0800 
 31 H       -0.6930     2.0160     1.4270 H     1 <1>   0.0800 
 32 H        4.2890     1.2240     1.2530 H     1 <1>   0.1500 
 33 H       -0.1930     2.7950    -1.4350 H     1 <1>   0.0800 
 34 H        0.9240     4.1430    -1.5040 H     1 <1>   0.0800 
 35 H        0.6060     4.6270     0.8140 H     1 <1>   0.0800 
 36 H       -1.0110     4.1080     0.3870 H     1 <1>   0.0800 
 37 H        6.0680    -0.0860     0.1120 H     1 <1>   0.1500 
 38 H        5.4620    -2.1340    -1.0690 H     1 <1>   0.1500 
 39 H        1.8320    -3.8270     0.4720 H     1 <1>   0.0800 
 40 H        1.3000    -3.7680    -1.1870 H     1 <1>   0.0800 
 41 H        0.2420    -0.1730    -0.8690 H     1 <1>   0.0800 
 42 H       -0.4630    -0.8980     0.5560 H     1 <1>   0.0800 
 43 H       -0.4660    -3.4270     1.2230 H     1 <1>   0.0800 
 44 H       -0.5230    -2.0100    -2.2460 H     1 <1>   0.0800 
 45 H       -1.8740    -1.2800    -1.4400 H     1 <1>   0.0800 
 46 H       -2.3060    -3.1670    -0.1630 H     1 <1>   0.0800 
 47 H       -1.5520    -3.9130    -1.5360 H     1 <1>   0.0800 
 48 H       -1.4390    -8.5510    -1.3190 H     1 <1>   0.0800 
 49 H       -2.6680    -8.9200     1.4240 H     1 <1>   0.0800 
 50 H       -3.1730    -9.7500    -0.0330 H     1 <1>   0.0800 
 51 H       -3.3730    -8.0200     0.1040 H     1 <1>   0.0800 
 52 H       -0.3260    -9.9670     1.1140 H     1 <1>   0.0800 
 53 H        0.5340    -9.6890    -0.3800 H     1 <1>   0.0800 
 54 H       -0.8640   -10.7360    -0.3630 H     1 <1>   0.0800 
@<TRIPOS>BOND
  1   1   2  2   
  2   2   3  am  
  3   2   4  1   
  4   3   5  1   
  5   3   6  1   
  6   4   7  ar  
  7   4   8  ar  
  8   5   9  1   
  9   5  28  1   
 10   5  29  1   
 11   6  10  1   
 12   6  30  1   
 13   6  31  1   
 14   7  11  ar  
 15   7  12  1   
 16   8  13  ar  
 17   8  32  1   
 18   9  10  1   
 19   9  33  1   
 20   9  34  1   
 21  10  35  1   
 22  10  36  1   
 23  11  14  ar  
 24  12  15  1   
 25  12  16  1   
 26  13  14  ar  
 27  13  37  1   
 28  14  38  1   
 29  15  17  1   
 30  15  39  1   
 31  15  40  1   
 32  16  18  1   
 33  16  41  1   
 34  16  42  1   
 35  17  19  1   
 36  17  20  1   
 37  17  43  1   
 38  18  20  1   
 39  18  44  1   
 40  18  45  1   
 41  19  21  1   
 42  19  22  2   
 43  20  46  1   
 44  20  47  1   
 45  21  23  1   
 46  22  24  1   
 47  23  24  2   
 48  24  25  1   
 49  25  26  1   
 50  25  27  1   
 51  25  48  1   
 52  26  49  1   
 53  26  50  1   
 54  26  51  1   
 55  27  52  1   
 56  27  53  1   
 57  27  54  1   
@<TRIPOS>SUBSTRUCTURE
  1 ****  12 GROUP 4 **** **** 0

# MOE 2024.06 (io_trps.svl 2023.06)
