@<TRIPOS>MOLECULE
NONAME
53 56 1 0 0 
SMALL
USER_CHARGES


@<TRIPOS>ATOM
  1 F        0.7350    -1.6530     1.9360 F     1 <1>  -0.1900 
  2 C        1.0020    -1.5380     0.6550 C.ar  1 <1>   0.1900 
  3 C        0.3990    -2.4140    -0.2570 C.ar  1 <1>   0.1000 
  4 C        1.8780    -0.5430     0.2710 C.ar  1 <1>  -0.1500 
  5 N       -0.4930    -3.4360     0.0960 N.pl3 1 <1>  -0.8380 
  6 C        0.7220    -2.2430    -1.5970 C.ar  1 <1>  -0.1500 
  7 C        2.1790    -0.3990    -1.0730 C.ar  1 <1>  -0.1500 
  8 C       -1.7980    -2.9710     0.6140 C.3   1 <1>   0.2090 
  9 C        0.1060    -4.5470     0.8660 C.3   1 <1>   0.2090 
 10 C        1.5990    -1.2490    -2.0020 C.ar  1 <1>  -0.1500 
 11 C       -2.7840    -4.1290     0.4930 C.3   1 <1>  -0.1600 
 12 C       -0.8270    -5.7460     0.7410 C.3   1 <1>  -0.1600 
 13 C       -2.2320    -5.3620     1.2170 C.3   1 <1>   0.4230 
 14 N       -3.1880    -6.4930     1.0850 N.4   1 <1>  -0.9060 
 15 C       -3.3870    -7.0750    -0.2760 C.3   1 <1>   0.4230 
 16 C       -4.7950    -7.6590    -0.4050 C.3   1 <1>  -0.0800 
 17 C       -2.5800    -8.3670    -0.3610 C.3   1 <1>   0.1200 
 18 C       -4.6560    -9.0530     0.2300 C.3   1 <1>   0.1200 
 19 C       -5.9650    -6.8240     0.1510 C.3   1 <1>  -0.0170 
 20 O       -3.2900    -9.2220     0.4710 O.3   1 <1>  -0.5600 
 21 C       -7.2910    -7.4950    -0.1630 C.ar  1 <1>  -0.1430 
 22 C       -7.8870    -7.3790    -1.4030 C.ar  1 <1>  -0.1500 
 23 C       -7.9690    -8.2560     0.7700 C.ar  1 <1>  -0.1500 
 24 C       -9.0920    -8.0170    -1.6470 C.ar  1 <1>   0.1600 
 25 C       -9.1710    -8.8530     0.4230 C.ar  1 <1>   0.1600 
 26 N       -9.7440    -8.7540    -0.7640 N.ar  1 <1>  -0.6200 
 27 H        2.3160     0.1050     1.0090 H     1 <1>   0.1500 
 28 H        0.2770    -2.8970    -2.3230 H     1 <1>   0.1500 
 29 H        2.8590     0.3710    -1.3960 H     1 <1>   0.1500 
 30 H       -1.6950    -2.6570     1.6400 H     1 <1>   0.0800 
 31 H       -2.1390    -2.1280     0.0330 H     1 <1>   0.0800 
 32 H        1.0770    -4.7850     0.4600 H     1 <1>   0.0800 
 33 H        0.2290    -4.2570     1.8960 H     1 <1>   0.0800 
 34 H        1.8320    -1.1370    -3.0470 H     1 <1>   0.1500 
 35 H       -2.9280    -4.3220    -0.5540 H     1 <1>   0.0800 
 36 H       -3.7200    -3.8270     0.9250 H     1 <1>   0.0800 
 37 H       -0.4350    -6.5500     1.3370 H     1 <1>   0.0800 
 38 H       -0.8290    -6.0390    -0.2930 H     1 <1>   0.0800 
 39 H       -2.1520    -5.1070     2.2620 H     1 <1>   0.0800 
 40 H       -4.0920    -6.1990     1.4560 H     1 <1>   0.4500 
 41 H       -2.8880    -7.2870     1.6720 H     1 <1>   0.4500 
 42 H       -3.1500    -6.3740    -1.0600 H     1 <1>   0.0800 
 43 H       -4.9810    -7.8150    -1.4550 H     1 <1>   0.0800 
 44 H       -1.5670    -8.2820    -0.0130 H     1 <1>   0.0800 
 45 H       -2.5890    -8.7760    -1.3580 H     1 <1>   0.0800 
 46 H       -4.9910    -9.8300    -0.4390 H     1 <1>   0.0800 
 47 H       -5.1750    -9.1410     1.1700 H     1 <1>   0.0800 
 48 H       -5.9610    -5.8440    -0.2960 H     1 <1>   0.0800 
 49 H       -5.8880    -6.7040     1.2170 H     1 <1>   0.0800 
 50 H       -7.4350    -6.8010    -2.1880 H     1 <1>   0.1500 
 51 H       -7.5870    -8.3960     1.7640 H     1 <1>   0.1500 
 52 H       -9.5450    -7.9170    -2.6190 H     1 <1>   0.1500 
 53 H       -9.6880    -9.4430     1.1610 H     1 <1>   0.1500 
@<TRIPOS>BOND
  1   1   2  1   
  2   2   3  ar  
  3   2   4  ar  
  4   3   5  1   
  5   3   6  ar  
  6   4   7  ar  
  7   4  27  1   
  8   5   8  1   
  9   5   9  1   
 10   6  10  ar  
 11   6  28  1   
 12   7  10  ar  
 13   7  29  1   
 14   8  11  1   
 15   8  30  1   
 16   8  31  1   
 17   9  12  1   
 18   9  32  1   
 19   9  33  1   
 20  10  34  1   
 21  11  13  1   
 22  11  35  1   
 23  11  36  1   
 24  12  13  1   
 25  12  37  1   
 26  12  38  1   
 27  13  14  1   
 28  13  39  1   
 29  14  15  1   
 30  14  40  1   
 31  14  41  1   
 32  15  16  1   
 33  15  17  1   
 34  15  42  1   
 35  16  18  1   
 36  16  19  1   
 37  16  43  1   
 38  17  20  1   
 39  17  44  1   
 40  17  45  1   
 41  18  20  1   
 42  18  46  1   
 43  18  47  1   
 44  19  21  1   
 45  19  48  1   
 46  19  49  1   
 47  21  22  ar  
 48  21  23  ar  
 49  22  24  ar  
 50  22  50  1   
 51  23  25  ar  
 52  23  51  1   
 53  24  26  ar  
 54  24  52  1   
 55  25  26  ar  
 56  25  53  1   
@<TRIPOS>SUBSTRUCTURE
  1 ****  11 GROUP 4 **** **** 0

# MOE 2024.06 (io_trps.svl 2023.06)
