@<TRIPOS>MOLECULE
NONAME
46 48 1 0 0 
SMALL
USER_CHARGES


@<TRIPOS>ATOM
  1 O       -0.6900     1.0410     0.5350 O.2   1 <1>  -0.5700 
  2 C       -1.6860     1.1050    -0.1540 C.2   1 <1>   0.5690 
  3 N       -2.8610     0.4910     0.2130 N.am  1 <1>  -0.6600 
  4 C       -1.5910     1.8990    -1.4650 C.3   1 <1>   0.1810 
  5 C       -4.1290     0.5210    -0.5680 C.3   1 <1>   0.1400 
  6 C       -2.9660    -0.2960     1.4750 C.3   1 <1>   0.1400 
  7 O       -0.3010     2.3880    -1.6810 O.3   1 <1>  -0.6800 
  8 C       -4.5230    -0.9110    -0.9340 C.3   1 <1>  -0.1600 
  9 C       -3.3600    -1.7360     1.1400 C.3   1 <1>  -0.1600 
 10 C       -4.6530    -1.8030     0.3130 C.3   1 <1>   0.4240 
 11 O       -5.6500    -1.2510     1.1400 O.3   1 <1>  -0.5600 
 12 C       -4.9720    -3.2630    -0.0740 C.ar  1 <1>  -0.1440 
 13 C       -6.9750    -1.5860     0.8690 C.3   1 <1>   0.1200 
 14 C       -6.1610    -3.8680     0.3080 C.ar  1 <1>  -0.1440 
 15 C       -4.0690    -4.0060    -0.8240 C.ar  1 <1>  -0.1500 
 16 C       -7.1680    -3.0790     1.1210 C.3   1 <1>  -0.0170 
 17 C       -6.4340    -5.1790    -0.0500 C.ar  1 <1>  -0.1500 
 18 C       -4.3220    -5.3180    -1.1870 C.ar  1 <1>   0.0820 
 19 C       -5.5300    -5.9210    -0.8050 C.ar  1 <1>   0.0820 
 20 O       -3.3290    -5.9090    -1.9120 O.3   1 <1>  -0.3620 
 21 O       -5.8080    -7.2020    -1.1900 O.3   1 <1>  -0.3620 
 22 C       -3.0720    -7.2920    -1.8110 C.3   1 <1>   0.0400 
 23 C       -7.0700    -7.7950    -0.9760 C.3   1 <1>   0.0400 
 24 H       -2.2590     2.7400    -1.4310 H     1 <1>   0.0800 
 25 H       -1.8440     1.2680    -2.2970 H     1 <1>   0.0800 
 26 H       -4.0270     1.1070    -1.4640 H     1 <1>   0.0800 
 27 H       -4.9000     0.9690     0.0360 H     1 <1>   0.0800 
 28 H       -3.7110     0.1520     2.1100 H     1 <1>   0.0800 
 29 H       -2.0310    -0.2930     2.0080 H     1 <1>   0.0800 
 30 H        0.2360     2.1320    -0.8960 H     1 <1>   0.4000 
 31 H       -3.7700    -1.3130    -1.5860 H     1 <1>   0.0800 
 32 H       -5.4460    -0.9120    -1.4830 H     1 <1>   0.0800 
 33 H       -3.4930    -2.2980     2.0460 H     1 <1>   0.0800 
 34 H       -2.5480    -2.1860     0.6000 H     1 <1>   0.0800 
 35 H       -7.2040    -1.3330    -0.1510 H     1 <1>   0.0800 
 36 H       -7.6030    -1.0100     1.5250 H     1 <1>   0.0800 
 37 H       -3.1390    -3.5740    -1.1440 H     1 <1>   0.1500 
 38 H       -8.1700    -3.3560     0.8470 H     1 <1>   0.0800 
 39 H       -7.0330    -3.2850     2.1670 H     1 <1>   0.0800 
 40 H       -7.3640    -5.6060     0.2720 H     1 <1>   0.1500 
 41 H       -2.0720    -7.4730    -2.1570 H     1 <1>   0.0800 
 42 H       -3.7730    -7.8200    -2.4310 H     1 <1>   0.0800 
 43 H       -3.1680    -7.5930    -0.7820 H     1 <1>   0.0800 
 44 H       -7.0600    -8.7710    -1.4260 H     1 <1>   0.0800 
 45 H       -7.8250    -7.1860    -1.4400 H     1 <1>   0.0800 
 46 H       -7.2390    -7.8840     0.0830 H     1 <1>   0.0800 
@<TRIPOS>BOND
  1   1   2  2   
  2   2   3  am  
  3   2   4  1   
  4   3   5  1   
  5   3   6  1   
  6   4   7  1   
  7   4  24  1   
  8   4  25  1   
  9   5   8  1   
 10   5  26  1   
 11   5  27  1   
 12   6   9  1   
 13   6  28  1   
 14   6  29  1   
 15   7  30  1   
 16   8  10  1   
 17   8  31  1   
 18   8  32  1   
 19   9  10  1   
 20   9  33  1   
 21   9  34  1   
 22  10  11  1   
 23  10  12  1   
 24  11  13  1   
 25  12  14  ar  
 26  12  15  ar  
 27  13  16  1   
 28  13  35  1   
 29  13  36  1   
 30  14  16  1   
 31  14  17  ar  
 32  15  18  ar  
 33  15  37  1   
 34  16  38  1   
 35  16  39  1   
 36  17  19  ar  
 37  17  40  1   
 38  18  19  ar  
 39  18  20  1   
 40  19  21  1   
 41  20  22  1   
 42  21  23  1   
 43  22  41  1   
 44  22  42  1   
 45  22  43  1   
 46  23  44  1   
 47  23  45  1   
 48  23  46  1   
@<TRIPOS>SUBSTRUCTURE
  1 ****  12 GROUP 4 **** **** 0

# MOE 2024.06 (io_trps.svl 2023.06)
