@<TRIPOS>MOLECULE
NONAME
55 56 1 0 0 
SMALL
USER_CHARGES


@<TRIPOS>ATOM
  1 O       -2.4920     0.4340    -1.2340 O.2   1 <1>  -0.5700 
  2 C       -3.6570     0.7040    -1.0470 C.2   1 <1>   0.5690 
  3 N       -4.6510    -0.1620    -1.4490 N.am  1 <1>  -0.6600 
  4 C       -3.9530     2.0590    -0.3830 C.3   1 <1>  -0.0190 
  5 C       -6.1110     0.0160    -1.1880 C.3   1 <1>   0.2840 
  6 C       -4.3130    -1.3380    -2.3030 C.3   1 <1>   0.1400 
  7 C       -3.2550     3.2190    -1.1210 C.3   1 <1>  -0.1600 
  8 C       -3.5600     2.0610     1.1160 C.3   1 <1>  -0.1600 
  9 C       -6.4360     0.1530     0.2960 C.ar  1 <1>  -0.1440 
 10 C       -4.2770    -2.6180    -1.4660 C.3   1 <1>  -0.1600 
 11 C       -3.6770     4.5960    -0.5630 C.3   1 <1>   0.2000 
 12 C       -3.3200     3.4680     1.6990 C.3   1 <1>  -0.1600 
 13 C       -7.3180     1.1380     0.7180 C.ar  1 <1>  -0.1500 
 14 C       -5.8700    -0.6890     1.2420 C.ar  1 <1>  -0.1500 
 15 C       -3.8830    -3.8300    -2.3200 C.3   1 <1>  -0.1600 
 16 O       -2.5940     5.4850    -0.6980 O.3   1 <1>  -0.5600 
 17 C       -4.1040     4.5330     0.9280 C.3   1 <1>   0.2000 
 18 C       -7.6200     1.2830     2.0610 C.ar  1 <1>  -0.1500 
 19 C       -6.1740    -0.5450     2.5840 C.ar  1 <1>  -0.1500 
 20 C       -3.8500    -5.1080    -1.4780 C.3   1 <1>  -0.2400 
 21 C       -2.3810     5.9740    -1.9850 C.3   1 <1>   0.0400 
 22 O       -3.8660     5.7570     1.5210 O.3   1 <1>  -0.6800 
 23 C       -7.0500     0.4420     3.0020 C.ar  1 <1>  -0.1430 
 24 C       -7.3780     0.6050     4.4750 C.3   1 <1>  -0.0970 
 25 H       -5.0040     2.2580    -0.4490 H     1 <1>   0.0800 
 26 H       -6.4520     0.8850    -1.7230 H     1 <1>   0.0800 
 27 H       -6.6540    -0.8310    -1.5700 H     1 <1>   0.0800 
 28 H       -5.0390    -1.4320    -3.0930 H     1 <1>   0.0800 
 29 H       -3.3520    -1.1920    -2.7670 H     1 <1>   0.0800 
 30 H       -3.4910     3.1700    -2.1690 H     1 <1>   0.0800 
 31 H       -2.1910     3.0970    -1.0090 H     1 <1>   0.0800 
 32 H       -4.3410     1.5790     1.6760 H     1 <1>   0.0800 
 33 H       -2.6640     1.4800     1.2560 H     1 <1>   0.0800 
 34 H       -3.5560    -2.4930    -0.6750 H     1 <1>   0.0800 
 35 H       -5.2450    -2.7940    -1.0310 H     1 <1>   0.0800 
 36 H       -4.5100     4.9820    -1.1240 H     1 <1>   0.0800 
 37 H       -2.2710     3.6990     1.6290 H     1 <1>   0.0800 
 38 H       -3.6030     3.4810     2.7370 H     1 <1>   0.0800 
 39 H       -7.7770     1.8020     0.0070 H     1 <1>   0.1500 
 40 H       -5.1800    -1.4560     0.9420 H     1 <1>   0.1500 
 41 H       -4.5880    -3.9530    -3.1240 H     1 <1>   0.0800 
 42 H       -2.9090    -3.6650    -2.7500 H     1 <1>   0.0800 
 43 H       -5.1570     4.3250     1.0090 H     1 <1>   0.0800 
 44 H       -8.3010     2.0560     2.3720 H     1 <1>   0.1500 
 45 H       -5.7210    -1.2050     3.3030 H     1 <1>   0.1500 
 46 H       -4.8180    -5.3050    -1.0530 H     1 <1>   0.0800 
 47 H       -3.1340    -5.0130    -0.6800 H     1 <1>   0.0800 
 48 H       -3.5680    -5.9460    -2.0920 H     1 <1>   0.0800 
 49 H       -1.5570     6.6650    -1.9470 H     1 <1>   0.0800 
 50 H       -3.2650     6.4860    -2.3240 H     1 <1>   0.0800 
 51 H       -2.1350     5.1600    -2.6450 H     1 <1>   0.0800 
 52 H       -3.0850     6.1290     1.0510 H     1 <1>   0.4000 
 53 H       -8.3750     0.9860     4.5990 H     1 <1>   0.0800 
 54 H       -6.6850     1.2910     4.9270 H     1 <1>   0.0800 
 55 H       -7.3110    -0.3410     4.9810 H     1 <1>   0.0800 
@<TRIPOS>BOND
  1   1   2  2   
  2   2   3  am  
  3   2   4  1   
  4   3   5  1   
  5   3   6  1   
  6   4   7  1   
  7   4   8  1   
  8   4  25  1   
  9   5   9  1   
 10   5  26  1   
 11   5  27  1   
 12   6  10  1   
 13   6  28  1   
 14   6  29  1   
 15   7  11  1   
 16   7  30  1   
 17   7  31  1   
 18   8  12  1   
 19   8  32  1   
 20   8  33  1   
 21   9  13  ar  
 22   9  14  ar  
 23  10  15  1   
 24  10  34  1   
 25  10  35  1   
 26  11  16  1   
 27  11  17  1   
 28  11  36  1   
 29  12  17  1   
 30  12  37  1   
 31  12  38  1   
 32  13  18  ar  
 33  13  39  1   
 34  14  19  ar  
 35  14  40  1   
 36  15  20  1   
 37  15  41  1   
 38  15  42  1   
 39  16  21  1   
 40  17  22  1   
 41  17  43  1   
 42  18  23  ar  
 43  18  44  1   
 44  19  23  ar  
 45  19  45  1   
 46  20  46  1   
 47  20  47  1   
 48  20  48  1   
 49  21  49  1   
 50  21  50  1   
 51  21  51  1   
 52  22  52  1   
 53  23  24  1   
 54  24  53  1   
 55  24  54  1   
 56  24  55  1   
@<TRIPOS>SUBSTRUCTURE
  1 ****   4 GROUP 4 **** **** 0

# MOE 2024.06 (io_trps.svl 2023.06)
