@<TRIPOS>MOLECULE
NONAME
43 44 1 0 0 
SMALL
USER_CHARGES


@<TRIPOS>ATOM
  1 S        0.1530     0.8680    -1.2080 S.o2  1 <1>   1.3330 
  2 O        0.0360     1.8530    -2.2600 O.2   1 <1>  -0.6500 
  3 O        0.0210    -0.5300    -1.5460 O.2   1 <1>  -0.6500 
  4 N        1.6800     1.0500    -0.4910 N.am  1 <1>  -0.8490 
  5 C       -1.0560     1.2410     0.0760 C.3   1 <1>  -0.0550 
  6 C        2.0220    -0.0340     0.4380 C.3   1 <1>   0.1160 
  7 C        2.7340     1.1520    -1.5050 C.3   1 <1>   0.1160 
  8 C       -1.1060     2.6540     0.7060 C.3   1 <1>  -0.0800 
  9 C       -1.2160     3.8060    -0.3050 C.3   1 <1>   0.2000 
 10 C        0.1030     2.9990     1.5890 C.3   1 <1>   0.1400 
 11 O       -2.0510     4.7630     0.2480 O.3   1 <1>  -0.6800 
 12 C        0.1880     4.4040    -0.3970 C.3   1 <1>   0.1400 
 13 N        0.7900     4.1310     0.9290 N.am  1 <1>  -0.6600 
 14 C        1.7120     4.9230     1.5700 C.2   1 <1>   0.5440 
 15 O        1.9570     4.7000     2.7390 O.2   1 <1>  -0.5700 
 16 C        2.3610     6.0250     0.8950 C.ar  1 <1>   0.0860 
 17 C        3.2540     5.8790    -0.1660 C.ar  1 <1>  -0.1440 
 18 C        2.0770     7.3200     1.3210 C.ar  1 <1>   0.1600 
 19 C        3.7600     7.0350    -0.7250 C.ar  1 <1>  -0.1500 
 20 C        3.6850     4.5240    -0.7080 C.3   1 <1>  -0.0970 
 21 N        2.5500     8.4370     0.7900 N.ar  1 <1>  -0.6200 
 22 C        3.3820     8.2670    -0.2230 C.ar  1 <1>   0.1600 
 23 H       -2.0250     1.0580    -0.3480 H     1 <1>   0.0800 
 24 H       -0.9400     0.5290     0.8680 H     1 <1>   0.0800 
 25 H        2.9660     0.1730     0.9140 H     1 <1>   0.0800 
 26 H        2.0920    -0.9740    -0.0850 H     1 <1>   0.0800 
 27 H        1.2720    -0.1220     1.2050 H     1 <1>   0.0800 
 28 H        3.6910     1.3010    -1.0350 H     1 <1>   0.0800 
 29 H        2.5430     1.9890    -2.1550 H     1 <1>   0.0800 
 30 H        2.7670     0.2550    -2.1020 H     1 <1>   0.0800 
 31 H       -1.9800     2.6550     1.3350 H     1 <1>   0.0800 
 32 H       -1.6220     3.5210    -1.2610 H     1 <1>   0.0800 
 33 H        0.7840     2.1750     1.7000 H     1 <1>   0.0800 
 34 H       -0.2240     3.3080     2.5680 H     1 <1>   0.0800 
 35 H       -1.6230     5.1330     1.0460 H     1 <1>   0.4000 
 36 H        0.1560     5.4560    -0.6230 H     1 <1>   0.0800 
 37 H        0.7620     3.8990    -1.1500 H     1 <1>   0.0800 
 38 H        1.4070     7.4300     2.1570 H     1 <1>   0.1500 
 39 H        4.4480     6.9900    -1.5490 H     1 <1>   0.1500 
 40 H        4.7180     4.5540    -1.0050 H     1 <1>   0.0800 
 41 H        3.0880     4.2690    -1.5650 H     1 <1>   0.0800 
 42 H        3.5740     3.7540     0.0350 H     1 <1>   0.0800 
 43 H        3.7850     9.1570    -0.6750 H     1 <1>   0.1500 
@<TRIPOS>BOND
  1   1   2  2   
  2   1   3  2   
  3   1   4  am  
  4   1   5  1   
  5   4   6  1   
  6   4   7  1   
  7   5   8  1   
  8   5  23  1   
  9   5  24  1   
 10   6  25  1   
 11   6  26  1   
 12   6  27  1   
 13   7  28  1   
 14   7  29  1   
 15   7  30  1   
 16   8   9  1   
 17   8  10  1   
 18   8  31  1   
 19   9  11  1   
 20   9  12  1   
 21   9  32  1   
 22  10  13  1   
 23  10  33  1   
 24  10  34  1   
 25  11  35  1   
 26  12  13  1   
 27  12  36  1   
 28  12  37  1   
 29  13  14  am  
 30  14  15  2   
 31  14  16  1   
 32  16  17  ar  
 33  16  18  ar  
 34  17  19  ar  
 35  17  20  1   
 36  18  21  ar  
 37  18  38  1   
 38  19  22  ar  
 39  19  39  1   
 40  20  40  1   
 41  20  41  1   
 42  20  42  1   
 43  21  22  ar  
 44  22  43  1   
@<TRIPOS>SUBSTRUCTURE
  1 ****  13 GROUP 4 **** **** 0

# MOE 2024.06 (io_trps.svl 2023.06)
