@<TRIPOS>MOLECULE
NONAME
56 57 1 0 0 
SMALL
USER_CHARGES


@<TRIPOS>ATOM
  1 O       -1.1350    -0.2910     0.7920 O.2   1 <1>  -0.5700 
  2 C       -1.6080     0.4590    -0.0300 C.2   1 <1>   0.5690 
  3 N       -2.4040    -0.0330    -1.0440 N.am  1 <1>  -0.6600 
  4 C       -1.2660     1.9450     0.1540 C.3   1 <1>  -0.0190 
  5 C       -2.5830    -1.5150    -1.1770 C.3   1 <1>   0.1400 
  6 C       -3.0540     0.7610    -2.1250 C.3   1 <1>   0.1400 
  7 C       -2.4870     2.8370     0.4670 C.3   1 <1>  -0.1600 
  8 C       -0.3610     2.5130    -0.9700 C.3   1 <1>  -0.1600 
  9 C       -3.5270    -2.0530    -0.1020 C.3   1 <1>   0.1200 
 10 C       -4.5680     0.7910    -1.9180 C.3   1 <1>  -0.2400 
 11 C       -2.0770     4.2750     0.8490 C.3   1 <1>   0.2000 
 12 C       -0.5160     4.0320    -1.1670 C.3   1 <1>  -0.1600 
 13 O       -3.9130    -3.3630    -0.4600 O.3   1 <1>  -0.3630 
 14 O       -3.1220     5.1350     0.4650 O.3   1 <1>  -0.5600 
 15 C       -0.7570     4.7340     0.1710 C.3   1 <1>   0.2000 
 16 C       -4.7920    -4.0640     0.2990 C.ar  1 <1>   0.0820 
 17 C       -4.1790     5.2250     1.3690 C.3   1 <1>   0.0400 
 18 O       -0.8140     6.0920    -0.0660 O.3   1 <1>  -0.6800 
 19 C       -5.1960    -5.2950    -0.1920 C.ar  1 <1>  -0.1500 
 20 C       -5.2950    -3.6140     1.5170 C.ar  1 <1>  -0.1500 
 21 C       -6.0960    -6.0800     0.5100 C.ar  1 <1>  -0.1440 
 22 C       -6.1930    -4.3950     2.2220 C.ar  1 <1>  -0.1500 
 23 C       -6.5920    -5.6230     1.7210 C.ar  1 <1>  -0.1500 
 24 C       -6.5310    -7.4280    -0.0400 C.3   1 <1>  -0.0170 
 25 C       -5.5930    -8.5340     0.4480 C.3   1 <1>  -0.2400 
 26 H       -0.6650     1.9830     1.0480 H     1 <1>   0.0800 
 27 H       -2.9820    -1.7480    -2.1490 H     1 <1>   0.0800 
 28 H       -1.6260    -1.9980    -1.0780 H     1 <1>   0.0800 
 29 H       -2.6810     1.7660    -2.1470 H     1 <1>   0.0800 
 30 H       -2.8260     0.3170    -3.0800 H     1 <1>   0.0800 
 31 H       -3.0420     2.4000     1.2780 H     1 <1>   0.0800 
 32 H       -3.1300     2.8860    -0.3890 H     1 <1>   0.0800 
 33 H        0.6620     2.2960    -0.7110 H     1 <1>   0.0800 
 34 H       -0.5460     2.0200    -1.9060 H     1 <1>   0.0800 
 35 H       -4.4140    -1.4490    -0.0410 H     1 <1>   0.0800 
 36 H       -3.0270    -2.0910     0.8500 H     1 <1>   0.0800 
 37 H       -4.8060     1.1680    -0.9400 H     1 <1>   0.0800 
 38 H       -4.9880    -0.1920    -2.0340 H     1 <1>   0.0800 
 39 H       -5.0180     1.4350    -2.6510 H     1 <1>   0.0800 
 40 H       -1.9380     4.3490     1.9150 H     1 <1>   0.0800 
 41 H       -1.3550     4.2240    -1.8150 H     1 <1>   0.0800 
 42 H        0.3700     4.4260    -1.6330 H     1 <1>   0.0800 
 43 H        0.0800     4.5490     0.8230 H     1 <1>   0.0800 
 44 H       -4.9050     5.9100     0.9680 H     1 <1>   0.0800 
 45 H       -3.8110     5.5990     2.3090 H     1 <1>   0.0800 
 46 H       -4.6290     4.2560     1.4960 H     1 <1>   0.0800 
 47 H       -1.7720     6.3050    -0.1510 H     1 <1>   0.4000 
 48 H       -4.7970    -5.6330    -1.1310 H     1 <1>   0.1500 
 49 H       -4.9990    -2.6690     1.9300 H     1 <1>   0.1500 
 50 H       -6.5810    -4.0500     3.1640 H     1 <1>   0.1500 
 51 H       -7.2890    -6.2220     2.2800 H     1 <1>   0.1500 
 52 H       -7.5380    -7.6420     0.2740 H     1 <1>   0.0800 
 53 H       -6.5240    -7.3990    -1.1160 H     1 <1>   0.0800 
 54 H       -5.6070    -8.5840     1.5230 H     1 <1>   0.0800 
 55 H       -4.5860    -8.3330     0.1270 H     1 <1>   0.0800 
 56 H       -5.9010    -9.4850     0.0520 H     1 <1>   0.0800 
@<TRIPOS>BOND
  1   1   2  2   
  2   2   3  am  
  3   2   4  1   
  4   3   5  1   
  5   3   6  1   
  6   4   7  1   
  7   4   8  1   
  8   4  26  1   
  9   5   9  1   
 10   5  27  1   
 11   5  28  1   
 12   6  10  1   
 13   6  29  1   
 14   6  30  1   
 15   7  11  1   
 16   7  31  1   
 17   7  32  1   
 18   8  12  1   
 19   8  33  1   
 20   8  34  1   
 21   9  13  1   
 22   9  35  1   
 23   9  36  1   
 24  10  37  1   
 25  10  38  1   
 26  10  39  1   
 27  11  14  1   
 28  11  15  1   
 29  11  40  1   
 30  12  15  1   
 31  12  41  1   
 32  12  42  1   
 33  13  16  1   
 34  14  17  1   
 35  15  18  1   
 36  15  43  1   
 37  16  19  ar  
 38  16  20  ar  
 39  17  44  1   
 40  17  45  1   
 41  17  46  1   
 42  18  47  1   
 43  19  21  ar  
 44  19  48  1   
 45  20  22  ar  
 46  20  49  1   
 47  21  23  ar  
 48  21  24  1   
 49  22  23  ar  
 50  22  50  1   
 51  23  51  1   
 52  24  25  1   
 53  24  52  1   
 54  24  53  1   
 55  25  54  1   
 56  25  55  1   
 57  25  56  1   
@<TRIPOS>SUBSTRUCTURE
  1 ****   9 GROUP 4 **** **** 0

# MOE 2024.06 (io_trps.svl 2023.06)
