@<TRIPOS>MOLECULE
NONAME
62 66 1 0 0 
SMALL
USER_CHARGES


@<TRIPOS>ATOM
  1 O       -0.1570    -0.3000    -0.4290 O.3   1 <1>  -0.5600 
  2 C        0.3190     0.7680    -1.1760 C.3   1 <1>   0.1200 
  3 C       -1.5360    -0.1470    -0.2550 C.3   1 <1>   0.1200 
  4 C       -0.4100     1.9560    -0.5580 C.3   1 <1>   0.4230 
  5 C       -1.8110     1.3540    -0.4480 C.3   1 <1>  -0.0800 
  6 N        0.1630     2.1940     0.8010 N.4   1 <1>  -0.9060 
  7 C       -2.7650     1.9590     0.6030 C.3   1 <1>  -0.0170 
  8 C        1.1180     3.3230     0.9490 C.3   1 <1>   0.4230 
  9 C       -4.1550     1.3490     0.4730 C.ar  1 <1>  -0.1440 
 10 C        0.3750     4.6530     0.7670 C.3   1 <1>  -0.1600 
 11 C        2.3220     3.1740     0.0080 C.3   1 <1>  -0.1600 
 12 C       -5.0610     1.7360    -0.5450 C.ar  1 <1>   0.0000 
 13 C       -4.5660     0.3850     1.3480 C.ar  1 <1>  -0.1500 
 14 C        1.3490     5.8220     0.8710 C.3   1 <1>   0.2090 
 15 C        3.2450     4.3800     0.1420 C.3   1 <1>   0.2090 
 16 C       -6.3120     1.0720    -0.5990 C.ar  1 <1>   0.3100 
 17 C       -4.8060     2.7410    -1.5090 C.ar  1 <1>  -0.1500 
 18 C       -5.8310    -0.1990     1.2130 C.ar  1 <1>   0.1600 
 19 N        2.4240     5.5800    -0.1100 N.pl3 1 <1>  -0.8380 
 20 N       -6.6770     0.1120     0.2850 N.ar  1 <1>  -0.6200 
 21 C       -7.2240     1.4170    -1.6090 C.ar  1 <1>  -0.1500 
 22 C       -5.7190     3.0560    -2.4790 C.ar  1 <1>  -0.1500 
 23 C        3.1060     6.7080    -0.5530 C.ar  1 <1>   0.1000 
 24 C       -6.9420     2.3850    -2.5340 C.ar  1 <1>  -0.1500 
 25 C        4.0220     7.3690     0.2590 C.ar  1 <1>  -0.1500 
 26 C        2.8730     7.1940    -1.8310 C.ar  1 <1>  -0.1500 
 27 C        4.6940     8.4920    -0.1930 C.ar  1 <1>  -0.1440 
 28 C        3.5390     8.3140    -2.2910 C.ar  1 <1>  -0.1500 
 29 C        4.4490     8.9630    -1.4730 C.ar  1 <1>  -0.1500 
 30 C        5.6930     9.2130     0.6940 C.3   1 <1>  -0.0960 
 31 H        1.3900     0.8160    -1.0990 H     1 <1>   0.0800 
 32 H        0.0340     0.6190    -2.2050 H     1 <1>   0.0800 
 33 H       -2.0490    -0.7430    -0.9930 H     1 <1>   0.0800 
 34 H       -1.7900    -0.4990     0.7300 H     1 <1>   0.0800 
 35 H       -0.3800     2.8400    -1.1740 H     1 <1>   0.0800 
 36 H       -2.2770     1.4570    -1.4140 H     1 <1>   0.0800 
 37 H       -0.6000     2.3220     1.4670 H     1 <1>   0.4500 
 38 H        0.6140     1.3020     1.0590 H     1 <1>   0.4500 
 39 H       -2.8330     3.0270     0.4870 H     1 <1>   0.0800 
 40 H       -2.4020     1.7670     1.5970 H     1 <1>   0.0800 
 41 H        1.5030     3.3120     1.9570 H     1 <1>   0.0800 
 42 H       -0.0910     4.7090    -0.2000 H     1 <1>   0.0800 
 43 H       -0.3790     4.7680     1.5240 H     1 <1>   0.0800 
 44 H        2.8780     2.2860     0.2480 H     1 <1>   0.0800 
 45 H        2.0130     3.1310    -1.0200 H     1 <1>   0.0800 
 46 H       -3.9460     0.0400     2.1550 H     1 <1>   0.1500 
 47 H        1.7680     5.8950     1.8610 H     1 <1>   0.0800 
 48 H        0.8500     6.7500     0.6400 H     1 <1>   0.0800 
 49 H        4.0410     4.3260    -0.5830 H     1 <1>   0.0800 
 50 H        3.6800     4.4320     1.1270 H     1 <1>   0.0800 
 51 H       -3.8800     3.2800    -1.4880 H     1 <1>   0.1500 
 52 H       -6.1180    -0.9560     1.9230 H     1 <1>   0.1500 
 53 H       -8.1600     0.8910    -1.6280 H     1 <1>   0.1500 
 54 H       -5.5140     3.8210    -3.2090 H     1 <1>   0.1500 
 55 H       -7.6520     2.6390    -3.3020 H     1 <1>   0.1500 
 56 H        4.2020     6.9960     1.2490 H     1 <1>   0.1500 
 57 H        2.1680     6.6860    -2.4610 H     1 <1>   0.1500 
 58 H        3.3520     8.6840    -3.2840 H     1 <1>   0.1500 
 59 H        4.9640     9.8340    -1.8360 H     1 <1>   0.1500 
 60 H        6.6580     9.2300     0.2190 H     1 <1>   0.0800 
 61 H        5.7890     8.7220     1.6450 H     1 <1>   0.0800 
 62 H        5.3700    10.2250     0.8600 H     1 <1>   0.0800 
@<TRIPOS>BOND
  1   1   2  1   
  2   1   3  1   
  3   2   4  1   
  4   2  31  1   
  5   2  32  1   
  6   3   5  1   
  7   3  33  1   
  8   3  34  1   
  9   4   5  1   
 10   4   6  1   
 11   4  35  1   
 12   5   7  1   
 13   5  36  1   
 14   6   8  1   
 15   6  37  1   
 16   6  38  1   
 17   7   9  1   
 18   7  39  1   
 19   7  40  1   
 20   8  10  1   
 21   8  11  1   
 22   8  41  1   
 23   9  12  ar  
 24   9  13  ar  
 25  10  14  1   
 26  10  42  1   
 27  10  43  1   
 28  11  15  1   
 29  11  44  1   
 30  11  45  1   
 31  12  16  ar  
 32  12  17  ar  
 33  13  18  ar  
 34  13  46  1   
 35  14  19  1   
 36  14  47  1   
 37  14  48  1   
 38  15  19  1   
 39  15  49  1   
 40  15  50  1   
 41  16  20  ar  
 42  16  21  ar  
 43  17  22  ar  
 44  17  51  1   
 45  18  20  ar  
 46  18  52  1   
 47  19  23  1   
 48  21  24  ar  
 49  21  53  1   
 50  22  24  ar  
 51  22  54  1   
 52  23  25  ar  
 53  23  26  ar  
 54  24  55  1   
 55  25  27  ar  
 56  25  56  1   
 57  26  28  ar  
 58  26  57  1   
 59  27  29  ar  
 60  27  30  1   
 61  28  29  ar  
 62  28  58  1   
 63  29  59  1   
 64  30  60  1   
 65  30  61  1   
 66  30  62  1   
@<TRIPOS>SUBSTRUCTURE
  1 ****   4 GROUP 4 **** **** 0

# MOE 2024.06 (io_trps.svl 2023.06)
