@<TRIPOS>MOLECULE
NONAME
68 71 1 0 0 
SMALL
USER_CHARGES


@<TRIPOS>ATOM
  1 O        0.4320     0.0880     0.7000 O.2   1 <1>  -0.5700 
  2 C        1.3370    -0.6980     0.4880 C.2   1 <1>   0.5440 
  3 N        1.0720    -2.0520     0.5410 N.am  1 <1>  -0.6600 
  4 C        2.6640    -0.1780     0.2110 C.ar  1 <1>   0.0860 
  5 C       -0.3240    -2.5690     0.5120 C.3   1 <1>   0.1400 
  6 C        2.1140    -3.0900     0.7760 C.3   1 <1>   0.1400 
  7 C        3.2290     0.7920     1.0350 C.ar  1 <1>  -0.1500 
  8 C        3.4100    -0.6180    -0.8810 C.ar  1 <1>  -0.1500 
  9 C       -0.4460    -3.6650    -0.5510 C.3   1 <1>  -0.1600 
 10 C        2.0080    -4.1780    -0.2950 C.3   1 <1>  -0.1600 
 11 C        4.5020     1.2930     0.7920 C.ar  1 <1>   0.0830 
 12 C        4.6800    -0.1320    -1.1350 C.ar  1 <1>   0.0830 
 13 C        0.5910    -4.7850    -0.3410 C.3   1 <1>  -0.0190 
 14 O        5.1000     2.2360     1.5630 O.3   1 <1>  -0.3630 
 15 C        5.2280     0.8270    -0.2910 C.ar  1 <1>  -0.1500 
 16 O        5.3220    -0.6350    -2.2180 O.3   1 <1>  -0.3630 
 17 C        0.4460    -5.8670    -1.4180 C.2   1 <1>   0.5690 
 18 C        4.4120     2.8490     2.6320 C.3   1 <1>   0.0400 
 19 C        6.5990    -0.1680    -2.5930 C.3   1 <1>   0.0400 
 20 O        1.0670    -5.7450    -2.4500 O.2   1 <1>  -0.5700 
 21 N       -0.3800    -6.9410    -1.2160 N.am  1 <1>  -0.6600 
 22 C       -1.2520    -7.1830    -0.0430 C.3   1 <1>   0.1400 
 23 C       -0.6680    -7.9130    -2.2910 C.3   1 <1>   0.1400 
 24 C       -1.9960    -8.4950    -0.3380 C.3   1 <1>  -0.0800 
 25 C       -1.9550    -8.6250    -1.8720 C.3   1 <1>  -0.0800 
 26 C       -3.4140    -8.6450     0.2970 C.3   1 <1>   0.2800 
 27 C       -3.2080    -8.0020    -2.5070 C.3   1 <1>  -0.1600 
 28 O       -3.9830    -7.4030     0.5060 O.3   1 <1>  -0.6800 
 29 C       -4.3520    -9.3960    -0.6660 C.3   1 <1>  -0.1600 
 30 C       -3.3810    -9.3600     1.6660 C.3   1 <1>  -0.1600 
 31 C       -4.4910    -8.7170    -2.0460 C.3   1 <1>  -0.1600 
 32 C       -2.5490    -8.6650     2.7590 C.3   1 <1>  -0.2400 
 33 H       -0.5730    -2.9620     1.4820 H     1 <1>   0.0800 
 34 H       -1.0170    -1.7770     0.2850 H     1 <1>   0.0800 
 35 H        3.1000    -2.6630     0.7670 H     1 <1>   0.0800 
 36 H        1.9550    -3.5240     1.7490 H     1 <1>   0.0800 
 37 H        2.6420     1.1390     1.8640 H     1 <1>   0.1500 
 38 H        2.9910    -1.3500    -1.5470 H     1 <1>   0.1500 
 39 H       -1.4390    -4.0750    -0.5210 H     1 <1>   0.0800 
 40 H       -0.3070    -3.2230    -1.5230 H     1 <1>   0.0800 
 41 H        2.2570    -3.7520    -1.2510 H     1 <1>   0.0800 
 42 H        2.7240    -4.9530    -0.0890 H     1 <1>   0.0800 
 43 H        0.4120    -5.2340     0.6170 H     1 <1>   0.0800 
 44 H        6.2080     1.2300    -0.4500 H     1 <1>   0.1500 
 45 H        5.0620     3.5850     3.0690 H     1 <1>   0.0800 
 46 H        4.1640     2.1000     3.3640 H     1 <1>   0.0800 
 47 H        3.5250     3.3240     2.2510 H     1 <1>   0.0800 
 48 H        6.8980    -0.6910    -3.4830 H     1 <1>   0.0800 
 49 H        7.2940    -0.3730    -1.7980 H     1 <1>   0.0800 
 50 H        6.5400     0.8880    -2.7910 H     1 <1>   0.0800 
 51 H       -0.6670    -7.2690     0.8550 H     1 <1>   0.0800 
 52 H       -1.9260    -6.3510     0.0480 H     1 <1>   0.0800 
 53 H       -0.7730    -7.4160    -3.2400 H     1 <1>   0.0800 
 54 H        0.1470    -8.6140    -2.3480 H     1 <1>   0.0800 
 55 H       -1.3810    -9.2940     0.0370 H     1 <1>   0.0800 
 56 H       -1.9000    -9.6590    -2.1680 H     1 <1>   0.0800 
 57 H       -3.2620    -6.9650    -2.2170 H     1 <1>   0.0800 
 58 H       -3.1400    -8.0350    -3.5810 H     1 <1>   0.0800 
 59 H       -4.9030    -7.5190     0.8020 H     1 <1>   0.4000 
 60 H       -3.9490   -10.3820    -0.8170 H     1 <1>   0.0800 
 61 H       -5.3250    -9.5230    -0.2260 H     1 <1>   0.0800 
 62 H       -4.3890    -9.4720     2.0250 H     1 <1>   0.0800 
 63 H       -2.9910   -10.3530     1.5270 H     1 <1>   0.0800 
 64 H       -4.7670    -9.4640    -2.7710 H     1 <1>   0.0800 
 65 H       -5.2880    -7.9930    -2.0120 H     1 <1>   0.0800 
 66 H       -2.8760    -7.6490     2.9000 H     1 <1>   0.0800 
 67 H       -1.5050    -8.6630     2.5040 H     1 <1>   0.0800 
 68 H       -2.6630    -9.1890     3.6910 H     1 <1>   0.0800 
@<TRIPOS>BOND
  1   1   2  2   
  2   2   3  am  
  3   2   4  1   
  4   3   5  1   
  5   3   6  1   
  6   4   7  ar  
  7   4   8  ar  
  8   5   9  1   
  9   5  33  1   
 10   5  34  1   
 11   6  10  1   
 12   6  35  1   
 13   6  36  1   
 14   7  11  ar  
 15   7  37  1   
 16   8  12  ar  
 17   8  38  1   
 18   9  13  1   
 19   9  39  1   
 20   9  40  1   
 21  10  13  1   
 22  10  41  1   
 23  10  42  1   
 24  11  14  1   
 25  11  15  ar  
 26  12  15  ar  
 27  12  16  1   
 28  13  17  1   
 29  13  43  1   
 30  14  18  1   
 31  15  44  1   
 32  16  19  1   
 33  17  20  2   
 34  17  21  am  
 35  18  45  1   
 36  18  46  1   
 37  18  47  1   
 38  19  48  1   
 39  19  49  1   
 40  19  50  1   
 41  21  22  1   
 42  21  23  1   
 43  22  24  1   
 44  22  51  1   
 45  22  52  1   
 46  23  25  1   
 47  23  53  1   
 48  23  54  1   
 49  24  25  1   
 50  24  26  1   
 51  24  55  1   
 52  25  27  1   
 53  25  56  1   
 54  26  28  1   
 55  26  29  1   
 56  26  30  1   
 57  27  31  1   
 58  27  57  1   
 59  27  58  1   
 60  28  59  1   
 61  29  31  1   
 62  29  60  1   
 63  29  61  1   
 64  30  32  1   
 65  30  62  1   
 66  30  63  1   
 67  31  64  1   
 68  31  65  1   
 69  32  66  1   
 70  32  67  1   
 71  32  68  1   
@<TRIPOS>SUBSTRUCTURE
  1 ****  13 GROUP 4 **** **** 0

# MOE 2024.06 (io_trps.svl 2023.06)
