@<TRIPOS>MOLECULE
NONAME
55 58 1 0 0 
SMALL
USER_CHARGES


@<TRIPOS>ATOM
  1 O        1.5410    -2.6610    -2.2670 O.3   1 <1>  -0.6800 
  2 C        2.4680    -2.6920    -1.2430 C.3   1 <1>   0.1200 
  3 C        1.9140    -1.9530     0.0170 C.3   1 <1>   0.0000 
  4 C        3.0840    -1.4500     0.9020 C.3   1 <1>   0.4230 
  5 C        1.0640    -0.7120    -0.3720 C.3   1 <1>  -0.1600 
  6 C        1.0100    -2.9130     0.8390 C.3   1 <1>  -0.1600 
  7 N        3.9520    -2.5800     1.4600 N.4   1 <1>  -0.9590 
  8 C        3.8700    -0.3060     0.1840 C.3   1 <1>   0.3430 
  9 C        1.8530     0.2970    -1.2020 C.3   1 <1>   0.3430 
 10 C        1.7360    -3.5950     2.0150 C.3   1 <1>  -0.1600 
 11 C        3.2080    -3.8640     1.7130 C.3   1 <1>   0.3430 
 12 C        5.2120    -2.8900     0.7020 C.3   1 <1>   0.2630 
 13 N        3.0100     0.7970    -0.3990 N.4   1 <1>  -0.9590 
 14 C        3.8160     1.7560    -1.2100 C.3   1 <1>   0.5240 
 15 C        4.8060     2.4450    -0.2970 C.2   1 <1>  -0.1810 
 16 C        6.0930     2.0060     0.0490 C.2   1 <1>   0.2350 
 17 C        4.6270     3.6050     0.3710 C.2   1 <1>  -0.3020 
 18 N        6.6330     2.8280     0.9060 N.2   1 <1>  -0.7070 
 19 C        6.7610     0.8000    -0.3990 C.ar  1 <1>   0.0540 
 20 N        5.7500     3.8210     1.0810 N.pl3 1 <1>   0.3000 
 21 C        6.7330     0.3720    -1.7270 C.ar  1 <1>  -0.1500 
 22 C        7.4680     0.0160     0.5120 C.ar  1 <1>  -0.1500 
 23 C        7.3320    -0.8140    -2.1130 C.ar  1 <1>  -0.1500 
 24 C        8.0830    -1.1620     0.1310 C.ar  1 <1>  -0.1500 
 25 C        8.0050    -1.5860    -1.1830 C.ar  1 <1>  -0.1500 
 26 H        1.7250    -3.3350    -2.9580 H     1 <1>   0.4000 
 27 H        2.6790    -3.7250    -1.0250 H     1 <1>   0.0800 
 28 H        3.3630    -2.2340    -1.6250 H     1 <1>   0.0800 
 29 H        2.6150    -0.9880     1.7550 H     1 <1>   0.0800 
 30 H        0.6800    -0.2200     0.5060 H     1 <1>   0.0800 
 31 H        0.2020    -1.0200    -0.9420 H     1 <1>   0.0800 
 32 H        0.1610    -2.3900     1.2460 H     1 <1>   0.0800 
 33 H        0.6020    -3.6680     0.1850 H     1 <1>   0.0800 
 34 H        4.2520    -2.2680     2.3990 H     1 <1>   0.4500 
 35 H        4.4470    -0.7410    -0.6140 H     1 <1>   0.0800 
 36 H        4.5590     0.1260     0.8920 H     1 <1>   0.0800 
 37 H        1.2080     1.1170    -1.4790 H     1 <1>   0.0800 
 38 H        2.1970    -0.1780    -2.1080 H     1 <1>   0.0800 
 39 H        1.2440    -4.5280     2.2350 H     1 <1>   0.0800 
 40 H        1.6610    -2.9880     2.9020 H     1 <1>   0.0800 
 41 H        3.2670    -4.5010     0.8450 H     1 <1>   0.0800 
 42 H        3.6580    -4.3940     2.5390 H     1 <1>   0.0800 
 43 H        4.9850    -3.2550    -0.2860 H     1 <1>   0.0800 
 44 H        5.7820    -3.6470     1.2190 H     1 <1>   0.0800 
 45 H        5.8290    -2.0120     0.6140 H     1 <1>   0.0800 
 46 H        2.6370     1.3690     0.3750 H     1 <1>   0.4500 
 47 H        4.3240     1.2450    -2.0100 H     1 <1>   0.0800 
 48 H        3.1700     2.5020    -1.6440 H     1 <1>   0.0800 
 49 H        3.7950     4.2890     0.3940 H     1 <1>   0.1500 
 50 H        5.9470     4.6300     1.6900 H     1 <1>   0.2700 
 51 H        6.2700     0.9830    -2.4800 H     1 <1>   0.1500 
 52 H        7.5530     0.3550     1.5320 H     1 <1>   0.1500 
 53 H        7.3050    -1.1270    -3.1440 H     1 <1>   0.1500 
 54 H        8.6430    -1.7380     0.8500 H     1 <1>   0.1500 
 55 H        8.4920    -2.4980    -1.4890 H     1 <1>   0.1500 
@<TRIPOS>BOND
  1   1   2  1   
  2   1  26  1   
  3   2   3  1   
  4   2  27  1   
  5   2  28  1   
  6   3   4  1   
  7   3   5  1   
  8   3   6  1   
  9   4   7  1   
 10   4   8  1   
 11   4  29  1   
 12   5   9  1   
 13   5  30  1   
 14   5  31  1   
 15   6  10  1   
 16   6  32  1   
 17   6  33  1   
 18   7  11  1   
 19   7  12  1   
 20   7  34  1   
 21   8  13  1   
 22   8  35  1   
 23   8  36  1   
 24   9  13  1   
 25   9  37  1   
 26   9  38  1   
 27  10  11  1   
 28  10  39  1   
 29  10  40  1   
 30  11  41  1   
 31  11  42  1   
 32  12  43  1   
 33  12  44  1   
 34  12  45  1   
 35  13  14  1   
 36  13  46  1   
 37  14  15  1   
 38  14  47  1   
 39  14  48  1   
 40  15  16  1   
 41  15  17  2   
 42  16  18  2   
 43  16  19  1   
 44  17  20  1   
 45  17  49  1   
 46  18  20  1   
 47  19  21  ar  
 48  19  22  ar  
 49  20  50  1   
 50  21  23  ar  
 51  21  51  1   
 52  22  24  ar  
 53  22  52  1   
 54  23  25  ar  
 55  23  53  1   
 56  24  25  ar  
 57  24  54  1   
 58  25  55  1   
@<TRIPOS>SUBSTRUCTURE
  1 ****   8 GROUP 4 **** **** 0

# MOE 2024.06 (io_trps.svl 2023.06)
