@<TRIPOS>MOLECULE
NONAME
64 67 1 0 0 
SMALL
USER_CHARGES


@<TRIPOS>ATOM
  1 O       -1.4480    -0.4500    -0.2150 O.3   1 <1>  -0.6800 
  2 C       -2.3210    -1.4600     0.1580 C.3   1 <1>   0.2000 
  3 C       -2.1570    -2.6660    -0.7850 C.3   1 <1>   0.2090 
  4 C       -3.7430    -0.8950     0.0900 C.3   1 <1>  -0.1600 
  5 N       -3.1830    -3.7190    -0.4810 N.pl3 1 <1>  -0.8380 
  6 C       -4.7780    -2.0060     0.3350 C.3   1 <1>  -0.1600 
  7 C       -2.9070    -5.0330    -0.2710 C.ar  1 <1>   0.4100 
  8 C       -4.5820    -3.2000    -0.6080 C.3   1 <1>   0.2090 
  9 N       -3.8100    -5.9200    -0.6490 N.ar  1 <1>  -0.6200 
 10 C       -1.6990    -5.4390     0.3300 C.ar  1 <1>  -0.1500 
 11 C       -3.5400    -7.1950    -0.4760 C.ar  1 <1>   0.7710 
 12 C       -1.4490    -6.7600     0.4940 C.ar  1 <1>   0.2110 
 13 N       -2.3930    -7.6360     0.0720 N.ar  1 <1>  -0.1790 
 14 N       -4.4920    -8.0390    -0.8890 N.pl3 1 <1>  -0.8690 
 15 C       -4.6700    -9.5110    -0.8360 C.3   1 <1>   0.2090 
 16 C       -6.0440    -9.8510    -0.2230 C.3   1 <1>  -0.0800 
 17 C       -6.2340   -11.3760    -0.1220 C.3   1 <1>  -0.1600 
 18 C       -7.2180    -9.2450    -1.0210 C.3   1 <1>  -0.1600 
 19 C       -7.6110   -11.7530     0.4320 C.3   1 <1>   0.3430 
 20 C       -8.5770    -9.6610    -0.4510 C.3   1 <1>   0.3430 
 21 N       -8.6830   -11.1470    -0.4140 N.4   1 <1>  -0.9590 
 22 C      -10.0530   -11.5400     0.0480 C.3   1 <1>   0.3430 
 23 C      -10.3500   -13.0210    -0.1980 C.3   1 <1>  -0.0170 
 24 C      -11.7880   -13.2920     0.1980 C.ar  1 <1>  -0.1430 
 25 C      -12.0990   -13.6420     1.5040 C.ar  1 <1>  -0.1500 
 26 C      -12.8050   -13.1790    -0.7380 C.ar  1 <1>  -0.1500 
 27 C      -13.4140   -13.8710     1.8700 C.ar  1 <1>  -0.1500 
 28 C      -14.1190   -13.4080    -0.3710 C.ar  1 <1>  -0.1500 
 29 C      -14.4250   -13.7530     0.9330 C.ar  1 <1>  -0.1500 
 30 H       -0.5300    -0.6640     0.0400 H     1 <1>   0.4000 
 31 H       -2.0860    -1.7480     1.1680 H     1 <1>   0.0800 
 32 H       -1.1610    -3.0590    -0.7080 H     1 <1>   0.0800 
 33 H       -2.3040    -2.3330    -1.7990 H     1 <1>   0.0800 
 34 H       -3.9090    -0.4690    -0.8840 H     1 <1>   0.0800 
 35 H       -3.8600    -0.1210     0.8280 H     1 <1>   0.0800 
 36 H       -5.7670    -1.6070     0.1980 H     1 <1>   0.0800 
 37 H       -4.7050    -2.3520     1.3510 H     1 <1>   0.0800 
 38 H       -5.3010    -3.9610    -0.3590 H     1 <1>   0.0800 
 39 H       -4.7550    -2.8960    -1.6260 H     1 <1>   0.0800 
 40 H       -1.0000    -4.6950     0.6620 H     1 <1>   0.1500 
 41 H       -0.5420    -7.1340     0.9440 H     1 <1>   0.1500 
 42 H       -2.2730    -8.6400     0.1390 H     1 <1>   0.4570 
 43 H       -5.2570    -7.5440    -1.3630 H     1 <1>   0.4000 
 44 H       -3.8910    -9.9640    -0.2460 H     1 <1>   0.0800 
 45 H       -4.6090    -9.9090    -1.8370 H     1 <1>   0.0800 
 46 H       -6.0670    -9.4490     0.7770 H     1 <1>   0.0800 
 47 H       -5.4830   -11.7910     0.5280 H     1 <1>   0.0800 
 48 H       -6.1090   -11.8340    -1.0890 H     1 <1>   0.0800 
 49 H       -7.1630    -9.5420    -2.0550 H     1 <1>   0.0800 
 50 H       -7.1680    -8.1710    -0.9910 H     1 <1>   0.0800 
 51 H       -7.7030   -11.3960     1.4460 H     1 <1>   0.0800 
 52 H       -7.7080   -12.8270     0.4430 H     1 <1>   0.0800 
 53 H       -9.3630    -9.2490    -1.0650 H     1 <1>   0.0800 
 54 H       -8.6860    -9.2620     0.5450 H     1 <1>   0.0800 
 55 H       -8.5650   -11.4910    -1.3770 H     1 <1>   0.4500 
 56 H      -10.7910   -10.9610    -0.4850 H     1 <1>   0.0800 
 57 H      -10.1670   -11.3240     1.0980 H     1 <1>   0.0800 
 58 H       -9.7020   -13.6470     0.3890 H     1 <1>   0.0800 
 59 H      -10.2170   -13.2620    -1.2380 H     1 <1>   0.0800 
 60 H      -11.3300   -13.7460     2.2490 H     1 <1>   0.1500 
 61 H      -12.5910   -12.9170    -1.7600 H     1 <1>   0.1500 
 62 H      -13.6540   -14.1440     2.8830 H     1 <1>   0.1500 
 63 H      -14.9070   -13.3220    -1.1000 H     1 <1>   0.1500 
 64 H      -15.4480   -13.9320     1.2180 H     1 <1>   0.1500 
@<TRIPOS>BOND
  1   1   2  1   
  2   1  30  1   
  3   2   3  1   
  4   2   4  1   
  5   2  31  1   
  6   3   5  1   
  7   3  32  1   
  8   3  33  1   
  9   4   6  1   
 10   4  34  1   
 11   4  35  1   
 12   5   7  1   
 13   5   8  1   
 14   6   8  1   
 15   6  36  1   
 16   6  37  1   
 17   7   9  ar  
 18   7  10  ar  
 19   8  38  1   
 20   8  39  1   
 21   9  11  ar  
 22  10  12  ar  
 23  10  40  1   
 24  11  13  ar  
 25  11  14  1   
 26  12  13  ar  
 27  12  41  1   
 28  13  42  1   
 29  14  15  1   
 30  14  43  1   
 31  15  16  1   
 32  15  44  1   
 33  15  45  1   
 34  16  17  1   
 35  16  18  1   
 36  16  46  1   
 37  17  19  1   
 38  17  47  1   
 39  17  48  1   
 40  18  20  1   
 41  18  49  1   
 42  18  50  1   
 43  19  21  1   
 44  19  51  1   
 45  19  52  1   
 46  20  21  1   
 47  20  53  1   
 48  20  54  1   
 49  21  22  1   
 50  21  55  1   
 51  22  23  1   
 52  22  56  1   
 53  22  57  1   
 54  23  24  1   
 55  23  58  1   
 56  23  59  1   
 57  24  25  ar  
 58  24  26  ar  
 59  25  27  ar  
 60  25  60  1   
 61  26  28  ar  
 62  26  61  1   
 63  27  29  ar  
 64  27  62  1   
 65  28  29  ar  
 66  28  63  1   
 67  29  64  1   
@<TRIPOS>SUBSTRUCTURE
  1 ****  18 GROUP 4 **** **** 0

# MOE 2024.06 (io_trps.svl 2023.06)
