@<TRIPOS>MOLECULE
NONAME
36 37 1 0 0 
SMALL
USER_CHARGES


@<TRIPOS>ATOM
  1 F       -0.9690    -0.8820     0.0820 F     1 <1>  -0.2320 
  2 C       -0.1360    -1.7040     0.7030 C.3   1 <1>   0.4630 
  3 F        0.2920    -1.1090     1.8050 F     1 <1>  -0.2320 
  4 C       -0.3870    -3.1750     0.7030 C.3   1 <1>  -0.1950 
  5 C        0.7550    -2.6150    -0.0850 C.3   1 <1>  -0.2000 
  6 C       -1.6230    -3.7760     0.0070 C.3   1 <1>  -0.0040 
  7 C       -1.4940    -5.2560    -0.3490 C.2   1 <1>   0.5690 
  8 O       -0.4150    -5.7830    -0.2140 O.2   1 <1>  -0.5700 
  9 N       -2.5780    -5.9560    -0.8230 N.am  1 <1>  -0.6600 
 10 C       -2.4340    -7.4010    -1.1690 C.3   1 <1>   0.3200 
 11 C       -3.9040    -5.3420    -1.1420 C.3   1 <1>   0.1400 
 12 C       -3.3850    -8.2320    -0.3340 C.2   1 <1>  -0.3320 
 13 C       -4.8390    -5.3160     0.0770 C.3   1 <1>   0.1200 
 14 N       -4.6080    -8.6390    -0.7270 N.pl3 1 <1>   0.0330 
 15 C       -3.2130    -8.7110     0.9170 C.2   1 <1>   0.0770 
 16 O       -6.0670    -4.8010    -0.3160 O.3   1 <1>  -0.6800 
 17 C       -5.1050    -9.3310     0.3210 C.2   1 <1>   0.0060 
 18 N       -4.2960    -9.3980     1.3250 N.2   1 <1>  -0.5650 
 19 C       -6.4810    -9.9590     0.3090 C.3   1 <1>  -0.0600 
 20 H       -0.1210    -3.7120     1.5970 H     1 <1>   0.1000 
 21 H        1.7510    -2.8040     0.2720 H     1 <1>   0.1000 
 22 H        0.6860    -2.6070    -1.1570 H     1 <1>   0.1000 
 23 H       -1.8230    -3.2300    -0.8960 H     1 <1>   0.0800 
 24 H       -2.4600    -3.6540     0.6670 H     1 <1>   0.0800 
 25 H       -1.4300    -7.7420    -0.9790 H     1 <1>   0.0800 
 26 H       -2.6280    -7.5450    -2.2170 H     1 <1>   0.0800 
 27 H       -4.3730    -5.9080    -1.9270 H     1 <1>   0.0800 
 28 H       -3.7610    -4.3400    -1.5040 H     1 <1>   0.0800 
 29 H       -4.4510    -4.7000     0.8680 H     1 <1>   0.0800 
 30 H       -5.0110    -6.3060     0.4570 H     1 <1>   0.0800 
 31 H       -5.0830    -8.4590    -1.6150 H     1 <1>   0.2700 
 32 H       -2.3540    -8.5890     1.5570 H     1 <1>   0.1500 
 33 H       -6.0450    -3.8250    -0.3640 H     1 <1>   0.4000 
 34 H       -6.5510   -10.6830    -0.4810 H     1 <1>   0.0800 
 35 H       -7.2310    -9.2010     0.1700 H     1 <1>   0.0800 
 36 H       -6.6620   -10.4530     1.2470 H     1 <1>   0.0800 
@<TRIPOS>BOND
  1   1   2  1   
  2   2   3  1   
  3   2   4  1   
  4   2   5  1   
  5   4   5  1   
  6   4   6  1   
  7   4  20  1   
  8   5  21  1   
  9   5  22  1   
 10   6   7  1   
 11   6  23  1   
 12   6  24  1   
 13   7   8  2   
 14   7   9  am  
 15   9  10  1   
 16   9  11  1   
 17  10  12  1   
 18  10  25  1   
 19  10  26  1   
 20  11  13  1   
 21  11  27  1   
 22  11  28  1   
 23  12  14  1   
 24  12  15  2   
 25  13  16  1   
 26  13  29  1   
 27  13  30  1   
 28  14  17  1   
 29  14  31  1   
 30  15  18  1   
 31  15  32  1   
 32  16  33  1   
 33  17  18  2   
 34  17  19  1   
 35  19  34  1   
 36  19  35  1   
 37  19  36  1   
@<TRIPOS>SUBSTRUCTURE
  1 ****   9 GROUP 4 **** **** 0

# MOE 2024.06 (io_trps.svl 2023.06)
