@<TRIPOS>MOLECULE
NONAME
50 52 1 0 0 
SMALL
USER_CHARGES


@<TRIPOS>ATOM
  1 O       -2.6870     0.5680    -1.3520 O.2   1 <1>  -0.5700 
  2 C       -2.1970     0.7330    -0.2610 C.2   1 <1>   0.5690 
  3 N       -1.9550    -0.3120     0.5730 N.am  1 <1>  -0.7300 
  4 C       -1.8350     2.1410     0.2110 C.3   1 <1>  -0.0190 
  5 C       -2.1920    -1.7380     0.2260 C.3   1 <1>   0.1400 
  6 C       -2.8140     3.2140    -0.3080 C.3   1 <1>  -0.1600 
  7 C       -0.3800     2.4960    -0.1760 C.3   1 <1>  -0.1600 
  8 C       -3.6900    -2.0350     0.1420 C.3   1 <1>   0.1200 
  9 C       -2.5270     4.6070     0.2920 C.3   1 <1>   0.2000 
 10 C       -0.0900     4.0110    -0.1820 C.3   1 <1>  -0.1600 
 11 O       -3.8640    -3.4330     0.0570 O.3   1 <1>  -0.3620 
 12 O       -2.8320     5.5810    -0.6750 O.3   1 <1>  -0.5600 
 13 C       -1.0490     4.7760     0.7340 C.3   1 <1>   0.2000 
 14 C       -5.0960    -4.0010    -0.0060 C.ar  1 <1>   0.0820 
 15 C       -4.1890     5.8560    -0.8370 C.3   1 <1>   0.0400 
 16 O       -0.7110     6.1120     0.6880 O.3   1 <1>  -0.6800 
 17 C       -5.1520    -5.4190     0.0270 C.ar  1 <1>   0.0000 
 18 C       -6.2530    -3.2590    -0.0960 C.ar  1 <1>  -0.1500 
 19 C       -6.4160    -6.0500    -0.0270 C.ar  1 <1>   0.0000 
 20 C       -4.0060    -6.2410     0.1120 C.ar  1 <1>  -0.1500 
 21 C       -7.4980    -3.8900    -0.1510 C.ar  1 <1>  -0.1500 
 22 C       -7.5740    -5.2540    -0.1160 C.ar  1 <1>  -0.1500 
 23 C       -6.4820    -7.4590     0.0090 C.ar  1 <1>  -0.1500 
 24 C       -4.0990    -7.6060     0.1450 C.ar  1 <1>  -0.1500 
 25 C       -5.3520    -8.2230     0.0930 C.ar  1 <1>  -0.1500 
 26 H       -1.5170    -0.1460     1.4800 H     1 <1>   0.3700 
 27 H       -1.9060     2.1420     1.2840 H     1 <1>   0.0800 
 28 H       -1.7360    -1.9520    -0.7260 H     1 <1>   0.0800 
 29 H       -1.7440    -2.3620     0.9790 H     1 <1>   0.0800 
 30 H       -3.8230     2.9250    -0.0720 H     1 <1>   0.0800 
 31 H       -2.7220     3.2610    -1.3810 H     1 <1>   0.0800 
 32 H        0.2890     2.0050     0.5090 H     1 <1>   0.0800 
 33 H       -0.1680     2.1110    -1.1600 H     1 <1>   0.0800 
 34 H       -4.1100    -1.5830    -0.7390 H     1 <1>   0.0800 
 35 H       -4.1930    -1.6890     1.0270 H     1 <1>   0.0800 
 36 H       -3.1470     4.7740     1.1560 H     1 <1>   0.0800 
 37 H       -0.2110     4.3830    -1.1850 H     1 <1>   0.0800 
 38 H        0.9280     4.1870     0.1220 H     1 <1>   0.0800 
 39 H       -0.9190     4.4390     1.7480 H     1 <1>   0.0800 
 40 H       -4.2870     6.6270    -1.5810 H     1 <1>   0.0800 
 41 H       -4.5970     6.2020     0.0970 H     1 <1>   0.0800 
 42 H       -4.7000     4.9690    -1.1700 H     1 <1>   0.0800 
 43 H       -1.2450     6.4970    -0.0440 H     1 <1>   0.4000 
 44 H       -6.2430    -2.1860    -0.1300 H     1 <1>   0.1500 
 45 H       -3.0410    -5.7700     0.1500 H     1 <1>   0.1500 
 46 H       -8.3880    -3.2900    -0.2210 H     1 <1>   0.1500 
 47 H       -8.5300    -5.7440    -0.1580 H     1 <1>   0.1500 
 48 H       -7.4490    -7.9270    -0.0310 H     1 <1>   0.1500 
 49 H       -3.2160    -8.2170     0.2100 H     1 <1>   0.1500 
 50 H       -5.4090    -9.2970     0.1200 H     1 <1>   0.1500 
@<TRIPOS>BOND
  1   1   2  2   
  2   2   3  am  
  3   2   4  1   
  4   3   5  1   
  5   3  26  1   
  6   4   6  1   
  7   4   7  1   
  8   4  27  1   
  9   5   8  1   
 10   5  28  1   
 11   5  29  1   
 12   6   9  1   
 13   6  30  1   
 14   6  31  1   
 15   7  10  1   
 16   7  32  1   
 17   7  33  1   
 18   8  11  1   
 19   8  34  1   
 20   8  35  1   
 21   9  12  1   
 22   9  13  1   
 23   9  36  1   
 24  10  13  1   
 25  10  37  1   
 26  10  38  1   
 27  11  14  1   
 28  12  15  1   
 29  13  16  1   
 30  13  39  1   
 31  14  17  ar  
 32  14  18  ar  
 33  15  40  1   
 34  15  41  1   
 35  15  42  1   
 36  16  43  1   
 37  17  19  ar  
 38  17  20  ar  
 39  18  21  ar  
 40  18  44  1   
 41  19  22  ar  
 42  19  23  ar  
 43  20  24  ar  
 44  20  45  1   
 45  21  22  ar  
 46  21  46  1   
 47  22  47  1   
 48  23  25  ar  
 49  23  48  1   
 50  24  25  ar  
 51  24  49  1   
 52  25  50  1   
@<TRIPOS>SUBSTRUCTURE
  1 ****   8 GROUP 4 **** **** 0

# MOE 2024.06 (io_trps.svl 2023.06)
