@<TRIPOS>MOLECULE
NONAME
44 45 1 0 0 
SMALL
USER_CHARGES


@<TRIPOS>ATOM
  1 S        0.5000     0.4410    -1.3970 S.o2  1 <1>   1.3330 
  2 O        0.7310    -0.8410    -2.0240 O.2   1 <1>  -0.6500 
  3 O       -0.3440     1.4150    -2.0510 O.2   1 <1>  -0.6500 
  4 N       -0.1650     0.1540     0.1400 N.am  1 <1>  -0.8490 
  5 C        2.0970     1.1810    -1.0410 C.3   1 <1>  -0.0550 
  6 C       -1.1390    -0.9430     0.1220 C.3   1 <1>   0.1160 
  7 C       -0.7770     1.3460     0.7390 C.3   1 <1>   0.1160 
  8 C        3.1190     0.2070    -0.4150 C.3   1 <1>  -0.0800 
  9 C        4.5270     0.7630    -0.2630 C.3   1 <1>   0.2200 
 10 C        2.7880    -0.2670     1.0070 C.3   1 <1>   0.1200 
 11 N        4.4930     2.1490     0.2630 N.am  1 <1>  -0.7300 
 12 C        5.0690    -0.1540     0.8230 C.3   1 <1>   0.1200 
 13 O        4.0010    -0.3320     1.7020 O.3   1 <1>  -0.5600 
 14 C        4.6910     3.2820    -0.4680 C.2   1 <1>   0.7160 
 15 O        4.8290     3.1620    -1.6700 O.2   1 <1>  -0.5700 
 16 C        4.7070     4.5730     0.1810 C.2   1 <1>  -0.0860 
 17 C        5.1040     5.8130    -0.2370 C.2   1 <1>  -0.3320 
 18 C        4.2660     4.8130     1.4870 C.2   1 <1>   0.1390 
 19 N        4.8900     6.6720     0.7780 N.pl3 1 <1>   0.3140 
 20 C        5.6890     6.2340    -1.5800 C.3   1 <1>  -0.0600 
 21 N        4.3730     6.0500     1.8460 N.2   1 <1>  -0.7070 
 22 C        5.1580     8.1160     0.8040 C.3   1 <1>   0.0160 
 23 H        2.5100     1.5430    -1.9630 H     1 <1>   0.0800 
 24 H        1.9590     2.0290    -0.4010 H     1 <1>   0.0800 
 25 H       -1.5350    -1.1080     1.1090 H     1 <1>   0.0800 
 26 H       -0.6640    -1.8530    -0.2060 H     1 <1>   0.0800 
 27 H       -1.9480    -0.7140    -0.5520 H     1 <1>   0.0800 
 28 H       -1.1020     1.1310     1.7430 H     1 <1>   0.0800 
 29 H       -1.6260     1.6680     0.1580 H     1 <1>   0.0800 
 30 H       -0.0630     2.1510     0.7800 H     1 <1>   0.0800 
 31 H        3.1790    -0.6670    -1.0410 H     1 <1>   0.0800 
 32 H        5.1010     0.7080    -1.1730 H     1 <1>   0.0800 
 33 H        2.3300    -1.2420     1.0060 H     1 <1>   0.0800 
 34 H        2.1550     0.4310     1.5260 H     1 <1>   0.0800 
 35 H        4.4040     2.2030     1.2780 H     1 <1>   0.3700 
 36 H        5.9090     0.2640     1.3480 H     1 <1>   0.0800 
 37 H        5.3290    -1.1170     0.4180 H     1 <1>   0.0800 
 38 H        3.8710     4.0580     2.1430 H     1 <1>   0.1500 
 39 H        5.8460     5.3840    -2.2180 H     1 <1>   0.0800 
 40 H        6.6370     6.7220    -1.4370 H     1 <1>   0.0800 
 41 H        5.0190     6.9090    -2.0800 H     1 <1>   0.0800 
 42 H        4.6320     8.5870    -0.0040 H     1 <1>   0.0800 
 43 H        6.2140     8.2790     0.7030 H     1 <1>   0.0800 
 44 H        4.8190     8.5200     1.7390 H     1 <1>   0.0800 
@<TRIPOS>BOND
  1   1   2  2   
  2   1   3  2   
  3   1   4  am  
  4   1   5  1   
  5   4   6  1   
  6   4   7  1   
  7   5   8  1   
  8   5  23  1   
  9   5  24  1   
 10   6  25  1   
 11   6  26  1   
 12   6  27  1   
 13   7  28  1   
 14   7  29  1   
 15   7  30  1   
 16   8   9  1   
 17   8  10  1   
 18   8  31  1   
 19   9  11  1   
 20   9  12  1   
 21   9  32  1   
 22  10  13  1   
 23  10  33  1   
 24  10  34  1   
 25  11  14  am  
 26  11  35  1   
 27  12  13  1   
 28  12  36  1   
 29  12  37  1   
 30  14  15  2   
 31  14  16  1   
 32  16  17  2   
 33  16  18  1   
 34  17  19  1   
 35  17  20  1   
 36  18  21  2   
 37  18  38  1   
 38  19  21  1   
 39  19  22  1   
 40  20  39  1   
 41  20  40  1   
 42  20  41  1   
 43  22  42  1   
 44  22  43  1   
 45  22  44  1   
@<TRIPOS>SUBSTRUCTURE
  1 ****  11 GROUP 4 **** **** 0

# MOE 2024.06 (io_trps.svl 2023.06)
