@<TRIPOS>MOLECULE
NONAME
52 53 1 0 0 
SMALL
USER_CHARGES


@<TRIPOS>ATOM
  1 O       -0.1260    -1.8950     1.5530 O.3   1 <1>  -0.6800 
  2 C       -1.2070    -1.6560     0.7260 C.3   1 <1>   0.1200 
  3 C       -1.1870    -2.6670    -0.4250 C.3   1 <1>  -0.1600 
  4 C       -1.1140    -4.1220     0.0820 C.3   1 <1>   0.4230 
  5 N        0.1790    -4.7840    -0.3260 N.4   1 <1>  -0.9590 
  6 C       -2.3400    -4.9250    -0.4230 C.3   1 <1>   0.1100 
  7 C        0.1750    -6.2340     0.0730 C.3   1 <1>   0.3430 
  8 C        1.3700    -4.0820     0.2450 C.3   1 <1>   0.3430 
  9 N       -2.3100    -6.3410    -0.0040 N.3   1 <1>  -0.8100 
 10 C       -1.0610    -6.9850    -0.4550 C.3   1 <1>   0.1100 
 11 C        2.6910    -4.5730    -0.3760 C.3   1 <1>  -0.0800 
 12 C       -3.5050    -7.0460    -0.5180 C.3   1 <1>   0.1100 
 13 C        3.8510    -3.7280     0.1680 C.3   1 <1>  -0.2400 
 14 C        2.6880    -4.4990    -1.9130 C.3   1 <1>  -0.2400 
 15 C       -3.8220    -8.3030     0.3000 C.3   1 <1>   0.0200 
 16 C       -5.0770    -8.9940    -0.2140 C.2   1 <1>   0.0060 
 17 N       -5.5810    -8.7830    -1.3890 N.2   1 <1>  -0.5650 
 18 N       -5.7720    -9.9010     0.5180 N.pl3 1 <1>   0.0480 
 19 C       -6.6590    -9.5860    -1.4280 C.2   1 <1>   0.0770 
 20 C       -6.7910   -10.2740    -0.2750 C.2   1 <1>  -0.3020 
 21 C       -5.5050   -10.3950     1.8800 C.3   1 <1>   0.0160 
 22 H       -0.0860    -1.2200     2.2660 H     1 <1>   0.4000 
 23 H       -1.1360    -0.6480     0.3510 H     1 <1>   0.0800 
 24 H       -2.1070    -1.7540     1.3120 H     1 <1>   0.0800 
 25 H       -0.3790    -2.4350    -1.0940 H     1 <1>   0.0800 
 26 H       -2.0940    -2.5170    -0.9830 H     1 <1>   0.0800 
 27 H       -1.1660    -4.1070     1.1590 H     1 <1>   0.0800 
 28 H        0.2400    -4.7290    -1.3460 H     1 <1>   0.4500 
 29 H       -2.3920    -4.8670    -1.4970 H     1 <1>   0.0800 
 30 H       -3.2310    -4.4680    -0.0260 H     1 <1>   0.0800 
 31 H        0.1820    -6.3110     1.1470 H     1 <1>   0.0800 
 32 H        1.0600    -6.7190    -0.3010 H     1 <1>   0.0800 
 33 H        1.3950    -4.2130     1.3150 H     1 <1>   0.0800 
 34 H        1.2900    -3.0250     0.0540 H     1 <1>   0.0800 
 35 H       -1.0250    -7.9960    -0.0880 H     1 <1>   0.0800 
 36 H       -1.0300    -7.0230    -1.5310 H     1 <1>   0.0800 
 37 H        2.8720    -5.5900    -0.0720 H     1 <1>   0.0800 
 38 H       -3.3710    -7.3050    -1.5560 H     1 <1>   0.0800 
 39 H       -4.3640    -6.3990    -0.4540 H     1 <1>   0.0800 
 40 H        3.7390    -2.6950    -0.1140 H     1 <1>   0.0800 
 41 H        4.7900    -4.0840    -0.2200 H     1 <1>   0.0800 
 42 H        3.8920    -3.7860     1.2420 H     1 <1>   0.0800 
 43 H        2.4730    -3.4990    -2.2470 H     1 <1>   0.0800 
 44 H        1.9680    -5.1740    -2.3390 H     1 <1>   0.0800 
 45 H        3.6550    -4.7780    -2.2960 H     1 <1>   0.0800 
 46 H       -3.9680    -8.0150     1.3250 H     1 <1>   0.0800 
 47 H       -3.0090    -9.0010     0.2420 H     1 <1>   0.0800 
 48 H       -7.2940    -9.6270    -2.2980 H     1 <1>   0.1500 
 49 H       -7.5380   -10.9900     0.0120 H     1 <1>   0.1500 
 50 H       -4.4890   -10.7360     1.9440 H     1 <1>   0.0800 
 51 H       -6.1700   -11.2090     2.1040 H     1 <1>   0.0800 
 52 H       -5.6670    -9.5990     2.5840 H     1 <1>   0.0800 
@<TRIPOS>BOND
  1   1   2  1   
  2   1  22  1   
  3   2   3  1   
  4   2  23  1   
  5   2  24  1   
  6   3   4  1   
  7   3  25  1   
  8   3  26  1   
  9   4   5  1   
 10   4   6  1   
 11   4  27  1   
 12   5   7  1   
 13   5   8  1   
 14   5  28  1   
 15   6   9  1   
 16   6  29  1   
 17   6  30  1   
 18   7  10  1   
 19   7  31  1   
 20   7  32  1   
 21   8  11  1   
 22   8  33  1   
 23   8  34  1   
 24   9  10  1   
 25   9  12  1   
 26  10  35  1   
 27  10  36  1   
 28  11  13  1   
 29  11  14  1   
 30  11  37  1   
 31  12  15  1   
 32  12  38  1   
 33  12  39  1   
 34  13  40  1   
 35  13  41  1   
 36  13  42  1   
 37  14  43  1   
 38  14  44  1   
 39  14  45  1   
 40  15  16  1   
 41  15  46  1   
 42  15  47  1   
 43  16  17  2   
 44  16  18  1   
 45  17  19  1   
 46  18  20  1   
 47  18  21  1   
 48  19  20  2   
 49  19  48  1   
 50  20  49  1   
 51  21  50  1   
 52  21  51  1   
 53  21  52  1   
@<TRIPOS>SUBSTRUCTURE
  1 ****   9 GROUP 4 **** **** 0

# MOE 2024.06 (io_trps.svl 2023.06)
