@<TRIPOS>MOLECULE
NONAME
50 52 1 0 0 
SMALL
USER_CHARGES


@<TRIPOS>ATOM
  1 F        2.8500    -0.5520     1.0790 F     1 <1>  -0.1900 
  2 C        2.3820    -1.5480     0.3720 C.ar  1 <1>   0.1900 
  3 C        2.0320    -1.3290    -0.9530 C.ar  1 <1>  -0.1440 
  4 C        2.2610    -2.7790     0.9840 C.ar  1 <1>  -0.1500 
  5 C        1.5430    -2.4070    -1.6750 C.ar  1 <1>  -0.1500 
  6 C        2.1790     0.0410    -1.5970 C.3   1 <1>  -0.0960 
  7 C        1.7670    -3.8540     0.2560 C.ar  1 <1>   0.1170 
  8 C        1.4140    -3.6490    -1.0750 C.ar  1 <1>  -0.1500 
  9 N        1.6110    -5.1350     0.7980 N.am  1 <1>  -0.5470 
 10 C        1.5000    -5.5870     2.0810 C.2   1 <1>   0.5690 
 11 O        1.5800    -4.8870     3.0610 O.2   1 <1>  -0.5700 
 12 C        1.2070    -7.0790     2.2410 C.3   1 <1>   0.1710 
 13 N        0.2660    -7.5990     1.2010 N.3   1 <1>  -0.8100 
 14 C        0.3000    -9.0790     1.1110 C.3   1 <1>   0.2530 
 15 C       -1.1120    -7.0600     1.3520 C.3   1 <1>   0.1100 
 16 C        1.5200    -9.5600     0.3310 C.ar  1 <1>   0.1670 
 17 C       -1.4940    -6.1770     0.1430 C.3   1 <1>   0.2200 
 18 N        2.6060    -9.8740     1.0280 N.ar  1 <1>  -0.6200 
 19 C        1.4360    -9.6460    -1.0520 C.ar  1 <1>  -0.1500 
 20 N       -0.9930    -6.7920    -1.0890 N.am  1 <1>  -0.7300 
 21 C       -3.0120    -6.0790    -0.1050 C.3   1 <1>  -0.1600 
 22 C        3.6450   -10.2820     0.3160 C.ar  1 <1>   0.1600 
 23 C        2.5270   -10.0720    -1.7780 C.ar  1 <1>  -0.1500 
 24 C       -1.9480    -7.3240    -1.8550 C.2   1 <1>   0.5690 
 25 C       -3.3100    -6.9290    -1.3580 C.3   1 <1>  -0.0990 
 26 C        3.6590   -10.3960    -1.0630 C.ar  1 <1>  -0.1500 
 27 O       -1.7460    -8.0910    -2.7600 O.2   1 <1>  -0.5700 
 28 H        2.5510    -2.8900     2.0120 H     1 <1>   0.1500 
 29 H        1.2590    -2.2850    -2.7060 H     1 <1>   0.1500 
 30 H        1.8440     0.0270    -2.6190 H     1 <1>   0.0800 
 31 H        3.2100     0.3460    -1.5770 H     1 <1>   0.0800 
 32 H        1.5950     0.7640    -1.0550 H     1 <1>   0.0800 
 33 H        1.0300    -4.4710    -1.6530 H     1 <1>   0.1500 
 34 H        1.4150    -5.8800     0.1250 H     1 <1>   0.3700 
 35 H        0.8060    -7.2580     3.2240 H     1 <1>   0.0800 
 36 H        2.1490    -7.5930     2.1730 H     1 <1>   0.0800 
 37 H        0.2970    -9.5160     2.0950 H     1 <1>   0.0800 
 38 H       -0.5750    -9.4300     0.5910 H     1 <1>   0.0800 
 39 H       -1.8190    -7.8670     1.4310 H     1 <1>   0.0800 
 40 H       -1.2000    -6.4750     2.2520 H     1 <1>   0.0800 
 41 H       -1.0700    -5.1930     0.2590 H     1 <1>   0.0800 
 42 H        0.5250    -9.3830    -1.5620 H     1 <1>   0.1500 
 43 H       -0.0720    -7.2350    -1.0400 H     1 <1>   0.3700 
 44 H       -3.5810    -6.4100     0.7460 H     1 <1>   0.0800 
 45 H       -3.2640    -5.0510    -0.2980 H     1 <1>   0.0800 
 46 H        4.5360   -10.5400     0.8630 H     1 <1>   0.1500 
 47 H        2.4930   -10.1480    -2.8510 H     1 <1>   0.1500 
 48 H       -3.8280    -6.3640    -2.1110 H     1 <1>   0.0800 
 49 H       -3.8680    -7.8130    -1.1110 H     1 <1>   0.0800 
 50 H        4.5450   -10.7350    -1.5680 H     1 <1>   0.1500 
@<TRIPOS>BOND
  1   1   2  1   
  2   2   3  ar  
  3   2   4  ar  
  4   3   5  ar  
  5   3   6  1   
  6   4   7  ar  
  7   4  28  1   
  8   5   8  ar  
  9   5  29  1   
 10   6  30  1   
 11   6  31  1   
 12   6  32  1   
 13   7   8  ar  
 14   7   9  1   
 15   8  33  1   
 16   9  10  am  
 17   9  34  1   
 18  10  11  2   
 19  10  12  1   
 20  12  13  1   
 21  12  35  1   
 22  12  36  1   
 23  13  14  1   
 24  13  15  1   
 25  14  16  1   
 26  14  37  1   
 27  14  38  1   
 28  15  17  1   
 29  15  39  1   
 30  15  40  1   
 31  16  18  ar  
 32  16  19  ar  
 33  17  20  1   
 34  17  21  1   
 35  17  41  1   
 36  18  22  ar  
 37  19  23  ar  
 38  19  42  1   
 39  20  24  am  
 40  20  43  1   
 41  21  25  1   
 42  21  44  1   
 43  21  45  1   
 44  22  26  ar  
 45  22  46  1   
 46  23  26  ar  
 47  23  47  1   
 48  24  25  1   
 49  24  27  2   
 50  25  48  1   
 51  25  49  1   
 52  26  50  1   
@<TRIPOS>SUBSTRUCTURE
  1 ****   9 GROUP 4 **** **** 0

# MOE 2024.06 (io_trps.svl 2023.06)
