@<TRIPOS>MOLECULE
NONAME
41 44 1 0 0 
SMALL
USER_CHARGES


@<TRIPOS>ATOM
  1 F       -1.0980    -1.8650    -2.4480 F     1 <1>  -0.1900 
  2 C       -0.3050    -2.1970    -1.4550 C.ar  1 <1>   0.1900 
  3 C       -0.8350    -2.5280    -0.2080 C.ar  1 <1>   0.1000 
  4 C        1.0560    -2.2210    -1.6910 C.ar  1 <1>   0.1600 
  5 N       -2.1860    -2.5370     0.1490 N.pl3 1 <1>  -0.8380 
  6 C        0.1220    -2.8720     0.7330 C.ar  1 <1>  -0.1500 
  7 N        1.9670    -2.5520    -0.7810 N.ar  1 <1>  -0.6200 
  8 C       -3.1240    -1.4930    -0.3740 C.3   1 <1>   0.2090 
  9 C       -2.8440    -3.8380     0.4350 C.3   1 <1>   0.2090 
 10 C        1.4680    -2.8680     0.4080 C.ar  1 <1>   0.1600 
 11 C       -4.2550    -1.2250     0.6370 C.3   1 <1>   0.1440 
 12 C       -3.9700    -3.6260     1.4540 C.3   1 <1>  -0.1600 
 13 C       -5.2010    -0.1960     0.0460 C.ar  1 <1>   0.1670 
 14 C       -4.9690    -2.5510     0.9870 C.3   1 <1>  -0.1600 
 15 C       -3.7220    -0.5000     1.9030 C.3   1 <1>  -0.1600 
 16 N       -6.0610    -0.4150    -0.9250 N.ar  1 <1>  -0.6200 
 17 C       -5.0510     1.0230     0.6380 C.ar  1 <1>  -0.1430 
 18 C       -3.9880     1.0020     1.7080 C.3   1 <1>  -0.0170 
 19 C       -6.7770     0.6450    -1.2730 C.ar  1 <1>   0.4770 
 20 C       -5.8440     2.0530     0.1970 C.ar  1 <1>   0.1600 
 21 N       -6.7200     1.8710    -0.7690 N.ar  1 <1>  -0.6200 
 22 C       -7.7770     0.4360    -2.3840 C.3   1 <1>  -0.0970 
 23 H        1.4110    -1.9590    -2.6720 H     1 <1>   0.1500 
 24 H       -0.1930    -3.1350     1.7240 H     1 <1>   0.1500 
 25 H       -3.5500    -1.8330    -1.3030 H     1 <1>   0.0800 
 26 H       -2.5850    -0.5820    -0.5670 H     1 <1>   0.0800 
 27 H       -2.1240    -4.5400     0.8210 H     1 <1>   0.0800 
 28 H       -3.2480    -4.2370    -0.4810 H     1 <1>   0.0800 
 29 H        2.1790    -3.1400     1.1700 H     1 <1>   0.1500 
 30 H       -3.5330    -3.3410     2.3950 H     1 <1>   0.0800 
 31 H       -4.4880    -4.5560     1.6040 H     1 <1>   0.0800 
 32 H       -5.4760    -2.9110     0.1080 H     1 <1>   0.0800 
 33 H       -5.7170    -2.3820     1.7420 H     1 <1>   0.0800 
 34 H       -2.6780    -0.6990     2.0770 H     1 <1>   0.0800 
 35 H       -4.2750    -0.8280     2.7650 H     1 <1>   0.0800 
 36 H       -3.1040     1.5010     1.3490 H     1 <1>   0.0800 
 37 H       -4.3270     1.4660     2.6180 H     1 <1>   0.0800 
 38 H       -5.7610     3.0320     0.6350 H     1 <1>   0.1500 
 39 H       -8.0160    -0.6070    -2.4790 H     1 <1>   0.0800 
 40 H       -7.3580     0.7890    -3.3070 H     1 <1>   0.0800 
 41 H       -8.6760     0.9830    -2.1720 H     1 <1>   0.0800 
@<TRIPOS>BOND
  1   1   2  1   
  2   2   3  ar  
  3   2   4  ar  
  4   3   5  1   
  5   3   6  ar  
  6   4   7  ar  
  7   4  23  1   
  8   5   8  1   
  9   5   9  1   
 10   6  10  ar  
 11   6  24  1   
 12   7  10  ar  
 13   8  11  1   
 14   8  25  1   
 15   8  26  1   
 16   9  12  1   
 17   9  27  1   
 18   9  28  1   
 19  10  29  1   
 20  11  13  1   
 21  11  14  1   
 22  11  15  1   
 23  12  14  1   
 24  12  30  1   
 25  12  31  1   
 26  13  16  ar  
 27  13  17  ar  
 28  14  32  1   
 29  14  33  1   
 30  15  18  1   
 31  15  34  1   
 32  15  35  1   
 33  16  19  ar  
 34  17  18  1   
 35  17  20  ar  
 36  18  36  1   
 37  18  37  1   
 38  19  21  ar  
 39  19  22  1   
 40  20  21  ar  
 41  20  38  1   
 42  22  39  1   
 43  22  40  1   
 44  22  41  1   
@<TRIPOS>SUBSTRUCTURE
  1 ****   8 GROUP 4 **** **** 0

# MOE 2024.06 (io_trps.svl 2023.06)
