@<TRIPOS>MOLECULE
NONAME
53 55 1 0 0 
SMALL
USER_CHARGES


@<TRIPOS>ATOM
  1 O       -0.7010     1.2750    -0.8870 O.2   1 <1>  -0.5700 
  2 C       -0.7200     2.4600    -0.6500 C.2   1 <1>   0.5690 
  3 N       -1.5880     3.0470     0.2370 N.am  1 <1>  -0.6600 
  4 C        0.2770     3.3410    -1.3970 C.3   1 <1>   0.1810 
  5 C       -1.5660     4.5340     0.4570 C.3   1 <1>   0.3640 
  6 C       -2.5380     2.3030     1.1110 C.3   1 <1>   0.2200 
  7 O        0.6660     4.4510    -0.6320 O.3   1 <1>  -0.5600 
  8 C       -2.9080     5.1250     0.0160 C.ar  1 <1>  -0.1440 
  9 C       -0.4090     5.2950    -0.2510 C.3   1 <1>   0.2610 
 10 C       -1.7680     1.4120     2.0850 C.3   1 <1>  -0.2400 
 11 C       -3.5500     1.5070     0.2860 C.3   1 <1>  -0.2400 
 12 C       -3.5850     6.0060     0.8480 C.ar  1 <1>  -0.1500 
 13 C       -3.4660     4.8010    -1.2150 C.ar  1 <1>  -0.1500 
 14 C        0.1030     6.4250     0.6540 C.2   1 <1>   0.5690 
 15 C       -4.7970     6.5500     0.4600 C.ar  1 <1>  -0.1500 
 16 C       -4.6770     5.3450    -1.6050 C.ar  1 <1>  -0.1500 
 17 O       -0.6770     7.2150     1.1330 O.2   1 <1>  -0.5700 
 18 N        1.4330     6.5310     0.8970 N.am  1 <1>  -0.7300 
 19 C       -5.3440     6.2200    -0.7670 C.ar  1 <1>  -0.1500 
 20 C        2.0980     7.5620     1.7200 C.3   1 <1>   0.3200 
 21 C        3.0560     8.3630     0.8550 C.2   1 <1>   0.0060 
 22 N        4.3340     8.1490     0.8290 N.2   1 <1>  -0.5650 
 23 N        2.6550     9.3700     0.0380 N.pl3 1 <1>   0.0480 
 24 C        4.7960     9.0600    -0.0450 C.2   1 <1>   0.0770 
 25 C        3.7880     9.8120    -0.5360 C.2   1 <1>  -0.3020 
 26 C        1.2950     9.9010    -0.2010 C.3   1 <1>   0.0960 
 27 C        0.9680    11.0210     0.7900 C.3   1 <1>  -0.2400 
 28 H       -0.1550     3.6860    -2.3190 H     1 <1>   0.0800 
 29 H        1.1600     2.7700    -1.6170 H     1 <1>   0.0800 
 30 H       -1.4580     4.6930     1.5160 H     1 <1>   0.0800 
 31 H       -3.0970     3.0140     1.6960 H     1 <1>   0.0800 
 32 H       -0.7840     5.7500    -1.1490 H     1 <1>   0.0800 
 33 H       -1.2490     0.6300     1.5610 H     1 <1>   0.0800 
 34 H       -2.4520     0.9540     2.7770 H     1 <1>   0.0800 
 35 H       -1.0600     1.9970     2.6430 H     1 <1>   0.0800 
 36 H       -3.0730     0.7170    -0.2630 H     1 <1>   0.0800 
 37 H       -4.0650     2.1560    -0.3980 H     1 <1>   0.0800 
 38 H       -4.2790     1.0640     0.9390 H     1 <1>   0.0800 
 39 H       -3.1700     6.2820     1.8030 H     1 <1>   0.1500 
 40 H       -2.9640     4.1170    -1.8760 H     1 <1>   0.1500 
 41 H       -5.3130     7.2330     1.1120 H     1 <1>   0.1500 
 42 H       -5.1030     5.0860    -2.5590 H     1 <1>   0.1500 
 43 H        2.0670     5.8760     0.4270 H     1 <1>   0.3700 
 44 H       -6.2860     6.6440    -1.0680 H     1 <1>   0.1500 
 45 H        1.3710     8.2130     2.1720 H     1 <1>   0.0800 
 46 H        2.6520     7.0790     2.5060 H     1 <1>   0.0800 
 47 H        5.8450     9.1290    -0.2790 H     1 <1>   0.1500 
 48 H        3.8190    10.6190    -1.2450 H     1 <1>   0.1500 
 49 H        1.2460    10.2770    -1.2080 H     1 <1>   0.0800 
 50 H        0.5810     9.1040    -0.1070 H     1 <1>   0.0800 
 51 H        1.6710    11.8290     0.6860 H     1 <1>   0.0800 
 52 H        0.9980    10.6510     1.8000 H     1 <1>   0.0800 
 53 H       -0.0200    11.3990     0.5970 H     1 <1>   0.0800 
@<TRIPOS>BOND
  1   1   2  2   
  2   2   3  am  
  3   2   4  1   
  4   3   5  1   
  5   3   6  1   
  6   4   7  1   
  7   4  28  1   
  8   4  29  1   
  9   5   8  1   
 10   5   9  1   
 11   5  30  1   
 12   6  10  1   
 13   6  11  1   
 14   6  31  1   
 15   7   9  1   
 16   8  12  ar  
 17   8  13  ar  
 18   9  14  1   
 19   9  32  1   
 20  10  33  1   
 21  10  34  1   
 22  10  35  1   
 23  11  36  1   
 24  11  37  1   
 25  11  38  1   
 26  12  15  ar  
 27  12  39  1   
 28  13  16  ar  
 29  13  40  1   
 30  14  17  2   
 31  14  18  am  
 32  15  19  ar  
 33  15  41  1   
 34  16  19  ar  
 35  16  42  1   
 36  18  20  1   
 37  18  43  1   
 38  19  44  1   
 39  20  21  1   
 40  20  45  1   
 41  20  46  1   
 42  21  22  2   
 43  21  23  1   
 44  22  24  1   
 45  23  25  1   
 46  23  26  1   
 47  24  25  2   
 48  24  47  1   
 49  25  48  1   
 50  26  27  1   
 51  26  49  1   
 52  26  50  1   
 53  27  51  1   
 54  27  52  1   
 55  27  53  1   
@<TRIPOS>SUBSTRUCTURE
  1 ****   9 GROUP 4 **** **** 0

# MOE 2024.06 (io_trps.svl 2023.06)
