@<TRIPOS>MOLECULE
NONAME
54 56 1 0 0 
SMALL
USER_CHARGES


@<TRIPOS>ATOM
  1 O       -0.7560     0.3430     1.1910 O.2   1 <1>  -0.5700 
  2 C       -1.7650     0.9380     0.8590 C.2   1 <1>   0.7150 
  3 N       -2.9200     0.2230     0.6560 N.am  1 <1>  -0.6600 
  4 C       -1.7350     2.3580     0.6580 C.2   1 <1>  -0.2370 
  5 C       -4.0320     0.6710    -0.2220 C.3   1 <1>   0.1400 
  6 C       -3.0330    -1.2340     0.8960 C.3   1 <1>   0.1400 
  7 N       -0.7010     3.0380     0.0940 N.pl3 1 <1>   0.3140 
  8 C       -2.6610     3.3070     0.9730 C.2   1 <1>  -0.1500 
  9 C       -4.8660    -0.5830    -0.5250 C.3   1 <1>   0.2000 
 10 C       -3.9060    -1.7460    -0.2500 C.3   1 <1>  -0.0800 
 11 N       -0.9500     4.3600     0.0320 N.2   1 <1>  -0.7070 
 12 C        0.5830     2.4570    -0.3910 C.3   1 <1>   0.0960 
 13 C       -2.1260     4.5130     0.5630 C.2   1 <1>   0.1080 
 14 O       -5.9390    -0.6640     0.3700 O.3   1 <1>  -0.5600 
 15 C       -4.5960    -3.0890     0.0530 C.3   1 <1>   0.0200 
 16 C        1.2390     3.2770    -1.5130 C.3   1 <1>  -0.2400 
 17 C       -2.8180     5.8640     0.7160 C.3   1 <1>   0.1010 
 18 C       -7.0880     0.0230    -0.0160 C.3   1 <1>   0.0400 
 19 C       -3.6250    -4.2560     0.1440 C.2   1 <1>  -0.0400 
 20 C       -3.0860     6.4930    -0.6570 C.3   1 <1>  -0.2400 
 21 C       -1.9800     6.8100     1.5840 C.3   1 <1>  -0.2400 
 22 O       -4.0880    -5.4300     0.4820 O.3   1 <1>  -0.0190 
 23 C       -2.3030    -4.3830    -0.0590 C.2   1 <1>  -0.1500 
 24 N       -3.1510    -6.3330     0.5190 N.2   1 <1>  -0.4100 
 25 C       -2.0640    -5.7300     0.1980 C.2   1 <1>   0.1080 
 26 C       -0.7110    -6.4010     0.1140 C.3   1 <1>  -0.0590 
 27 H       -4.6250     1.4220     0.2660 H     1 <1>   0.0800 
 28 H       -3.6200     1.0690    -1.1330 H     1 <1>   0.0800 
 29 H       -2.0690    -1.7120     0.9100 H     1 <1>   0.0800 
 30 H       -3.5230    -1.3910     1.8420 H     1 <1>   0.0800 
 31 H       -3.6120     3.1670     1.4530 H     1 <1>   0.1500 
 32 H       -5.2410    -0.6020    -1.5340 H     1 <1>   0.0800 
 33 H       -3.2790    -1.8650    -1.1160 H     1 <1>   0.0800 
 34 H        1.2490     2.3860     0.4490 H     1 <1>   0.0800 
 35 H        0.3920     1.4650    -0.7560 H     1 <1>   0.0800 
 36 H       -5.3100    -3.3050    -0.7220 H     1 <1>   0.0800 
 37 H       -5.1360    -3.0210     0.9810 H     1 <1>   0.0800 
 38 H        1.5010     4.2570    -1.1530 H     1 <1>   0.0800 
 39 H        0.5640     3.3760    -2.3450 H     1 <1>   0.0800 
 40 H        2.1340     2.7870    -1.8490 H     1 <1>   0.0800 
 41 H       -3.7630     5.7060     1.2050 H     1 <1>   0.0800 
 42 H       -7.8240    -0.0990     0.7590 H     1 <1>   0.0800 
 43 H       -7.4600    -0.3950    -0.9350 H     1 <1>   0.0800 
 44 H       -6.8620     1.0680    -0.1370 H     1 <1>   0.0800 
 45 H       -2.1560     6.6670    -1.1690 H     1 <1>   0.0800 
 46 H       -3.6060     7.4280    -0.5500 H     1 <1>   0.0800 
 47 H       -3.6830     5.8290    -1.2540 H     1 <1>   0.0800 
 48 H       -1.0290     6.9940     1.1160 H     1 <1>   0.0800 
 49 H       -1.8030     6.3630     2.5450 H     1 <1>   0.0800 
 50 H       -2.4880     7.7470     1.7240 H     1 <1>   0.0800 
 51 H       -1.5680    -3.6570    -0.3500 H     1 <1>   0.1500 
 52 H       -0.3100    -6.2910    -0.8760 H     1 <1>   0.0800 
 53 H       -0.8080    -7.4480     0.3370 H     1 <1>   0.0800 
 54 H       -0.0390    -5.9550     0.8230 H     1 <1>   0.0800 
@<TRIPOS>BOND
  1   1   2  2   
  2   2   3  am  
  3   2   4  1   
  4   3   5  1   
  5   3   6  1   
  6   4   7  1   
  7   4   8  2   
  8   5   9  1   
  9   5  27  1   
 10   5  28  1   
 11   6  10  1   
 12   6  29  1   
 13   6  30  1   
 14   7  11  1   
 15   7  12  1   
 16   8  13  1   
 17   8  31  1   
 18   9  10  1   
 19   9  14  1   
 20   9  32  1   
 21  10  15  1   
 22  10  33  1   
 23  11  13  2   
 24  12  16  1   
 25  12  34  1   
 26  12  35  1   
 27  13  17  1   
 28  14  18  1   
 29  15  19  1   
 30  15  36  1   
 31  15  37  1   
 32  16  38  1   
 33  16  39  1   
 34  16  40  1   
 35  17  20  1   
 36  17  21  1   
 37  17  41  1   
 38  18  42  1   
 39  18  43  1   
 40  18  44  1   
 41  19  22  1   
 42  19  23  2   
 43  20  45  1   
 44  20  46  1   
 45  20  47  1   
 46  21  48  1   
 47  21  49  1   
 48  21  50  1   
 49  22  24  1   
 50  23  25  1   
 51  23  51  1   
 52  24  25  2   
 53  25  26  1   
 54  26  52  1   
 55  26  53  1   
 56  26  54  1   
@<TRIPOS>SUBSTRUCTURE
  1 ****   3 GROUP 4 **** **** 0

# MOE 2024.06 (io_trps.svl 2023.06)
