@<TRIPOS>MOLECULE
NONAME
57 59 1 0 0 
SMALL
USER_CHARGES


@<TRIPOS>ATOM
  1 O        0.6360     0.5620    -2.2620 O.2   1 <1>  -0.5700 
  2 C        0.7120     0.0560    -1.1700 C.2   1 <1>   0.5690 
  3 N        1.1690     0.7770    -0.0920 N.am  1 <1>  -0.6600 
  4 C        0.3140    -1.4040    -1.0940 C.3   1 <1>  -0.0990 
  5 C        1.5400     0.2410     1.2510 C.3   1 <1>   0.1400 
  6 C        1.5440     2.2050    -0.2810 C.3   1 <1>   0.1400 
  7 C        1.3400    -2.2950    -1.8100 C.3   1 <1>   0.0960 
  8 C        3.0330    -0.1430     1.3570 C.3   1 <1>   0.3430 
  9 C        2.9330     2.3020    -0.9190 C.3   1 <1>  -0.1600 
 10 N        2.4900    -2.6440    -0.9470 N.pl3 1 <1>   0.3140 
 11 N        4.0170     0.8440     0.7870 N.4   1 <1>  -0.9590 
 12 C        3.8300     1.0870    -0.6770 C.3   1 <1>   0.3430 
 13 N        3.7360    -2.1440    -1.1110 N.2   1 <1>  -0.7070 
 14 C        2.4750    -3.5880     0.0150 C.2   1 <1>  -0.3020 
 15 C        5.3900     0.3650     1.0250 C.3   1 <1>   0.5230 
 16 C        4.4800    -2.8330    -0.2980 C.2   1 <1>   0.1390 
 17 C        3.7400    -3.7370     0.4540 C.2   1 <1>  -0.1810 
 18 C        6.3060     1.5300     0.7400 C.2   1 <1>  -0.3320 
 19 C        4.2640    -4.6990     1.5020 C.3   1 <1>  -0.0590 
 20 N        7.2640     1.5200    -0.2320 N.pl3 1 <1>   0.0480 
 21 C        6.3230     2.7340     1.3680 C.2   1 <1>  -0.1500 
 22 C        7.8650     2.7290    -0.2050 C.2   1 <1>  -0.3020 
 23 C        7.6150     0.4180    -1.1510 C.3   1 <1>   0.0160 
 24 C        7.3170     3.5280     0.7690 C.2   1 <1>  -0.0860 
 25 C        7.6220     4.8800     1.1550 C.2   1 <1>   0.5950 
 26 O        6.9900     5.4820     1.9860 O.2   1 <1>  -0.5700 
 27 C        8.7780     5.5930     0.4890 C.3   1 <1>  -0.1790 
 28 H       -0.6180    -1.4900    -1.6220 H     1 <1>   0.0800 
 29 H        0.1330    -1.7430    -0.0940 H     1 <1>   0.0800 
 30 H        0.9430    -0.6190     1.4920 H     1 <1>   0.0800 
 31 H        1.3160     0.9810     2.0000 H     1 <1>   0.0800 
 32 H        1.5360     2.7150     0.6670 H     1 <1>   0.0800 
 33 H        0.8190     2.6930    -0.9130 H     1 <1>   0.0800 
 34 H        1.7070    -1.8100    -2.6980 H     1 <1>   0.0800 
 35 H        0.8690    -3.2130    -2.1070 H     1 <1>   0.0800 
 36 H        3.1600    -1.0880     0.8640 H     1 <1>   0.0800 
 37 H        3.2580    -0.3070     2.3970 H     1 <1>   0.0800 
 38 H        3.4260     3.2010    -0.5970 H     1 <1>   0.0800 
 39 H        2.7970     2.3910    -1.9830 H     1 <1>   0.0800 
 40 H        3.9510     1.7520     1.2560 H     1 <1>   0.4500 
 41 H        4.7790     1.2750    -1.1500 H     1 <1>   0.0800 
 42 H        3.3980     0.2170    -1.1450 H     1 <1>   0.0800 
 43 H        1.5850    -4.1160     0.3090 H     1 <1>   0.1500 
 44 H        5.6120    -0.4700     0.3810 H     1 <1>   0.0800 
 45 H        5.5100     0.0600     2.0520 H     1 <1>   0.0800 
 46 H        5.5480    -2.7200    -0.2200 H     1 <1>   0.1500 
 47 H        3.4580    -5.2870     1.9040 H     1 <1>   0.0800 
 48 H        4.7330    -4.1610     2.3050 H     1 <1>   0.0800 
 49 H        4.9840    -5.3650     1.0600 H     1 <1>   0.0800 
 50 H        5.7170     3.0870     2.1870 H     1 <1>   0.1500 
 51 H        8.6640     2.9850    -0.8800 H     1 <1>   0.1500 
 52 H        6.7350     0.0780    -1.6670 H     1 <1>   0.0800 
 53 H        8.0470    -0.3910    -0.5920 H     1 <1>   0.0800 
 54 H        8.3310     0.7670    -1.8730 H     1 <1>   0.0800 
 55 H        9.6750     5.0120     0.5980 H     1 <1>   0.0800 
 56 H        8.9280     6.5540     0.9460 H     1 <1>   0.0800 
 57 H        8.5650     5.7320    -0.5540 H     1 <1>   0.0800 
@<TRIPOS>BOND
  1   1   2  2   
  2   2   3  am  
  3   2   4  1   
  4   3   5  1   
  5   3   6  1   
  6   4   7  1   
  7   4  28  1   
  8   4  29  1   
  9   5   8  1   
 10   5  30  1   
 11   5  31  1   
 12   6   9  1   
 13   6  32  1   
 14   6  33  1   
 15   7  10  1   
 16   7  34  1   
 17   7  35  1   
 18   8  11  1   
 19   8  36  1   
 20   8  37  1   
 21   9  12  1   
 22   9  38  1   
 23   9  39  1   
 24  10  13  1   
 25  10  14  1   
 26  11  12  1   
 27  11  15  1   
 28  11  40  1   
 29  12  41  1   
 30  12  42  1   
 31  13  16  2   
 32  14  17  2   
 33  14  43  1   
 34  15  18  1   
 35  15  44  1   
 36  15  45  1   
 37  16  17  1   
 38  16  46  1   
 39  17  19  1   
 40  18  20  1   
 41  18  21  2   
 42  19  47  1   
 43  19  48  1   
 44  19  49  1   
 45  20  22  1   
 46  20  23  1   
 47  21  24  1   
 48  21  50  1   
 49  22  24  2   
 50  22  51  1   
 51  23  52  1   
 52  23  53  1   
 53  23  54  1   
 54  24  25  1   
 55  25  26  2   
 56  25  27  1   
 57  27  55  1   
 58  27  56  1   
 59  27  57  1   
@<TRIPOS>SUBSTRUCTURE
  1 ****  11 GROUP 4 **** **** 0

# MOE 2024.06 (io_trps.svl 2023.06)
