@<TRIPOS>MOLECULE
NONAME
49 52 1 0 0 
SMALL
USER_CHARGES


@<TRIPOS>ATOM
  1 O       -0.7920    -0.1740     2.8640 O.2   1 <1>  -0.5700 
  2 C       -1.3600     0.4680     2.0110 C.2   1 <1>   0.5690 
  3 N       -2.2420    -0.1260     1.1400 N.am  1 <1>  -0.6600 
  4 C       -1.0560     1.9620     1.9570 C.3   1 <1>   0.0440 
  5 C       -2.9610     0.5670     0.0240 C.3   1 <1>   0.1400 
  6 C       -2.4760    -1.6030     1.1570 C.3   1 <1>   0.1400 
  7 C       -0.4720     2.4360     0.6270 C.ar  1 <1>  -0.1440 
  8 C       -4.4500     0.1740    -0.0200 C.3   1 <1>   0.1900 
  9 C       -3.9750    -1.9360     1.0810 C.3   1 <1>   0.1100 
 10 C       -0.9130     3.6190     0.0530 C.ar  1 <1>  -0.1500 
 11 C        0.5020     1.6910    -0.0210 C.ar  1 <1>  -0.1500 
 12 N       -4.6120    -1.2980    -0.0930 N.3   1 <1>  -0.8100 
 13 C       -5.1460     0.8540    -1.2150 C.3   1 <1>   0.1200 
 14 C       -0.3970     4.0450    -1.1590 C.ar  1 <1>  -0.1500 
 15 C        1.0190     2.1150    -1.2320 C.ar  1 <1>  -0.1500 
 16 C       -6.0490    -1.6440    -0.2000 C.3   1 <1>   0.3330 
 17 O       -6.5010     0.5060    -1.2540 O.3   1 <1>  -0.5600 
 18 C        0.5680     3.2920    -1.8030 C.ar  1 <1>  -0.1500 
 19 C       -6.2400    -3.1460    -0.4120 C.ar  1 <1>  -0.1440 
 20 C       -6.7110    -0.8770    -1.3650 C.3   1 <1>   0.1200 
 21 C       -7.1790    -3.8410     0.3370 C.ar  1 <1>  -0.1500 
 22 C       -5.4860    -3.8330    -1.3540 C.ar  1 <1>  -0.1500 
 23 C       -7.3620    -5.2000     0.1460 C.ar  1 <1>  -0.1500 
 24 C       -5.6680    -5.1920    -1.5460 C.ar  1 <1>  -0.1500 
 25 C       -6.6070    -5.8760    -0.7960 C.ar  1 <1>  -0.1500 
 26 H       -1.9630     2.4920     2.1780 H     1 <1>   0.0800 
 27 H       -0.3530     2.1950     2.7360 H     1 <1>   0.0800 
 28 H       -2.8970     1.6330     0.1330 H     1 <1>   0.0800 
 29 H       -2.4940     0.3000    -0.9080 H     1 <1>   0.0800 
 30 H       -1.9760    -2.0470     0.3150 H     1 <1>   0.0800 
 31 H       -2.0670    -2.0400     2.0510 H     1 <1>   0.0800 
 32 H       -4.9140     0.5400     0.8810 H     1 <1>   0.0800 
 33 H       -4.4560    -1.6090     1.9870 H     1 <1>   0.0800 
 34 H       -4.0790    -3.0050     1.0160 H     1 <1>   0.0800 
 35 H       -1.6600     4.2190     0.5440 H     1 <1>   0.1500 
 36 H        0.8640     0.7740     0.4140 H     1 <1>   0.1500 
 37 H       -4.6870     0.5570    -2.1420 H     1 <1>   0.0800 
 38 H       -5.0880     1.9240    -1.1250 H     1 <1>   0.0800 
 39 H       -0.7440     4.9630    -1.6000 H     1 <1>   0.1500 
 40 H        1.7720     1.5290    -1.7290 H     1 <1>   0.1500 
 41 H       -6.5470    -1.3550     0.7090 H     1 <1>   0.0800 
 42 H        0.9700     3.6220    -2.7450 H     1 <1>   0.1500 
 43 H       -7.7720    -1.0500    -1.3620 H     1 <1>   0.0800 
 44 H       -6.3110    -1.2100    -2.3060 H     1 <1>   0.0800 
 45 H       -7.7740    -3.3290     1.0720 H     1 <1>   0.1500 
 46 H       -4.7500    -3.3050    -1.9360 H     1 <1>   0.1500 
 47 H       -8.0920    -5.7320     0.7310 H     1 <1>   0.1500 
 48 H       -5.0780    -5.7140    -2.2790 H     1 <1>   0.1500 
 49 H       -6.7490    -6.9320    -0.9440 H     1 <1>   0.1500 
@<TRIPOS>BOND
  1   1   2  2   
  2   2   3  am  
  3   2   4  1   
  4   3   5  1   
  5   3   6  1   
  6   4   7  1   
  7   4  26  1   
  8   4  27  1   
  9   5   8  1   
 10   5  28  1   
 11   5  29  1   
 12   6   9  1   
 13   6  30  1   
 14   6  31  1   
 15   7  10  ar  
 16   7  11  ar  
 17   8  12  1   
 18   8  13  1   
 19   8  32  1   
 20   9  12  1   
 21   9  33  1   
 22   9  34  1   
 23  10  14  ar  
 24  10  35  1   
 25  11  15  ar  
 26  11  36  1   
 27  12  16  1   
 28  13  17  1   
 29  13  37  1   
 30  13  38  1   
 31  14  18  ar  
 32  14  39  1   
 33  15  18  ar  
 34  15  40  1   
 35  16  19  1   
 36  16  20  1   
 37  16  41  1   
 38  17  20  1   
 39  18  42  1   
 40  19  21  ar  
 41  19  22  ar  
 42  20  43  1   
 43  20  44  1   
 44  21  23  ar  
 45  21  45  1   
 46  22  24  ar  
 47  22  46  1   
 48  23  25  ar  
 49  23  47  1   
 50  24  25  ar  
 51  24  48  1   
 52  25  49  1   
@<TRIPOS>SUBSTRUCTURE
  1 ****   5 GROUP 4 **** **** 0

# MOE 2024.06 (io_trps.svl 2023.06)
