@<TRIPOS>MOLECULE
NONAME
46 48 1 0 0 
SMALL
USER_CHARGES


@<TRIPOS>ATOM
  1 O       -0.4390     0.2350    -1.5440 O.2   1 <1>  -0.5700 
  2 C       -1.3370     0.6010    -0.8090 C.2   1 <1>   0.5440 
  3 N       -1.1200     1.6910     0.0080 N.am  1 <1>  -0.6600 
  4 C       -2.5840    -0.1250    -0.8140 C.ar  1 <1>   0.0860 
  5 C       -1.8990     1.9990     1.2440 C.3   1 <1>   0.1400 
  6 C        0.0790     2.5670    -0.1560 C.3   1 <1>   0.1400 
  7 C       -2.5930    -1.5100    -0.6730 C.ar  1 <1>   0.1600 
  8 C       -3.8180     0.4980    -0.9690 C.ar  1 <1>  -0.1500 
  9 C       -2.1760     3.5090     1.3430 C.3   1 <1>   0.1200 
 10 C       -0.3010     4.0450     0.0310 C.3   1 <1>   0.1200 
 11 N       -3.6660    -2.2810    -0.6420 N.ar  1 <1>  -0.6200 
 12 C       -4.9450    -0.2890    -0.9470 C.ar  1 <1>  -0.1500 
 13 O       -0.9850     4.2370     1.2390 O.3   1 <1>  -0.5600 
 14 C       -4.8350    -1.6670    -0.7790 C.ar  1 <1>   0.4100 
 15 N       -5.9670    -2.4360    -0.7570 N.pl3 1 <1>  -0.8690 
 16 C       -5.9420    -3.9130    -0.7450 C.3   1 <1>   0.2090 
 17 C       -7.3520    -4.4270    -0.4650 C.3   1 <1>  -0.1600 
 18 C       -7.3840    -5.9590    -0.3880 C.3   1 <1>  -0.0170 
 19 C       -8.7950    -6.4630    -0.1360 C.ar  1 <1>   0.1670 
 20 N       -9.6000    -6.5050    -1.1870 N.ar  1 <1>  -0.6200 
 21 C       -9.1720    -6.8450     1.1440 C.ar  1 <1>  -0.1500 
 22 C      -10.8260    -6.9450    -0.9540 C.ar  1 <1>   0.1600 
 23 C      -10.4520    -7.3010     1.3720 C.ar  1 <1>  -0.1500 
 24 C      -11.2960    -7.3480     0.2840 C.ar  1 <1>  -0.1500 
 25 H       -1.3250     1.6960     2.1030 H     1 <1>   0.0800 
 26 H       -2.8270     1.4600     1.2660 H     1 <1>   0.0800 
 27 H        0.5100     2.4350    -1.1330 H     1 <1>   0.0800 
 28 H        0.8210     2.2930     0.5740 H     1 <1>   0.0800 
 29 H       -1.6390    -2.0020    -0.5770 H     1 <1>   0.1500 
 30 H       -3.8760     1.5630    -1.1050 H     1 <1>   0.1500 
 31 H       -2.6210     3.7430     2.2930 H     1 <1>   0.0800 
 32 H       -2.8430     3.8250     0.5600 H     1 <1>   0.0800 
 33 H       -0.9290     4.3770    -0.7770 H     1 <1>   0.0800 
 34 H        0.5840     4.6550     0.0540 H     1 <1>   0.0800 
 35 H       -5.9200     0.1450    -1.0590 H     1 <1>   0.1500 
 36 H       -6.8240    -2.0300    -1.1350 H     1 <1>   0.4000 
 37 H       -5.2650    -4.2520     0.0220 H     1 <1>   0.0800 
 38 H       -5.5920    -4.2720    -1.6980 H     1 <1>   0.0800 
 39 H       -8.0130    -4.1040    -1.2500 H     1 <1>   0.0800 
 40 H       -7.7000    -4.0210     0.4690 H     1 <1>   0.0800 
 41 H       -6.7320    -6.2980     0.3970 H     1 <1>   0.0800 
 42 H       -7.0300    -6.3790    -1.3140 H     1 <1>   0.0800 
 43 H       -8.4710    -6.7850     1.9570 H     1 <1>   0.1500 
 44 H      -11.4940    -6.9860    -1.7970 H     1 <1>   0.1500 
 45 H      -10.7780    -7.6050     2.3520 H     1 <1>   0.1500 
 46 H      -12.3080    -7.6930     0.3900 H     1 <1>   0.1500 
@<TRIPOS>BOND
  1   1   2  2   
  2   2   3  am  
  3   2   4  1   
  4   3   5  1   
  5   3   6  1   
  6   4   7  ar  
  7   4   8  ar  
  8   5   9  1   
  9   5  25  1   
 10   5  26  1   
 11   6  10  1   
 12   6  27  1   
 13   6  28  1   
 14   7  11  ar  
 15   7  29  1   
 16   8  12  ar  
 17   8  30  1   
 18   9  13  1   
 19   9  31  1   
 20   9  32  1   
 21  10  13  1   
 22  10  33  1   
 23  10  34  1   
 24  11  14  ar  
 25  12  14  ar  
 26  12  35  1   
 27  14  15  1   
 28  15  16  1   
 29  15  36  1   
 30  16  17  1   
 31  16  37  1   
 32  16  38  1   
 33  17  18  1   
 34  17  39  1   
 35  17  40  1   
 36  18  19  1   
 37  18  41  1   
 38  18  42  1   
 39  19  20  ar  
 40  19  21  ar  
 41  20  22  ar  
 42  21  23  ar  
 43  21  43  1   
 44  22  24  ar  
 45  22  44  1   
 46  23  24  ar  
 47  23  45  1   
 48  24  46  1   
@<TRIPOS>SUBSTRUCTURE
  1 ****  14 GROUP 4 **** **** 0

# MOE 2024.06 (io_trps.svl 2023.06)
