@<TRIPOS>MOLECULE
NONAME
69 72 1 0 0 
SMALL
USER_CHARGES


@<TRIPOS>ATOM
  1 O       -0.4630    -0.6990     0.7870 O.3   1 <1>  -0.5600 
  2 C        0.7140    -1.2000     0.2250 C.3   1 <1>   0.1200 
  3 C       -1.6420    -1.2570     0.2840 C.3   1 <1>   0.1200 
  4 C        0.8130    -2.7190     0.4640 C.3   1 <1>   0.3430 
  5 C       -1.6560    -2.7790     0.5220 C.3   1 <1>   0.3430 
  6 N       -0.4150    -3.4410    -0.0250 N.4   1 <1>  -0.9590 
  7 C       -0.3460    -4.8920     0.3070 C.3   1 <1>   0.3430 
  8 C       -1.4150    -5.6650    -0.4630 C.3   1 <1>  -0.1600 
  9 C       -1.2920    -7.1680    -0.2110 C.3   1 <1>   0.1200 
 10 O       -2.3070    -7.7940    -0.9540 O.3   1 <1>  -0.3630 
 11 C       -2.4360    -9.1420    -0.9910 C.ar  1 <1>   0.0820 
 12 C       -1.6690   -10.0190    -0.2300 C.ar  1 <1>  -0.1500 
 13 C       -3.3950    -9.6510    -1.8510 C.ar  1 <1>  -0.1500 
 14 C       -1.8700   -11.3850    -0.3330 C.ar  1 <1>  -0.1500 
 15 C       -3.5940   -11.0150    -1.9550 C.ar  1 <1>  -0.1500 
 16 C       -2.8360   -11.8910    -1.1920 C.ar  1 <1>  -0.1440 
 17 C       -3.0680   -13.3870    -1.2920 C.3   1 <1>   0.4860 
 18 N       -3.9250   -13.8030    -0.1530 N.4   1 <1>  -0.9590 
 19 C       -5.2810   -13.2010    -0.2170 C.3   1 <1>   0.3430 
 20 C       -4.1230   -15.2720    -0.0510 C.3   1 <1>   0.3430 
 21 C       -6.1350   -14.0740     0.6930 C.3   1 <1>  -0.0800 
 22 C       -5.5150   -15.4820     0.5540 C.3   1 <1>  -0.0800 
 23 C       -7.6540   -13.9760     0.4000 C.3   1 <1>   0.2800 
 24 C       -6.3510   -16.4200    -0.3340 C.3   1 <1>  -0.1600 
 25 O       -7.8340   -13.8340    -0.9620 O.3   1 <1>  -0.6800 
 26 C       -8.3510   -15.2790     0.8300 C.3   1 <1>  -0.1600 
 27 C       -8.3350   -12.7680     1.0830 C.3   1 <1>  -0.1600 
 28 C       -7.8000   -16.5550     0.1610 C.3   1 <1>  -0.1600 
 29 C       -7.8040   -11.3750     0.7030 C.3   1 <1>  -0.2400 
 30 H        0.7240    -0.9670    -0.8260 H     1 <1>   0.0800 
 31 H        1.5400    -0.6950     0.6950 H     1 <1>   0.0800 
 32 H       -2.4670    -0.7930     0.7960 H     1 <1>   0.0800 
 33 H       -1.7160    -1.0240    -0.7650 H     1 <1>   0.0800 
 34 H        0.9360    -2.8840     1.5220 H     1 <1>   0.0800 
 35 H        1.6890    -3.1000    -0.0340 H     1 <1>   0.0800 
 36 H       -2.5350    -3.1980     0.0620 H     1 <1>   0.0800 
 37 H       -1.7240    -2.9530     1.5840 H     1 <1>   0.0800 
 38 H       -0.4410    -3.3450    -1.0490 H     1 <1>   0.4500 
 39 H        0.6240    -5.2770     0.0350 H     1 <1>   0.0800 
 40 H       -0.4790    -5.0350     1.3680 H     1 <1>   0.0800 
 41 H       -1.3000    -5.4890    -1.5180 H     1 <1>   0.0800 
 42 H       -2.3970    -5.3560    -0.1510 H     1 <1>   0.0800 
 43 H       -1.4410    -7.4040     0.8290 H     1 <1>   0.0800 
 44 H       -0.3430    -7.5460    -0.5520 H     1 <1>   0.0800 
 45 H       -0.9150    -9.6590     0.4450 H     1 <1>   0.1500 
 46 H       -3.9820    -8.9690    -2.4410 H     1 <1>   0.1500 
 47 H       -1.2600   -12.0440     0.2620 H     1 <1>   0.1500 
 48 H       -4.3440   -11.3790    -2.6380 H     1 <1>   0.1500 
 49 H       -2.1210   -13.9000    -1.2530 H     1 <1>   0.0800 
 50 H       -3.5490   -13.6230    -2.2270 H     1 <1>   0.0800 
 51 H       -3.4880   -13.4580     0.7090 H     1 <1>   0.4500 
 52 H       -5.2730   -12.1710     0.0980 H     1 <1>   0.0800 
 53 H       -5.6540   -13.2580    -1.2260 H     1 <1>   0.0800 
 54 H       -4.0930   -15.7160    -1.0330 H     1 <1>   0.0800 
 55 H       -3.3610   -15.7250     0.5630 H     1 <1>   0.0800 
 56 H       -5.9720   -13.7530     1.7060 H     1 <1>   0.0800 
 57 H       -5.4200   -15.9320     1.5270 H     1 <1>   0.0800 
 58 H       -6.3720   -16.0310    -1.3380 H     1 <1>   0.0800 
 59 H       -5.9000   -17.3980    -0.3780 H     1 <1>   0.0800 
 60 H       -8.7900   -13.8490    -1.1630 H     1 <1>   0.4000 
 61 H       -8.2210   -15.3830     1.8940 H     1 <1>   0.0800 
 62 H       -9.4110   -15.2140     0.6580 H     1 <1>   0.0800 
 63 H       -9.3880   -12.7980     0.8590 H     1 <1>   0.0800 
 64 H       -8.2490   -12.8790     2.1500 H     1 <1>   0.0800 
 65 H       -7.8670   -17.3680     0.8640 H     1 <1>   0.0800 
 66 H       -8.4220   -16.8110    -0.6800 H     1 <1>   0.0800 
 67 H       -7.7940   -11.2410    -0.3650 H     1 <1>   0.0800 
 68 H       -6.8160   -11.2140     1.0920 H     1 <1>   0.0800 
 69 H       -8.4450   -10.6200     1.1250 H     1 <1>   0.0800 
@<TRIPOS>BOND
  1   1   2  1   
  2   1   3  1   
  3   2   4  1   
  4   2  30  1   
  5   2  31  1   
  6   3   5  1   
  7   3  32  1   
  8   3  33  1   
  9   4   6  1   
 10   4  34  1   
 11   4  35  1   
 12   5   6  1   
 13   5  36  1   
 14   5  37  1   
 15   6   7  1   
 16   6  38  1   
 17   7   8  1   
 18   7  39  1   
 19   7  40  1   
 20   8   9  1   
 21   8  41  1   
 22   8  42  1   
 23   9  10  1   
 24   9  43  1   
 25   9  44  1   
 26  10  11  1   
 27  11  12  ar  
 28  11  13  ar  
 29  12  14  ar  
 30  12  45  1   
 31  13  15  ar  
 32  13  46  1   
 33  14  16  ar  
 34  14  47  1   
 35  15  16  ar  
 36  15  48  1   
 37  16  17  1   
 38  17  18  1   
 39  17  49  1   
 40  17  50  1   
 41  18  19  1   
 42  18  20  1   
 43  18  51  1   
 44  19  21  1   
 45  19  52  1   
 46  19  53  1   
 47  20  22  1   
 48  20  54  1   
 49  20  55  1   
 50  21  22  1   
 51  21  23  1   
 52  21  56  1   
 53  22  24  1   
 54  22  57  1   
 55  23  25  1   
 56  23  26  1   
 57  23  27  1   
 58  24  28  1   
 59  24  58  1   
 60  24  59  1   
 61  25  60  1   
 62  26  28  1   
 63  26  61  1   
 64  26  62  1   
 65  27  29  1   
 66  27  63  1   
 67  27  64  1   
 68  28  65  1   
 69  28  66  1   
 70  29  67  1   
 71  29  68  1   
 72  29  69  1   
@<TRIPOS>SUBSTRUCTURE
  1 ****  11 GROUP 4 **** **** 0

# MOE 2024.06 (io_trps.svl 2023.06)
