@<TRIPOS>MOLECULE
NONAME
44 46 1 0 0 
SMALL
USER_CHARGES


@<TRIPOS>ATOM
  1 S        0.4600     0.1860    -0.4480 S.3   1 <1>  -0.0800 
  2 C       -1.0130    -0.1080     0.4320 C.2   1 <1>  -0.1400 
  3 C       -0.4020     1.3310    -1.4510 C.2   1 <1>   0.1980 
  4 C       -1.9900     0.6520    -0.0920 C.2   1 <1>   0.0460 
  5 C       -0.9780    -1.1110     1.5610 C.3   1 <1>   0.3200 
  6 N       -1.6320     1.4640    -1.1580 N.2   1 <1>  -0.5650 
  7 C        0.3790     2.0320    -2.5360 C.3   1 <1>  -0.0600 
  8 C       -3.4410     0.6890     0.3610 C.3   1 <1>   0.0210 
  9 N       -1.6590    -2.3230     1.0840 N.am  1 <1>  -0.7300 
 10 C       -3.8020     2.0400     0.9860 C.3   1 <1>  -0.2400 
 11 C       -2.7080    -2.9050     1.7160 C.2   1 <1>   0.6300 
 12 O       -2.9890    -2.6240     2.8580 O.2   1 <1>  -0.5700 
 13 C       -3.5620    -3.8950     0.9160 C.3   1 <1>   0.0850 
 14 C       -4.4920    -3.1420    -0.0250 C.2   1 <1>  -0.0450 
 15 C       -3.9340    -5.2610     1.4330 C.3   1 <1>  -0.1900 
 16 C       -2.8770    -5.1360     0.3840 C.3   1 <1>  -0.2000 
 17 S       -5.8450    -2.2840     0.6980 S.3   1 <1>  -0.0800 
 18 C       -4.4910    -2.9740    -1.3610 C.2   1 <1>  -0.1500 
 19 C       -3.5060    -5.7040     2.8390 C.3   1 <1>  -0.1450 
 20 C       -5.2780    -5.8890     1.0370 C.3   1 <1>  -0.1450 
 21 C       -6.3780    -1.7070    -0.8710 C.2   1 <1>  -0.1100 
 22 C       -5.5640    -2.1570    -1.8430 C.2   1 <1>  -0.1500 
 23 H       -1.4860    -0.7090     2.4220 H     1 <1>   0.0800 
 24 H        0.0360    -1.3440     1.8350 H     1 <1>   0.0800 
 25 H        1.1820     2.5960    -2.1000 H     1 <1>   0.0800 
 26 H       -0.2690     2.7020    -3.0720 H     1 <1>   0.0800 
 27 H        0.7800     1.3090    -3.2220 H     1 <1>   0.0800 
 28 H       -3.6190    -0.0890     1.0800 H     1 <1>   0.0800 
 29 H       -4.0740     0.5010    -0.4890 H     1 <1>   0.0800 
 30 H       -1.5110    -2.5210     0.0950 H     1 <1>   0.3700 
 31 H       -3.1710     2.2330     1.8350 H     1 <1>   0.0800 
 32 H       -4.8280     2.0360     1.3060 H     1 <1>   0.0800 
 33 H       -3.6650     2.8270     0.2670 H     1 <1>   0.0800 
 34 H       -1.8540    -5.3220     0.6590 H     1 <1>   0.1000 
 35 H       -3.1010    -5.4710    -0.6130 H     1 <1>   0.1000 
 36 H       -3.7720    -3.3900    -2.0430 H     1 <1>   0.1500 
 37 H       -2.5250    -5.3370     3.0840 H     1 <1>   0.0800 
 38 H       -3.4880    -6.7770     2.9050 H     1 <1>   0.0800 
 39 H       -4.1980    -5.3220     3.5690 H     1 <1>   0.0800 
 40 H       -5.5420    -5.6430     0.0230 H     1 <1>   0.0800 
 41 H       -6.0560    -5.5270     1.6860 H     1 <1>   0.0800 
 42 H       -5.2290    -6.9600     1.1200 H     1 <1>   0.0800 
 43 H       -7.2550    -1.0850    -0.8980 H     1 <1>   0.1500 
 44 H       -5.6690    -1.9470    -2.8930 H     1 <1>   0.1500 
@<TRIPOS>BOND
  1   1   2  1   
  2   1   3  1   
  3   2   4  2   
  4   2   5  1   
  5   3   6  2   
  6   3   7  1   
  7   4   6  1   
  8   4   8  1   
  9   5   9  1   
 10   5  23  1   
 11   5  24  1   
 12   7  25  1   
 13   7  26  1   
 14   7  27  1   
 15   8  10  1   
 16   8  28  1   
 17   8  29  1   
 18   9  11  am  
 19   9  30  1   
 20  10  31  1   
 21  10  32  1   
 22  10  33  1   
 23  11  12  2   
 24  11  13  1   
 25  13  14  1   
 26  13  15  1   
 27  13  16  1   
 28  14  17  1   
 29  14  18  2   
 30  15  16  1   
 31  15  19  1   
 32  15  20  1   
 33  16  34  1   
 34  16  35  1   
 35  17  21  1   
 36  18  22  1   
 37  18  36  1   
 38  19  37  1   
 39  19  38  1   
 40  19  39  1   
 41  20  40  1   
 42  20  41  1   
 43  20  42  1   
 44  21  22  2   
 45  21  43  1   
 46  22  44  1   
@<TRIPOS>SUBSTRUCTURE
  1 ****   9 GROUP 4 **** **** 0

# MOE 2024.06 (io_trps.svl 2023.06)
