@<TRIPOS>MOLECULE
NONAME
57 60 1 0 0 
SMALL
USER_CHARGES


@<TRIPOS>ATOM
  1 O       -1.5070     2.2080     2.2980 O.3   1 <1>  -0.5600 
  2 C       -0.4040     1.7560     1.5910 C.3   1 <1>   0.1200 
  3 C       -2.6510     1.9890     1.5240 C.3   1 <1>   0.1200 
  4 C       -0.6770     2.3050     0.1950 C.3   1 <1>   0.4230 
  5 C       -2.1640     1.9750     0.0610 C.3   1 <1>  -0.0800 
  6 N       -0.5430     3.7920     0.2470 N.4   1 <1>  -0.9060 
  7 C       -2.3920     0.6050    -0.6110 C.3   1 <1>  -0.0170 
  8 C        0.8320     4.3380     0.3330 C.3   1 <1>   0.4230 
  9 C       -3.8760     0.3020    -0.7330 C.ar  1 <1>  -0.1430 
 10 C        0.7480     5.8020     0.7630 C.3   1 <1>  -0.1600 
 11 C        1.5460     4.2160    -1.0170 C.3   1 <1>  -0.1600 
 12 C       -4.5160    -0.5800     0.1160 C.ar  1 <1>  -0.1500 
 13 C       -4.6630     0.8900    -1.7040 C.ar  1 <1>  -0.1500 
 14 C        2.1330     6.4480     0.7990 C.3   1 <1>   0.3430 
 15 C        2.9260     4.8790    -0.9760 C.3   1 <1>   0.3430 
 16 C       -5.8730    -0.8130    -0.0330 C.ar  1 <1>   0.1600 
 17 C       -6.0140     0.5870    -1.7670 C.ar  1 <1>   0.1600 
 18 N        2.8000     6.2930    -0.5280 N.4   1 <1>  -0.9590 
 19 N       -6.6360    -0.2460    -0.9510 N.ar  1 <1>  -0.6200 
 20 C        4.1310     6.9790    -0.5370 C.3   1 <1>   0.4860 
 21 C        3.8930     8.4620    -0.3400 C.ar  1 <1>  -0.1430 
 22 C        3.3800     9.2320    -1.3740 C.ar  1 <1>  -0.1500 
 23 C        4.1770     9.0590     0.8810 C.ar  1 <1>  -0.1500 
 24 C        3.1360    10.5810    -1.1820 C.ar  1 <1>  -0.1500 
 25 C        3.9320    10.4070     1.0700 C.ar  1 <1>  -0.1500 
 26 C        3.4090    11.1670     0.0400 C.ar  1 <1>  -0.1500 
 27 H        0.4970     2.1250     2.0470 H     1 <1>   0.0800 
 28 H       -0.4040     0.6780     1.6090 H     1 <1>   0.0800 
 29 H       -3.0850     1.0500     1.8270 H     1 <1>   0.0800 
 30 H       -3.3550     2.7820     1.7160 H     1 <1>   0.0800 
 31 H       -0.0700     1.8610    -0.5770 H     1 <1>   0.0800 
 32 H       -2.6880     2.7170    -0.5150 H     1 <1>   0.0800 
 33 H       -1.0720     4.2190    -0.5210 H     1 <1>   0.4500 
 34 H       -1.0500     4.0310     1.1180 H     1 <1>   0.4500 
 35 H       -1.9140    -0.1810    -0.0510 H     1 <1>   0.0800 
 36 H       -1.9630     0.6030    -1.5990 H     1 <1>   0.0800 
 37 H        1.3890     3.7930     1.0800 H     1 <1>   0.0800 
 38 H        0.1230     6.3650     0.0910 H     1 <1>   0.0800 
 39 H        0.3240     5.8670     1.7500 H     1 <1>   0.0800 
 40 H        1.6830     3.1790    -1.2690 H     1 <1>   0.0800 
 41 H        0.9640     4.6770    -1.7970 H     1 <1>   0.0800 
 42 H       -3.9810    -1.0950     0.8940 H     1 <1>   0.1500 
 43 H       -4.2490     1.5770    -2.4170 H     1 <1>   0.1500 
 44 H        2.7350     5.9870     1.5670 H     1 <1>   0.0800 
 45 H        2.0320     7.4960     1.0420 H     1 <1>   0.0800 
 46 H        3.3730     4.8420    -1.9590 H     1 <1>   0.0800 
 47 H        3.5700     4.3390    -0.2980 H     1 <1>   0.0800 
 48 H       -6.3570    -1.5020     0.6390 H     1 <1>   0.1500 
 49 H       -6.6150     1.0530    -2.5300 H     1 <1>   0.1500 
 50 H        2.2470     6.8280    -1.2140 H     1 <1>   0.4500 
 51 H        4.7620     6.5980     0.2500 H     1 <1>   0.0800 
 52 H        4.6280     6.8250    -1.4810 H     1 <1>   0.0800 
 53 H        3.1700     8.8070    -2.3410 H     1 <1>   0.1500 
 54 H        4.5940     8.4940     1.6980 H     1 <1>   0.1500 
 55 H        2.7380    11.1810    -1.9840 H     1 <1>   0.1500 
 56 H        4.1530    10.8730     2.0160 H     1 <1>   0.1500 
 57 H        3.2200    12.2180     0.1880 H     1 <1>   0.1500 
@<TRIPOS>BOND
  1   1   2  1   
  2   1   3  1   
  3   2   4  1   
  4   2  27  1   
  5   2  28  1   
  6   3   5  1   
  7   3  29  1   
  8   3  30  1   
  9   4   5  1   
 10   4   6  1   
 11   4  31  1   
 12   5   7  1   
 13   5  32  1   
 14   6   8  1   
 15   6  33  1   
 16   6  34  1   
 17   7   9  1   
 18   7  35  1   
 19   7  36  1   
 20   8  10  1   
 21   8  11  1   
 22   8  37  1   
 23   9  12  ar  
 24   9  13  ar  
 25  10  14  1   
 26  10  38  1   
 27  10  39  1   
 28  11  15  1   
 29  11  40  1   
 30  11  41  1   
 31  12  16  ar  
 32  12  42  1   
 33  13  17  ar  
 34  13  43  1   
 35  14  18  1   
 36  14  44  1   
 37  14  45  1   
 38  15  18  1   
 39  15  46  1   
 40  15  47  1   
 41  16  19  ar  
 42  16  48  1   
 43  17  19  ar  
 44  17  49  1   
 45  18  20  1   
 46  18  50  1   
 47  20  21  1   
 48  20  51  1   
 49  20  52  1   
 50  21  22  ar  
 51  21  23  ar  
 52  22  24  ar  
 53  22  53  1   
 54  23  25  ar  
 55  23  54  1   
 56  24  26  ar  
 57  24  55  1   
 58  25  26  ar  
 59  25  56  1   
 60  26  57  1   
@<TRIPOS>SUBSTRUCTURE
  1 ****   6 GROUP 4 **** **** 0

# MOE 2024.06 (io_trps.svl 2023.06)
