@<TRIPOS>MOLECULE
NONAME
45 47 1 0 0 
SMALL
USER_CHARGES


@<TRIPOS>ATOM
  1 O        0.1900     0.0690     1.6290 O.3   1 <1>  -0.6800 
  2 C        0.9030    -0.1360     0.4560 C.3   1 <1>   0.2000 
  3 C        1.6480    -1.4640     0.5910 C.3   1 <1>  -0.0800 
  4 C        2.0300     0.9130     0.3890 C.3   1 <1>   0.3430 
  5 C        2.8090    -1.0490     1.4990 C.3   1 <1>   0.3430 
  6 C        2.0950    -1.9830    -0.8010 C.3   1 <1>  -0.0170 
  7 N        3.2550     0.2430     0.9340 N.4   1 <1>  -0.9590 
  8 C        3.3960    -2.7720    -0.7780 C.ar  1 <1>   0.1670 
  9 C        4.0230     1.0920     1.8660 C.3   1 <1>   0.5240 
 10 N        4.5130    -2.0550    -0.7470 N.ar  1 <1>  -0.6200 
 11 C        3.3690    -4.1660    -0.7950 C.ar  1 <1>   0.1600 
 12 C        4.5530     2.2610     1.0600 C.2   1 <1>  -0.1810 
 13 C        5.5910    -2.8280    -0.7570 C.ar  1 <1>   0.1600 
 14 N        4.4460    -4.9300    -0.7810 N.ar  1 <1>  -0.6200 
 15 C        5.5130     2.2630     0.0930 C.2   1 <1>  -0.3320 
 16 C        4.1040     3.5770     1.1890 C.2   1 <1>  -0.1500 
 17 C        5.5580    -4.2180    -0.7720 C.ar  1 <1>   0.1600 
 18 N        5.6660     3.5330    -0.3830 N.pl3 1 <1>   0.0480 
 19 C        6.3370     1.0880    -0.4170 C.3   1 <1>  -0.0600 
 20 C        4.7990     4.3420     0.2990 C.2   1 <1>  -0.1320 
 21 C        6.6190     3.9800    -1.4270 C.3   1 <1>   0.0160 
 22 C        4.6930     5.7530     0.0750 C.1   1 <1>   0.5370 
 23 N        4.6230     6.8720    -0.1290 N.1   1 <1>  -0.5570 
 24 H       -0.6560    -0.4280     1.6290 H     1 <1>   0.4000 
 25 H        0.2250    -0.0780    -0.3790 H     1 <1>   0.0800 
 26 H        1.0510    -2.2180     1.0740 H     1 <1>   0.0800 
 27 H        1.7580     1.7790     0.9690 H     1 <1>   0.0800 
 28 H        2.2080     1.2110    -0.6310 H     1 <1>   0.0800 
 29 H        3.6030    -1.7780     1.5160 H     1 <1>   0.0800 
 30 H        2.4370    -0.9010     2.5010 H     1 <1>   0.0800 
 31 H        2.2360    -1.1650    -1.4860 H     1 <1>   0.0800 
 32 H        1.3100    -2.5920    -1.2160 H     1 <1>   0.0800 
 33 H        3.8860     0.0240     0.1450 H     1 <1>   0.4500 
 34 H        3.3940     1.4410     2.6690 H     1 <1>   0.0800 
 35 H        4.8490     0.5380     2.2810 H     1 <1>   0.0800 
 36 H        2.4210    -4.6740    -0.8210 H     1 <1>   0.1500 
 37 H        6.5530    -2.3460    -0.7550 H     1 <1>   0.1500 
 38 H        3.3480     3.9250     1.8740 H     1 <1>   0.1500 
 39 H        6.4880    -4.7600    -0.7750 H     1 <1>   0.1500 
 40 H        6.1510     0.2030     0.1620 H     1 <1>   0.0800 
 41 H        7.3870     1.3150    -0.3460 H     1 <1>   0.0800 
 42 H        6.0960     0.8820    -1.4450 H     1 <1>   0.0800 
 43 H        6.8920     3.1550    -2.0570 H     1 <1>   0.0800 
 44 H        7.5000     4.3770    -0.9550 H     1 <1>   0.0800 
 45 H        6.1650     4.7430    -2.0330 H     1 <1>   0.0800 
@<TRIPOS>BOND
  1   1   2  1   
  2   1  24  1   
  3   2   3  1   
  4   2   4  1   
  5   2  25  1   
  6   3   5  1   
  7   3   6  1   
  8   3  26  1   
  9   4   7  1   
 10   4  27  1   
 11   4  28  1   
 12   5   7  1   
 13   5  29  1   
 14   5  30  1   
 15   6   8  1   
 16   6  31  1   
 17   6  32  1   
 18   7   9  1   
 19   7  33  1   
 20   8  10  ar  
 21   8  11  ar  
 22   9  12  1   
 23   9  34  1   
 24   9  35  1   
 25  10  13  ar  
 26  11  14  ar  
 27  11  36  1   
 28  12  15  2   
 29  12  16  1   
 30  13  17  ar  
 31  13  37  1   
 32  14  17  ar  
 33  15  18  1   
 34  15  19  1   
 35  16  20  2   
 36  16  38  1   
 37  17  39  1   
 38  18  20  1   
 39  18  21  1   
 40  19  40  1   
 41  19  41  1   
 42  19  42  1   
 43  20  22  1   
 44  21  43  1   
 45  21  44  1   
 46  21  45  1   
 47  22  23  3   
@<TRIPOS>SUBSTRUCTURE
  1 ****   7 GROUP 4 **** **** 0

# MOE 2024.06 (io_trps.svl 2023.06)
