@<TRIPOS>MOLECULE
NONAME
47 50 1 0 0 
SMALL
USER_CHARGES


@<TRIPOS>ATOM
  1 S       -0.9380    -0.6080    -0.7610 S.3   1 <1>  -0.0800 
  2 C       -1.0570     0.9930    -0.0270 C.2   1 <1>   0.0410 
  3 C       -1.2940    -1.4170     0.7550 C.2   1 <1>  -0.1400 
  4 C       -0.8550     2.1520    -0.8590 C.2   1 <1>   0.2880 
  5 C       -1.3380     0.8420     1.2920 C.2   1 <1>  -0.1500 
  6 C       -1.4700    -0.5090     1.7340 C.2   1 <1>  -0.1500 
  7 C       -1.3300    -2.9290     0.7240 C.3   1 <1>   0.5230 
  8 N       -0.6720     2.1120    -2.1570 N.2   1 <1>  -0.7070 
  9 C       -0.8280     3.4730    -0.3990 C.2   1 <1>  -0.1500 
 10 N       -2.7360    -3.3980     0.5610 N.4   1 <1>  -0.8520 
 11 N       -0.5250     3.3930    -2.5340 N.pl3 1 <1>   0.3000 
 12 C       -0.6160     4.2360    -1.4890 C.2   1 <1>  -0.3020 
 13 C       -2.9380    -4.8650     0.6960 C.3   1 <1>   0.2960 
 14 C       -3.3520    -2.8990    -0.7040 C.3   1 <1>   0.4860 
 15 C       -2.0730    -5.6980     1.5830 C.3   1 <1>  -0.2000 
 16 C       -1.9660    -5.8200     0.0880 C.3   1 <1>  -0.2000 
 17 C       -4.8420    -3.1770    -0.6570 C.ar  1 <1>  -0.1430 
 18 C       -5.6480    -2.4670     0.2200 C.ar  1 <1>  -0.1500 
 19 C       -5.4110    -4.1440    -1.4710 C.ar  1 <1>  -0.1500 
 20 C       -7.0060    -2.7170     0.3170 C.ar  1 <1>   0.0830 
 21 C       -6.7680    -4.4040    -1.3940 C.ar  1 <1>  -0.1500 
 22 O       -7.6470    -1.9440     1.2400 O.3   1 <1>  -0.3630 
 23 C       -7.5720    -3.7070    -0.5060 C.ar  1 <1>   0.0830 
 24 C       -9.0510    -1.9000     1.3650 C.3   1 <1>   0.0400 
 25 O       -8.8810    -4.0340    -0.4820 O.3   1 <1>  -0.5330 
 26 H       -1.4600     1.6590     1.9820 H     1 <1>   0.1500 
 27 H       -1.6880    -0.7200     2.7690 H     1 <1>   0.1500 
 28 H       -0.9330    -3.2980     1.6550 H     1 <1>   0.0800 
 29 H       -0.7120    -3.2940    -0.0790 H     1 <1>   0.0800 
 30 H       -0.9530     3.7840     0.6220 H     1 <1>   0.1500 
 31 H       -3.2780    -2.9550     1.3110 H     1 <1>   0.4500 
 32 H       -0.3620     3.6610    -3.5140 H     1 <1>   0.2700 
 33 H       -0.5260     5.3030    -1.5820 H     1 <1>   0.1500 
 34 H       -3.9840    -5.1350     0.6590 H     1 <1>   0.1000 
 35 H       -2.9070    -3.3870    -1.5550 H     1 <1>   0.0800 
 36 H       -3.2070    -1.8360    -0.8020 H     1 <1>   0.0800 
 37 H       -2.5250    -6.5180     2.1150 H     1 <1>   0.1000 
 38 H       -1.2360    -5.2900     2.1190 H     1 <1>   0.1000 
 39 H       -1.0660    -5.4750    -0.3880 H     1 <1>   0.1000 
 40 H       -2.3400    -6.7230    -0.3630 H     1 <1>   0.1000 
 41 H       -5.2410    -1.6940     0.8490 H     1 <1>   0.1500 
 42 H       -4.8120    -4.7020    -2.1710 H     1 <1>   0.1500 
 43 H       -7.1960    -5.1570    -2.0320 H     1 <1>   0.1500 
 44 H       -9.3020    -1.1400     2.0830 H     1 <1>   0.0800 
 45 H       -9.4010    -2.8570     1.7110 H     1 <1>   0.0800 
 46 H       -9.4810    -1.6580     0.4090 H     1 <1>   0.0800 
 47 H       -9.1200    -4.7250    -1.1250 H     1 <1>   0.4500 
@<TRIPOS>BOND
  1   1   2  1   
  2   1   3  1   
  3   2   4  1   
  4   2   5  2   
  5   3   6  2   
  6   3   7  1   
  7   4   8  2   
  8   4   9  1   
  9   5   6  1   
 10   5  26  1   
 11   6  27  1   
 12   7  10  1   
 13   7  28  1   
 14   7  29  1   
 15   8  11  1   
 16   9  12  2   
 17   9  30  1   
 18  10  13  1   
 19  10  14  1   
 20  10  31  1   
 21  11  12  1   
 22  11  32  1   
 23  12  33  1   
 24  13  15  1   
 25  13  16  1   
 26  13  34  1   
 27  14  17  1   
 28  14  35  1   
 29  14  36  1   
 30  15  16  1   
 31  15  37  1   
 32  15  38  1   
 33  16  39  1   
 34  16  40  1   
 35  17  18  ar  
 36  17  19  ar  
 37  18  20  ar  
 38  18  41  1   
 39  19  21  ar  
 40  19  42  1   
 41  20  22  1   
 42  20  23  ar  
 43  21  23  ar  
 44  21  43  1   
 45  22  24  1   
 46  23  25  1   
 47  24  44  1   
 48  24  45  1   
 49  24  46  1   
 50  25  47  1   
@<TRIPOS>SUBSTRUCTURE
  1 ****  14 GROUP 4 **** **** 0

# MOE 2024.06 (io_trps.svl 2023.06)
