@<TRIPOS>MOLECULE
NONAME
52 54 1 0 0 
SMALL
USER_CHARGES


@<TRIPOS>ATOM
  1 O        0.2750     0.2750     0.1520 O.3   1 <1>  -0.5600 
  2 C        1.5690     0.7810     0.2870 C.3   1 <1>   0.2640 
  3 C        0.1870    -1.1030     0.1250 C.3   1 <1>   0.1200 
  4 C        1.5010     2.2980     0.2550 C.ar  1 <1>  -0.1440 
  5 C       -1.2930    -1.4280    -0.0540 C.3   1 <1>  -0.1600 
  6 C        2.0380     3.0070    -0.8100 C.ar  1 <1>  -0.1500 
  7 C        0.9040     2.9910     1.2970 C.ar  1 <1>  -0.1500 
  8 C       -1.5280    -2.9340    -0.1080 C.3   1 <1>   0.3430 
  9 C        1.9830     4.3900    -0.8290 C.ar  1 <1>  -0.1500 
 10 C        0.8480     4.3740     1.2800 C.ar  1 <1>  -0.1500 
 11 N       -2.9470    -3.2700    -0.4470 N.4   1 <1>  -0.9590 
 12 C        1.3890     5.0740     0.2160 C.ar  1 <1>  -0.1500 
 13 C       -3.9000    -2.8730     0.6500 C.3   1 <1>   0.4230 
 14 C       -2.9980    -4.7070    -0.8690 C.3   1 <1>   0.2630 
 15 C       -5.0950    -3.8170     0.8470 C.3   1 <1>  -0.1600 
 16 C       -4.6020    -1.5780     0.2320 C.3   1 <1>  -0.1600 
 17 C       -6.1000    -3.4560    -0.2570 C.3   1 <1>  -0.0800 
 18 C       -5.7780    -2.0120    -0.6560 C.3   1 <1>  -0.0800 
 19 C       -7.5770    -3.4810     0.1620 C.3   1 <1>  -0.1600 
 20 C       -7.0700    -1.2030    -0.4760 C.3   1 <1>  -0.1600 
 21 C       -8.1770    -2.2500    -0.5050 C.3   1 <1>   0.2000 
 22 O       -9.2700    -1.8090     0.2040 O.3   1 <1>  -0.6800 
 23 H        1.9760     0.4490     1.2260 H     1 <1>   0.0800 
 24 H        2.1730     0.4110    -0.5240 H     1 <1>   0.0800 
 25 H        0.7730    -1.4710    -0.7020 H     1 <1>   0.0800 
 26 H        0.5670    -1.4920     1.0560 H     1 <1>   0.0800 
 27 H       -1.8250    -0.9980     0.7760 H     1 <1>   0.0800 
 28 H       -1.6240    -0.9750    -0.9720 H     1 <1>   0.0800 
 29 H        2.5010     2.4880    -1.6310 H     1 <1>   0.1500 
 30 H        0.4760     2.4510     2.1230 H     1 <1>   0.1500 
 31 H       -1.2630    -3.3770     0.8390 H     1 <1>   0.0800 
 32 H       -0.8780    -3.3490    -0.8610 H     1 <1>   0.0800 
 33 H        2.4010     4.9340    -1.6580 H     1 <1>   0.1500 
 34 H        0.3830     4.9040     2.0920 H     1 <1>   0.1500 
 35 H       -3.2160    -2.7010    -1.2620 H     1 <1>   0.4500 
 36 H        1.3450     6.1490     0.2010 H     1 <1>   0.1500 
 37 H       -3.3650    -2.7450     1.5780 H     1 <1>   0.0800 
 38 H       -2.7560    -5.3510    -0.0390 H     1 <1>   0.0800 
 39 H       -2.2940    -4.8900    -1.6650 H     1 <1>   0.0800 
 40 H       -3.9830    -4.9610    -1.2260 H     1 <1>   0.0800 
 41 H       -4.8530    -4.8630     0.8780 H     1 <1>   0.0800 
 42 H       -5.5240    -3.5740     1.8030 H     1 <1>   0.0800 
 43 H       -4.9760    -1.1110     1.1270 H     1 <1>   0.0800 
 44 H       -3.9680    -0.8690    -0.2660 H     1 <1>   0.0800 
 45 H       -5.9640    -4.0910    -1.1170 H     1 <1>   0.0800 
 46 H       -5.4900    -1.9960    -1.6940 H     1 <1>   0.0800 
 47 H       -7.6740    -3.3980     1.2300 H     1 <1>   0.0800 
 48 H       -8.0680    -4.3780    -0.1730 H     1 <1>   0.0800 
 49 H       -7.1990    -0.4830    -1.2650 H     1 <1>   0.0800 
 50 H       -7.0760    -0.6970     0.4730 H     1 <1>   0.0800 
 51 H       -8.4800    -2.4650    -1.5160 H     1 <1>   0.0800 
 52 H       -9.0240    -1.6060     1.1250 H     1 <1>   0.4000 
@<TRIPOS>BOND
  1   1   2  1   
  2   1   3  1   
  3   2   4  1   
  4   2  23  1   
  5   2  24  1   
  6   3   5  1   
  7   3  25  1   
  8   3  26  1   
  9   4   6  ar  
 10   4   7  ar  
 11   5   8  1   
 12   5  27  1   
 13   5  28  1   
 14   6   9  ar  
 15   6  29  1   
 16   7  10  ar  
 17   7  30  1   
 18   8  11  1   
 19   8  31  1   
 20   8  32  1   
 21   9  12  ar  
 22   9  33  1   
 23  10  12  ar  
 24  10  34  1   
 25  11  13  1   
 26  11  14  1   
 27  11  35  1   
 28  12  36  1   
 29  13  15  1   
 30  13  16  1   
 31  13  37  1   
 32  14  38  1   
 33  14  39  1   
 34  14  40  1   
 35  15  17  1   
 36  15  41  1   
 37  15  42  1   
 38  16  18  1   
 39  16  43  1   
 40  16  44  1   
 41  17  18  1   
 42  17  19  1   
 43  17  45  1   
 44  18  20  1   
 45  18  46  1   
 46  19  21  1   
 47  19  47  1   
 48  19  48  1   
 49  20  21  1   
 50  20  49  1   
 51  20  50  1   
 52  21  22  1   
 53  21  51  1   
 54  22  52  1   
@<TRIPOS>SUBSTRUCTURE
  1 ****   5 GROUP 4 **** **** 0

# MOE 2024.06 (io_trps.svl 2023.06)
