@<TRIPOS>MOLECULE
NONAME
51 53 1 0 0 
SMALL
USER_CHARGES


@<TRIPOS>ATOM
  1 O        2.5680     1.6970    -3.8360 O.3   1 <1>  -0.6800 
  2 C        2.9550     2.0720    -2.5580 C.3   1 <1>   0.2000 
  3 C        2.0530     3.1750    -1.9980 C.3   1 <1>   0.2090 
  4 C        4.3390     2.6950    -2.6160 C.3   1 <1>  -0.1600 
  5 N        2.9550     4.0860    -1.2320 N.pl3 1 <1>  -0.8380 
  6 C        4.3690     3.6720    -1.4470 C.3   1 <1>   0.2090 
  7 C        2.5800     5.1410    -0.4690 C.ar  1 <1>   0.4100 
  8 N        3.5280     5.7980     0.1740 N.ar  1 <1>  -0.6200 
  9 C        1.2290     5.5240    -0.3630 C.ar  1 <1>  -0.1500 
 10 C        3.1910     6.8320     0.9230 C.ar  1 <1>   0.7710 
 11 C        0.9020     6.5790     0.4180 C.ar  1 <1>   0.2110 
 12 N        1.9070     7.2250     1.0590 N.ar  1 <1>  -0.1790 
 13 N        4.1910     7.5070     1.5620 N.pl3 1 <1>  -0.8380 
 14 C        4.1720     8.9610     1.9640 C.3   1 <1>   0.2090 
 15 C        5.4200     6.7560     2.0010 C.3   1 <1>   0.2090 
 16 C        5.4390     9.7320     1.5140 C.3   1 <1>   0.3430 
 17 C        6.5310     6.8090     0.9440 C.3   1 <1>  -0.1600 
 18 N        6.0460     9.1380     0.2710 N.4   1 <1>  -0.9590 
 19 C        7.1250     8.1920     0.6800 C.3   1 <1>   0.3430 
 20 C        6.4710    10.1410    -0.7510 C.3   1 <1>   0.4230 
 21 C        5.2740    11.0050    -1.1560 C.3   1 <1>  -0.2400 
 22 C        6.9900     9.4260    -2.0020 C.3   1 <1>  -0.2400 
 23 H        1.7660     1.1420    -3.8120 H     1 <1>   0.4000 
 24 H        2.9480     1.2080    -1.9170 H     1 <1>   0.0800 
 25 H        1.3010     2.7560    -1.3540 H     1 <1>   0.0800 
 26 H        1.6000     3.7250    -2.8050 H     1 <1>   0.0800 
 27 H        4.4610     3.2490    -3.5310 H     1 <1>   0.0800 
 28 H        5.1170     1.9580    -2.5340 H     1 <1>   0.0800 
 29 H        4.9930     4.5210    -1.6700 H     1 <1>   0.0800 
 30 H        4.7300     3.1810    -0.5590 H     1 <1>   0.0800 
 31 H        0.4800     4.9750    -0.9010 H     1 <1>   0.1500 
 32 H       -0.1160     6.9150     0.5490 H     1 <1>   0.1500 
 33 H        1.7190     7.9750     1.7150 H     1 <1>   0.4570 
 34 H        4.0780     9.0430     3.0350 H     1 <1>   0.0800 
 35 H        3.3230     9.4540     1.5260 H     1 <1>   0.0800 
 36 H        5.1640     5.7210     2.1760 H     1 <1>   0.0800 
 37 H        5.7800     7.1480     2.9380 H     1 <1>   0.0800 
 38 H        6.1630     9.7090     2.3120 H     1 <1>   0.0800 
 39 H        5.1800    10.7660     1.3650 H     1 <1>   0.0800 
 40 H        6.1780     6.3850     0.0210 H     1 <1>   0.0800 
 41 H        7.3310     6.1740     1.2800 H     1 <1>   0.0800 
 42 H        5.3240     8.5450    -0.1630 H     1 <1>   0.4500 
 43 H        7.8650     8.0950    -0.0940 H     1 <1>   0.0800 
 44 H        7.6250     8.5580     1.5630 H     1 <1>   0.0800 
 45 H        7.2510    10.7730    -0.3530 H     1 <1>   0.0800 
 46 H        4.4490    10.3970    -1.4820 H     1 <1>   0.0800 
 47 H        5.5540    11.6440    -1.9760 H     1 <1>   0.0800 
 48 H        4.9590    11.6570    -0.3630 H     1 <1>   0.0800 
 49 H        6.2820     8.7000    -2.3590 H     1 <1>   0.0800 
 50 H        7.9390     8.9530    -1.8290 H     1 <1>   0.0800 
 51 H        7.1520    10.1420    -2.7880 H     1 <1>   0.0800 
@<TRIPOS>BOND
  1   1   2  1   
  2   1  23  1   
  3   2   3  1   
  4   2   4  1   
  5   2  24  1   
  6   3   5  1   
  7   3  25  1   
  8   3  26  1   
  9   4   6  1   
 10   4  27  1   
 11   4  28  1   
 12   5   6  1   
 13   5   7  1   
 14   6  29  1   
 15   6  30  1   
 16   7   8  ar  
 17   7   9  ar  
 18   8  10  ar  
 19   9  11  ar  
 20   9  31  1   
 21  10  12  ar  
 22  10  13  1   
 23  11  12  ar  
 24  11  32  1   
 25  12  33  1   
 26  13  14  1   
 27  13  15  1   
 28  14  16  1   
 29  14  34  1   
 30  14  35  1   
 31  15  17  1   
 32  15  36  1   
 33  15  37  1   
 34  16  18  1   
 35  16  38  1   
 36  16  39  1   
 37  17  19  1   
 38  17  40  1   
 39  17  41  1   
 40  18  19  1   
 41  18  20  1   
 42  18  42  1   
 43  19  43  1   
 44  19  44  1   
 45  20  21  1   
 46  20  22  1   
 47  20  45  1   
 48  21  46  1   
 49  21  47  1   
 50  21  48  1   
 51  22  49  1   
 52  22  50  1   
 53  22  51  1   
@<TRIPOS>SUBSTRUCTURE
  1 ****   8 GROUP 4 **** **** 0

# MOE 2024.06 (io_trps.svl 2023.06)
