@<TRIPOS>MOLECULE
NONAME
34 34 1 0 0 
SMALL
USER_CHARGES


@<TRIPOS>ATOM
  1 S       -0.5130    -0.2740    -0.6330 S.3   1 <1>  -0.0800 
  2 C       -1.1880    -0.9380     0.8170 C.2   1 <1>   0.4420 
  3 C       -0.0830     1.1260     0.2940 C.2   1 <1>   0.1980 
  4 N       -1.0610    -0.1460     1.8190 N.2   1 <1>  -0.3380 
  5 N       -1.7560    -2.1870     0.7160 N.am  1 <1>  -0.4940 
  6 N       -0.4300     1.0290     1.5140 N.2   1 <1>  -0.3380 
  7 C        0.6250     2.2870    -0.4010 C.3   1 <1>   0.3800 
  8 C       -2.3630    -2.9680     1.6540 C.2   1 <1>   0.5690 
  9 O       -0.1140     2.7430    -1.4980 O.3   1 <1>  -0.5600 
 10 C        2.0050     1.8950    -0.9260 C.3   1 <1>  -0.2400 
 11 O       -2.5000    -2.6590     2.8110 O.2   1 <1>  -0.5700 
 12 C       -2.8950    -4.3180     1.1860 C.3   1 <1>   0.1810 
 13 C       -1.3060     3.3930    -1.1750 C.3   1 <1>   0.0400 
 14 O       -2.6350    -4.5150    -0.1880 O.3   1 <1>  -0.5600 
 15 C       -3.0930    -5.7160    -0.7110 C.3   1 <1>   0.2000 
 16 C       -2.2110    -6.0310    -1.9130 C.3   1 <1>  -0.2400 
 17 C       -4.5540    -5.5440    -1.1280 C.3   1 <1>  -0.2400 
 18 H       -1.7390    -2.6270    -0.2060 H     1 <1>   0.3700 
 19 H        0.7330     3.1020     0.2940 H     1 <1>   0.0800 
 20 H        1.9190     1.1220    -1.6680 H     1 <1>   0.0800 
 21 H        2.6110     1.5320    -0.1160 H     1 <1>   0.0800 
 22 H        2.4870     2.7520    -1.3590 H     1 <1>   0.0800 
 23 H       -3.9560    -4.3520     1.3540 H     1 <1>   0.0800 
 24 H       -2.4140    -5.0990     1.7460 H     1 <1>   0.0800 
 25 H       -1.7630     3.7260    -2.0910 H     1 <1>   0.0800 
 26 H       -1.0930     4.2430    -0.5490 H     1 <1>   0.0800 
 27 H       -1.9690     2.7100    -0.6720 H     1 <1>   0.0800 
 28 H       -2.9890    -6.4950     0.0280 H     1 <1>   0.0800 
 29 H       -2.2860    -5.2520    -2.6500 H     1 <1>   0.0800 
 30 H       -2.5180    -6.9580    -2.3620 H     1 <1>   0.0800 
 31 H       -1.1870    -6.1290    -1.6020 H     1 <1>   0.0800 
 32 H       -4.6520    -4.7260    -1.8190 H     1 <1>   0.0800 
 33 H       -5.1790    -5.3660    -0.2730 H     1 <1>   0.0800 
 34 H       -4.9020    -6.4400    -1.6100 H     1 <1>   0.0800 
@<TRIPOS>BOND
  1   1   2  1   
  2   1   3  1   
  3   2   4  2   
  4   2   5  1   
  5   3   6  2   
  6   3   7  1   
  7   4   6  1   
  8   5   8  am  
  9   5  18  1   
 10   7   9  1   
 11   7  10  1   
 12   7  19  1   
 13   8  11  2   
 14   8  12  1   
 15   9  13  1   
 16  10  20  1   
 17  10  21  1   
 18  10  22  1   
 19  12  14  1   
 20  12  23  1   
 21  12  24  1   
 22  13  25  1   
 23  13  26  1   
 24  13  27  1   
 25  14  15  1   
 26  15  16  1   
 27  15  17  1   
 28  15  28  1   
 29  16  29  1   
 30  16  30  1   
 31  16  31  1   
 32  17  32  1   
 33  17  33  1   
 34  17  34  1   
@<TRIPOS>SUBSTRUCTURE
  1 ****   2 GROUP 4 **** **** 0

# MOE 2024.06 (io_trps.svl 2023.06)
