@<TRIPOS>MOLECULE
NONAME
45 46 1 0 0 
SMALL
USER_CHARGES


@<TRIPOS>ATOM
  1 O        1.0680    -0.2030     1.9790 O.2   1 <1>  -0.5700 
  2 C        0.9260    -0.9720     1.0580 C.2   1 <1>   0.5690 
  3 N        1.9280    -1.6340     0.4440 N.am  1 <1>  -0.6600 
  4 C       -0.3940    -1.2270     0.3860 C.3   1 <1>  -0.0990 
  5 C        3.3730    -1.3750     0.7430 C.3   1 <1>   0.2810 
  6 C        1.4840    -2.2780    -0.8080 C.3   1 <1>   0.1400 
  7 C       -0.0490    -2.2210    -0.7360 C.3   1 <1>  -0.1600 
  8 C        3.8350    -0.0240     0.1590 C.2   1 <1>   0.5690 
  9 C        4.2330    -2.5780     0.3240 C.3   1 <1>  -0.2400 
 10 O        4.6070     0.0010    -0.7750 O.2   1 <1>  -0.5700 
 11 N        3.3090     1.0970     0.7320 N.am  1 <1>  -0.4930 
 12 C        3.4310     2.4570     0.3540 C.2   1 <1>   0.0630 
 13 C        2.3750     3.3670     0.2910 C.2   1 <1>   0.1080 
 14 C        4.5210     3.1710    -0.0030 C.2   1 <1>  -0.3320 
 15 N        2.7580     4.5450    -0.0870 N.2   1 <1>  -0.7070 
 16 C        0.9330     3.0450     0.6170 C.3   1 <1>  -0.0590 
 17 N        4.0850     4.4270    -0.2770 N.pl3 1 <1>   0.3140 
 18 C        5.9750     2.7300    -0.0970 C.3   1 <1>  -0.0600 
 19 C        4.8900     5.5770    -0.7380 C.3   1 <1>   0.0960 
 20 C        5.4060     6.3990     0.4520 C.3   1 <1>  -0.1600 
 21 C        6.2610     7.5830    -0.0150 C.3   1 <1>  -0.2400 
 22 H       -0.7700    -0.3030    -0.0140 H     1 <1>   0.0800 
 23 H       -1.0960    -1.6400     1.0860 H     1 <1>   0.0800 
 24 H        3.4640    -1.2870     1.8120 H     1 <1>   0.0800 
 25 H        1.8300    -3.2960    -0.8620 H     1 <1>   0.0800 
 26 H        1.8530    -1.7180    -1.6510 H     1 <1>   0.0800 
 27 H       -0.4690    -1.9210    -1.6800 H     1 <1>   0.0800 
 28 H       -0.4250    -3.1970    -0.4860 H     1 <1>   0.0800 
 29 H        4.2420    -2.6870    -0.7460 H     1 <1>   0.0800 
 30 H        3.8650    -3.4780     0.7810 H     1 <1>   0.0800 
 31 H        5.2460    -2.4200     0.6470 H     1 <1>   0.0800 
 32 H        2.5460     0.9110     1.3980 H     1 <1>   0.3700 
 33 H        0.5920     2.2410    -0.0060 H     1 <1>   0.0800 
 34 H        0.3180     3.9090     0.4440 H     1 <1>   0.0800 
 35 H        0.8490     2.7580     1.6490 H     1 <1>   0.0800 
 36 H        6.1100     1.7760     0.3780 H     1 <1>   0.0800 
 37 H        6.6190     3.4380     0.3920 H     1 <1>   0.0800 
 38 H        6.2650     2.6390    -1.1290 H     1 <1>   0.0800 
 39 H        4.2650     6.1890    -1.3630 H     1 <1>   0.0800 
 40 H        5.7080     5.2110    -1.3290 H     1 <1>   0.0800 
 41 H        5.9940     5.7700     1.0970 H     1 <1>   0.0800 
 42 H        4.5640     6.7680     1.0130 H     1 <1>   0.0800 
 43 H        7.1180     7.2380    -0.5650 H     1 <1>   0.0800 
 44 H        6.6040     8.1450     0.8360 H     1 <1>   0.0800 
 45 H        5.6840     8.2380    -0.6440 H     1 <1>   0.0800 
@<TRIPOS>BOND
  1   1   2  2   
  2   2   3  am  
  3   2   4  1   
  4   3   5  1   
  5   3   6  1   
  6   4   7  1   
  7   4  22  1   
  8   4  23  1   
  9   5   8  1   
 10   5   9  1   
 11   5  24  1   
 12   6   7  1   
 13   6  25  1   
 14   6  26  1   
 15   7  27  1   
 16   7  28  1   
 17   8  10  2   
 18   8  11  am  
 19   9  29  1   
 20   9  30  1   
 21   9  31  1   
 22  11  12  1   
 23  11  32  1   
 24  12  13  1   
 25  12  14  2   
 26  13  15  2   
 27  13  16  1   
 28  14  17  1   
 29  14  18  1   
 30  15  17  1   
 31  16  33  1   
 32  16  34  1   
 33  16  35  1   
 34  17  19  1   
 35  18  36  1   
 36  18  37  1   
 37  18  38  1   
 38  19  20  1   
 39  19  39  1   
 40  19  40  1   
 41  20  21  1   
 42  20  41  1   
 43  20  42  1   
 44  21  43  1   
 45  21  44  1   
 46  21  45  1   
@<TRIPOS>SUBSTRUCTURE
  1 ****  11 GROUP 4 **** **** 0

# MOE 2024.06 (io_trps.svl 2023.06)
