@<TRIPOS>MOLECULE
NONAME
57 58 1 0 0 
SMALL
USER_CHARGES


@<TRIPOS>ATOM
  1 O       -0.5310     0.6610    -1.5620 O.2   1 <1>  -0.5700 
  2 C       -0.4400     1.8040    -1.1940 C.2   1 <1>   0.5690 
  3 N       -1.4900     2.4260    -0.6140 N.am  1 <1>  -0.7300 
  4 C        0.8640     2.5790    -1.4130 C.3   1 <1>   0.1810 
  5 C       -1.4430     3.8220    -0.1160 C.3   1 <1>   0.3640 
  6 O        0.9630     3.7460    -0.6230 O.3   1 <1>  -0.5600 
  7 C       -2.7120     4.5530    -0.5510 C.ar  1 <1>  -0.1440 
  8 C       -0.1900     4.5730    -0.6370 C.3   1 <1>   0.2610 
  9 C       -3.3470     5.4060     0.3400 C.ar  1 <1>  -0.1500 
 10 C       -3.2340     4.4100    -1.8290 C.ar  1 <1>  -0.1500 
 11 C        0.0630     5.8710     0.1420 C.2   1 <1>   0.5690 
 12 C       -4.4770     6.1330    -0.0250 C.ar  1 <1>   0.0830 
 13 C       -4.3690     5.1080    -2.1990 C.ar  1 <1>  -0.1500 
 14 O       -0.4330     6.0190     1.2370 O.2   1 <1>  -0.5700 
 15 N        0.8450     6.8180    -0.4540 N.am  1 <1>  -0.7300 
 16 O       -5.0480     7.0150     0.8480 O.3   1 <1>  -0.3630 
 17 C       -5.0050     5.9640    -1.3160 C.ar  1 <1>   0.0830 
 18 C        1.1370     8.2240    -0.0890 C.3   1 <1>   0.3000 
 19 C       -4.3470     7.4970     1.9760 C.3   1 <1>   0.0400 
 20 O       -6.1150     6.5760    -1.8200 O.3   1 <1>  -0.3630 
 21 C        2.3490     8.2580     0.8770 C.3   1 <1>  -0.1600 
 22 C        1.5440     8.8900    -1.4290 C.3   1 <1>  -0.1600 
 23 C       -0.1010     8.9280     0.5330 C.3   1 <1>  -0.1600 
 24 C       -7.1550     7.0370    -0.9880 C.3   1 <1>   0.0400 
 25 C        2.2380     7.4280     2.1690 C.3   1 <1>  -0.2400 
 26 C        1.8720    10.3950    -1.3810 C.3   1 <1>  -0.2400 
 27 C       -1.3710     8.9650    -0.3390 C.3   1 <1>  -0.2400 
 28 H       -2.3560     1.9050    -0.4670 H     1 <1>   0.3700 
 29 H        0.9390     2.8630    -2.4470 H     1 <1>   0.0800 
 30 H        1.6970     1.9470    -1.1670 H     1 <1>   0.0800 
 31 H       -1.4050     3.7820     0.9590 H     1 <1>   0.0800 
 32 H       -0.3670     4.8490    -1.6600 H     1 <1>   0.0800 
 33 H       -2.9370     5.5030     1.3270 H     1 <1>   0.1500 
 34 H       -2.7660     3.7570    -2.5450 H     1 <1>   0.1500 
 35 H       -4.7740     4.9910    -3.1880 H     1 <1>   0.1500 
 36 H        1.3830     6.5180    -1.2650 H     1 <1>   0.3700 
 37 H       -4.9080     8.3120     2.3950 H     1 <1>   0.0800 
 38 H       -3.3760     7.8410     1.6670 H     1 <1>   0.0800 
 39 H       -4.2600     6.7050     2.6980 H     1 <1>   0.0800 
 40 H        3.2260     7.9290     0.3490 H     1 <1>   0.0800 
 41 H        2.5260     9.2780     1.1670 H     1 <1>   0.0800 
 42 H        2.4120     8.3850    -1.8160 H     1 <1>   0.0800 
 43 H        0.7550     8.7490    -2.1460 H     1 <1>   0.0800 
 44 H       -0.3490     8.4620     1.4670 H     1 <1>   0.0800 
 45 H        0.1640     9.9390     0.7820 H     1 <1>   0.0800 
 46 H       -8.0260     7.1950    -1.5970 H     1 <1>   0.0800 
 47 H       -6.8540     7.9660    -0.5380 H     1 <1>   0.0800 
 48 H       -7.3590     6.2950    -0.2370 H     1 <1>   0.0800 
 49 H        2.1740     6.3790     1.9420 H     1 <1>   0.0800 
 50 H        1.3720     7.7090     2.7400 H     1 <1>   0.0800 
 51 H        3.1090     7.5840     2.7790 H     1 <1>   0.0800 
 52 H        2.6850    10.5970    -0.7080 H     1 <1>   0.0800 
 53 H        1.0150    10.9700    -1.0780 H     1 <1>   0.0800 
 54 H        2.1620    10.7310    -2.3610 H     1 <1>   0.0800 
 55 H       -1.6900     7.9710    -0.5970 H     1 <1>   0.0800 
 56 H       -1.2090     9.5230    -1.2430 H     1 <1>   0.0800 
 57 H       -2.1690     9.4390     0.2030 H     1 <1>   0.0800 
@<TRIPOS>BOND
  1   1   2  2   
  2   2   3  am  
  3   2   4  1   
  4   3   5  1   
  5   3  28  1   
  6   4   6  1   
  7   4  29  1   
  8   4  30  1   
  9   5   7  1   
 10   5   8  1   
 11   5  31  1   
 12   6   8  1   
 13   7   9  ar  
 14   7  10  ar  
 15   8  11  1   
 16   8  32  1   
 17   9  12  ar  
 18   9  33  1   
 19  10  13  ar  
 20  10  34  1   
 21  11  14  2   
 22  11  15  am  
 23  12  16  1   
 24  12  17  ar  
 25  13  17  ar  
 26  13  35  1   
 27  15  18  1   
 28  15  36  1   
 29  16  19  1   
 30  17  20  1   
 31  18  21  1   
 32  18  22  1   
 33  18  23  1   
 34  19  37  1   
 35  19  38  1   
 36  19  39  1   
 37  20  24  1   
 38  21  25  1   
 39  21  40  1   
 40  21  41  1   
 41  22  26  1   
 42  22  42  1   
 43  22  43  1   
 44  23  27  1   
 45  23  44  1   
 46  23  45  1   
 47  24  46  1   
 48  24  47  1   
 49  24  48  1   
 50  25  49  1   
 51  25  50  1   
 52  25  51  1   
 53  26  52  1   
 54  26  53  1   
 55  26  54  1   
 56  27  55  1   
 57  27  56  1   
 58  27  57  1   
@<TRIPOS>SUBSTRUCTURE
  1 ****  11 GROUP 4 **** **** 0

# MOE 2024.06 (io_trps.svl 2023.06)
