@<TRIPOS>MOLECULE
NONAME
48 50 1 0 0 
SMALL
USER_CHARGES


@<TRIPOS>ATOM
  1 O       -1.7360    -0.4820     0.3110 O.3   1 <1>  -0.3630 
  2 C       -2.4200     0.5760    -0.1710 C.ar  1 <1>   0.0830 
  3 C       -2.2320    -1.0260     1.5090 C.3   1 <1>   0.1200 
  4 C       -3.3330     0.4030    -1.2120 C.ar  1 <1>  -0.1440 
  5 C       -2.1940     1.8310     0.3760 C.ar  1 <1>  -0.1500 
  6 C       -1.5830    -2.3910     1.7160 C.3   1 <1>  -0.2400 
  7 C       -4.0160     1.5070    -1.7050 C.ar  1 <1>  -0.1500 
  8 C       -3.5740    -0.9780    -1.8070 C.3   1 <1>   0.2530 
  9 C       -2.8930     2.9130    -0.1230 C.ar  1 <1>  -0.1430 
 10 C       -3.7900     2.7530    -1.1490 C.ar  1 <1>  -0.1430 
 11 N       -4.4840    -1.8010    -0.9790 N.3   1 <1>  -0.8100 
 12 C       -2.8110     4.3530     0.3160 C.3   1 <1>  -0.0170 
 13 C       -4.4240     4.0670    -1.5300 C.3   1 <1>  -0.0170 
 14 C       -4.5600    -3.1750    -1.5200 C.3   1 <1>   0.2900 
 15 C       -5.8250    -1.1940    -0.8080 C.3   1 <1>   0.1100 
 16 C       -4.0150     5.0070    -0.3830 C.3   1 <1>  -0.1600 
 17 C       -5.0580    -4.1510    -0.4680 C.2   1 <1>   0.0070 
 18 C       -5.9680    -0.4470     0.5340 C.3   1 <1>   0.1200 
 19 N       -5.7120    -5.2440    -0.7060 N.2   1 <1>  -0.5650 
 20 N       -4.8340    -3.9320     0.8430 N.pl3 1 <1>   0.0330 
 21 O       -5.9000    -1.3310     1.6080 O.3   1 <1>  -0.6800 
 22 C       -5.9220    -5.7650     0.5190 C.2   1 <1>   0.0770 
 23 C       -5.3950    -4.9750     1.4800 C.2   1 <1>  -0.3020 
 24 H       -3.3000    -1.1220     1.4230 H     1 <1>   0.0800 
 25 H       -1.9930    -0.3520     2.3130 H     1 <1>   0.0800 
 26 H       -1.4840     1.9500     1.1720 H     1 <1>   0.1500 
 27 H       -1.8220    -3.0380     0.8910 H     1 <1>   0.0800 
 28 H       -1.9510    -2.8350     2.6220 H     1 <1>   0.0800 
 29 H       -0.5160    -2.2830     1.7920 H     1 <1>   0.0800 
 30 H       -4.7180     1.4040    -2.5130 H     1 <1>   0.1500 
 31 H       -2.6220    -1.4750    -1.8890 H     1 <1>   0.0800 
 32 H       -3.9770    -0.8790    -2.8000 H     1 <1>   0.0800 
 33 H       -1.8880     4.7820    -0.0350 H     1 <1>   0.0800 
 34 H       -2.8750     4.4460     1.3860 H     1 <1>   0.0800 
 35 H       -5.4930     3.9840    -1.6110 H     1 <1>   0.0800 
 36 H       -4.0100     4.4060    -2.4640 H     1 <1>   0.0800 
 37 H       -3.5800    -3.5020    -1.8210 H     1 <1>   0.0800 
 38 H       -5.2050    -3.2070    -2.3820 H     1 <1>   0.0800 
 39 H       -6.5910    -1.9510    -0.8500 H     1 <1>   0.0800 
 40 H       -6.0210    -0.5080    -1.6140 H     1 <1>   0.0800 
 41 H       -3.7830     5.9960    -0.7380 H     1 <1>   0.0800 
 42 H       -4.8290     5.0700     0.3190 H     1 <1>   0.0800 
 43 H       -6.9210     0.0490     0.5770 H     1 <1>   0.0800 
 44 H       -5.1940     0.2890     0.6520 H     1 <1>   0.0800 
 45 H       -4.3940    -3.0800     1.2150 H     1 <1>   0.2700 
 46 H       -6.5530    -2.0500     1.4870 H     1 <1>   0.4000 
 47 H       -6.4510    -6.6950     0.6460 H     1 <1>   0.1500 
 48 H       -5.3890    -5.0890     2.5480 H     1 <1>   0.1500 
@<TRIPOS>BOND
  1   1   2  1   
  2   1   3  1   
  3   2   4  ar  
  4   2   5  ar  
  5   3   6  1   
  6   3  24  1   
  7   3  25  1   
  8   4   7  ar  
  9   4   8  1   
 10   5   9  ar  
 11   5  26  1   
 12   6  27  1   
 13   6  28  1   
 14   6  29  1   
 15   7  10  ar  
 16   7  30  1   
 17   8  11  1   
 18   8  31  1   
 19   8  32  1   
 20   9  10  ar  
 21   9  12  1   
 22  10  13  1   
 23  11  14  1   
 24  11  15  1   
 25  12  16  1   
 26  12  33  1   
 27  12  34  1   
 28  13  16  1   
 29  13  35  1   
 30  13  36  1   
 31  14  17  1   
 32  14  37  1   
 33  14  38  1   
 34  15  18  1   
 35  15  39  1   
 36  15  40  1   
 37  16  41  1   
 38  16  42  1   
 39  17  19  2   
 40  17  20  1   
 41  18  21  1   
 42  18  43  1   
 43  18  44  1   
 44  19  22  1   
 45  20  23  1   
 46  20  45  1   
 47  21  46  1   
 48  22  23  2   
 49  22  47  1   
 50  23  48  1   
@<TRIPOS>SUBSTRUCTURE
  1 ****  11 GROUP 4 **** **** 0

# MOE 2024.06 (io_trps.svl 2023.06)
