@<TRIPOS>MOLECULE
NONAME
46 48 1 0 0 
SMALL
USER_CHARGES


@<TRIPOS>ATOM
  1 O       -2.3440    -0.9770    -0.1820 O.2   1 <1>  -0.5700 
  2 C       -1.6520    -1.9720    -0.0850 C.2   1 <1>   0.5440 
  3 N       -0.3420    -1.9000    -0.4750 N.am  1 <1>  -0.7300 
  4 C       -2.2100    -3.1980     0.4390 C.ar  1 <1>   0.0860 
  5 C        0.3260    -0.6980    -1.0130 C.3   1 <1>   0.1400 
  6 C       -3.3340    -3.1650     1.2640 C.ar  1 <1>   0.1600 
  7 C       -1.6780    -4.4560     0.1600 C.ar  1 <1>  -0.1500 
  8 C        1.6880    -0.5590    -0.3430 C.3   1 <1>  -0.2400 
  9 N       -3.9340    -4.2100     1.8110 N.ar  1 <1>  -0.6200 
 10 C       -2.2870    -5.5530     0.7180 C.ar  1 <1>  -0.1500 
 11 C       -3.4050    -5.3850     1.5300 C.ar  1 <1>   0.4100 
 12 N       -4.0520    -6.4320     2.0980 N.pl3 1 <1>  -0.8690 
 13 C       -4.6700    -7.4750     1.2510 C.3   1 <1>   0.2890 
 14 C       -6.1200    -7.1390     0.9410 C.3   1 <1>  -0.0800 
 15 C       -4.7890    -8.8110     1.9640 C.3   1 <1>   0.1200 
 16 C       -6.8070    -8.5080     0.9160 C.3   1 <1>   0.1200 
 17 C       -6.2820    -6.3340    -0.3580 C.3   1 <1>  -0.0170 
 18 O       -5.8770    -9.4450     1.3670 O.3   1 <1>  -0.5600 
 19 C       -7.7430    -5.9970    -0.6120 C.ar  1 <1>  -0.1430 
 20 C       -8.5210    -6.7010    -1.5090 C.ar  1 <1>  -0.1500 
 21 C       -8.3650    -4.9590     0.0520 C.ar  1 <1>  -0.1500 
 22 C       -9.8480    -6.3460    -1.6880 C.ar  1 <1>   0.1600 
 23 C       -9.6990    -4.6860    -0.2010 C.ar  1 <1>   0.1600 
 24 N      -10.4570    -5.3570    -1.0540 N.ar  1 <1>  -0.6200 
 25 H        0.2720    -2.7000    -0.3220 H     1 <1>   0.3700 
 26 H        0.4420    -0.8000    -2.0780 H     1 <1>   0.0800 
 27 H       -0.2710     0.1790    -0.8170 H     1 <1>   0.0800 
 28 H       -3.7590    -2.1990     1.4830 H     1 <1>   0.1500 
 29 H       -0.8200    -4.5680    -0.4780 H     1 <1>   0.1500 
 30 H        2.3040    -1.4140    -0.5570 H     1 <1>   0.0800 
 31 H        1.5690    -0.4540     0.7200 H     1 <1>   0.0800 
 32 H        2.1830     0.3190    -0.7170 H     1 <1>   0.0800 
 33 H       -1.9140    -6.5440     0.5460 H     1 <1>   0.1500 
 34 H       -4.6960    -6.0950     2.8180 H     1 <1>   0.4000 
 35 H       -4.1070    -7.6160     0.3440 H     1 <1>   0.0800 
 36 H       -6.5420    -6.5800     1.7570 H     1 <1>   0.0800 
 37 H       -5.0140    -8.6780     3.0070 H     1 <1>   0.0800 
 38 H       -3.9120    -9.4210     1.8380 H     1 <1>   0.0800 
 39 H       -7.1070    -8.7980    -0.0760 H     1 <1>   0.0800 
 40 H       -7.6620    -8.5300     1.5710 H     1 <1>   0.0800 
 41 H       -5.8850    -6.8890    -1.1900 H     1 <1>   0.0800 
 42 H       -5.7220    -5.4170    -0.2820 H     1 <1>   0.0800 
 43 H       -8.1110    -7.5200    -2.0700 H     1 <1>   0.1500 
 44 H       -7.8230    -4.3600     0.7620 H     1 <1>   0.1500 
 45 H      -10.4400    -6.9070    -2.3910 H     1 <1>   0.1500 
 46 H      -10.1670    -3.8730     0.3260 H     1 <1>   0.1500 
@<TRIPOS>BOND
  1   1   2  2   
  2   2   3  am  
  3   2   4  1   
  4   3   5  1   
  5   3  25  1   
  6   4   6  ar  
  7   4   7  ar  
  8   5   8  1   
  9   5  26  1   
 10   5  27  1   
 11   6   9  ar  
 12   6  28  1   
 13   7  10  ar  
 14   7  29  1   
 15   8  30  1   
 16   8  31  1   
 17   8  32  1   
 18   9  11  ar  
 19  10  11  ar  
 20  10  33  1   
 21  11  12  1   
 22  12  13  1   
 23  12  34  1   
 24  13  14  1   
 25  13  15  1   
 26  13  35  1   
 27  14  16  1   
 28  14  17  1   
 29  14  36  1   
 30  15  18  1   
 31  15  37  1   
 32  15  38  1   
 33  16  18  1   
 34  16  39  1   
 35  16  40  1   
 36  17  19  1   
 37  17  41  1   
 38  17  42  1   
 39  19  20  ar  
 40  19  21  ar  
 41  20  22  ar  
 42  20  43  1   
 43  21  23  ar  
 44  21  44  1   
 45  22  24  ar  
 46  22  45  1   
 47  23  24  ar  
 48  23  46  1   
@<TRIPOS>SUBSTRUCTURE
  1 ****  11 GROUP 4 **** **** 0

# MOE 2024.06 (io_trps.svl 2023.06)
