@<TRIPOS>MOLECULE
NONAME
46 48 1 0 0 
SMALL
USER_CHARGES


@<TRIPOS>ATOM
  1 O       -1.8740     0.4870    -0.5270 O.3   1 <1>  -0.2800 
  2 C       -1.8700    -0.2630    -1.5850 C.2   1 <1>   0.2980 
  3 C       -2.1700     1.6590    -0.9840 C.2   1 <1>   0.2980 
  4 N       -2.1340     0.4030    -2.6460 N.2   1 <1>  -0.3380 
  5 C       -1.5330    -1.7500    -1.4870 C.3   1 <1>   0.2900 
  6 N       -2.3340     1.6610    -2.2500 N.2   1 <1>  -0.3380 
  7 C       -2.2840     2.8320    -0.0400 C.3   1 <1>  -0.0600 
  8 N       -2.6410    -2.6170    -1.0040 N.3   1 <1>  -0.8100 
  9 C       -2.3330    -4.0450    -1.2600 C.3   1 <1>   0.1100 
 10 C       -3.0470    -2.3480     0.3780 C.3   1 <1>   0.1100 
 11 C       -3.2810    -5.0580    -0.5530 C.3   1 <1>   0.0000 
 12 C       -4.3660    -3.0710     0.6830 C.3   1 <1>  -0.1600 
 13 C       -4.5900    -4.3000    -0.2110 C.3   1 <1>   0.2000 
 14 C       -3.6460    -6.1860    -1.5500 C.3   1 <1>   0.1200 
 15 C       -2.6460    -5.6530     0.7470 C.3   1 <1>  -0.0160 
 16 O       -5.5160    -5.1290     0.4060 O.3   1 <1>  -0.6800 
 17 O       -2.5130    -6.7320    -2.1430 O.3   1 <1>  -0.6800 
 18 C       -1.3890    -6.5010     0.5680 C.ar  1 <1>  -0.1440 
 19 C       -0.1300    -5.9190     0.5940 C.ar  1 <1>  -0.1500 
 20 C       -1.4940    -7.8740     0.4000 C.ar  1 <1>  -0.1500 
 21 C        1.0050    -6.6930     0.4260 C.ar  1 <1>  -0.1500 
 22 C       -0.3600    -8.6500     0.2320 C.ar  1 <1>  -0.1500 
 23 C        0.8900    -8.0590     0.2410 C.ar  1 <1>  -0.1500 
 24 H       -0.6760    -1.8700    -0.8490 H     1 <1>   0.0800 
 25 H       -1.2550    -2.0730    -2.4750 H     1 <1>   0.0800 
 26 H       -2.5310     3.7200    -0.5910 H     1 <1>   0.0800 
 27 H       -1.3500     2.9800     0.4680 H     1 <1>   0.0800 
 28 H       -3.0560     2.6410     0.6820 H     1 <1>   0.0800 
 29 H       -2.4050    -4.1900    -2.3260 H     1 <1>   0.0800 
 30 H       -1.3140    -4.2530    -0.9950 H     1 <1>   0.0800 
 31 H       -2.2690    -2.6710     1.0490 H     1 <1>   0.0800 
 32 H       -3.2010    -1.2940     0.5300 H     1 <1>   0.0800 
 33 H       -5.1760    -2.3840     0.5160 H     1 <1>   0.0800 
 34 H       -4.3710    -3.3400     1.7240 H     1 <1>   0.0800 
 35 H       -5.0340    -3.9660    -1.1350 H     1 <1>   0.0800 
 36 H       -4.2630    -5.8000    -2.3440 H     1 <1>   0.0800 
 37 H       -4.1840    -6.9770    -1.0560 H     1 <1>   0.0800 
 38 H       -2.4090    -4.8640     1.4340 H     1 <1>   0.0800 
 39 H       -3.3750    -6.2700     1.2410 H     1 <1>   0.0800 
 40 H       -5.2970    -5.2400     1.3490 H     1 <1>   0.4000 
 41 H       -1.8760    -7.0170    -1.4490 H     1 <1>   0.4000 
 42 H       -0.0230    -4.8600     0.7480 H     1 <1>   0.1500 
 43 H       -2.4590    -8.3520     0.3970 H     1 <1>   0.1500 
 44 H        1.9780    -6.2340     0.4420 H     1 <1>   0.1500 
 45 H       -0.4500    -9.7140     0.0940 H     1 <1>   0.1500 
 46 H        1.7720    -8.6610     0.1090 H     1 <1>   0.1500 
@<TRIPOS>BOND
  1   1   2  1   
  2   1   3  1   
  3   2   4  2   
  4   2   5  1   
  5   3   6  2   
  6   3   7  1   
  7   4   6  1   
  8   5   8  1   
  9   5  24  1   
 10   5  25  1   
 11   7  26  1   
 12   7  27  1   
 13   7  28  1   
 14   8   9  1   
 15   8  10  1   
 16   9  11  1   
 17   9  29  1   
 18   9  30  1   
 19  10  12  1   
 20  10  31  1   
 21  10  32  1   
 22  11  13  1   
 23  11  14  1   
 24  11  15  1   
 25  12  13  1   
 26  12  33  1   
 27  12  34  1   
 28  13  16  1   
 29  13  35  1   
 30  14  17  1   
 31  14  36  1   
 32  14  37  1   
 33  15  18  1   
 34  15  38  1   
 35  15  39  1   
 36  16  40  1   
 37  17  41  1   
 38  18  19  ar  
 39  18  20  ar  
 40  19  21  ar  
 41  19  42  1   
 42  20  22  ar  
 43  20  43  1   
 44  21  23  ar  
 45  21  44  1   
 46  22  23  ar  
 47  22  45  1   
 48  23  46  1   
@<TRIPOS>SUBSTRUCTURE
  1 ****   9 GROUP 4 **** **** 0

# MOE 2024.06 (io_trps.svl 2023.06)
