@<TRIPOS>MOLECULE
NONAME
19 18 1 0 0 
SMALL
USER_CHARGES


@<TRIPOS>ATOM
  1 O       -0.0870    -0.3750     1.3000 O.2   1 <1>  -0.5700 
  2 C       -0.0900    -1.4290     0.6920 C.2   1 <1>   0.7200 
  3 O       -1.2670    -1.9070     0.2620 O.3   1 <1>  -0.4300 
  4 C        1.1030    -2.2180     0.3920 C.2   1 <1>   0.5090 
  5 C       -2.4930    -1.2400     0.4570 C.3   1 <1>   0.2000 
  6 O        2.2330    -1.9330     0.7100 O.2   1 <1>  -0.5700 
  7 C        0.9410    -3.5160    -0.3850 C.3   1 <1>  -0.1790 
  8 C       -3.5910    -2.2990     0.4280 C.3   1 <1>  -0.2400 
  9 C       -2.6730    -0.2190    -0.6660 C.3   1 <1>  -0.2400 
 10 H       -2.4830    -0.7530     1.4200 H     1 <1>   0.0800 
 11 H        0.3090    -4.1920     0.1600 H     1 <1>   0.0800 
 12 H        1.9000    -3.9800    -0.5320 H     1 <1>   0.0800 
 13 H        0.5030    -3.3150    -1.3450 H     1 <1>   0.0800 
 14 H       -3.5980    -2.8110    -0.5180 H     1 <1>   0.0800 
 15 H       -4.5500    -1.8360     0.5740 H     1 <1>   0.0800 
 16 H       -3.4370    -3.0110     1.2190 H     1 <1>   0.0800 
 17 H       -2.6490    -0.7030    -1.6260 H     1 <1>   0.0800 
 18 H       -1.8990     0.5260    -0.6190 H     1 <1>   0.0800 
 19 H       -3.6200     0.2790    -0.5580 H     1 <1>   0.0800 
@<TRIPOS>BOND
  1   1   2  2   
  2   2   3  1   
  3   2   4  1   
  4   3   5  1   
  5   4   6  2   
  6   4   7  1   
  7   5   8  1   
  8   5   9  1   
  9   5  10  1   
 10   7  11  1   
 11   7  12  1   
 12   7  13  1   
 13   8  14  1   
 14   8  15  1   
 15   8  16  1   
 16   9  17  1   
 17   9  18  1   
 18   9  19  1   
@<TRIPOS>SUBSTRUCTURE
  1 ****   3 GROUP 4 **** **** 0

# MOE 2024.06 (io_trps.svl 2023.06)
