@<TRIPOS>MOLECULE
NONAME
60 63 1 0 0 
SMALL
USER_CHARGES


@<TRIPOS>ATOM
  1 O       -1.9620    -0.0160     2.8660 O.2   1 <1>  -0.5700 
  2 C       -2.1310     0.9930     2.2040 C.2   1 <1>   0.5440 
  3 N       -2.8510     0.8910     1.0230 N.am  1 <1>  -0.6600 
  4 C       -1.5880     2.2440     2.7110 C.ar  1 <1>   0.0860 
  5 C       -3.2930     2.0750     0.2180 C.3   1 <1>   0.2200 
  6 C       -3.2970    -0.4580     0.5570 C.3   1 <1>   0.0600 
  7 C       -0.8730     3.1270     1.9090 C.ar  1 <1>  -0.1500 
  8 C       -1.7710     2.6080     4.0430 C.ar  1 <1>  -0.1500 
  9 C       -4.8050     2.1580     0.0110 C.3   1 <1>  -0.1600 
 10 C       -2.6680     2.0980    -1.1840 C.3   1 <1>  -0.1600 
 11 C       -0.4320     4.3600     2.3660 C.ar  1 <1>   0.1170 
 12 C       -1.2970     3.8110     4.5350 C.ar  1 <1>  -0.1500 
 13 C       -4.9590     2.9510    -1.2870 C.3   1 <1>  -0.0800 
 14 C       -3.7780     2.5310    -2.1580 C.3   1 <1>  -0.0800 
 15 N        0.1860     5.2550     1.4830 N.am  1 <1>  -0.5470 
 16 C       -0.6320     4.6980     3.7040 C.ar  1 <1>  -0.1430 
 17 C       -4.8060     4.4690    -1.1080 C.3   1 <1>  -0.1600 
 18 C       -3.4280     3.7520    -3.0200 C.3   1 <1>  -0.1600 
 19 C       -0.2050     5.5770     0.2130 C.2   1 <1>   0.5690 
 20 C       -0.1500     6.0280     4.2680 C.3   1 <1>  -0.0970 
 21 C       -4.0910     4.9640    -2.3640 C.3   1 <1>   0.2000 
 22 O       -1.1720     5.0780    -0.3150 O.2   1 <1>  -0.5700 
 23 C        0.6030     6.6310    -0.5430 C.3   1 <1>  -0.0190 
 24 O       -3.1320     5.8900    -2.0160 O.3   1 <1>  -0.6800 
 25 C       -0.1210     7.9710    -0.6820 C.3   1 <1>  -0.1600 
 26 C        0.9370     6.2620    -1.9900 C.3   1 <1>  -0.1600 
 27 C        0.5620     8.6800    -1.8550 C.3   1 <1>  -0.1600 
 28 C        1.2870     7.5930    -2.6590 C.3   1 <1>  -0.1600 
 29 H       -3.0170     2.9880     0.7120 H     1 <1>   0.0800 
 30 H       -3.5460    -0.4460    -0.4880 H     1 <1>   0.0800 
 31 H       -4.1600    -0.7630     1.1220 H     1 <1>   0.0800 
 32 H       -2.5110    -1.1770     0.7140 H     1 <1>   0.0800 
 33 H       -0.6690     2.8480     0.8920 H     1 <1>   0.1500 
 34 H       -2.2950     1.9310     4.6950 H     1 <1>   0.1500 
 35 H       -5.2320     1.1830    -0.1320 H     1 <1>   0.0800 
 36 H       -5.2900     2.6420     0.8390 H     1 <1>   0.0800 
 37 H       -1.8500     2.7920    -1.1950 H     1 <1>   0.0800 
 38 H       -2.2910     1.1340    -1.4700 H     1 <1>   0.0800 
 39 H       -1.4570     4.0500     5.5710 H     1 <1>   0.1500 
 40 H       -5.8920     2.7340    -1.7800 H     1 <1>   0.0800 
 41 H       -4.0530     1.6920    -2.7750 H     1 <1>   0.0800 
 42 H        0.9300     5.8210     1.8860 H     1 <1>   0.3700 
 43 H       -4.2120     4.6920    -0.2380 H     1 <1>   0.0800 
 44 H       -5.7660     4.9410    -1.0030 H     1 <1>   0.0800 
 45 H       -3.8630     3.6210    -3.9940 H     1 <1>   0.0800 
 46 H       -2.3660     3.8780    -3.1400 H     1 <1>   0.0800 
 47 H       -0.4520     6.1440     5.2930 H     1 <1>   0.0800 
 48 H       -0.5680     6.8410     3.7010 H     1 <1>   0.0800 
 49 H        0.9230     6.0800     4.2240 H     1 <1>   0.0800 
 50 H       -4.7810     5.4360    -3.0430 H     1 <1>   0.0800 
 51 H        1.5310     6.8020    -0.0260 H     1 <1>   0.0800 
 52 H       -2.4770     5.4850    -1.3900 H     1 <1>   0.4000 
 53 H       -1.1540     7.7930    -0.9350 H     1 <1>   0.0800 
 54 H       -0.0790     8.5520     0.2220 H     1 <1>   0.0800 
 55 H        1.7410     5.5500    -2.0540 H     1 <1>   0.0800 
 56 H        0.0650     5.8510    -2.4710 H     1 <1>   0.0800 
 57 H       -0.1670     9.1890    -2.4620 H     1 <1>   0.0800 
 58 H        1.2750     9.4000    -1.4920 H     1 <1>   0.0800 
 59 H        2.3500     7.7570    -2.6100 H     1 <1>   0.0800 
 60 H        0.9820     7.5970    -3.6910 H     1 <1>   0.0800 
@<TRIPOS>BOND
  1   1   2  2   
  2   2   3  am  
  3   2   4  1   
  4   3   5  1   
  5   3   6  1   
  6   4   7  ar  
  7   4   8  ar  
  8   5   9  1   
  9   5  10  1   
 10   5  29  1   
 11   6  30  1   
 12   6  31  1   
 13   6  32  1   
 14   7  11  ar  
 15   7  33  1   
 16   8  12  ar  
 17   8  34  1   
 18   9  13  1   
 19   9  35  1   
 20   9  36  1   
 21  10  14  1   
 22  10  37  1   
 23  10  38  1   
 24  11  15  1   
 25  11  16  ar  
 26  12  16  ar  
 27  12  39  1   
 28  13  14  1   
 29  13  17  1   
 30  13  40  1   
 31  14  18  1   
 32  14  41  1   
 33  15  19  am  
 34  15  42  1   
 35  16  20  1   
 36  17  21  1   
 37  17  43  1   
 38  17  44  1   
 39  18  21  1   
 40  18  45  1   
 41  18  46  1   
 42  19  22  2   
 43  19  23  1   
 44  20  47  1   
 45  20  48  1   
 46  20  49  1   
 47  21  24  1   
 48  21  50  1   
 49  23  25  1   
 50  23  26  1   
 51  23  51  1   
 52  24  52  1   
 53  25  27  1   
 54  25  53  1   
 55  25  54  1   
 56  26  28  1   
 57  26  55  1   
 58  26  56  1   
 59  27  28  1   
 60  27  57  1   
 61  27  58  1   
 62  28  59  1   
 63  28  60  1   
@<TRIPOS>SUBSTRUCTURE
  1 ****  22 GROUP 4 **** **** 0

# MOE 2024.06 (io_trps.svl 2023.06)
