@<TRIPOS>MOLECULE
NONAME
64 66 1 0 0 
SMALL
USER_CHARGES


@<TRIPOS>ATOM
  1 O        0.4550     0.8400    -1.0390 O.3   1 <1>  -0.3630 
  2 C       -0.0990    -0.3600    -0.7220 C.ar  1 <1>   0.0830 
  3 C       -0.3340     2.0080    -1.1720 C.3   1 <1>   0.0400 
  4 C        0.7270    -1.4800    -0.7550 C.ar  1 <1>  -0.1440 
  5 C       -1.4350    -0.5030    -0.3610 C.ar  1 <1>  -0.1500 
  6 C        0.2070    -2.7290    -0.4440 C.ar  1 <1>  -0.1500 
  7 C        2.1900    -1.3210    -1.1400 C.3   1 <1>   0.4870 
  8 C       -1.9410    -1.7500    -0.0440 C.ar  1 <1>  -0.1500 
  9 C       -1.1290    -2.8730    -0.0920 C.ar  1 <1>  -0.1440 
 10 N        2.8580    -0.4010    -0.1820 N.4   1 <1>  -0.9590 
 11 C       -1.7070    -4.2400     0.2440 C.3   1 <1>   0.4860 
 12 C        4.1440     0.0980    -0.7290 C.3   1 <1>   0.3430 
 13 C        2.9720    -0.9770     1.1820 C.3   1 <1>   0.3430 
 14 N       -2.6890    -4.6360    -0.8090 N.4   1 <1>  -0.9590 
 15 C        4.5750     1.3510     0.0230 C.3   1 <1>  -0.2400 
 16 C        2.1400    -0.1330     2.1380 C.3   1 <1>  -0.2400 
 17 C       -3.4760    -5.8390    -0.4200 C.3   1 <1>   0.4230 
 18 C       -2.0140    -4.8070    -2.1370 C.3   1 <1>   0.2630 
 19 C       -4.5530    -6.1700    -1.4520 C.3   1 <1>  -0.1600 
 20 C       -4.2630    -5.6130     0.8700 C.3   1 <1>  -0.1600 
 21 C       -5.6220    -6.9530    -0.6810 C.3   1 <1>  -0.0800 
 22 C       -5.4360    -6.5980     0.8020 C.3   1 <1>  -0.0800 
 23 C       -5.4690    -8.4780    -0.7840 C.3   1 <1>  -0.1600 
 24 C       -5.1770    -7.9220     1.5360 C.3   1 <1>  -0.1600 
 25 C       -5.7620    -8.9840     0.6190 C.3   1 <1>   0.2000 
 26 O       -5.1450   -10.1960     0.8320 O.3   1 <1>  -0.6800 
 27 H        0.3040     2.8130    -1.4910 H     1 <1>   0.0800 
 28 H       -0.7740     2.2490    -0.2200 H     1 <1>   0.0800 
 29 H       -1.0960     1.8360    -1.9130 H     1 <1>   0.0800 
 30 H       -2.0950     0.3440    -0.3140 H     1 <1>   0.1500 
 31 H        0.8480    -3.5960    -0.4750 H     1 <1>   0.1500 
 32 H        2.2370    -0.9040    -2.1330 H     1 <1>   0.0800 
 33 H        2.6870    -2.2770    -1.1460 H     1 <1>   0.0800 
 34 H       -2.9770    -1.8250     0.2430 H     1 <1>   0.1500 
 35 H        2.2030     0.3990    -0.1270 H     1 <1>   0.4500 
 36 H       -2.1940    -4.1810     1.2040 H     1 <1>   0.0800 
 37 H       -0.9190    -4.9720     0.3090 H     1 <1>   0.0800 
 38 H        4.9050    -0.6630    -0.6500 H     1 <1>   0.0800 
 39 H        4.0220     0.3470    -1.7710 H     1 <1>   0.0800 
 40 H        2.6130    -1.9930     1.1940 H     1 <1>   0.0800 
 41 H        4.0020    -0.9780     1.5030 H     1 <1>   0.0800 
 42 H       -3.3530    -3.8560    -0.8980 H     1 <1>   0.4500 
 43 H        4.8010     1.1350     1.0510 H     1 <1>   0.0800 
 44 H        3.8140     2.1090    -0.0310 H     1 <1>   0.0800 
 45 H        5.4670     1.7440    -0.4320 H     1 <1>   0.0800 
 46 H        1.0990    -0.1620     1.8710 H     1 <1>   0.0800 
 47 H        2.4820     0.8860     2.1510 H     1 <1>   0.0800 
 48 H        2.2360    -0.5270     3.1340 H     1 <1>   0.0800 
 49 H       -2.8320    -6.6950    -0.2970 H     1 <1>   0.0800 
 50 H       -1.3120    -5.6240    -2.1010 H     1 <1>   0.0800 
 51 H       -1.4860    -3.9070    -2.4080 H     1 <1>   0.0800 
 52 H       -2.7420    -5.0130    -2.9060 H     1 <1>   0.0800 
 53 H       -5.0020    -5.2640    -1.8200 H     1 <1>   0.0800 
 54 H       -4.1670    -6.7390    -2.2790 H     1 <1>   0.0800 
 55 H       -3.6660    -5.7740     1.7500 H     1 <1>   0.0800 
 56 H       -4.6660    -4.6160     0.8870 H     1 <1>   0.0800 
 57 H       -6.6110    -6.6710    -1.0070 H     1 <1>   0.0800 
 58 H       -6.3370    -6.1470     1.1890 H     1 <1>   0.0800 
 59 H       -4.4650    -8.7420    -1.0630 H     1 <1>   0.0800 
 60 H       -6.1610    -8.8950    -1.4950 H     1 <1>   0.0800 
 61 H       -5.6580    -7.9390     2.4990 H     1 <1>   0.0800 
 62 H       -4.1220    -8.0910     1.6590 H     1 <1>   0.0800 
 63 H       -6.8230    -9.0970     0.7800 H     1 <1>   0.0800 
 64 H       -4.1850   -10.1330     0.6820 H     1 <1>   0.4000 
@<TRIPOS>BOND
  1   1   2  1   
  2   1   3  1   
  3   2   4  ar  
  4   2   5  ar  
  5   3  27  1   
  6   3  28  1   
  7   3  29  1   
  8   4   6  ar  
  9   4   7  1   
 10   5   8  ar  
 11   5  30  1   
 12   6   9  ar  
 13   6  31  1   
 14   7  10  1   
 15   7  32  1   
 16   7  33  1   
 17   8   9  ar  
 18   8  34  1   
 19   9  11  1   
 20  10  12  1   
 21  10  13  1   
 22  10  35  1   
 23  11  14  1   
 24  11  36  1   
 25  11  37  1   
 26  12  15  1   
 27  12  38  1   
 28  12  39  1   
 29  13  16  1   
 30  13  40  1   
 31  13  41  1   
 32  14  17  1   
 33  14  18  1   
 34  14  42  1   
 35  15  43  1   
 36  15  44  1   
 37  15  45  1   
 38  16  46  1   
 39  16  47  1   
 40  16  48  1   
 41  17  19  1   
 42  17  20  1   
 43  17  49  1   
 44  18  50  1   
 45  18  51  1   
 46  18  52  1   
 47  19  21  1   
 48  19  53  1   
 49  19  54  1   
 50  20  22  1   
 51  20  55  1   
 52  20  56  1   
 53  21  22  1   
 54  21  23  1   
 55  21  57  1   
 56  22  24  1   
 57  22  58  1   
 58  23  25  1   
 59  23  59  1   
 60  23  60  1   
 61  24  25  1   
 62  24  61  1   
 63  24  62  1   
 64  25  26  1   
 65  25  63  1   
 66  26  64  1   
@<TRIPOS>SUBSTRUCTURE
  1 ****   9 GROUP 4 **** **** 0

# MOE 2024.06 (io_trps.svl 2023.06)
