@<TRIPOS>MOLECULE
NONAME
58 60 1 0 0 
SMALL
USER_CHARGES


@<TRIPOS>ATOM
  1 O       -0.2750    -0.7210     0.9610 O.2   1 <1>  -0.5700 
  2 C       -0.6460     0.0400     0.1030 C.2   1 <1>   0.5690 
  3 N       -1.4090    -0.4060    -0.9540 N.am  1 <1>  -0.6600 
  4 C       -0.3130     1.5180     0.2770 C.3   1 <1>   0.1810 
  5 C       -2.1270     0.4930    -1.9130 C.3   1 <1>   0.1400 
  6 C       -2.0030    -1.7810    -0.9320 C.3   1 <1>   0.1400 
  7 O       -1.5160     2.2690     0.4000 O.3   1 <1>  -0.3620 
  8 C       -3.6070     0.6750    -1.4800 C.3   1 <1>   0.4230 
  9 C       -3.5360    -1.7150    -0.7160 C.3   1 <1>   0.3430 
 10 C       -1.5050     3.6150     0.4910 C.ar  1 <1>   0.0830 
 11 N       -4.0100    -0.3140    -0.3980 N.4   1 <1>  -0.9590 
 12 C       -4.5540     0.5870    -2.6980 C.3   1 <1>   0.1200 
 13 C       -0.3450     4.3840     0.4820 C.ar  1 <1>  -0.1500 
 14 C       -2.7310     4.2510     0.5910 C.ar  1 <1>  -0.1500 
 15 C       -5.4700    -0.1760    -0.0820 C.3   1 <1>   0.4230 
 16 O       -5.8890     0.7060    -2.2990 O.3   1 <1>  -0.5600 
 17 C       -0.4260     5.7620     0.5660 C.ar  1 <1>  -0.1500 
 18 C       -2.8000     5.6270     0.6750 C.ar  1 <1>  -0.1500 
 19 C       -6.3260    -0.2460    -1.3690 C.3   1 <1>   0.1200 
 20 C       -5.8950    -1.2010     0.9820 C.3   1 <1>  -0.1600 
 21 C       -1.6540     6.4260     0.6680 C.ar  1 <1>   0.0860 
 22 C       -7.2600    -0.8690     1.6050 C.3   1 <1>  -0.1600 
 23 C       -1.7750     7.8660     0.7590 C.2   1 <1>   0.4230 
 24 C       -7.6070    -1.8610     2.7170 C.3   1 <1>  -0.2400 
 25 O       -2.8100     8.4370     0.5240 O.2   1 <1>  -0.5700 
 26 C       -0.5620     8.7090     1.1590 C.3   1 <1>  -0.0990 
 27 C       -0.9160    10.0830     1.7550 C.3   1 <1>  -0.2400 
 28 H        0.2360     1.8700    -0.5770 H     1 <1>   0.0800 
 29 H        0.2670     1.6570     1.1710 H     1 <1>   0.0800 
 30 H       -1.6490     1.4550    -1.9870 H     1 <1>   0.0800 
 31 H       -2.0800     0.0520    -2.8940 H     1 <1>   0.0800 
 32 H       -1.7880    -2.2800    -1.8610 H     1 <1>   0.0800 
 33 H       -1.5630    -2.3760    -0.1490 H     1 <1>   0.0800 
 34 H       -3.7010     1.6720    -1.0810 H     1 <1>   0.0800 
 35 H       -3.7910    -2.3850     0.0880 H     1 <1>   0.0800 
 36 H       -4.0290    -2.0740    -1.6040 H     1 <1>   0.0800 
 37 H       -3.4730    -0.0290     0.4350 H     1 <1>   0.4500 
 38 H       -4.4360    -0.3470    -3.2200 H     1 <1>   0.0800 
 39 H       -4.3510     1.3900    -3.3850 H     1 <1>   0.0800 
 40 H        0.6270     3.9330     0.4120 H     1 <1>   0.1500 
 41 H       -3.6350     3.6700     0.6080 H     1 <1>   0.1500 
 42 H       -5.6280     0.8030     0.3410 H     1 <1>   0.0800 
 43 H        0.4890     6.3260     0.5460 H     1 <1>   0.1500 
 44 H       -3.7630     6.1060     0.7490 H     1 <1>   0.1500 
 45 H       -7.3540    -0.0230    -1.1460 H     1 <1>   0.0800 
 46 H       -6.2790    -1.2220    -1.8200 H     1 <1>   0.0800 
 47 H       -5.9470    -2.1860     0.5520 H     1 <1>   0.0800 
 48 H       -5.1650    -1.2080     1.7720 H     1 <1>   0.0800 
 49 H       -7.2440     0.1260     2.0210 H     1 <1>   0.0800 
 50 H       -8.0380    -0.9060     0.8600 H     1 <1>   0.0800 
 51 H       -6.8720    -1.8290     3.5020 H     1 <1>   0.0800 
 52 H       -7.6590    -2.8650     2.3310 H     1 <1>   0.0800 
 53 H       -8.5640    -1.6150     3.1430 H     1 <1>   0.0800 
 54 H        0.0130     8.1720     1.8900 H     1 <1>   0.0800 
 55 H        0.0500     8.8570     0.2880 H     1 <1>   0.0800 
 56 H       -1.5390     9.9620     2.6240 H     1 <1>   0.0800 
 57 H       -1.4510    10.6760     1.0330 H     1 <1>   0.0800 
 58 H       -0.0220    10.6090     2.0390 H     1 <1>   0.0800 
@<TRIPOS>BOND
  1   1   2  2   
  2   2   3  am  
  3   2   4  1   
  4   3   5  1   
  5   3   6  1   
  6   4   7  1   
  7   4  28  1   
  8   4  29  1   
  9   5   8  1   
 10   5  30  1   
 11   5  31  1   
 12   6   9  1   
 13   6  32  1   
 14   6  33  1   
 15   7  10  1   
 16   8  11  1   
 17   8  12  1   
 18   8  34  1   
 19   9  11  1   
 20   9  35  1   
 21   9  36  1   
 22  10  13  ar  
 23  10  14  ar  
 24  11  15  1   
 25  11  37  1   
 26  12  16  1   
 27  12  38  1   
 28  12  39  1   
 29  13  17  ar  
 30  13  40  1   
 31  14  18  ar  
 32  14  41  1   
 33  15  19  1   
 34  15  20  1   
 35  15  42  1   
 36  16  19  1   
 37  17  21  ar  
 38  17  43  1   
 39  18  21  ar  
 40  18  44  1   
 41  19  45  1   
 42  19  46  1   
 43  20  22  1   
 44  20  47  1   
 45  20  48  1   
 46  21  23  1   
 47  22  24  1   
 48  22  49  1   
 49  22  50  1   
 50  23  25  2   
 51  23  26  1   
 52  24  51  1   
 53  24  52  1   
 54  24  53  1   
 55  26  27  1   
 56  26  54  1   
 57  26  55  1   
 58  27  56  1   
 59  27  57  1   
 60  27  58  1   
@<TRIPOS>SUBSTRUCTURE
  1 ****   7 GROUP 4 **** **** 0

# MOE 2024.06 (io_trps.svl 2023.06)
