@<TRIPOS>MOLECULE
NONAME
40 42 1 0 0 
SMALL
USER_CHARGES


@<TRIPOS>ATOM
  1 F       -1.8460     0.2840     2.9610 F     1 <1>  -0.1900 
  2 C       -2.2110    -0.3570     1.8800 C.ar  1 <1>   0.1900 
  3 C       -2.5670     0.3520     0.7420 C.ar  1 <1>  -0.1440 
  4 C       -2.2280    -1.7370     1.9450 C.ar  1 <1>  -0.1500 
  5 C       -2.9930    -0.3800    -0.3660 C.ar  1 <1>   0.0830 
  6 C       -2.5230     1.8830     0.7240 C.3   1 <1>   0.2540 
  7 C       -2.6290    -2.4510     0.8320 C.ar  1 <1>  -0.1500 
  8 O       -3.3930     0.3080    -1.4690 O.3   1 <1>  -0.3630 
  9 C       -3.0120    -1.7760    -0.3150 C.ar  1 <1>  -0.1500 
 10 N       -1.2260     2.4460     0.2860 N.3   1 <1>  -0.8100 
 11 C       -3.8310    -0.3410    -2.6420 C.3   1 <1>   0.0400 
 12 C       -0.1170     2.1240     1.2180 C.3   1 <1>   0.1100 
 13 C       -0.9430     2.1490    -1.1340 C.3   1 <1>   0.1100 
 14 C        1.2070     2.9070     1.0010 C.3   1 <1>   0.2200 
 15 C        0.2140     2.9670    -1.7440 C.3   1 <1>  -0.0190 
 16 N        1.0130     4.1820     0.2630 N.am  1 <1>  -0.7300 
 17 C        2.2840     2.0440     0.3080 C.3   1 <1>   0.1200 
 18 C        0.5080     4.2480    -0.9860 C.2   1 <1>   0.5690 
 19 C        1.5000     2.1460    -1.9350 C.3   1 <1>   0.1200 
 20 O        1.8100     1.3650    -0.8200 O.3   1 <1>  -0.5600 
 21 O        0.3240     5.3170    -1.5150 O.2   1 <1>  -0.5700 
 22 H       -1.9350    -2.2380     2.8500 H     1 <1>   0.1500 
 23 H       -2.7450     2.2590     1.7080 H     1 <1>   0.0800 
 24 H       -3.2980     2.2570     0.0780 H     1 <1>   0.0800 
 25 H       -2.6470    -3.5270     0.8580 H     1 <1>   0.1500 
 26 H       -3.3250    -2.3590    -1.1600 H     1 <1>   0.1500 
 27 H       -4.0840     0.4120    -3.3660 H     1 <1>   0.0800 
 28 H       -4.7000    -0.9320    -2.4110 H     1 <1>   0.0800 
 29 H       -3.0330    -0.9570    -3.0200 H     1 <1>   0.0800 
 30 H       -0.4490     2.3460     2.2160 H     1 <1>   0.0800 
 31 H        0.0880     1.0680     1.1820 H     1 <1>   0.0800 
 32 H       -0.7520     1.0960    -1.2550 H     1 <1>   0.0800 
 33 H       -1.8280     2.3820    -1.7000 H     1 <1>   0.0800 
 34 H        1.5970     3.1550     1.9720 H     1 <1>   0.0800 
 35 H       -0.0950     3.2620    -2.7300 H     1 <1>   0.0800 
 36 H        1.0310     5.0530     0.7920 H     1 <1>   0.3700 
 37 H        2.6180     1.2890     0.9970 H     1 <1>   0.0800 
 38 H        3.1330     2.6430     0.0280 H     1 <1>   0.0800 
 39 H        2.3390     2.7830    -2.1630 H     1 <1>   0.0800 
 40 H        1.3630     1.4640    -2.7560 H     1 <1>   0.0800 
@<TRIPOS>BOND
  1   1   2  1   
  2   2   3  ar  
  3   2   4  ar  
  4   3   5  ar  
  5   3   6  1   
  6   4   7  ar  
  7   4  22  1   
  8   5   8  1   
  9   5   9  ar  
 10   6  10  1   
 11   6  23  1   
 12   6  24  1   
 13   7   9  ar  
 14   7  25  1   
 15   8  11  1   
 16   9  26  1   
 17  10  12  1   
 18  10  13  1   
 19  11  27  1   
 20  11  28  1   
 21  11  29  1   
 22  12  14  1   
 23  12  30  1   
 24  12  31  1   
 25  13  15  1   
 26  13  32  1   
 27  13  33  1   
 28  14  16  1   
 29  14  17  1   
 30  14  34  1   
 31  15  18  1   
 32  15  19  1   
 33  15  35  1   
 34  16  18  am  
 35  16  36  1   
 36  17  20  1   
 37  17  37  1   
 38  17  38  1   
 39  18  21  2   
 40  19  20  1   
 41  19  39  1   
 42  19  40  1   
@<TRIPOS>SUBSTRUCTURE
  1 ****  10 GROUP 4 **** **** 0

# MOE 2024.06 (io_trps.svl 2023.06)
