@<TRIPOS>MOLECULE
NONAME
43 45 1 0 0 
SMALL
USER_CHARGES


@<TRIPOS>ATOM
  1 S       -0.0560     1.1110     0.5640 S.o2  1 <1>   1.4470 
  2 O        0.6550     0.5690     1.7050 O.2   1 <1>  -0.6500 
  3 O       -0.7510     2.3690     0.7370 O.2   1 <1>  -0.6500 
  4 N       -1.1980    -0.0500     0.0980 N.am  1 <1>  -0.8490 
  5 C        1.0840     1.2640    -0.8450 C.ar  1 <1>  -0.0090 
  6 C       -0.6300    -1.4100     0.0580 C.3   1 <1>   0.1960 
  7 C       -2.4190     0.0120     0.8940 C.3   1 <1>   0.1960 
  8 C        2.3790     1.7410    -0.6500 C.ar  1 <1>  -0.1500 
  9 C        0.6960     0.9320    -2.1420 C.ar  1 <1>  -0.1500 
 10 C       -1.5990    -2.4470    -0.5430 C.3   1 <1>  -0.1060 
 11 C       -3.4700    -0.9250     0.3040 C.3   1 <1>  -0.1600 
 12 C        3.2660     1.8770    -1.7060 C.ar  1 <1>  -0.1500 
 13 C        1.5680     1.0530    -3.2110 C.ar  1 <1>  -0.1500 
 14 C       -1.7690    -2.1460    -2.0370 C.2   1 <1>   0.9060 
 15 C       -2.9300    -2.3520     0.2410 C.3   1 <1>   0.2000 
 16 C       -0.9850    -3.8710    -0.4470 C.3   1 <1>  -0.0650 
 17 C        2.8410     1.5270    -2.9730 C.ar  1 <1>   0.1900 
 18 O       -2.8820    -2.2670    -2.5750 O.co2 1 <1>  -0.9000 
 19 O       -0.7670    -1.8720    -2.7100 O.co2 1 <1>  -0.9000 
 20 O       -3.8930    -3.1400    -0.3500 O.3   1 <1>  -0.6800 
 21 C       -0.6350    -4.3630     0.9690 C.3   1 <1>  -0.1950 
 22 F        3.6710     1.6510    -3.9730 F     1 <1>  -0.1900 
 23 C        0.6900    -4.0730     1.6010 C.3   1 <1>  -0.2000 
 24 C        0.3630    -5.4630     1.1380 C.3   1 <1>  -0.2000 
 25 H        0.2790    -1.4090    -0.5190 H     1 <1>   0.0800 
 26 H       -0.3750    -1.6990     1.0630 H     1 <1>   0.0800 
 27 H       -2.2040    -0.2590     1.9150 H     1 <1>   0.0800 
 28 H       -2.8110     1.0150     0.8830 H     1 <1>   0.0800 
 29 H        2.6950     2.0060     0.3460 H     1 <1>   0.1500 
 30 H       -0.3010     0.5590    -2.3270 H     1 <1>   0.1500 
 31 H       -3.7290    -0.5790    -0.6820 H     1 <1>   0.0800 
 32 H       -4.3510    -0.9020     0.9180 H     1 <1>   0.0800 
 33 H        4.2650     2.2430    -1.5550 H     1 <1>   0.1500 
 34 H        1.2570     0.7740    -4.2020 H     1 <1>   0.1500 
 35 H       -2.7990    -2.7090     1.2460 H     1 <1>   0.0800 
 36 H       -1.6760    -4.5690    -0.8870 H     1 <1>   0.0800 
 37 H       -0.0950    -3.8980    -1.0550 H     1 <1>   0.0800 
 38 H       -3.8130    -2.9450    -1.3330 H     1 <1>   0.4000 
 39 H       -1.4990    -4.4310     1.6070 H     1 <1>   0.1000 
 40 H        1.4250    -3.5120     1.0500 H     1 <1>   0.1000 
 41 H        0.7210    -3.8670     2.6570 H     1 <1>   0.1000 
 42 H        0.1690    -6.2240     1.8740 H     1 <1>   0.1000 
 43 H        0.8650    -5.8490     0.2680 H     1 <1>   0.1000 
@<TRIPOS>BOND
  1   1   2  2   
  2   1   3  2   
  3   1   4  am  
  4   1   5  1   
  5   4   6  1   
  6   4   7  1   
  7   5   8  ar  
  8   5   9  ar  
  9   6  10  1   
 10   6  25  1   
 11   6  26  1   
 12   7  11  1   
 13   7  27  1   
 14   7  28  1   
 15   8  12  ar  
 16   8  29  1   
 17   9  13  ar  
 18   9  30  1   
 19  10  14  1   
 20  10  15  1   
 21  10  16  1   
 22  11  15  1   
 23  11  31  1   
 24  11  32  1   
 25  12  17  ar  
 26  12  33  1   
 27  13  17  ar  
 28  13  34  1   
 29  14  18  ar  
 30  14  19  ar  
 31  15  20  1   
 32  15  35  1   
 33  16  21  1   
 34  16  36  1   
 35  16  37  1   
 36  17  22  1   
 37  20  38  1   
 38  21  23  1   
 39  21  24  1   
 40  21  39  1   
 41  23  24  1   
 42  23  40  1   
 43  23  41  1   
 44  24  42  1   
 45  24  43  1   
@<TRIPOS>SUBSTRUCTURE
  1 ****   6 GROUP 4 **** **** 0

# MOE 2024.06 (io_trps.svl 2023.06)
