@<TRIPOS>MOLECULE
NONAME
47 50 1 0 0 
SMALL
USER_CHARGES


@<TRIPOS>ATOM
  1 S        2.3080     3.2650    -2.3590 S.3   1 <1>  -0.2860 
  2 C        2.4450     3.5370    -0.6220 C.2   1 <1>   0.2420 
  3 C        0.4590     3.3080    -2.3390 C.3   1 <1>   0.0700 
  4 N        3.4810     3.6300     0.1350 N.2   1 <1>  -0.5650 
  5 N        1.2570     3.6710    -0.0380 N.pl3 1 <1>   0.0480 
  6 C        0.0370     3.5720    -0.8700 C.3   1 <1>   0.0960 
  7 C        2.9140     3.8630     1.3480 C.2   1 <1>   0.0460 
  8 C        1.5570     3.8860     1.2580 C.2   1 <1>  -0.3020 
  9 C        3.7630     4.0630     2.6050 C.3   1 <1>   0.3900 
 10 N        4.3940     5.4130     2.6230 N.pl3 1 <1>  -0.8690 
 11 C        5.2210     5.9120     1.6940 C.ar  1 <1>   0.4100 
 12 N        5.2340     7.2220     1.6020 N.ar  1 <1>  -0.6200 
 13 C        5.9920     5.0940     0.8500 C.ar  1 <1>  -0.1500 
 14 C        5.9300     7.7660     0.6120 C.ar  1 <1>   0.7710 
 15 C        6.6950     5.6640    -0.1530 C.ar  1 <1>   0.2180 
 16 N        6.6370     7.0120    -0.2520 N.ar  1 <1>  -0.1790 
 17 N        5.9370     9.1210     0.4660 N.pl3 1 <1>  -0.8380 
 18 C        7.5240     4.8710    -1.1560 C.3   1 <1>  -0.0170 
 19 C        5.3050    10.0340     1.4910 C.3   1 <1>   0.2090 
 20 C        6.4840     9.9160    -0.6890 C.3   1 <1>   0.2090 
 21 C        9.0180     5.2110    -1.0720 C.3   1 <1>  -0.2400 
 22 C        4.3240    11.0180     0.8310 C.3   1 <1>   0.1200 
 23 C        5.4320    10.9010    -1.2320 C.3   1 <1>   0.1200 
 24 O        4.9520    11.7180    -0.2060 O.3   1 <1>  -0.5600 
 25 H        0.1060     2.3570    -2.6950 H     1 <1>   0.0800 
 26 H        0.1420     4.0970    -2.9980 H     1 <1>   0.0800 
 27 H       -0.5720     2.7650    -0.5050 H     1 <1>   0.0800 
 28 H       -0.5120     4.4920    -0.7980 H     1 <1>   0.0800 
 29 H        0.8130     4.0430     2.0170 H     1 <1>   0.1500 
 30 H        4.5220     3.3020     2.6490 H     1 <1>   0.0800 
 31 H        3.1380     3.9590     3.4740 H     1 <1>   0.0800 
 32 H        3.8600     6.1070     3.1510 H     1 <1>   0.4000 
 33 H        5.9850     4.0320     1.0040 H     1 <1>   0.1500 
 34 H        7.1500     7.5090    -0.9630 H     1 <1>   0.4570 
 35 H        7.1610     5.0580    -2.1520 H     1 <1>   0.0800 
 36 H        7.3960     3.8180    -0.9660 H     1 <1>   0.0800 
 37 H        6.0780    10.5980     1.9850 H     1 <1>   0.0800 
 38 H        4.7760     9.4880     2.2510 H     1 <1>   0.0800 
 39 H        6.7960     9.2800    -1.4960 H     1 <1>   0.0800 
 40 H        7.3410    10.4800    -0.3580 H     1 <1>   0.0800 
 41 H        9.2060     6.2370    -1.3280 H     1 <1>   0.0800 
 42 H        9.5700     4.5880    -1.7560 H     1 <1>   0.0800 
 43 H        9.3900     5.0240    -0.0780 H     1 <1>   0.0800 
 44 H        3.9820    11.7400     1.5520 H     1 <1>   0.0800 
 45 H        3.4710    10.4970     0.4330 H     1 <1>   0.0800 
 46 H        4.6010    10.3760    -1.6710 H     1 <1>   0.0800 
 47 H        5.8690    11.5410    -1.9780 H     1 <1>   0.0800 
@<TRIPOS>BOND
  1   1   2  1   
  2   1   3  1   
  3   2   4  2   
  4   2   5  1   
  5   3   6  1   
  6   3  25  1   
  7   3  26  1   
  8   4   7  1   
  9   5   6  1   
 10   5   8  1   
 11   6  27  1   
 12   6  28  1   
 13   7   8  2   
 14   7   9  1   
 15   8  29  1   
 16   9  10  1   
 17   9  30  1   
 18   9  31  1   
 19  10  11  1   
 20  10  32  1   
 21  11  12  ar  
 22  11  13  ar  
 23  12  14  ar  
 24  13  15  ar  
 25  13  33  1   
 26  14  16  ar  
 27  14  17  1   
 28  15  16  ar  
 29  15  18  1   
 30  16  34  1   
 31  17  19  1   
 32  17  20  1   
 33  18  21  1   
 34  18  35  1   
 35  18  36  1   
 36  19  22  1   
 37  19  37  1   
 38  19  38  1   
 39  20  23  1   
 40  20  39  1   
 41  20  40  1   
 42  21  41  1   
 43  21  42  1   
 44  21  43  1   
 45  22  24  1   
 46  22  44  1   
 47  22  45  1   
 48  23  24  1   
 49  23  46  1   
 50  23  47  1   
@<TRIPOS>SUBSTRUCTURE
  1 ****  11 GROUP 4 **** **** 0

# MOE 2024.06 (io_trps.svl 2023.06)
