@<TRIPOS>MOLECULE
NONAME
49 51 1 0 0 
SMALL
USER_CHARGES


@<TRIPOS>ATOM
  1 F        1.7600     1.5940     1.2180 F     1 <1>  -0.1900 
  2 C        2.9520     2.1180     1.1260 C.ar  1 <1>   0.1900 
  3 C        3.2150     2.9820     0.0840 C.ar  1 <1>  -0.1500 
  4 C        3.8980     1.7880     2.0760 C.ar  1 <1>  -0.1500 
  5 C        4.4780     3.5600    -0.0260 C.ar  1 <1>   0.0860 
  6 C        5.1620     2.3460     1.9740 C.ar  1 <1>  -0.1440 
  7 C        4.7980     4.4920    -1.0890 C.2   1 <1>   0.5440 
  8 C        5.4380     3.2170     0.9310 C.ar  1 <1>  -0.1500 
  9 C        6.2300     1.9970     2.9950 C.3   1 <1>  -0.0960 
 10 O        5.8510     4.3940    -1.6910 O.2   1 <1>  -0.5700 
 11 N        4.0090     5.5820    -1.3890 N.am  1 <1>  -0.6600 
 12 C        4.2180     6.3520    -2.6670 C.3   1 <1>   0.1400 
 13 C        3.2450     6.3090    -0.3400 C.3   1 <1>   0.1400 
 14 C        5.4910     7.2300    -2.6280 C.3   1 <1>   0.3430 
 15 C        4.1860     7.2100     0.4740 C.3   1 <1>  -0.1600 
 16 N        5.9680     7.4220    -1.2260 N.4   1 <1>  -0.9590 
 17 C        5.0320     8.1830    -0.3570 C.3   1 <1>   0.3430 
 18 C        7.3920     7.8210    -1.1130 C.3   1 <1>   0.4860 
 19 C        7.9190     7.2120     0.1650 C.ar  1 <1>  -0.1430 
 20 C        8.4180     5.9110     0.1250 C.ar  1 <1>   0.4100 
 21 C        7.9220     7.8960     1.3630 C.ar  1 <1>  -0.1500 
 22 N        8.8630     5.2520     1.1720 N.ar  1 <1>  -0.6200 
 23 N        8.4910     5.2060    -1.0310 N.pl3 1 <1>  -0.9000 
 24 C        8.4070     7.2180     2.4640 C.ar  1 <1>  -0.1500 
 25 C        8.8560     5.9180     2.3150 C.ar  1 <1>   0.1600 
 26 H        2.4470     3.2010    -0.6350 H     1 <1>   0.1500 
 27 H        3.6470     1.1080     2.8700 H     1 <1>   0.1500 
 28 H        6.4240     3.6430     0.8500 H     1 <1>   0.1500 
 29 H        5.8530     2.1470     3.9910 H     1 <1>   0.0800 
 30 H        7.1040     2.6110     2.8650 H     1 <1>   0.0800 
 31 H        6.5170     0.9670     2.8850 H     1 <1>   0.0800 
 32 H        3.3600     6.9700    -2.8630 H     1 <1>   0.0800 
 33 H        4.3000     5.6590    -3.4870 H     1 <1>   0.0800 
 34 H        2.7600     5.6090     0.3200 H     1 <1>   0.0800 
 35 H        2.4700     6.9000    -0.8010 H     1 <1>   0.0800 
 36 H        5.3070     8.1770    -3.1080 H     1 <1>   0.0800 
 37 H        6.2570     6.7180    -3.1900 H     1 <1>   0.0800 
 38 H        4.8320     6.6030     1.0840 H     1 <1>   0.0800 
 39 H        3.5820     7.7890     1.1510 H     1 <1>   0.0800 
 40 H        5.9550     6.4510    -0.8680 H     1 <1>   0.4500 
 41 H        5.5910     8.8140     0.3150 H     1 <1>   0.0800 
 42 H        4.3950     8.8130    -0.9550 H     1 <1>   0.0800 
 43 H        7.4920     8.8940    -1.0990 H     1 <1>   0.0800 
 44 H        7.9570     7.4290    -1.9440 H     1 <1>   0.0800 
 45 H        7.5730     8.9100     1.4590 H     1 <1>   0.1500 
 46 H        9.1920     4.4660    -0.9330 H     1 <1>   0.4000 
 47 H        7.6150     4.7360    -1.3110 H     1 <1>   0.4000 
 48 H        8.4420     7.6910     3.4300 H     1 <1>   0.1500 
 49 H        9.2310     5.3980     3.1820 H     1 <1>   0.1500 
@<TRIPOS>BOND
  1   1   2  1   
  2   2   3  ar  
  3   2   4  ar  
  4   3   5  ar  
  5   3  26  1   
  6   4   6  ar  
  7   4  27  1   
  8   5   7  1   
  9   5   8  ar  
 10   6   8  ar  
 11   6   9  1   
 12   7  10  2   
 13   7  11  am  
 14   8  28  1   
 15   9  29  1   
 16   9  30  1   
 17   9  31  1   
 18  11  12  1   
 19  11  13  1   
 20  12  14  1   
 21  12  32  1   
 22  12  33  1   
 23  13  15  1   
 24  13  34  1   
 25  13  35  1   
 26  14  16  1   
 27  14  36  1   
 28  14  37  1   
 29  15  17  1   
 30  15  38  1   
 31  15  39  1   
 32  16  17  1   
 33  16  18  1   
 34  16  40  1   
 35  17  41  1   
 36  17  42  1   
 37  18  19  1   
 38  18  43  1   
 39  18  44  1   
 40  19  20  ar  
 41  19  21  ar  
 42  20  22  ar  
 43  20  23  1   
 44  21  24  ar  
 45  21  45  1   
 46  22  25  ar  
 47  23  46  1   
 48  23  47  1   
 49  24  25  ar  
 50  24  48  1   
 51  25  49  1   
@<TRIPOS>SUBSTRUCTURE
  1 ****   7 GROUP 4 **** **** 0

# MOE 2024.06 (io_trps.svl 2023.06)
