@<TRIPOS>MOLECULE
NONAME
45 47 1 0 0 
SMALL
USER_CHARGES


@<TRIPOS>ATOM
  1 O       -4.8260    -0.8990     1.4770 O.2   1 <1>  -0.5700 
  2 C       -3.9190    -0.2780     0.9750 C.2   1 <1>   0.5690 
  3 N       -3.0100    -0.7770     0.1090 N.am  1 <1>  -0.6600 
  4 C       -3.6630     1.1790     1.2350 C.3   1 <1>  -0.0990 
  5 C       -2.0320     0.2240    -0.3440 C.3   1 <1>   0.1400 
  6 C       -2.9350    -2.1910    -0.3180 C.3   1 <1>   0.1400 
  7 C       -2.5810     1.5500     0.2030 C.3   1 <1>  -0.1600 
  8 C       -3.7250    -2.3840    -1.6100 C.3   1 <1>  -0.0990 
  9 C       -4.0800    -3.8470    -1.7560 C.2   1 <1>   0.5690 
 10 O       -3.3080    -4.5550    -2.3570 O.2   1 <1>  -0.5700 
 11 N       -5.2240    -4.3360    -1.1890 N.am  1 <1>  -0.6600 
 12 C       -6.2010    -3.5670    -0.3710 C.3   1 <1>   0.1400 
 13 C       -5.5360    -5.7840    -1.1380 C.3   1 <1>   0.1400 
 14 C       -7.1460    -4.6180     0.2130 C.3   1 <1>   0.2000 
 15 C       -6.3940    -5.9430     0.1180 C.3   1 <1>  -0.0800 
 16 O       -7.4660    -4.3480     1.5340 O.3   1 <1>  -0.6800 
 17 C       -7.3340    -7.1590     0.0910 C.3   1 <1>  -0.0170 
 18 C       -6.5590    -8.4620    -0.0010 C.ar  1 <1>   0.1670 
 19 N       -6.2950    -8.9120    -1.2170 N.ar  1 <1>  -0.6200 
 20 C       -6.1590    -9.1140     1.1650 C.ar  1 <1>   0.1600 
 21 C       -5.6100   -10.0430    -1.1900 C.ar  1 <1>   0.1600 
 22 N       -5.4740   -10.2450     1.1940 N.ar  1 <1>  -0.6200 
 23 C       -5.2120   -10.6870    -0.0240 C.ar  1 <1>   0.1600 
 24 H       -4.5620     1.7510     1.0990 H     1 <1>   0.0800 
 25 H       -3.3000     1.2950     2.2400 H     1 <1>   0.0800 
 26 H       -1.0670     0.0010     0.0810 H     1 <1>   0.0800 
 27 H       -1.9680     0.2370    -1.4190 H     1 <1>   0.0800 
 28 H       -1.9090    -2.4880    -0.4560 H     1 <1>   0.0800 
 29 H       -3.3560    -2.8050     0.4610 H     1 <1>   0.0800 
 30 H       -1.8000     2.1470     0.6380 H     1 <1>   0.0800 
 31 H       -3.0270     2.1020    -0.6060 H     1 <1>   0.0800 
 32 H       -3.1290    -2.0790    -2.4490 H     1 <1>   0.0800 
 33 H       -4.6210    -1.7940    -1.5980 H     1 <1>   0.0800 
 34 H       -5.6850    -3.0400     0.4110 H     1 <1>   0.0800 
 35 H       -6.7430    -2.8730    -0.9900 H     1 <1>   0.0800 
 36 H       -6.0880    -6.0570    -2.0210 H     1 <1>   0.0800 
 37 H       -4.6380    -6.3770    -1.0830 H     1 <1>   0.0800 
 38 H       -8.0590    -4.6480    -0.3580 H     1 <1>   0.0800 
 39 H       -5.7200    -6.0300     0.9530 H     1 <1>   0.0800 
 40 H       -6.6700    -4.0640     2.0270 H     1 <1>   0.4000 
 41 H       -8.0050    -7.0880    -0.7480 H     1 <1>   0.0800 
 42 H       -7.9340    -7.1620     0.9840 H     1 <1>   0.0800 
 43 H       -6.4160    -8.6790     2.1140 H     1 <1>   0.1500 
 44 H       -5.3490   -10.4830    -2.1360 H     1 <1>   0.1500 
 45 H       -4.6570   -11.6040    -0.1050 H     1 <1>   0.1500 
@<TRIPOS>BOND
  1   1   2  2   
  2   2   3  am  
  3   2   4  1   
  4   3   5  1   
  5   3   6  1   
  6   4   7  1   
  7   4  24  1   
  8   4  25  1   
  9   5   7  1   
 10   5  26  1   
 11   5  27  1   
 12   6   8  1   
 13   6  28  1   
 14   6  29  1   
 15   7  30  1   
 16   7  31  1   
 17   8   9  1   
 18   8  32  1   
 19   8  33  1   
 20   9  10  2   
 21   9  11  am  
 22  11  12  1   
 23  11  13  1   
 24  12  14  1   
 25  12  34  1   
 26  12  35  1   
 27  13  15  1   
 28  13  36  1   
 29  13  37  1   
 30  14  15  1   
 31  14  16  1   
 32  14  38  1   
 33  15  17  1   
 34  15  39  1   
 35  16  40  1   
 36  17  18  1   
 37  17  41  1   
 38  17  42  1   
 39  18  19  ar  
 40  18  20  ar  
 41  19  21  ar  
 42  20  22  ar  
 43  20  43  1   
 44  21  23  ar  
 45  21  44  1   
 46  22  23  ar  
 47  23  45  1   
@<TRIPOS>SUBSTRUCTURE
  1 ****  11 GROUP 4 **** **** 0

# MOE 2024.06 (io_trps.svl 2023.06)
