@<TRIPOS>MOLECULE
NONAME
57 60 1 0 0 
SMALL
USER_CHARGES


@<TRIPOS>ATOM
  1 O       -1.5910     1.9760     3.2740 O.3   1 <1>  -0.5600 
  2 C       -0.2400     1.7800     2.9890 C.3   1 <1>   0.1200 
  3 C       -2.3740     1.6800     2.1550 C.3   1 <1>   0.1200 
  4 C       -0.1000     2.0260     1.4910 C.3   1 <1>   0.2890 
  5 C       -1.4100     1.4300     0.9900 C.3   1 <1>  -0.0800 
  6 N       -0.0520     3.4920     1.2520 N.pl3 1 <1>  -0.8690 
  7 C       -1.9230     1.9530    -0.3650 C.3   1 <1>  -0.0170 
  8 C        0.7980     4.2590     0.5550 C.ar  1 <1>   0.4100 
  9 C       -3.2000     1.2350    -0.7730 C.ar  1 <1>  -0.1430 
 10 N        0.6300     5.5490     0.7190 N.ar  1 <1>  -0.6200 
 11 C        1.7960     3.7350    -0.2860 C.ar  1 <1>  -0.1500 
 12 C       -4.4460     1.8060    -0.6060 C.ar  1 <1>  -0.1500 
 13 C       -3.1810    -0.0290    -1.3290 C.ar  1 <1>  -0.1500 
 14 C        1.4420     6.3780     0.0770 C.ar  1 <1>   0.7710 
 15 C        2.6220     4.5940    -0.9320 C.ar  1 <1>   0.2180 
 16 C       -5.5790     1.1050    -0.9860 C.ar  1 <1>   0.1600 
 17 C       -4.3730    -0.6440    -1.6750 C.ar  1 <1>   0.1600 
 18 N        2.4200     5.9170    -0.7240 N.ar  1 <1>  -0.1790 
 19 N        1.2960     7.7220     0.2290 N.pl3 1 <1>  -0.8380 
 20 C        3.7450     4.1520    -1.8620 C.3   1 <1>  -0.0170 
 21 N       -5.5720    -0.1080    -1.5150 N.ar  1 <1>  -0.6200 
 22 C        2.0130     8.8030    -0.5170 C.3   1 <1>   0.2090 
 23 C        0.3600     8.3020     1.2500 C.3   1 <1>   0.2090 
 24 C        3.5270     4.6330    -3.3030 C.3   1 <1>  -0.2400 
 25 C        2.8710     9.6050     0.4650 C.3   1 <1>  -0.1600 
 26 C        1.1700     9.1110     2.2690 C.3   1 <1>  -0.1600 
 27 C        2.0170    10.2000     1.5940 C.3   1 <1>  -0.1600 
 28 H        0.3560     2.4540     3.5800 H     1 <1>   0.0800 
 29 H        0.0030     0.7610     3.2350 H     1 <1>   0.0800 
 30 H       -2.9780     0.8140     2.3670 H     1 <1>   0.0800 
 31 H       -3.0090     2.5290     1.9720 H     1 <1>   0.0800 
 32 H        0.7650     1.5310     1.0880 H     1 <1>   0.0800 
 33 H       -1.2780     0.3660     0.9110 H     1 <1>   0.0800 
 34 H       -0.7300     3.9900     1.8420 H     1 <1>   0.4000 
 35 H       -1.1730     1.7970    -1.1200 H     1 <1>   0.0800 
 36 H       -2.1120     3.0120    -0.3110 H     1 <1>   0.0800 
 37 H        1.8820     2.6730    -0.4000 H     1 <1>   0.1500 
 38 H       -4.5510     2.7890    -0.1840 H     1 <1>   0.1500 
 39 H       -2.2530    -0.5430    -1.4970 H     1 <1>   0.1500 
 40 H       -6.5410     1.5670    -0.8470 H     1 <1>   0.1500 
 41 H       -4.3390    -1.6290    -2.1070 H     1 <1>   0.1500 
 42 H        3.0030     6.6220    -1.1500 H     1 <1>   0.4570 
 43 H        4.6870     4.5230    -1.4950 H     1 <1>   0.0800 
 44 H        3.8060     3.0770    -1.8640 H     1 <1>   0.0800 
 45 H        2.6290     8.4140    -1.3060 H     1 <1>   0.0800 
 46 H        1.2850     9.4590    -0.9690 H     1 <1>   0.0800 
 47 H       -0.3520     8.9440     0.7580 H     1 <1>   0.0800 
 48 H       -0.1990     7.5430     1.7720 H     1 <1>   0.0800 
 49 H        3.5360     5.7060    -3.3700 H     1 <1>   0.0800 
 50 H        2.5870     4.2680    -3.6840 H     1 <1>   0.0800 
 51 H        4.3110     4.2530    -3.9360 H     1 <1>   0.0800 
 52 H        3.6290     8.9670     0.8840 H     1 <1>   0.0800 
 53 H        3.3670    10.4030    -0.0610 H     1 <1>   0.0800 
 54 H        0.4970     9.5660     2.9740 H     1 <1>   0.0800 
 55 H        1.8070     8.4390     2.8170 H     1 <1>   0.0800 
 56 H        1.3640    10.9540     1.1870 H     1 <1>   0.0800 
 57 H        2.6510    10.6730     2.3240 H     1 <1>   0.0800 
@<TRIPOS>BOND
  1   1   2  1   
  2   1   3  1   
  3   2   4  1   
  4   2  28  1   
  5   2  29  1   
  6   3   5  1   
  7   3  30  1   
  8   3  31  1   
  9   4   5  1   
 10   4   6  1   
 11   4  32  1   
 12   5   7  1   
 13   5  33  1   
 14   6   8  1   
 15   6  34  1   
 16   7   9  1   
 17   7  35  1   
 18   7  36  1   
 19   8  10  ar  
 20   8  11  ar  
 21   9  12  ar  
 22   9  13  ar  
 23  10  14  ar  
 24  11  15  ar  
 25  11  37  1   
 26  12  16  ar  
 27  12  38  1   
 28  13  17  ar  
 29  13  39  1   
 30  14  18  ar  
 31  14  19  1   
 32  15  18  ar  
 33  15  20  1   
 34  16  21  ar  
 35  16  40  1   
 36  17  21  ar  
 37  17  41  1   
 38  18  42  1   
 39  19  22  1   
 40  19  23  1   
 41  20  24  1   
 42  20  43  1   
 43  20  44  1   
 44  22  25  1   
 45  22  45  1   
 46  22  46  1   
 47  23  26  1   
 48  23  47  1   
 49  23  48  1   
 50  24  49  1   
 51  24  50  1   
 52  24  51  1   
 53  25  27  1   
 54  25  52  1   
 55  25  53  1   
 56  26  27  1   
 57  26  54  1   
 58  26  55  1   
 59  27  56  1   
 60  27  57  1   
@<TRIPOS>SUBSTRUCTURE
  1 ****   8 GROUP 4 **** **** 0

# MOE 2024.06 (io_trps.svl 2023.06)
