@<TRIPOS>MOLECULE
NONAME
54 57 1 0 0 
SMALL
USER_CHARGES


@<TRIPOS>ATOM
  1 O        0.3100    -0.0330     1.3910 O.3   1 <1>  -0.2800 
  2 C        1.2230    -0.4970     0.5560 C.2   1 <1>   0.4250 
  3 C       -0.3260    -1.0620     1.8650 C.2   1 <1>  -0.0400 
  4 N        1.2200    -1.7960     0.4850 N.2   1 <1>  -0.5650 
  5 C        2.1010     0.4060    -0.1470 C.ar  1 <1>   0.0530 
  6 C        0.2210    -2.1550     1.3160 C.2   1 <1>   0.0460 
  7 C       -1.4610    -0.8260     2.8420 C.3   1 <1>  -0.0600 
  8 C        1.6140     1.4890    -0.8900 C.ar  1 <1>   0.0820 
  9 C        3.4810     0.2050    -0.1030 C.ar  1 <1>  -0.1500 
 10 C       -0.1490    -3.6190     1.4720 C.3   1 <1>   0.5240 
 11 O        0.2680     1.6550    -0.9590 O.3   1 <1>  -0.3630 
 12 C        2.5000     2.3440    -1.5430 C.ar  1 <1>  -0.1500 
 13 C        4.3550     1.0530    -0.7550 C.ar  1 <1>  -0.1500 
 14 N       -0.2110    -4.2080     0.1050 N.4   1 <1>  -0.9590 
 15 C       -0.3240     2.7800    -1.5730 C.3   1 <1>   0.0400 
 16 C        3.8640     2.1260    -1.4740 C.ar  1 <1>  -0.1500 
 17 C       -1.4210    -3.7110    -0.6190 C.3   1 <1>   0.3430 
 18 C       -0.2860    -5.6970     0.1330 C.3   1 <1>   0.3430 
 19 C       -2.4650    -4.8170    -0.4520 C.3   1 <1>   0.2000 
 20 C       -1.6090    -6.0820    -0.5420 C.3   1 <1>  -0.0800 
 21 O       -3.0180    -4.7090     0.8240 O.3   1 <1>  -0.6800 
 22 C       -2.2270    -7.3710     0.0330 C.3   1 <1>  -0.0170 
 23 C       -1.2140    -8.5030    -0.0170 C.ar  1 <1>  -0.1440 
 24 C       -0.5980    -8.9840     1.1220 C.ar  1 <1>  -0.1500 
 25 C       -0.8540    -9.1060    -1.2060 C.ar  1 <1>  -0.1500 
 26 C        0.3360   -10.0010     1.0170 C.ar  1 <1>   0.1600 
 27 C        0.0930   -10.1170    -1.2020 C.ar  1 <1>   0.1600 
 28 N        0.7020   -10.5690    -0.1190 N.ar  1 <1>  -0.6200 
 29 H       -1.9110    -1.7540     3.1440 H     1 <1>   0.0800 
 30 H       -2.2110    -0.2070     2.3830 H     1 <1>   0.0800 
 31 H       -1.0870    -0.3190     3.7140 H     1 <1>   0.0800 
 32 H        3.8690    -0.6290     0.4560 H     1 <1>   0.1500 
 33 H       -1.0940    -3.7210     1.9780 H     1 <1>   0.0800 
 34 H        0.6170    -4.1090     2.0490 H     1 <1>   0.0800 
 35 H        2.1500     3.1820    -2.1150 H     1 <1>   0.1500 
 36 H        5.4170     0.8800    -0.7030 H     1 <1>   0.1500 
 37 H        0.6380    -3.8440    -0.3620 H     1 <1>   0.4500 
 38 H       -1.3880     2.7090    -1.4430 H     1 <1>   0.0800 
 39 H       -0.0820     2.7740    -2.6210 H     1 <1>   0.0800 
 40 H        0.0430     3.6710    -1.0950 H     1 <1>   0.0800 
 41 H        4.5440     2.7890    -1.9810 H     1 <1>   0.1500 
 42 H       -1.7750    -2.7680    -0.2340 H     1 <1>   0.0800 
 43 H       -1.1890    -3.5980    -1.6650 H     1 <1>   0.0800 
 44 H        0.5480    -6.1430    -0.3870 H     1 <1>   0.0800 
 45 H       -0.2870    -6.0480     1.1520 H     1 <1>   0.0800 
 46 H       -3.2520    -4.7600    -1.1860 H     1 <1>   0.0800 
 47 H       -1.3900    -6.2560    -1.5820 H     1 <1>   0.0800 
 48 H       -3.8650    -5.2020     0.8820 H     1 <1>   0.4000 
 49 H       -3.0980    -7.6470    -0.5360 H     1 <1>   0.0800 
 50 H       -2.5370    -7.2250     1.0530 H     1 <1>   0.0800 
 51 H       -0.8320    -8.5880     2.0930 H     1 <1>   0.1500 
 52 H       -1.2980    -8.8080    -2.1380 H     1 <1>   0.1500 
 53 H        0.8080   -10.3680     1.9130 H     1 <1>   0.1500 
 54 H        0.3630   -10.5790    -2.1370 H     1 <1>   0.1500 
@<TRIPOS>BOND
  1   1   2  1   
  2   1   3  1   
  3   2   4  2   
  4   2   5  1   
  5   3   6  2   
  6   3   7  1   
  7   4   6  1   
  8   5   8  ar  
  9   5   9  ar  
 10   6  10  1   
 11   7  29  1   
 12   7  30  1   
 13   7  31  1   
 14   8  11  1   
 15   8  12  ar  
 16   9  13  ar  
 17   9  32  1   
 18  10  14  1   
 19  10  33  1   
 20  10  34  1   
 21  11  15  1   
 22  12  16  ar  
 23  12  35  1   
 24  13  16  ar  
 25  13  36  1   
 26  14  17  1   
 27  14  18  1   
 28  14  37  1   
 29  15  38  1   
 30  15  39  1   
 31  15  40  1   
 32  16  41  1   
 33  17  19  1   
 34  17  42  1   
 35  17  43  1   
 36  18  20  1   
 37  18  44  1   
 38  18  45  1   
 39  19  20  1   
 40  19  21  1   
 41  19  46  1   
 42  20  22  1   
 43  20  47  1   
 44  21  48  1   
 45  22  23  1   
 46  22  49  1   
 47  22  50  1   
 48  23  24  ar  
 49  23  25  ar  
 50  24  26  ar  
 51  24  51  1   
 52  25  27  ar  
 53  25  52  1   
 54  26  28  ar  
 55  26  53  1   
 56  27  28  ar  
 57  27  54  1   
@<TRIPOS>SUBSTRUCTURE
  1 ****  14 GROUP 4 **** **** 0

# MOE 2024.06 (io_trps.svl 2023.06)
