@<TRIPOS>MOLECULE
NONAME
50 53 1 0 0 
SMALL
USER_CHARGES


@<TRIPOS>ATOM
  1 O       -2.8850     1.9370    -2.4600 O.2   1 <1>  -0.5700 
  2 C       -2.3660     2.4940    -1.5150 C.2   1 <1>   0.6900 
  3 N       -2.5470     2.0660    -0.2060 N.am  1 <1>  -0.4690 
  4 N       -1.5860     3.5850    -1.7400 N.am  1 <1>  -0.4900 
  5 C       -1.9440     2.7470     0.8460 C.2   1 <1>  -0.0410 
  6 C       -3.3440     0.8400     0.0710 C.3   1 <1>   0.1400 
  7 C       -0.9770     4.2800    -0.7430 C.2   1 <1>   0.6160 
  8 C       -1.1750     3.8310     0.5930 C.2   1 <1>  -0.1360 
  9 C       -4.8430     1.1570     0.0320 C.3   1 <1>  -0.0990 
 10 O       -0.2980     5.2440    -1.0280 O.2   1 <1>  -0.5700 
 11 C       -5.6990    -0.0360     0.4260 C.2   1 <1>   0.5690 
 12 O       -5.1510    -0.9760     0.9540 O.2   1 <1>  -0.5700 
 13 N       -7.0530    -0.0240     0.2040 N.am  1 <1>  -0.6600 
 14 C       -7.8350     1.1290    -0.3510 C.3   1 <1>   0.1400 
 15 C       -7.8960    -1.2160     0.5140 C.3   1 <1>   0.1400 
 16 C       -8.9500     1.5620     0.6210 C.3   1 <1>   0.1430 
 17 C       -9.0130    -0.8310     1.4910 C.3   1 <1>  -0.1600 
 18 C       -9.7320     2.6940    -0.0190 C.ar  1 <1>   0.1670 
 19 C       -9.8450     0.3520     0.9660 C.3   1 <1>  -0.1600 
 20 C       -8.3700     2.2370     1.8950 C.3   1 <1>  -0.1600 
 21 N      -10.5690     2.5680    -1.0260 N.ar  1 <1>  -0.6200 
 22 C       -9.4530     3.8930     0.5640 C.ar  1 <1>  -0.1430 
 23 C       -8.4450     3.7580     1.6770 C.3   1 <1>  -0.0170 
 24 C      -11.1310     3.7030    -1.4170 C.ar  1 <1>   0.4770 
 25 C      -10.0920     5.0070     0.0780 C.ar  1 <1>   0.1600 
 26 N      -10.9430     4.9200    -0.9230 N.ar  1 <1>  -0.6200 
 27 C      -12.1070     3.5970    -2.5630 C.3   1 <1>  -0.0970 
 28 H       -1.4490     3.8870    -2.6960 H     1 <1>   0.3700 
 29 H       -2.1110     2.3770     1.8450 H     1 <1>   0.1500 
 30 H       -3.0750     0.4510     1.0390 H     1 <1>   0.0800 
 31 H       -3.1130     0.0850    -0.6620 H     1 <1>   0.0800 
 32 H       -0.6850     4.3940     1.3640 H     1 <1>   0.1500 
 33 H       -5.0990     1.4480    -0.9700 H     1 <1>   0.0800 
 34 H       -5.0570     1.9630     0.7060 H     1 <1>   0.0800 
 35 H       -8.2830     0.8250    -1.2820 H     1 <1>   0.0800 
 36 H       -7.2040     1.9730    -0.5560 H     1 <1>   0.0800 
 37 H       -7.3020    -2.0060     0.9410 H     1 <1>   0.0800 
 38 H       -8.3240    -1.5850    -0.4020 H     1 <1>   0.0800 
 39 H       -8.5730    -0.5860     2.4420 H     1 <1>   0.0800 
 40 H       -9.6550    -1.6810     1.6420 H     1 <1>   0.0800 
 41 H      -10.3650     0.0400     0.0760 H     1 <1>   0.0800 
 42 H      -10.5900     0.6340     1.6890 H     1 <1>   0.0800 
 43 H       -7.3680     1.9140     2.1150 H     1 <1>   0.0800 
 44 H       -8.9890     1.9940     2.7410 H     1 <1>   0.0800 
 45 H       -7.4940     4.1450     1.3540 H     1 <1>   0.0800 
 46 H       -8.7660     4.2700     2.5680 H     1 <1>   0.0800 
 47 H       -9.9060     5.9760     0.5070 H     1 <1>   0.1500 
 48 H      -11.8010     2.8170    -3.2360 H     1 <1>   0.0800 
 49 H      -12.1490     4.5250    -3.1030 H     1 <1>   0.0800 
 50 H      -13.0820     3.3690    -2.1770 H     1 <1>   0.0800 
@<TRIPOS>BOND
  1   1   2  2   
  2   2   3  am  
  3   2   4  am  
  4   3   5  1   
  5   3   6  1   
  6   4   7  am  
  7   4  28  1   
  8   5   8  2   
  9   5  29  1   
 10   6   9  1   
 11   6  30  1   
 12   6  31  1   
 13   7   8  1   
 14   7  10  2   
 15   8  32  1   
 16   9  11  1   
 17   9  33  1   
 18   9  34  1   
 19  11  12  2   
 20  11  13  am  
 21  13  14  1   
 22  13  15  1   
 23  14  16  1   
 24  14  35  1   
 25  14  36  1   
 26  15  17  1   
 27  15  37  1   
 28  15  38  1   
 29  16  18  1   
 30  16  19  1   
 31  16  20  1   
 32  17  19  1   
 33  17  39  1   
 34  17  40  1   
 35  18  21  ar  
 36  18  22  ar  
 37  19  41  1   
 38  19  42  1   
 39  20  23  1   
 40  20  43  1   
 41  20  44  1   
 42  21  24  ar  
 43  22  23  1   
 44  22  25  ar  
 45  23  45  1   
 46  23  46  1   
 47  24  26  ar  
 48  24  27  1   
 49  25  26  ar  
 50  25  47  1   
 51  27  48  1   
 52  27  49  1   
 53  27  50  1   
@<TRIPOS>SUBSTRUCTURE
  1 ****  14 GROUP 4 **** **** 0

# MOE 2024.06 (io_trps.svl 2023.06)
