@<TRIPOS>MOLECULE
NONAME
41 42 1 0 0 
SMALL
USER_CHARGES


@<TRIPOS>ATOM
  1 O        0.7170     1.3730     0.6420 O.3   1 <1>  -0.5600 
  2 C        0.9490     1.8780    -0.6450 C.3   1 <1>   0.3010 
  3 C       -0.5080     0.7310     0.7840 C.3   1 <1>   0.0400 
  4 C        2.3130     2.5560    -0.7250 C.2   1 <1>   0.1080 
  5 N        2.7810     3.0700    -1.8240 N.2   1 <1>  -0.7070 
  6 C        3.2040     2.7050     0.3340 C.2   1 <1>  -0.1500 
  7 N        3.9870     3.5610    -1.4930 N.pl3 1 <1>   0.3000 
  8 C        4.2680     3.3520    -0.1900 C.2   1 <1>  -0.3320 
  9 C        5.5420     3.7770     0.4880 C.3   1 <1>   0.3890 
 10 N        5.5890     5.2440     0.4120 N.pl3 1 <1>  -0.8690 
 11 C        6.5640     6.1480     0.5350 C.ar  1 <1>   0.7710 
 12 N        6.2080     7.3990     0.3580 N.ar  1 <1>  -0.6200 
 13 N        7.8230     5.7800     0.8250 N.ar  1 <1>  -0.1790 
 14 C        7.1390     8.3310     0.4510 C.ar  1 <1>   0.4100 
 15 C        8.8000     6.7080     0.9690 C.ar  1 <1>   0.2110 
 16 N        6.7360     9.6030     0.2080 N.pl3 1 <1>  -0.8380 
 17 C        8.4800     8.0150     0.7910 C.ar  1 <1>  -0.1430 
 18 C        5.4200    10.1090     0.6950 C.3   1 <1>   0.1290 
 19 C        7.3530    10.4580    -0.8450 C.3   1 <1>   0.1290 
 20 C        9.5380     9.0990     0.9970 C.3   1 <1>  -0.0970 
 21 H        0.1810     2.5920    -0.8800 H     1 <1>   0.0800 
 22 H        0.9150     1.0640    -1.3470 H     1 <1>   0.0800 
 23 H       -0.5880     0.3840     1.7990 H     1 <1>   0.0800 
 24 H       -0.5500    -0.1080     0.1110 H     1 <1>   0.0800 
 25 H       -1.3020     1.4270     0.5750 H     1 <1>   0.0800 
 26 H        3.0280     2.3580     1.3380 H     1 <1>   0.1500 
 27 H        4.5800     4.0370    -2.1840 H     1 <1>   0.2700 
 28 H        6.3890     3.3340    -0.0080 H     1 <1>   0.0800 
 29 H        5.5220     3.4630     1.5190 H     1 <1>   0.0800 
 30 H        4.6550     5.6480     0.2700 H     1 <1>   0.4000 
 31 H        7.9940     4.7910     0.9570 H     1 <1>   0.4570 
 32 H        9.7950     6.3820     1.2280 H     1 <1>   0.1500 
 33 H        5.0640     9.5030     1.5100 H     1 <1>   0.0800 
 34 H        4.6980    10.0770    -0.1020 H     1 <1>   0.0800 
 35 H        5.5220    11.1230     1.0420 H     1 <1>   0.0800 
 36 H        8.0930     9.9030    -1.3960 H     1 <1>   0.0800 
 37 H        7.8160    11.3180    -0.3930 H     1 <1>   0.0800 
 38 H        6.5980    10.7900    -1.5370 H     1 <1>   0.0800 
 39 H        9.1270     9.9090     1.5760 H     1 <1>   0.0800 
 40 H        9.8710     9.4860     0.0510 H     1 <1>   0.0800 
 41 H       10.3940     8.7170     1.5250 H     1 <1>   0.0800 
@<TRIPOS>BOND
  1   1   2  1   
  2   1   3  1   
  3   2   4  1   
  4   2  21  1   
  5   2  22  1   
  6   3  23  1   
  7   3  24  1   
  8   3  25  1   
  9   4   5  2   
 10   4   6  1   
 11   5   7  1   
 12   6   8  2   
 13   6  26  1   
 14   7   8  1   
 15   7  27  1   
 16   8   9  1   
 17   9  10  1   
 18   9  28  1   
 19   9  29  1   
 20  10  11  1   
 21  10  30  1   
 22  11  12  ar  
 23  11  13  ar  
 24  12  14  ar  
 25  13  15  ar  
 26  13  31  1   
 27  14  16  1   
 28  14  17  ar  
 29  15  17  ar  
 30  15  32  1   
 31  16  18  1   
 32  16  19  1   
 33  17  20  1   
 34  18  33  1   
 35  18  34  1   
 36  18  35  1   
 37  19  36  1   
 38  19  37  1   
 39  19  38  1   
 40  20  39  1   
 41  20  40  1   
 42  20  41  1   
@<TRIPOS>SUBSTRUCTURE
  1 ****  10 GROUP 4 **** **** 0

# MOE 2024.06 (io_trps.svl 2023.06)
