@<TRIPOS>MOLECULE
NONAME
56 60 1 0 0 
SMALL
USER_CHARGES


@<TRIPOS>ATOM
  1 O        0.1890     0.0480    -0.0710 O.2   1 <1>  -0.5700 
  2 C       -0.3620     1.0470    -0.4960 C.2   1 <1>   0.6160 
  3 N       -1.7430     1.0920    -0.5310 N.am  1 <1>  -0.6600 
  4 C        0.4480     2.1740    -0.9070 C.2   1 <1>   0.0140 
  5 C       -2.5280     2.3450    -0.7770 C.3   1 <1>   0.1400 
  6 C       -2.5830    -0.0470    -0.0650 C.3   1 <1>   0.1400 
  7 C        1.3140     2.7650    -0.0450 C.2   1 <1>  -0.1780 
  8 C        0.3110     2.6260    -2.2720 C.2   1 <1>  -0.1500 
  9 C       -3.2570     2.7970     0.5010 C.3   1 <1>   0.1430 
 10 C       -3.3230     0.3500     1.2200 C.3   1 <1>  -0.1600 
 11 C        2.1790     3.8950    -0.2660 C.ar  1 <1>   0.0280 
 12 C        0.4820     3.8810    -2.7220 C.2   1 <1>  -0.0730 
 13 C       -4.0520     4.0440     0.1650 C.ar  1 <1>   0.1660 
 14 C       -4.1350     1.6460     1.0370 C.3   1 <1>  -0.1600 
 15 C       -2.2620     3.3260     1.5700 C.3   1 <1>  -0.1600 
 16 C        1.9120     4.9250    -1.1830 C.ar  1 <1>   0.0820 
 17 C        3.3480     3.9960     0.4830 C.ar  1 <1>  -0.1500 
 18 O        0.7820     4.9490    -1.9450 O.3   1 <1>  -0.1590 
 19 N       -5.1730     4.0720    -0.5110 N.ar  1 <1>  -0.6200 
 20 C       -3.4390     5.1670     0.6350 C.ar  1 <1>  -0.1430 
 21 C       -2.1550     4.8450     1.3580 C.3   1 <1>  -0.0170 
 22 C        2.7770     5.9940    -1.3270 C.ar  1 <1>  -0.1500 
 23 C        4.2170     5.0650     0.3360 C.ar  1 <1>  -0.1500 
 24 C       -5.6930     5.2870    -0.7020 C.ar  1 <1>   0.7200 
 25 C       -4.0440     6.3730     0.3880 C.ar  1 <1>   0.1600 
 26 C        3.9340     6.0670    -0.5700 C.ar  1 <1>  -0.1500 
 27 N       -5.1720     6.4440    -0.2790 N.ar  1 <1>  -0.6200 
 28 N       -6.8790     5.3540    -1.4080 N.pl3 1 <1>  -0.8380 
 29 C       -7.7310     4.1560    -1.6400 C.3   1 <1>   0.1290 
 30 C       -7.4070     6.6380    -1.9440 C.3   1 <1>   0.1290 
 31 H       -3.2540     2.1530    -1.5480 H     1 <1>   0.0800 
 32 H       -1.9000     3.1460    -1.1190 H     1 <1>   0.0800 
 33 H       -1.9800    -0.9200     0.1180 H     1 <1>   0.0800 
 34 H       -3.2940    -0.2930    -0.8350 H     1 <1>   0.0800 
 35 H        1.3990     2.3400     0.9410 H     1 <1>   0.1500 
 36 H        0.0340     1.8490    -2.9640 H     1 <1>   0.1500 
 37 H       -2.6020     0.4730     2.0090 H     1 <1>   0.0800 
 38 H       -3.9830    -0.4500     1.5070 H     1 <1>   0.0800 
 39 H        0.3660     4.1580    -3.7550 H     1 <1>   0.1500 
 40 H       -4.9270     1.4590     0.3320 H     1 <1>   0.0800 
 41 H       -4.5960     1.9320     1.9670 H     1 <1>   0.0800 
 42 H       -1.3010     2.8470     1.5240 H     1 <1>   0.0800 
 43 H       -2.6730     3.1560     2.5500 H     1 <1>   0.0800 
 44 H        3.5890     3.2240     1.1920 H     1 <1>   0.1500 
 45 H       -1.3140     5.0830     0.7290 H     1 <1>   0.0800 
 46 H       -2.0760     5.3730     2.2930 H     1 <1>   0.0800 
 47 H        2.5460     6.7730    -2.0320 H     1 <1>   0.1500 
 48 H        5.1150     5.1130     0.9280 H     1 <1>   0.1500 
 49 H       -3.5990     7.2870     0.7380 H     1 <1>   0.1500 
 50 H        4.6060     6.9000    -0.6880 H     1 <1>   0.1500 
 51 H       -7.5830     3.4290    -0.8600 H     1 <1>   0.0800 
 52 H       -7.4750     3.7110    -2.5850 H     1 <1>   0.0800 
 53 H       -8.7700     4.4360    -1.6480 H     1 <1>   0.0800 
 54 H       -6.5990     7.3130    -2.1730 H     1 <1>   0.0800 
 55 H       -8.0480     7.0970    -1.2120 H     1 <1>   0.0800 
 56 H       -7.9650     6.4610    -2.8470 H     1 <1>   0.0800 
@<TRIPOS>BOND
  1   1   2  2   
  2   2   3  am  
  3   2   4  1   
  4   3   5  1   
  5   3   6  1   
  6   4   7  2   
  7   4   8  1   
  8   5   9  1   
  9   5  31  1   
 10   5  32  1   
 11   6  10  1   
 12   6  33  1   
 13   6  34  1   
 14   7  11  1   
 15   7  35  1   
 16   8  12  2   
 17   8  36  1   
 18   9  13  1   
 19   9  14  1   
 20   9  15  1   
 21  10  14  1   
 22  10  37  1   
 23  10  38  1   
 24  11  16  ar  
 25  11  17  ar  
 26  12  18  1   
 27  12  39  1   
 28  13  19  ar  
 29  13  20  ar  
 30  14  40  1   
 31  14  41  1   
 32  15  21  1   
 33  15  42  1   
 34  15  43  1   
 35  16  18  1   
 36  16  22  ar  
 37  17  23  ar  
 38  17  44  1   
 39  19  24  ar  
 40  20  21  1   
 41  20  25  ar  
 42  21  45  1   
 43  21  46  1   
 44  22  26  ar  
 45  22  47  1   
 46  23  26  ar  
 47  23  48  1   
 48  24  27  ar  
 49  24  28  1   
 50  25  27  ar  
 51  25  49  1   
 52  26  50  1   
 53  28  29  1   
 54  28  30  1   
 55  29  51  1   
 56  29  52  1   
 57  29  53  1   
 58  30  54  1   
 59  30  55  1   
 60  30  56  1   
@<TRIPOS>SUBSTRUCTURE
  1 ****   5 GROUP 4 **** **** 0

# MOE 2024.06 (io_trps.svl 2023.06)
