@<TRIPOS>MOLECULE
NONAME
49 52 1 0 0 
SMALL
USER_CHARGES


@<TRIPOS>ATOM
  1 O        0.9620    -0.5030    -2.6370 O.2   1 <1>  -0.5700 
  2 C        1.7960    -0.2370    -1.8060 C.2   1 <1>   0.5690 
  3 N        2.2340    -1.0630    -0.8280 N.am  1 <1>  -0.6600 
  4 C        2.4760     1.0990    -1.7350 C.3   1 <1>  -0.0990 
  5 C        1.7400    -2.4520    -0.6370 C.3   1 <1>   0.2200 
  6 C        3.2600    -0.4280     0.0210 C.3   1 <1>   0.1400 
  7 C        3.6010     0.8810    -0.7060 C.3   1 <1>  -0.0800 
  8 C        1.1550    -2.6520     0.7590 C.3   1 <1>  -0.1600 
  9 C        2.8800    -3.4650    -0.7230 C.3   1 <1>  -0.1600 
 10 C        3.7770     2.0550     0.2610 C.3   1 <1>   0.2090 
 11 C        2.3010    -3.1390     1.6500 C.3   1 <1>  -0.1600 
 12 C        3.3540    -3.7380     0.7110 C.3   1 <1>  -0.1600 
 13 N        4.1170     3.2660    -0.5050 N.pl3 1 <1>  -0.8520 
 14 C        5.4400     3.6720    -0.4200 C.2   1 <1>   0.3720 
 15 N        6.4380     2.9240    -0.7260 N.2   1 <1>  -0.4100 
 16 C        5.8450     4.9320     0.0170 C.2   1 <1>  -0.2330 
 17 O        7.4930     3.6650    -0.5240 O.3   1 <1>  -0.0190 
 18 C        7.2020     4.8710    -0.0890 C.2   1 <1>   0.0870 
 19 C        4.9410     5.9440     0.4870 C.2   1 <1>   1.0330 
 20 C        8.2890     5.7850     0.1680 C.ar  1 <1>   0.0530 
 21 O        5.3200     7.1010     0.7140 O.co2 1 <1>  -0.9000 
 22 O        3.7380     5.6740     0.6870 O.co2 1 <1>  -0.9000 
 23 C        9.4830     5.3230     0.7250 C.ar  1 <1>  -0.1500 
 24 C        8.2160     7.1420    -0.1420 C.ar  1 <1>  -0.1500 
 25 C       10.5500     6.1710     0.9630 C.ar  1 <1>  -0.1500 
 26 C        9.2760     7.9980     0.0950 C.ar  1 <1>  -0.1500 
 27 C       10.4490     7.5140     0.6480 C.ar  1 <1>  -0.1500 
 28 H        1.7670     1.8340    -1.4020 H     1 <1>   0.0800 
 29 H        2.8710     1.3840    -2.6920 H     1 <1>   0.0800 
 30 H        0.9950    -2.6640    -1.3870 H     1 <1>   0.0800 
 31 H        4.1320    -1.0520     0.1080 H     1 <1>   0.0800 
 32 H        2.8450    -0.2370     0.9960 H     1 <1>   0.0800 
 33 H        4.5290     0.7310    -1.2300 H     1 <1>   0.0800 
 34 H        0.4140    -3.4290     0.7010 H     1 <1>   0.0800 
 35 H        0.6840    -1.7590     1.1330 H     1 <1>   0.0800 
 36 H        3.6740    -3.1230    -1.3640 H     1 <1>   0.0800 
 37 H        2.4850    -4.3780    -1.1310 H     1 <1>   0.0800 
 38 H        4.5570     1.8380     0.9720 H     1 <1>   0.0800 
 39 H        2.8640     2.2320     0.8040 H     1 <1>   0.0800 
 40 H        1.9530    -3.8650     2.3640 H     1 <1>   0.0800 
 41 H        2.7260    -2.3090     2.1860 H     1 <1>   0.0800 
 42 H        4.3100    -3.2760     0.8850 H     1 <1>   0.0800 
 43 H        3.4530    -4.7980     0.8750 H     1 <1>   0.0800 
 44 H        3.5660     4.0760    -0.1360 H     1 <1>   0.4000 
 45 H        9.5700     4.2810     0.9740 H     1 <1>   0.1500 
 46 H        7.3110     7.5320    -0.5730 H     1 <1>   0.1500 
 47 H       11.4570     5.7870     1.3940 H     1 <1>   0.1500 
 48 H        9.1810     9.0410    -0.1490 H     1 <1>   0.1500 
 49 H       11.2730     8.1790     0.8330 H     1 <1>   0.1500 
@<TRIPOS>BOND
  1   1   2  2   
  2   2   3  am  
  3   2   4  1   
  4   3   5  1   
  5   3   6  1   
  6   4   7  1   
  7   4  28  1   
  8   4  29  1   
  9   5   8  1   
 10   5   9  1   
 11   5  30  1   
 12   6   7  1   
 13   6  31  1   
 14   6  32  1   
 15   7  10  1   
 16   7  33  1   
 17   8  11  1   
 18   8  34  1   
 19   8  35  1   
 20   9  12  1   
 21   9  36  1   
 22   9  37  1   
 23  10  13  1   
 24  10  38  1   
 25  10  39  1   
 26  11  12  1   
 27  11  40  1   
 28  11  41  1   
 29  12  42  1   
 30  12  43  1   
 31  13  14  1   
 32  13  44  1   
 33  14  15  2   
 34  14  16  1   
 35  15  17  1   
 36  16  18  2   
 37  16  19  1   
 38  17  18  1   
 39  18  20  1   
 40  19  21  ar  
 41  19  22  ar  
 42  20  23  ar  
 43  20  24  ar  
 44  23  25  ar  
 45  23  45  1   
 46  24  26  ar  
 47  24  46  1   
 48  25  27  ar  
 49  25  47  1   
 50  26  27  ar  
 51  26  48  1   
 52  27  49  1   
@<TRIPOS>SUBSTRUCTURE
  1 ****  14 GROUP 4 **** **** 0

# MOE 2024.06 (io_trps.svl 2023.06)
