@<TRIPOS>MOLECULE
NONAME
48 50 1 0 0 
SMALL
USER_CHARGES


@<TRIPOS>ATOM
  1 F        3.0130    -2.7440    -0.5970 F     1 <1>  -0.3400 
  2 C        1.8750    -2.4810     0.0380 C.3   1 <1>   1.1640 
  3 F        2.2280    -2.1370     1.2750 F     1 <1>  -0.3400 
  4 F        1.3860    -1.3740    -0.5140 F     1 <1>  -0.3400 
  5 C        0.8690    -3.6710    -0.0020 C.ar  1 <1>   0.1660 
  6 N        0.4400    -4.1190    -1.1890 N.ar  1 <1>  -0.6200 
  7 C        0.4330    -4.2490     1.1890 C.ar  1 <1>  -0.1500 
  8 C       -0.4120    -5.1300    -1.1830 C.ar  1 <1>   0.1600 
  9 C       -0.4560    -5.3030     1.1730 C.ar  1 <1>  -0.1500 
 10 C       -0.9070    -5.7750    -0.0520 C.ar  1 <1>   0.0860 
 11 C       -1.8430    -6.8790    -0.1520 C.2   1 <1>   0.5440 
 12 O       -2.2570    -7.4610     0.8350 O.2   1 <1>  -0.5700 
 13 N       -2.3180    -7.3270    -1.3590 N.am  1 <1>  -0.6600 
 14 C       -3.7450    -7.0120    -1.6970 C.3   1 <1>   0.1400 
 15 C       -1.9250    -8.7130    -1.7770 C.3   1 <1>   0.1400 
 16 C       -4.7360    -8.0240    -1.0540 C.3   1 <1>   0.4230 
 17 C       -2.9950    -9.7710    -1.4030 C.3   1 <1>   0.3430 
 18 N       -4.0190    -9.2110    -0.4540 N.4   1 <1>  -0.9590 
 19 C       -5.8140    -8.4830    -2.0620 C.3   1 <1>   0.1200 
 20 C       -5.0080   -10.1830     0.1120 C.3   1 <1>   0.4230 
 21 O       -6.6810    -9.4090    -1.4700 O.3   1 <1>  -0.5600 
 22 C       -6.0740   -10.5600    -0.9460 C.3   1 <1>   0.1200 
 23 C       -4.2870   -11.4050     0.7040 C.3   1 <1>  -0.1600 
 24 C       -5.2060   -12.2490     1.6020 C.3   1 <1>  -0.1600 
 25 C       -4.4310   -13.4070     2.2380 C.3   1 <1>  -0.2400 
 26 H        0.7830    -3.8850     2.1400 H     1 <1>   0.1500 
 27 H       -0.7390    -5.4720    -2.1490 H     1 <1>   0.1500 
 28 H       -0.7940    -5.7520     2.0920 H     1 <1>   0.1500 
 29 H       -3.9870    -6.0210    -1.3530 H     1 <1>   0.0800 
 30 H       -3.8550    -7.0110    -2.7680 H     1 <1>   0.0800 
 31 H       -1.7500    -8.7350    -2.8390 H     1 <1>   0.0800 
 32 H       -0.9980    -8.9780    -1.2970 H     1 <1>   0.0800 
 33 H       -5.2510    -7.5040    -0.2630 H     1 <1>   0.0800 
 34 H       -2.4960   -10.6160    -0.9580 H     1 <1>   0.0800 
 35 H       -3.4810   -10.1160    -2.3000 H     1 <1>   0.0800 
 36 H       -3.4640    -8.7980     0.3260 H     1 <1>   0.4500 
 37 H       -5.3720    -8.9350    -2.9320 H     1 <1>   0.0800 
 38 H       -6.4080    -7.6430    -2.3780 H     1 <1>   0.0800 
 39 H       -5.5280    -9.6970     0.9220 H     1 <1>   0.0800 
 40 H       -6.8520   -11.1510    -0.4960 H     1 <1>   0.0800 
 41 H       -5.6420   -11.1230    -1.7540 H     1 <1>   0.0800 
 42 H       -3.9070   -12.0330    -0.0820 H     1 <1>   0.0800 
 43 H       -3.4610   -11.0630     1.3040 H     1 <1>   0.0800 
 44 H       -5.6180   -11.6360     2.3870 H     1 <1>   0.0800 
 45 H       -6.0230   -12.6580     1.0330 H     1 <1>   0.0800 
 46 H       -3.6240   -13.0380     2.8470 H     1 <1>   0.0800 
 47 H       -4.0260   -14.0570     1.4820 H     1 <1>   0.0800 
 48 H       -5.0870   -13.9870     2.8640 H     1 <1>   0.0800 
@<TRIPOS>BOND
  1   1   2  1   
  2   2   3  1   
  3   2   4  1   
  4   2   5  1   
  5   5   6  ar  
  6   5   7  ar  
  7   6   8  ar  
  8   7   9  ar  
  9   7  26  1   
 10   8  10  ar  
 11   8  27  1   
 12   9  10  ar  
 13   9  28  1   
 14  10  11  1   
 15  11  12  2   
 16  11  13  am  
 17  13  14  1   
 18  13  15  1   
 19  14  16  1   
 20  14  29  1   
 21  14  30  1   
 22  15  17  1   
 23  15  31  1   
 24  15  32  1   
 25  16  18  1   
 26  16  19  1   
 27  16  33  1   
 28  17  18  1   
 29  17  34  1   
 30  17  35  1   
 31  18  20  1   
 32  18  36  1   
 33  19  21  1   
 34  19  37  1   
 35  19  38  1   
 36  20  22  1   
 37  20  23  1   
 38  20  39  1   
 39  21  22  1   
 40  22  40  1   
 41  22  41  1   
 42  23  24  1   
 43  23  42  1   
 44  23  43  1   
 45  24  25  1   
 46  24  44  1   
 47  24  45  1   
 48  25  46  1   
 49  25  47  1   
 50  25  48  1   
@<TRIPOS>SUBSTRUCTURE
  1 ****  11 GROUP 4 **** **** 0

# MOE 2024.06 (io_trps.svl 2023.06)
