@<TRIPOS>MOLECULE
NONAME
49 51 1 0 0 
SMALL
USER_CHARGES


@<TRIPOS>ATOM
  1 O        0.1840     0.4550    -0.0690 O.2   1 <1>  -0.5700 
  2 C        0.0720     1.6470     0.1500 C.2   1 <1>   0.6900 
  3 N       -1.1540     2.2550     0.1180 N.am  1 <1>  -0.6600 
  4 N        1.1730     2.3860     0.4360 N.am  1 <1>  -0.7300 
  5 C       -1.3260     3.7330     0.0000 C.3   1 <1>   0.1400 
  6 C       -2.3890     1.4190     0.0830 C.3   1 <1>   0.1400 
  7 C        2.5400     1.8380     0.5870 C.3   1 <1>   0.1400 
  8 C       -2.6130     4.0500    -0.7570 C.3   1 <1>  -0.1600 
  9 C       -3.5660     2.1790     0.6990 C.3   1 <1>  -0.1600 
 10 C        3.2710     1.8850    -0.7540 C.3   1 <1>  -0.0170 
 11 C       -3.8450     3.5220    -0.0020 C.3   1 <1>   0.4180 
 12 C        4.6920     1.3670    -0.5980 C.ar  1 <1>  -0.1430 
 13 O       -4.1540     4.4230     1.0340 O.3   1 <1>  -0.5600 
 14 C       -5.0290     3.3700    -0.9560 C.2   1 <1>  -0.2880 
 15 C        5.7510     2.2460    -0.4300 C.ar  1 <1>  -0.1500 
 16 C        4.9370     0.0030    -0.6170 C.ar  1 <1>  -0.1500 
 17 C       -4.9200     5.5530     0.7180 C.3   1 <1>   0.1200 
 18 C       -6.1550     4.0820    -0.8780 C.2   1 <1>  -0.2760 
 19 C        7.0410     1.7660    -0.2830 C.ar  1 <1>  -0.1500 
 20 C        6.2260    -0.4790    -0.4700 C.ar  1 <1>  -0.1500 
 21 C       -6.3030     5.1470     0.1930 C.3   1 <1>  -0.0220 
 22 C       -7.3530     3.9060    -1.7940 C.3   1 <1>  -0.1020 
 23 C        7.2800     0.4030    -0.3030 C.ar  1 <1>  -0.1500 
 24 H        1.0170     3.3300     0.7760 H     1 <1>   0.3700 
 25 H       -0.4910     4.1570    -0.5300 H     1 <1>   0.0800 
 26 H       -1.3690     4.1650     0.9860 H     1 <1>   0.0800 
 27 H       -2.2240     0.5070     0.6320 H     1 <1>   0.0800 
 28 H       -2.6070     1.1590    -0.9390 H     1 <1>   0.0800 
 29 H        2.4850     0.8180     0.9300 H     1 <1>   0.0800 
 30 H        3.0790     2.4110     1.3210 H     1 <1>   0.0800 
 31 H       -2.5550     3.5840    -1.7240 H     1 <1>   0.0800 
 32 H       -2.6950     5.1060    -0.9230 H     1 <1>   0.0800 
 33 H       -3.3340     2.3480     1.7350 H     1 <1>   0.0800 
 34 H       -4.4440     1.5610     0.6640 H     1 <1>   0.0800 
 35 H        3.2900     2.8950    -1.1220 H     1 <1>   0.0800 
 36 H        2.7440     1.2750    -1.4670 H     1 <1>   0.0800 
 37 H       -4.8660     2.6120    -1.7000 H     1 <1>   0.1500 
 38 H        5.5770     3.3070    -0.4130 H     1 <1>   0.1500 
 39 H        4.1230    -0.6900    -0.7470 H     1 <1>   0.1500 
 40 H       -4.3960     6.1320    -0.0200 H     1 <1>   0.0800 
 41 H       -5.0200     6.1430     1.6120 H     1 <1>   0.0800 
 42 H        7.8590     2.4520    -0.1530 H     1 <1>   0.1500 
 43 H        6.4080    -1.5390    -0.4870 H     1 <1>   0.1500 
 44 H       -6.7840     6.0190    -0.2110 H     1 <1>   0.0800 
 45 H       -6.9050     4.7720     1.0010 H     1 <1>   0.0800 
 46 H       -8.2230     3.6440    -1.2190 H     1 <1>   0.0800 
 47 H       -7.1680     3.1240    -2.5090 H     1 <1>   0.0800 
 48 H       -7.5500     4.8180    -2.3300 H     1 <1>   0.0800 
 49 H        8.2820     0.0290    -0.1890 H     1 <1>   0.1500 
@<TRIPOS>BOND
  1   1   2  2   
  2   2   3  am  
  3   2   4  am  
  4   3   5  1   
  5   3   6  1   
  6   4   7  1   
  7   4  24  1   
  8   5   8  1   
  9   5  25  1   
 10   5  26  1   
 11   6   9  1   
 12   6  27  1   
 13   6  28  1   
 14   7  10  1   
 15   7  29  1   
 16   7  30  1   
 17   8  11  1   
 18   8  31  1   
 19   8  32  1   
 20   9  11  1   
 21   9  33  1   
 22   9  34  1   
 23  10  12  1   
 24  10  35  1   
 25  10  36  1   
 26  11  13  1   
 27  11  14  1   
 28  12  15  ar  
 29  12  16  ar  
 30  13  17  1   
 31  14  18  2   
 32  14  37  1   
 33  15  19  ar  
 34  15  38  1   
 35  16  20  ar  
 36  16  39  1   
 37  17  21  1   
 38  17  40  1   
 39  17  41  1   
 40  18  21  1   
 41  18  22  1   
 42  19  23  ar  
 43  19  42  1   
 44  20  23  ar  
 45  20  43  1   
 46  21  44  1   
 47  21  45  1   
 48  22  46  1   
 49  22  47  1   
 50  22  48  1   
 51  23  49  1   
@<TRIPOS>SUBSTRUCTURE
  1 ****   2 GROUP 4 **** **** 0

# MOE 2024.06 (io_trps.svl 2023.06)
