@<TRIPOS>MOLECULE
NONAME
50 52 1 0 0 
SMALL
USER_CHARGES


@<TRIPOS>ATOM
  1 CL      -0.0090     0.7990     1.7700 Cl    1 <1>  -0.1770 
  2 C       -1.5910     1.2220     1.1570 C.ar  1 <1>   0.1770 
  3 C       -1.8270     2.4900     0.6490 C.ar  1 <1>  -0.1440 
  4 C       -2.5850     0.2650     1.1950 C.ar  1 <1>  -0.1500 
  5 C       -3.0950     2.7810     0.1730 C.ar  1 <1>  -0.1500 
  6 C       -0.7260     3.5390     0.6100 C.3   1 <1>  -0.0960 
  7 C       -3.8590     0.5490     0.7210 C.ar  1 <1>  -0.0090 
  8 C       -4.1070     1.8210     0.2080 C.ar  1 <1>   0.0830 
  9 S       -5.1700    -0.6960     0.7810 S.o2  1 <1>   1.4470 
 10 O       -5.3590     2.0760    -0.2520 O.3   1 <1>  -0.3630 
 11 O       -4.6050    -1.9730     1.1540 O.2   1 <1>  -0.6500 
 12 O       -6.3130    -0.1940     1.5080 O.2   1 <1>  -0.6500 
 13 N       -5.6890    -0.8030    -0.8150 N.am  1 <1>  -0.9140 
 14 C       -5.8080     3.3850    -0.5190 C.3   1 <1>   0.1200 
 15 C       -6.3800    -2.0090    -1.2880 C.3   1 <1>   0.2760 
 16 C       -7.2980     3.3080    -0.8380 C.3   1 <1>  -0.2400 
 17 C       -7.4810    -2.5740    -0.3790 C.3   1 <1>  -0.0800 
 18 C       -5.4520    -3.2020    -1.5430 C.3   1 <1>   0.1200 
 19 C       -6.9800    -3.9910    -0.0900 C.3   1 <1>   0.1200 
 20 C       -8.8450    -2.5800    -1.0920 C.3   1 <1>  -0.0170 
 21 O       -6.1920    -4.3250    -1.1830 O.3   1 <1>  -0.5600 
 22 C       -9.9440    -3.1340    -0.1980 C.ar  1 <1>  -0.1430 
 23 C      -10.4080    -2.4380     0.9000 C.ar  1 <1>  -0.1500 
 24 C      -10.5340    -4.3590    -0.4350 C.ar  1 <1>  -0.1500 
 25 C      -11.4090    -2.9850     1.6850 C.ar  1 <1>   0.1600 
 26 C      -11.5300    -4.8150     0.4120 C.ar  1 <1>   0.1600 
 27 N      -11.9820    -4.1570     1.4670 N.ar  1 <1>  -0.6200 
 28 H       -2.3590    -0.7080     1.5970 H     1 <1>   0.1500 
 29 H       -3.2810     3.7600    -0.2270 H     1 <1>   0.1500 
 30 H       -1.0800     4.4620     0.1870 H     1 <1>   0.0800 
 31 H        0.0980     3.1860     0.0150 H     1 <1>   0.0800 
 32 H       -0.3710     3.7370     1.6070 H     1 <1>   0.0800 
 33 H       -6.3260    -0.0090    -0.8900 H     1 <1>   0.4200 
 34 H       -5.6370     3.9910     0.3550 H     1 <1>   0.0800 
 35 H       -5.2580     3.7730    -1.3590 H     1 <1>   0.0800 
 36 H       -6.8110    -1.7620    -2.2430 H     1 <1>   0.0800 
 37 H       -7.8340     2.8950    -0.0020 H     1 <1>   0.0800 
 38 H       -7.4610     2.7000    -1.7090 H     1 <1>   0.0800 
 39 H       -7.6780     4.2950    -1.0340 H     1 <1>   0.0800 
 40 H       -7.5890    -2.0490     0.5480 H     1 <1>   0.0800 
 41 H       -4.5680    -3.1770    -0.9330 H     1 <1>   0.0800 
 42 H       -5.1820    -3.2870    -2.5800 H     1 <1>   0.0800 
 43 H       -7.7670    -4.7170     0.0170 H     1 <1>   0.0800 
 44 H       -6.3540    -4.0050     0.7860 H     1 <1>   0.0800 
 45 H       -8.7810    -3.1650    -1.9940 H     1 <1>   0.0800 
 46 H       -9.1080    -1.5750    -1.3720 H     1 <1>   0.0800 
 47 H       -9.9990    -1.4760     1.1550 H     1 <1>   0.1500 
 48 H      -10.2280    -4.9640    -1.2690 H     1 <1>   0.1500 
 49 H      -11.7560    -2.4270     2.5380 H     1 <1>   0.1500 
 50 H      -11.9780    -5.7730     0.2110 H     1 <1>   0.1500 
@<TRIPOS>BOND
  1   1   2  1   
  2   2   3  ar  
  3   2   4  ar  
  4   3   5  ar  
  5   3   6  1   
  6   4   7  ar  
  7   4  28  1   
  8   5   8  ar  
  9   5  29  1   
 10   6  30  1   
 11   6  31  1   
 12   6  32  1   
 13   7   8  ar  
 14   7   9  1   
 15   8  10  1   
 16   9  11  2   
 17   9  12  2   
 18   9  13  am  
 19  10  14  1   
 20  13  15  1   
 21  13  33  1   
 22  14  16  1   
 23  14  34  1   
 24  14  35  1   
 25  15  17  1   
 26  15  18  1   
 27  15  36  1   
 28  16  37  1   
 29  16  38  1   
 30  16  39  1   
 31  17  19  1   
 32  17  20  1   
 33  17  40  1   
 34  18  21  1   
 35  18  41  1   
 36  18  42  1   
 37  19  21  1   
 38  19  43  1   
 39  19  44  1   
 40  20  22  1   
 41  20  45  1   
 42  20  46  1   
 43  22  23  ar  
 44  22  24  ar  
 45  23  25  ar  
 46  23  47  1   
 47  24  26  ar  
 48  24  48  1   
 49  25  27  ar  
 50  25  49  1   
 51  26  27  ar  
 52  26  50  1   
@<TRIPOS>SUBSTRUCTURE
  1 ****   9 GROUP 4 **** **** 0

# MOE 2024.06 (io_trps.svl 2023.06)
