@<TRIPOS>MOLECULE
NONAME
50 53 1 0 0 
SMALL
USER_CHARGES


@<TRIPOS>ATOM
  1 S        0.2220     0.0940     1.8050 S.o2  1 <1>   1.4470 
  2 O        0.5790     1.3820     2.3600 O.2   1 <1>  -0.6500 
  3 O       -0.2740    -0.9440     2.6820 O.2   1 <1>  -0.6500 
  4 N       -0.9610     0.3700     0.6230 N.am  1 <1>  -0.8490 
  5 C        1.6180    -0.5680     0.8530 C.ar  1 <1>  -0.0090 
  6 C       -2.2900     0.5520     1.2300 C.3   1 <1>   0.1960 
  7 C       -0.6370     1.5200    -0.2260 C.3   1 <1>   0.1960 
  8 C        2.9130    -0.1110     1.0720 C.ar  1 <1>  -0.1500 
  9 C        1.4250    -1.5550    -0.1080 C.ar  1 <1>  -0.1500 
 10 C       -3.3980     0.5940     0.1600 C.3   1 <1>   0.0000 
 11 C       -1.6400     1.6300    -1.3790 C.3   1 <1>  -0.1600 
 12 C        3.9890    -0.6140     0.3550 C.ar  1 <1>   0.1170 
 13 C        2.4870    -2.0680    -0.8360 C.ar  1 <1>  -0.1500 
 14 C       -4.7770     0.7550     0.8260 C.3   1 <1>   0.2000 
 15 C       -3.0840     1.7200    -0.8610 C.3   1 <1>  -0.1600 
 16 C       -3.5700    -0.7590    -0.5550 C.3   1 <1>  -0.1600 
 17 N        5.2870    -0.1480     0.5650 N.am  1 <1>  -0.5470 
 18 C        3.7670    -1.6030    -0.6070 C.ar  1 <1>   0.0820 
 19 O       -5.0350     2.0830     1.1720 O.3   1 <1>  -0.5600 
 20 C       -5.7880     0.2290    -0.1950 C.3   1 <1>  -0.1600 
 21 C       -5.0210    -0.7900    -1.0510 C.3   1 <1>  -0.1600 
 22 C        6.3600    -0.7000    -0.0500 C.2   1 <1>   0.5690 
 23 O        4.7880    -2.1210    -1.3440 O.3   1 <1>  -0.3630 
 24 C       -6.1140     2.2700     2.0310 C.3   1 <1>   0.0400 
 25 O        7.4660    -0.2440     0.1010 O.2   1 <1>  -0.5700 
 26 C        6.1430    -1.9380    -0.9190 C.3   1 <1>   0.1810 
 27 H       -2.4950    -0.2620     1.9050 H     1 <1>   0.0800 
 28 H       -2.3060     1.4660     1.8030 H     1 <1>   0.0800 
 29 H       -0.6570     2.4260     0.3580 H     1 <1>   0.0800 
 30 H        0.3530     1.4060    -0.6360 H     1 <1>   0.0800 
 31 H        3.0830     0.6490     1.8140 H     1 <1>   0.1500 
 32 H        0.4290    -1.9250    -0.2890 H     1 <1>   0.1500 
 33 H       -1.4160     2.5070    -1.9590 H     1 <1>   0.0800 
 34 H       -1.5230     0.7800    -2.0260 H     1 <1>   0.0800 
 35 H        2.3250    -2.8280    -1.5790 H     1 <1>   0.1500 
 36 H       -4.8130     0.1490     1.7170 H     1 <1>   0.0800 
 37 H       -3.7730     1.6920    -1.6870 H     1 <1>   0.0800 
 38 H       -3.2000     2.6760    -0.3810 H     1 <1>   0.0800 
 39 H       -2.8690    -0.9070    -1.3570 H     1 <1>   0.0800 
 40 H       -3.4310    -1.5570     0.1550 H     1 <1>   0.0800 
 41 H        5.4700     0.6560     1.1650 H     1 <1>   0.3700 
 42 H       -6.6250    -0.2330     0.2960 H     1 <1>   0.0800 
 43 H       -6.1310     1.0350    -0.8200 H     1 <1>   0.0800 
 44 H       -5.4360    -1.7780    -0.9530 H     1 <1>   0.0800 
 45 H       -5.0630    -0.4970    -2.0860 H     1 <1>   0.0800 
 46 H       -6.1930     3.3220     2.2420 H     1 <1>   0.0800 
 47 H       -5.9390     1.7310     2.9460 H     1 <1>   0.0800 
 48 H       -7.0170     1.9290     1.5550 H     1 <1>   0.0800 
 49 H        6.4280    -2.8100    -0.3620 H     1 <1>   0.0800 
 50 H        6.7550    -1.8710    -1.7990 H     1 <1>   0.0800 
@<TRIPOS>BOND
  1   1   2  2   
  2   1   3  2   
  3   1   4  am  
  4   1   5  1   
  5   4   6  1   
  6   4   7  1   
  7   5   8  ar  
  8   5   9  ar  
  9   6  10  1   
 10   6  27  1   
 11   6  28  1   
 12   7  11  1   
 13   7  29  1   
 14   7  30  1   
 15   8  12  ar  
 16   8  31  1   
 17   9  13  ar  
 18   9  32  1   
 19  10  14  1   
 20  10  15  1   
 21  10  16  1   
 22  11  15  1   
 23  11  33  1   
 24  11  34  1   
 25  12  17  1   
 26  12  18  ar  
 27  13  18  ar  
 28  13  35  1   
 29  14  19  1   
 30  14  20  1   
 31  14  36  1   
 32  15  37  1   
 33  15  38  1   
 34  16  21  1   
 35  16  39  1   
 36  16  40  1   
 37  17  22  am  
 38  17  41  1   
 39  18  23  1   
 40  19  24  1   
 41  20  21  1   
 42  20  42  1   
 43  20  43  1   
 44  21  44  1   
 45  21  45  1   
 46  22  25  2   
 47  22  26  1   
 48  23  26  1   
 49  24  46  1   
 50  24  47  1   
 51  24  48  1   
 52  26  49  1   
 53  26  50  1   
@<TRIPOS>SUBSTRUCTURE
  1 ****   4 GROUP 4 **** **** 0

# MOE 2024.06 (io_trps.svl 2023.06)
