@<TRIPOS>MOLECULE
NONAME
54 56 1 0 0 
SMALL
USER_CHARGES


@<TRIPOS>ATOM
  1 O       -0.1810     0.3780     1.1310 O.2   1 <1>  -0.5700 
  2 C       -1.1370     1.0930     0.8940 C.2   1 <1>   0.7150 
  3 N       -2.3150     0.5010     0.5040 N.am  1 <1>  -0.6600 
  4 C       -1.0240     2.5190     1.0050 C.2   1 <1>  -0.2370 
  5 C       -3.3900     1.1900    -0.2530 C.3   1 <1>   0.1400 
  6 C       -2.4650    -0.9710     0.4020 C.3   1 <1>   0.1400 
  7 N        0.0910     3.2330     0.6910 N.pl3 1 <1>   0.3140 
  8 C       -1.9330     3.4420     1.4280 C.2   1 <1>  -0.1500 
  9 C       -4.0700     0.0820    -1.0550 C.3   1 <1>   0.2000 
 10 C       -3.8250    -1.1970    -0.2600 C.3   1 <1>  -0.0800 
 11 N       -0.0900     4.5520     0.8880 N.2   1 <1>  -0.7070 
 12 C        1.3850     2.6780     0.2010 C.3   1 <1>   0.0960 
 13 C       -1.3050     4.6670     1.3260 C.2   1 <1>   0.1080 
 14 O       -5.4300     0.3080    -1.1930 O.3   1 <1>  -0.6800 
 15 C       -3.8870    -2.4650    -1.1250 C.3   1 <1>   0.0200 
 16 C        2.2410     3.6980    -0.5670 C.3   1 <1>  -0.2400 
 17 C       -1.9280     6.0050     1.6820 C.3   1 <1>   0.0210 
 18 C       -3.5520    -3.6970    -0.3070 C.2   1 <1>  -0.0400 
 19 C       -3.1180     6.3680     0.7720 C.3   1 <1>  -0.0800 
 20 O       -4.2990    -4.0270     0.7120 O.3   1 <1>  -0.0190 
 21 C       -2.5640    -4.5990    -0.4040 C.2   1 <1>  -0.1500 
 22 C       -2.6880     6.5000    -0.6960 C.3   1 <1>  -0.2400 
 23 C       -3.7680     7.6770     1.2390 C.3   1 <1>  -0.2400 
 24 N       -3.8620    -5.0990     1.3050 N.2   1 <1>  -0.4100 
 25 C       -2.8180    -5.4680     0.6540 C.2   1 <1>   0.1080 
 26 C       -1.9840    -6.6810     0.9990 C.3   1 <1>  -0.0590 
 27 H       -4.0810     1.6340     0.4420 H     1 <1>   0.0800 
 28 H       -2.9810     1.9420    -0.9050 H     1 <1>   0.0800 
 29 H       -1.6680    -1.3640    -0.2070 H     1 <1>   0.0800 
 30 H       -2.4210    -1.4270     1.3780 H     1 <1>   0.0800 
 31 H       -2.9350     3.2760     1.7790 H     1 <1>   0.1500 
 32 H       -3.6340     0.0270    -2.0380 H     1 <1>   0.0800 
 33 H       -4.5520    -1.2720     0.5310 H     1 <1>   0.0800 
 34 H        1.9300     2.3110     1.0510 H     1 <1>   0.0800 
 35 H        1.1740     1.8470    -0.4470 H     1 <1>   0.0800 
 36 H       -5.8740     0.2780    -0.3230 H     1 <1>   0.4000 
 37 H       -3.1940    -2.3860    -1.9440 H     1 <1>   0.0800 
 38 H       -4.8760    -2.5740    -1.5340 H     1 <1>   0.0800 
 39 H        2.5190     4.5120     0.0800 H     1 <1>   0.0800 
 40 H        1.6920     4.0870    -1.4060 H     1 <1>   0.0800 
 41 H        3.1370     3.2280    -0.9270 H     1 <1>   0.0800 
 42 H       -2.2530     5.9610     2.7050 H     1 <1>   0.0800 
 43 H       -1.1720     6.7670     1.6120 H     1 <1>   0.0800 
 44 H       -3.8530     5.5840     0.8410 H     1 <1>   0.0800 
 45 H       -1.7560    -4.6690    -1.1080 H     1 <1>   0.1500 
 46 H       -1.9370     7.2630    -0.8020 H     1 <1>   0.0800 
 47 H       -3.5300     6.7560    -1.3140 H     1 <1>   0.0800 
 48 H       -2.2770     5.5720    -1.0550 H     1 <1>   0.0800 
 49 H       -3.0650     8.4900     1.1800 H     1 <1>   0.0800 
 50 H       -4.1060     7.5870     2.2560 H     1 <1>   0.0800 
 51 H       -4.6170     7.9130     0.6210 H     1 <1>   0.0800 
 52 H       -1.9500    -7.3520     0.1610 H     1 <1>   0.0800 
 53 H       -2.4140    -7.1950     1.8400 H     1 <1>   0.0800 
 54 H       -0.9850    -6.3760     1.2520 H     1 <1>   0.0800 
@<TRIPOS>BOND
  1   1   2  2   
  2   2   3  am  
  3   2   4  1   
  4   3   5  1   
  5   3   6  1   
  6   4   7  1   
  7   4   8  2   
  8   5   9  1   
  9   5  27  1   
 10   5  28  1   
 11   6  10  1   
 12   6  29  1   
 13   6  30  1   
 14   7  11  1   
 15   7  12  1   
 16   8  13  1   
 17   8  31  1   
 18   9  10  1   
 19   9  14  1   
 20   9  32  1   
 21  10  15  1   
 22  10  33  1   
 23  11  13  2   
 24  12  16  1   
 25  12  34  1   
 26  12  35  1   
 27  13  17  1   
 28  14  36  1   
 29  15  18  1   
 30  15  37  1   
 31  15  38  1   
 32  16  39  1   
 33  16  40  1   
 34  16  41  1   
 35  17  19  1   
 36  17  42  1   
 37  17  43  1   
 38  18  20  1   
 39  18  21  2   
 40  19  22  1   
 41  19  23  1   
 42  19  44  1   
 43  20  24  1   
 44  21  25  1   
 45  21  45  1   
 46  22  46  1   
 47  22  47  1   
 48  22  48  1   
 49  23  49  1   
 50  23  50  1   
 51  23  51  1   
 52  24  25  2   
 53  25  26  1   
 54  26  52  1   
 55  26  53  1   
 56  26  54  1   
@<TRIPOS>SUBSTRUCTURE
  1 ****   3 GROUP 4 **** **** 0

# MOE 2024.06 (io_trps.svl 2023.06)
