@<TRIPOS>MOLECULE
NONAME
35 36 1 0 0 
SMALL
USER_CHARGES


@<TRIPOS>ATOM
  1 F       -0.7380    -2.0440     0.5860 F     1 <1>  -0.1900 
  2 C       -2.0440    -2.0550     0.4310 C.ar  1 <1>   0.1900 
  3 C       -2.8260    -0.9040     0.4290 C.ar  1 <1>   0.3920 
  4 C       -2.6630    -3.2660     0.2610 C.ar  1 <1>   0.1600 
  5 O       -2.3740     0.3620     0.5820 O.3   1 <1>  -0.3630 
  6 N       -4.1300    -0.9860     0.2660 N.ar  1 <1>  -0.6200 
  7 N       -3.9660    -3.3580     0.1000 N.ar  1 <1>  -0.6200 
  8 C       -1.0280     0.7120     0.8190 C.3   1 <1>   0.0400 
  9 C       -4.6240    -2.2020     0.1150 C.ar  1 <1>   0.7200 
 10 N       -5.9650    -2.2320    -0.0410 N.pl3 1 <1>  -0.8690 
 11 C       -6.6900    -3.3190    -0.7560 C.3   1 <1>   0.2090 
 12 C       -7.0540    -4.4790     0.1850 C.3   1 <1>   0.2000 
 13 O       -7.7330    -5.4510    -0.5870 O.3   1 <1>  -0.3630 
 14 C       -7.9750    -4.0450     1.3340 C.3   1 <1>  -0.2400 
 15 C       -7.8020    -6.7630    -0.2340 C.ar  1 <1>   0.0830 
 16 C       -8.5390    -7.6100    -1.0550 C.ar  1 <1>   0.1600 
 17 C       -7.1840    -7.3040     0.8840 C.ar  1 <1>  -0.1500 
 18 N       -8.7090    -8.9100    -0.8630 N.ar  1 <1>  -0.6200 
 19 C       -7.3510    -8.6560     1.0980 C.ar  1 <1>  -0.1500 
 20 C       -8.1090    -9.4010     0.2100 C.ar  1 <1>   0.1600 
 21 H       -2.0790    -4.1700     0.2580 H     1 <1>   0.1500 
 22 H       -0.9760     1.7810     0.9230 H     1 <1>   0.0800 
 23 H       -0.4310     0.4000    -0.0200 H     1 <1>   0.0800 
 24 H       -0.6960     0.2420     1.7280 H     1 <1>   0.0800 
 25 H       -6.3480    -1.2930    -0.1470 H     1 <1>   0.4000 
 26 H       -6.0690    -3.6940    -1.5520 H     1 <1>   0.0800 
 27 H       -7.5890    -2.9140    -1.1860 H     1 <1>   0.0800 
 28 H       -6.1390    -4.9080     0.5530 H     1 <1>   0.0800 
 29 H       -8.8710    -3.5980     0.9450 H     1 <1>   0.0800 
 30 H       -7.4720    -3.3210     1.9500 H     1 <1>   0.0800 
 31 H       -8.2360    -4.8840     1.9520 H     1 <1>   0.0800 
 32 H       -9.0130    -7.1780    -1.9180 H     1 <1>   0.1500 
 33 H       -6.5990    -6.7200     1.5690 H     1 <1>   0.1500 
 34 H       -6.8970    -9.1340     1.9470 H     1 <1>   0.1500 
 35 H       -8.2290   -10.4560     0.3910 H     1 <1>   0.1500 
@<TRIPOS>BOND
  1   1   2  1   
  2   2   3  ar  
  3   2   4  ar  
  4   3   5  1   
  5   3   6  ar  
  6   4   7  ar  
  7   4  21  1   
  8   5   8  1   
  9   6   9  ar  
 10   7   9  ar  
 11   8  22  1   
 12   8  23  1   
 13   8  24  1   
 14   9  10  1   
 15  10  11  1   
 16  10  25  1   
 17  11  12  1   
 18  11  26  1   
 19  11  27  1   
 20  12  13  1   
 21  12  14  1   
 22  12  28  1   
 23  13  15  1   
 24  14  29  1   
 25  14  30  1   
 26  14  31  1   
 27  15  16  ar  
 28  15  17  ar  
 29  16  18  ar  
 30  16  32  1   
 31  17  19  ar  
 32  17  33  1   
 33  18  20  ar  
 34  19  20  ar  
 35  19  34  1   
 36  20  35  1   
@<TRIPOS>SUBSTRUCTURE
  1 ****   7 GROUP 4 **** **** 0

# MOE 2024.06 (io_trps.svl 2023.06)
