@<TRIPOS>MOLECULE
NONAME
50 51 1 0 0 
SMALL
USER_CHARGES


@<TRIPOS>ATOM
  1 S        0.6680    -0.5540    -1.7370 S.3   1 <1>  -0.0800 
  2 C        1.1760    -1.2600    -0.2080 C.2   1 <1>  -0.1400 
  3 C        0.6640     1.0570    -1.0430 C.2   1 <1>  -0.1100 
  4 C        1.3160    -0.3020     0.7270 C.2   1 <1>  -0.1500 
  5 C        1.3740    -2.7610    -0.1630 C.3   1 <1>   0.3200 
  6 C        1.0250     1.0170     0.2530 C.2   1 <1>  -0.1500 
  7 N        0.0770    -3.4100    -0.3890 N.am  1 <1>  -0.7300 
  8 C       -0.1070    -4.7450    -0.3240 C.2   1 <1>   0.6900 
  9 O        0.8140    -5.4600     0.0210 O.2   1 <1>  -0.5700 
 10 N       -1.3230    -5.2700    -0.6630 N.am  1 <1>  -0.6600 
 11 C       -2.6110    -4.5210    -0.5550 C.3   1 <1>   0.1400 
 12 C       -1.5220    -6.7430    -0.8030 C.3   1 <1>   0.1400 
 13 C       -3.5240    -5.1640     0.5140 C.3   1 <1>   0.2000 
 14 C       -2.4930    -7.2710     0.2730 C.3   1 <1>   0.2000 
 15 O       -3.6820    -6.5310     0.2470 O.3   1 <1>  -0.5600 
 16 C       -4.9300    -4.5300     0.6180 C.3   1 <1>  -0.0800 
 17 C       -2.8840    -8.7400     0.0680 C.3   1 <1>  -0.1600 
 18 C       -5.7590    -4.6460    -0.6730 C.3   1 <1>  -0.2400 
 19 C       -4.8660    -3.0590     1.0590 C.3   1 <1>  -0.2400 
 20 C       -1.6970    -9.7060     0.2190 C.3   1 <1>  -0.1600 
 21 C       -2.1570   -11.1630     0.1010 C.3   1 <1>  -0.1600 
 22 C       -0.9780   -12.1280     0.2490 C.3   1 <1>  -0.2400 
 23 H        0.3880     1.8730    -1.6870 H     1 <1>   0.1500 
 24 H        1.6160    -0.4640     1.7490 H     1 <1>   0.1500 
 25 H        1.7610    -3.0600     0.7970 H     1 <1>   0.0800 
 26 H        2.0690    -3.0680    -0.9260 H     1 <1>   0.0800 
 27 H        1.1020     1.8680     0.9060 H     1 <1>   0.1500 
 28 H       -0.5800    -2.8620    -0.9370 H     1 <1>   0.3700 
 29 H       -2.4310    -3.4970    -0.2890 H     1 <1>   0.0800 
 30 H       -3.1030    -4.5390    -1.5100 H     1 <1>   0.0800 
 31 H       -1.9250    -6.9520    -1.7780 H     1 <1>   0.0800 
 32 H       -0.5800    -7.2560    -0.7220 H     1 <1>   0.0800 
 33 H       -3.0430    -5.0760     1.4740 H     1 <1>   0.0800 
 34 H       -2.0480    -7.1540     1.2470 H     1 <1>   0.0800 
 35 H       -5.4510    -5.0700     1.3920 H     1 <1>   0.0800 
 36 H       -3.6300    -8.9920     0.8020 H     1 <1>   0.0800 
 37 H       -3.3210    -8.8560    -0.9090 H     1 <1>   0.0800 
 38 H       -5.3280    -4.0670    -1.4690 H     1 <1>   0.0800 
 39 H       -6.7610    -4.2940    -0.5020 H     1 <1>   0.0800 
 40 H       -5.8160    -5.6740    -0.9870 H     1 <1>   0.0800 
 41 H       -4.4210    -2.4420     0.2980 H     1 <1>   0.0800 
 42 H       -4.2920    -2.9630     1.9640 H     1 <1>   0.0800 
 43 H       -5.8580    -2.6890     1.2520 H     1 <1>   0.0800 
 44 H       -0.9620    -9.5090    -0.5420 H     1 <1>   0.0800 
 45 H       -1.2340    -9.5560     1.1800 H     1 <1>   0.0800 
 46 H       -2.8860   -11.3760     0.8650 H     1 <1>   0.0800 
 47 H       -2.6240   -11.3190    -0.8570 H     1 <1>   0.0800 
 48 H       -0.5080   -12.0030     1.2100 H     1 <1>   0.0800 
 49 H       -0.2460   -11.9480    -0.5190 H     1 <1>   0.0800 
 50 H       -1.3200   -13.1440     0.1660 H     1 <1>   0.0800 
@<TRIPOS>BOND
  1   1   2  1   
  2   1   3  1   
  3   2   4  2   
  4   2   5  1   
  5   3   6  2   
  6   3  23  1   
  7   4   6  1   
  8   4  24  1   
  9   5   7  1   
 10   5  25  1   
 11   5  26  1   
 12   6  27  1   
 13   7   8  am  
 14   7  28  1   
 15   8   9  2   
 16   8  10  am  
 17  10  11  1   
 18  10  12  1   
 19  11  13  1   
 20  11  29  1   
 21  11  30  1   
 22  12  14  1   
 23  12  31  1   
 24  12  32  1   
 25  13  15  1   
 26  13  16  1   
 27  13  33  1   
 28  14  15  1   
 29  14  17  1   
 30  14  34  1   
 31  16  18  1   
 32  16  19  1   
 33  16  35  1   
 34  17  20  1   
 35  17  36  1   
 36  17  37  1   
 37  18  38  1   
 38  18  39  1   
 39  18  40  1   
 40  19  41  1   
 41  19  42  1   
 42  19  43  1   
 43  20  21  1   
 44  20  44  1   
 45  20  45  1   
 46  21  22  1   
 47  21  46  1   
 48  21  47  1   
 49  22  48  1   
 50  22  49  1   
 51  22  50  1   
@<TRIPOS>SUBSTRUCTURE
  1 ****  10 GROUP 4 **** **** 0

# MOE 2024.06 (io_trps.svl 2023.06)
