@<TRIPOS>MOLECULE
NONAME
41 43 1 0 0 
SMALL
USER_CHARGES


@<TRIPOS>ATOM
  1 O        1.3110     1.5190    -1.1730 O.3   1 <1>  -0.0190 
  2 N        2.1950     0.5690    -1.1080 N.2   1 <1>  -0.4100 
  3 C        0.8830     1.8670     0.0110 C.2   1 <1>  -0.0400 
  4 C        2.3260     0.2860     0.1390 C.2   1 <1>   0.1080 
  5 C        1.5030     1.0970     0.9170 C.2   1 <1>  -0.1500 
  6 C       -0.1300     2.9860     0.1480 C.3   1 <1>   0.0200 
  7 C        3.2500    -0.7860     0.6750 C.3   1 <1>  -0.0590 
  8 C        0.3160     4.2190    -0.6600 C.3   1 <1>  -0.0800 
  9 C       -0.5210     5.4830    -0.4680 C.3   1 <1>   0.2000 
 10 C        1.7500     4.6570    -0.3430 C.3   1 <1>   0.3430 
 11 O       -0.7360     5.6860     0.9020 O.3   1 <1>  -0.5600 
 12 C        0.4320     6.5720    -0.9580 C.3   1 <1>   0.3430 
 13 N        1.7840     6.1400    -0.5010 N.4   1 <1>  -0.9590 
 14 C       -2.0740     5.6730     1.2990 C.3   1 <1>   0.0400 
 15 C        2.1480     6.8310     0.7650 C.3   1 <1>   0.5240 
 16 C        2.5330     8.2610     0.4060 C.2   1 <1>   0.0460 
 17 N        3.2550     8.5070    -0.7090 N.2   1 <1>  -0.5650 
 18 C        2.2430     9.4120     1.0540 C.2   1 <1>  -0.3020 
 19 C        3.3980     9.7940    -0.7080 C.2   1 <1>   0.0360 
 20 N        2.8050    10.4060     0.3390 N.pl3 1 <1>   0.0330 
 21 H        1.4180     1.0750     1.9880 H     1 <1>   0.1500 
 22 H       -1.0840     2.6430    -0.2120 H     1 <1>   0.0800 
 23 H       -0.2340     3.2250     1.1920 H     1 <1>   0.0800 
 24 H        3.9600    -0.3530     1.3540 H     1 <1>   0.0800 
 25 H        3.7810    -1.2520    -0.1350 H     1 <1>   0.0800 
 26 H        2.6780    -1.5360     1.1900 H     1 <1>   0.0800 
 27 H        0.2900     3.9590    -1.7050 H     1 <1>   0.0800 
 28 H       -1.4530     5.4730    -1.0090 H     1 <1>   0.0800 
 29 H        2.4490     4.1750    -1.0090 H     1 <1>   0.0800 
 30 H        1.9940     4.3880     0.6720 H     1 <1>   0.0800 
 31 H        0.1590     7.5420    -0.5740 H     1 <1>   0.0800 
 32 H        0.4130     6.6010    -2.0350 H     1 <1>   0.0800 
 33 H        2.5000     6.4750    -1.1700 H     1 <1>   0.4500 
 34 H       -2.1120     5.8140     2.3660 H     1 <1>   0.0800 
 35 H       -2.5160     4.7240     1.0470 H     1 <1>   0.0800 
 36 H       -2.6010     6.4760     0.8130 H     1 <1>   0.0800 
 37 H        1.3270     6.8180     1.4630 H     1 <1>   0.0800 
 38 H        3.0010     6.3500     1.2130 H     1 <1>   0.0800 
 39 H        1.6890     9.5850     1.9610 H     1 <1>   0.1500 
 40 H        3.9360    10.3470    -1.4600 H     1 <1>   0.1500 
 41 H        2.7960    11.4120     0.5410 H     1 <1>   0.2700 
@<TRIPOS>BOND
  1   1   2  1   
  2   1   3  1   
  3   2   4  2   
  4   3   5  2   
  5   3   6  1   
  6   4   5  1   
  7   4   7  1   
  8   5  21  1   
  9   6   8  1   
 10   6  22  1   
 11   6  23  1   
 12   7  24  1   
 13   7  25  1   
 14   7  26  1   
 15   8   9  1   
 16   8  10  1   
 17   8  27  1   
 18   9  11  1   
 19   9  12  1   
 20   9  28  1   
 21  10  13  1   
 22  10  29  1   
 23  10  30  1   
 24  11  14  1   
 25  12  13  1   
 26  12  31  1   
 27  12  32  1   
 28  13  15  1   
 29  13  33  1   
 30  14  34  1   
 31  14  35  1   
 32  14  36  1   
 33  15  16  1   
 34  15  37  1   
 35  15  38  1   
 36  16  17  1   
 37  16  18  2   
 38  17  19  2   
 39  18  20  1   
 40  18  39  1   
 41  19  20  1   
 42  19  40  1   
 43  20  41  1   
@<TRIPOS>SUBSTRUCTURE
  1 ****  10 GROUP 4 **** **** 0

# MOE 2024.06 (io_trps.svl 2023.06)
