@<TRIPOS>MOLECULE
NONAME
43 45 1 0 0 
SMALL
USER_CHARGES


@<TRIPOS>ATOM
  1 S        0.3340    -0.8410     1.5030 S.3   1 <1>  -0.0800 
  2 C        0.1550    -2.3240     0.5860 C.2   1 <1>  -0.1100 
  3 C       -1.1790    -0.2180     0.8750 C.2   1 <1>  -0.1100 
  4 C       -0.9920    -2.3150    -0.1230 C.2   1 <1>  -0.1810 
  5 C       -1.7470    -1.1040     0.0370 C.2   1 <1>  -0.1500 
  6 C       -1.4710    -3.4420    -1.0120 C.3   1 <1>   0.5240 
  7 N       -2.3380    -4.3260    -0.1870 N.4   1 <1>  -0.9590 
  8 C       -2.4790    -5.7060    -0.7680 C.3   1 <1>   0.3430 
  9 C       -3.6720    -3.7070     0.0050 C.3   1 <1>   0.3430 
 10 C       -3.6790    -6.5980    -0.2720 C.3   1 <1>   0.4230 
 11 C       -4.4820    -4.7160     0.7880 C.3   1 <1>  -0.1600 
 12 N       -3.5420    -7.5310     0.9110 N.4   1 <1>  -0.9590 
 13 C       -5.0700    -5.8760    -0.1550 C.3   1 <1>  -0.1060 
 14 C       -4.8590    -8.2680     1.0760 C.3   1 <1>   0.3430 
 15 C       -2.4190    -8.5120     0.7980 C.3   1 <1>   0.2630 
 16 C       -6.4230    -5.1660    -0.1220 C.2   1 <1>   0.9060 
 17 C       -5.7180    -7.0550    -1.0300 C.3   1 <1>  -0.1600 
 18 C       -5.5980    -8.4130    -0.2730 C.3   1 <1>  -0.1600 
 19 O       -7.2330    -5.4950     0.7470 O.co2 1 <1>  -0.9000 
 20 O       -6.5710    -4.2370    -0.9210 O.co2 1 <1>  -0.9000 
 21 H        0.9480    -3.0450     0.6900 H     1 <1>   0.1500 
 22 H       -1.4820     0.7620     1.2010 H     1 <1>   0.1500 
 23 H       -2.6770    -0.9320    -0.4800 H     1 <1>   0.1500 
 24 H       -0.6130    -3.9910    -1.3650 H     1 <1>   0.0800 
 25 H       -2.0080    -3.0530    -1.8630 H     1 <1>   0.0800 
 26 H       -1.8940    -4.3560     0.7400 H     1 <1>   0.4500 
 27 H       -2.6350    -5.5830    -1.8280 H     1 <1>   0.0800 
 28 H       -1.5580    -6.2510    -0.6510 H     1 <1>   0.0800 
 29 H       -3.5870    -2.7920     0.5690 H     1 <1>   0.0800 
 30 H       -4.1630    -3.4950    -0.9340 H     1 <1>   0.0800 
 31 H       -3.6940    -7.2830    -1.1020 H     1 <1>   0.0800 
 32 H       -3.8980    -5.0960     1.6070 H     1 <1>   0.0800 
 33 H       -5.2070    -4.1180     1.3310 H     1 <1>   0.0800 
 34 H       -3.4390    -6.9730     1.7700 H     1 <1>   0.4500 
 35 H       -4.7090    -9.2340     1.5300 H     1 <1>   0.0800 
 36 H       -5.5000    -7.6930     1.7290 H     1 <1>   0.0800 
 37 H       -2.5440    -9.1260    -0.0800 H     1 <1>   0.0800 
 38 H       -2.4020    -9.1570     1.6620 H     1 <1>   0.0800 
 39 H       -1.4710    -8.0030     0.7370 H     1 <1>   0.0800 
 40 H       -6.7720    -6.9740    -1.2780 H     1 <1>   0.0800 
 41 H       -5.2780    -7.1130    -2.0150 H     1 <1>   0.0800 
 42 H       -5.1090    -9.1470    -0.8890 H     1 <1>   0.0800 
 43 H       -6.5890    -8.7830    -0.0660 H     1 <1>   0.0800 
@<TRIPOS>BOND
  1   1   2  1   
  2   1   3  1   
  3   2   4  2   
  4   2  21  1   
  5   3   5  2   
  6   3  22  1   
  7   4   5  1   
  8   4   6  1   
  9   5  23  1   
 10   6   7  1   
 11   6  24  1   
 12   6  25  1   
 13   7   8  1   
 14   7   9  1   
 15   7  26  1   
 16   8  10  1   
 17   8  27  1   
 18   8  28  1   
 19   9  11  1   
 20   9  29  1   
 21   9  30  1   
 22  10  12  1   
 23  10  13  1   
 24  10  31  1   
 25  11  13  1   
 26  11  32  1   
 27  11  33  1   
 28  12  14  1   
 29  12  15  1   
 30  12  34  1   
 31  13  16  1   
 32  13  17  1   
 33  14  18  1   
 34  14  35  1   
 35  14  36  1   
 36  15  37  1   
 37  15  38  1   
 38  15  39  1   
 39  16  19  ar  
 40  16  20  ar  
 41  17  18  1   
 42  17  40  1   
 43  17  41  1   
 44  18  42  1   
 45  18  43  1   
@<TRIPOS>SUBSTRUCTURE
  1 ****   9 GROUP 4 **** **** 0

# MOE 2024.06 (io_trps.svl 2023.06)
