@<TRIPOS>MOLECULE
NONAME
51 54 1 0 0 
SMALL
USER_CHARGES


@<TRIPOS>ATOM
  1 O       -0.8830     1.3270     1.7520 O.2   1 <1>  -0.5700 
  2 C       -0.3290     2.1130     1.0180 C.2   1 <1>   0.5690 
  3 N       -0.8940     2.5400    -0.1720 N.am  1 <1>  -0.4770 
  4 C        1.0420     2.6410     1.4740 C.3   1 <1>   0.2700 
  5 C       -2.1640     2.1310    -0.6190 C.ar  1 <1>   0.1170 
  6 C       -0.0880     3.3510    -1.1330 C.3   1 <1>   0.1400 
  7 N        1.8210     3.4380     0.4560 N.pl3 1 <1>  -0.8380 
  8 C       -2.4580     0.7840    -0.7900 C.ar  1 <1>  -0.1500 
  9 C       -3.1460     3.0730    -0.9090 C.ar  1 <1>  -0.1500 
 10 C        0.9420     4.2470    -0.4340 C.3   1 <1>   0.2090 
 11 C        3.0370     3.9630     0.8690 C.ar  1 <1>   0.4100 
 12 C       -3.7050     0.3820    -1.2540 C.ar  1 <1>   0.0830 
 13 C       -4.3870     2.6820    -1.3770 C.ar  1 <1>  -0.1500 
 14 N        3.1370     5.2810     0.8970 N.ar  1 <1>  -0.6200 
 15 C        4.0930     3.1190     1.2470 C.ar  1 <1>   0.1600 
 16 O       -4.0590    -0.9150    -1.4370 O.3   1 <1>  -0.3630 
 17 C       -4.6630     1.3380    -1.5520 C.ar  1 <1>  -0.1500 
 18 C        4.3260     5.7330     1.3340 C.ar  1 <1>   0.3960 
 19 N        5.2670     3.5240     1.6820 N.ar  1 <1>  -0.6200 
 20 C       -3.2400    -1.9610    -0.9620 C.3   1 <1>   0.0400 
 21 C        4.6110     7.1670     1.4380 C.2   1 <1>   0.5440 
 22 C        5.3400     4.8470     1.7160 C.ar  1 <1>   0.1600 
 23 O        5.3850     7.5500     2.3010 O.2   1 <1>  -0.5700 
 24 N        4.0810     8.1320     0.5980 N.am  1 <1>  -0.6600 
 25 C        3.2210     7.8860    -0.5820 C.3   1 <1>   0.1400 
 26 C        4.4730     9.5580     0.6720 C.3   1 <1>   0.1400 
 27 C        2.9820     9.2600    -1.1980 C.3   1 <1>  -0.1600 
 28 C        4.1390    10.1220    -0.7030 C.3   1 <1>  -0.1600 
 29 H        1.6270     1.7940     1.7820 H     1 <1>   0.0800 
 30 H        0.8800     3.2560     2.3420 H     1 <1>   0.0800 
 31 H       -0.7400     3.9680    -1.7240 H     1 <1>   0.0800 
 32 H        0.4260     2.6820    -1.8010 H     1 <1>   0.0800 
 33 H       -1.6970     0.0690    -0.5510 H     1 <1>   0.1500 
 34 H       -2.9400     4.1170    -0.7620 H     1 <1>   0.1500 
 35 H        0.4370     5.0030     0.1440 H     1 <1>   0.0800 
 36 H        1.5430     4.7420    -1.1790 H     1 <1>   0.0800 
 37 H       -5.1400     3.4180    -1.6010 H     1 <1>   0.1500 
 38 H        3.9320     2.0600     1.1730 H     1 <1>   0.1500 
 39 H       -5.6240     1.0190    -1.9140 H     1 <1>   0.1500 
 40 H       -3.7530    -2.8900    -1.1320 H     1 <1>   0.0800 
 41 H       -3.0730    -1.8220     0.0920 H     1 <1>   0.0800 
 42 H       -2.3120    -1.9520    -1.5040 H     1 <1>   0.0800 
 43 H        6.2670     5.2660     2.0680 H     1 <1>   0.1500 
 44 H        2.2900     7.4320    -0.2880 H     1 <1>   0.0800 
 45 H        3.7400     7.2440    -1.2730 H     1 <1>   0.0800 
 46 H        5.5210     9.6640     0.9000 H     1 <1>   0.0800 
 47 H        3.8870    10.0410     1.4340 H     1 <1>   0.0800 
 48 H        2.0520     9.6530    -0.8240 H     1 <1>   0.0800 
 49 H        2.9350     9.2150    -2.2720 H     1 <1>   0.0800 
 50 H        4.9920     9.9960    -1.3470 H     1 <1>   0.0800 
 51 H        3.8860    11.1660    -0.6560 H     1 <1>   0.0800 
@<TRIPOS>BOND
  1   1   2  2   
  2   2   3  am  
  3   2   4  1   
  4   3   5  1   
  5   3   6  1   
  6   4   7  1   
  7   4  29  1   
  8   4  30  1   
  9   5   8  ar  
 10   5   9  ar  
 11   6  10  1   
 12   6  31  1   
 13   6  32  1   
 14   7  10  1   
 15   7  11  1   
 16   8  12  ar  
 17   8  33  1   
 18   9  13  ar  
 19   9  34  1   
 20  10  35  1   
 21  10  36  1   
 22  11  14  ar  
 23  11  15  ar  
 24  12  16  1   
 25  12  17  ar  
 26  13  17  ar  
 27  13  37  1   
 28  14  18  ar  
 29  15  19  ar  
 30  15  38  1   
 31  16  20  1   
 32  17  39  1   
 33  18  21  1   
 34  18  22  ar  
 35  19  22  ar  
 36  20  40  1   
 37  20  41  1   
 38  20  42  1   
 39  21  23  2   
 40  21  24  am  
 41  22  43  1   
 42  24  25  1   
 43  24  26  1   
 44  25  27  1   
 45  25  44  1   
 46  25  45  1   
 47  26  28  1   
 48  26  46  1   
 49  26  47  1   
 50  27  28  1   
 51  27  48  1   
 52  27  49  1   
 53  28  50  1   
 54  28  51  1   
@<TRIPOS>SUBSTRUCTURE
  1 ****  10 GROUP 4 **** **** 0

# MOE 2024.06 (io_trps.svl 2023.06)
