@<TRIPOS>MOLECULE
NONAME
53 56 1 0 0 
SMALL
USER_CHARGES


@<TRIPOS>ATOM
  1 O       -0.9820     0.6150    -0.7430 O.2   1 <1>  -0.5700 
  2 C       -0.7290     1.7560    -0.4310 C.2   1 <1>   0.5690 
  3 N       -1.6640     2.6060     0.1020 N.am  1 <1>  -0.5090 
  4 C        0.6950     2.2570    -0.6890 C.3   1 <1>   0.1810 
  5 C       -1.3570     4.0540     0.3310 C.3   1 <1>   0.3640 
  6 C       -3.0120     2.1480     0.5250 C.3   1 <1>   0.0490 
  7 O        0.9870     3.4790    -0.0560 O.3   1 <1>  -0.5600 
  8 C       -2.4480     4.9420    -0.2670 C.ar  1 <1>  -0.1440 
  9 C        0.0070     4.4770    -0.2620 C.3   1 <1>   0.2610 
 10 C       -3.4330     2.3600     1.9460 C.3   1 <1>  -0.2000 
 11 C       -3.1350     0.9810     1.4530 C.3   1 <1>  -0.2000 
 12 C       -2.9290     6.0230     0.4610 C.ar  1 <1>   0.1600 
 13 C       -2.9640     4.7160    -1.5310 C.ar  1 <1>  -0.1500 
 14 C        0.4480     5.8350     0.3080 C.2   1 <1>   0.5690 
 15 N       -3.8570     6.8680     0.0400 N.ar  1 <1>  -0.6200 
 16 C       -3.9320     5.5860    -1.9820 C.ar  1 <1>  -0.1500 
 17 O        0.1220     6.1040     1.4440 O.2   1 <1>  -0.5700 
 18 N        1.1470     6.7240    -0.4830 N.am  1 <1>  -0.6600 
 19 C       -4.3370     6.6300    -1.1680 C.ar  1 <1>   0.1600 
 20 C        1.2320     8.1880    -0.1970 C.3   1 <1>   0.2200 
 21 C        1.9240     6.2990    -1.6820 C.3   1 <1>   0.0600 
 22 C        2.1280     8.4730     1.0150 C.3   1 <1>  -0.1600 
 23 C       -0.1590     8.8220    -0.0430 C.3   1 <1>  -0.1600 
 24 C        2.2390     9.9850     1.2680 C.3   1 <1>  -0.1600 
 25 C       -0.0430    10.3330     0.2040 C.3   1 <1>  -0.1600 
 26 C        0.8510    10.6260     1.4180 C.3   1 <1>  -0.1600 
 27 H        0.8440     2.3770    -1.7460 H     1 <1>   0.0800 
 28 H        1.3950     1.5280    -0.3240 H     1 <1>   0.0800 
 29 H       -1.3280     4.2020     1.3960 H     1 <1>   0.0800 
 30 H       -3.7500     2.2550    -0.2530 H     1 <1>   0.1000 
 31 H       -0.1130     4.5920    -1.3230 H     1 <1>   0.0800 
 32 H       -2.7510     2.7930     2.6560 H     1 <1>   0.1000 
 33 H       -4.4580     2.6170     2.1470 H     1 <1>   0.1000 
 34 H       -3.9520     0.2970     1.3070 H     1 <1>   0.1000 
 35 H       -2.2360     0.4870     1.7760 H     1 <1>   0.1000 
 36 H       -2.5260     6.2110     1.4430 H     1 <1>   0.1500 
 37 H       -2.6340     3.8930    -2.1420 H     1 <1>   0.1500 
 38 H       -4.3730     5.4600    -2.9540 H     1 <1>   0.1500 
 39 H       -5.0950     7.3040    -1.5300 H     1 <1>   0.1500 
 40 H        1.6910     8.6650    -1.0470 H     1 <1>   0.0800 
 41 H        2.8800     6.7950    -1.6880 H     1 <1>   0.0800 
 42 H        1.3870     6.5620    -2.5760 H     1 <1>   0.0800 
 43 H        2.1050     5.2390    -1.6700 H     1 <1>   0.0800 
 44 H        1.7150     8.0080     1.8920 H     1 <1>   0.0800 
 45 H        3.1070     8.0640     0.8440 H     1 <1>   0.0800 
 46 H       -0.7390     8.6460    -0.9320 H     1 <1>   0.0800 
 47 H       -0.6780     8.3850     0.7910 H     1 <1>   0.0800 
 48 H        2.8130    10.1580     2.1610 H     1 <1>   0.0800 
 49 H        2.7580    10.4480     0.4470 H     1 <1>   0.0800 
 50 H        0.3700    10.8100    -0.6680 H     1 <1>   0.0800 
 51 H       -1.0240    10.7440     0.3720 H     1 <1>   0.0800 
 52 H        0.9560    11.6900     1.5400 H     1 <1>   0.0800 
 53 H        0.3780    10.2390     2.3060 H     1 <1>   0.0800 
@<TRIPOS>BOND
  1   1   2  2   
  2   2   3  am  
  3   2   4  1   
  4   3   5  1   
  5   3   6  1   
  6   4   7  1   
  7   4  27  1   
  8   4  28  1   
  9   5   8  1   
 10   5   9  1   
 11   5  29  1   
 12   6  10  1   
 13   6  11  1   
 14   6  30  1   
 15   7   9  1   
 16   8  12  ar  
 17   8  13  ar  
 18   9  14  1   
 19   9  31  1   
 20  10  11  1   
 21  10  32  1   
 22  10  33  1   
 23  11  34  1   
 24  11  35  1   
 25  12  15  ar  
 26  12  36  1   
 27  13  16  ar  
 28  13  37  1   
 29  14  17  2   
 30  14  18  am  
 31  15  19  ar  
 32  16  19  ar  
 33  16  38  1   
 34  18  20  1   
 35  18  21  1   
 36  19  39  1   
 37  20  22  1   
 38  20  23  1   
 39  20  40  1   
 40  21  41  1   
 41  21  42  1   
 42  21  43  1   
 43  22  24  1   
 44  22  44  1   
 45  22  45  1   
 46  23  25  1   
 47  23  46  1   
 48  23  47  1   
 49  24  26  1   
 50  24  48  1   
 51  24  49  1   
 52  25  26  1   
 53  25  50  1   
 54  25  51  1   
 55  26  52  1   
 56  26  53  1   
@<TRIPOS>SUBSTRUCTURE
  1 ****   9 GROUP 4 **** **** 0

# MOE 2024.06 (io_trps.svl 2023.06)
