@<TRIPOS>MOLECULE
NONAME
50 53 1 0 0 
SMALL
USER_CHARGES


@<TRIPOS>ATOM
  1 F        0.7660     2.5190    -0.9730 F     1 <1>  -0.1900 
  2 C        2.0450     2.8280    -0.9310 C.ar  1 <1>   0.1900 
  3 C        2.9670     2.0460    -0.2370 C.ar  1 <1>   0.4100 
  4 C        2.4800     3.9400    -1.5960 C.ar  1 <1>   0.1600 
  5 N        4.2430     2.3860    -0.2430 N.ar  1 <1>  -0.6200 
  6 N        2.6260     0.9030     0.4770 N.pl3 1 <1>  -0.8380 
  7 N        3.7530     4.2890    -1.5960 N.ar  1 <1>  -0.6200 
  8 C        4.5560     3.4790    -0.9150 C.ar  1 <1>   0.7200 
  9 C        1.6280     0.9900     1.5850 C.3   1 <1>   0.2090 
 10 C        3.6510    -0.1570     0.7280 C.3   1 <1>   0.2090 
 11 N        5.8690     3.7890    -0.8700 N.pl3 1 <1>  -0.8690 
 12 C        1.0630    -0.4030     1.9200 C.3   1 <1>   0.1200 
 13 C        2.9810    -1.4870     1.1180 C.3   1 <1>   0.1200 
 14 C        6.5730     4.5040    -1.9600 C.3   1 <1>   0.3890 
 15 O        2.0950    -1.3110     2.1900 O.3   1 <1>  -0.5600 
 16 C        7.6590     5.4060    -1.3980 C.2   1 <1>   0.0070 
 17 N        8.8810     5.3870    -1.8120 N.2   1 <1>  -0.3380 
 18 N        7.4830     6.3230    -0.4350 N.pl3 1 <1>   0.0480 
 19 N        9.5480     6.3070    -1.1170 N.2   1 <1>  -0.3380 
 20 C        8.7030     6.8460    -0.3090 C.2   1 <1>   0.0360 
 21 C        6.2800     6.7010     0.3410 C.3   1 <1>   0.0960 
 22 C        5.3000     7.5110    -0.5120 C.3   1 <1>  -0.0170 
 23 C        4.1470     7.9940     0.3520 C.ar  1 <1>  -0.1430 
 24 C        4.0700     9.3190     0.7540 C.ar  1 <1>  -0.1500 
 25 C        3.1610     7.1050     0.7490 C.ar  1 <1>  -0.1500 
 26 C        3.0190     9.7480     1.5460 C.ar  1 <1>  -0.1500 
 27 C        2.1090     7.5330     1.5410 C.ar  1 <1>  -0.1500 
 28 C        2.0380     8.8560     1.9400 C.ar  1 <1>  -0.1500 
 29 H        1.7790     4.5520    -2.1360 H     1 <1>   0.1500 
 30 H        0.8180     1.6430     1.3150 H     1 <1>   0.0800 
 31 H        2.1040     1.3950     2.4610 H     1 <1>   0.0800 
 32 H        4.3060     0.1590     1.5220 H     1 <1>   0.0800 
 33 H        4.2440    -0.3030    -0.1580 H     1 <1>   0.0800 
 34 H        6.4200     3.0510    -0.4330 H     1 <1>   0.4000 
 35 H        0.4800    -0.7780     1.0970 H     1 <1>   0.0800 
 36 H        0.4370    -0.3490     2.7920 H     1 <1>   0.0800 
 37 H        3.7250    -2.2020     1.4200 H     1 <1>   0.0800 
 38 H        2.4340    -1.8880     0.2830 H     1 <1>   0.0800 
 39 H        5.8910     5.1010    -2.5390 H     1 <1>   0.0800 
 40 H        7.0210     3.7820    -2.6210 H     1 <1>   0.0800 
 41 H        8.9400     7.6270     0.3900 H     1 <1>   0.1500 
 42 H        6.5880     7.2890     1.1870 H     1 <1>   0.0800 
 43 H        5.8030     5.8130     0.7120 H     1 <1>   0.0800 
 44 H        4.9090     6.9020    -1.3060 H     1 <1>   0.0800 
 45 H        5.8060     8.3540    -0.9480 H     1 <1>   0.0800 
 46 H        4.8250    10.0250     0.4550 H     1 <1>   0.1500 
 47 H        3.2080     6.0740     0.4440 H     1 <1>   0.1500 
 48 H        2.9630    10.7780     1.8550 H     1 <1>   0.1500 
 49 H        1.3480     6.8370     1.8460 H     1 <1>   0.1500 
 50 H        1.2200     9.1900     2.5550 H     1 <1>   0.1500 
@<TRIPOS>BOND
  1   1   2  1   
  2   2   3  ar  
  3   2   4  ar  
  4   3   5  ar  
  5   3   6  1   
  6   4   7  ar  
  7   4  29  1   
  8   5   8  ar  
  9   6   9  1   
 10   6  10  1   
 11   7   8  ar  
 12   8  11  1   
 13   9  12  1   
 14   9  30  1   
 15   9  31  1   
 16  10  13  1   
 17  10  32  1   
 18  10  33  1   
 19  11  14  1   
 20  11  34  1   
 21  12  15  1   
 22  12  35  1   
 23  12  36  1   
 24  13  15  1   
 25  13  37  1   
 26  13  38  1   
 27  14  16  1   
 28  14  39  1   
 29  14  40  1   
 30  16  17  2   
 31  16  18  1   
 32  17  19  1   
 33  18  20  1   
 34  18  21  1   
 35  19  20  2   
 36  20  41  1   
 37  21  22  1   
 38  21  42  1   
 39  21  43  1   
 40  22  23  1   
 41  22  44  1   
 42  22  45  1   
 43  23  24  ar  
 44  23  25  ar  
 45  24  26  ar  
 46  24  46  1   
 47  25  27  ar  
 48  25  47  1   
 49  26  28  ar  
 50  26  48  1   
 51  27  28  ar  
 52  27  49  1   
 53  28  50  1   
@<TRIPOS>SUBSTRUCTURE
  1 ****   8 GROUP 4 **** **** 0

# MOE 2024.06 (io_trps.svl 2023.06)
