@<TRIPOS>MOLECULE
NONAME
52 55 1 0 0 
SMALL
USER_CHARGES


@<TRIPOS>ATOM
  1 CL      -0.7180    -0.0050     0.6230 Cl    1 <1>  -0.1770 
  2 C       -2.0580     1.0460     0.2530 C.ar  1 <1>   0.1770 
  3 C       -1.9370     2.3990     0.4440 C.ar  1 <1>  -0.1500 
  4 C       -3.2330     0.4840    -0.2330 C.ar  1 <1>  -0.1500 
  5 C       -3.0090     3.2600     0.1510 C.ar  1 <1>   0.0000 
  6 C       -4.2970     1.3060    -0.5270 C.ar  1 <1>  -0.1500 
  7 C       -4.2010     2.6920    -0.3420 C.ar  1 <1>   0.3610 
  8 C       -2.9690     4.6780     0.3170 C.ar  1 <1>  -0.1440 
  9 N       -5.2660     3.5240    -0.6320 N.ar  1 <1>  -0.1790 
 10 C       -4.0640     5.4260     0.0030 C.ar  1 <1>  -0.1500 
 11 C       -1.7030     5.3510     0.8350 C.3   1 <1>  -0.0970 
 12 C       -5.2680     4.8500    -0.4840 C.ar  1 <1>   0.4610 
 13 N       -6.3880     5.5470    -0.7850 N.pl3 1 <1>  -0.8380 
 14 C       -7.5600     5.0350    -1.5690 C.3   1 <1>   0.2090 
 15 C       -6.6510     6.9600    -0.3580 C.3   1 <1>   0.2090 
 16 C       -8.7870     5.0000    -0.6610 C.3   1 <1>  -0.1600 
 17 C       -7.8770     6.9830     0.5590 C.3   1 <1>  -0.1600 
 18 C       -9.1340     6.4030    -0.1200 C.3   1 <1>   0.2800 
 19 O       -9.4200     7.1890    -1.2560 O.3   1 <1>  -0.5600 
 20 C      -10.3480     6.4130     0.8630 C.3   1 <1>   0.2000 
 21 C      -10.1610     8.3610    -1.0600 C.3   1 <1>   0.1200 
 22 O      -10.4300     5.2520     1.6380 O.3   1 <1>  -0.6800 
 23 C      -11.6980     6.7050     0.1560 C.3   1 <1>   0.2800 
 24 C      -11.6000     8.0240    -0.6330 C.3   1 <1>  -0.1600 
 25 O      -12.6590     6.8650     1.1390 O.3   1 <1>  -0.6800 
 26 C      -12.2160     5.5720    -0.7420 C.3   1 <1>  -0.2400 
 27 H       -1.0070     2.7830     0.8220 H     1 <1>   0.1500 
 28 H       -3.2840    -0.5840    -0.3680 H     1 <1>   0.1500 
 29 H       -5.2060     0.8710    -0.9030 H     1 <1>   0.1500 
 30 H       -6.1400     3.1110    -0.9340 H     1 <1>   0.4570 
 31 H       -4.0180     6.4910     0.1110 H     1 <1>   0.1500 
 32 H       -1.8270     6.4170     0.9010 H     1 <1>   0.0800 
 33 H       -0.8770     5.1530     0.1740 H     1 <1>   0.0800 
 34 H       -1.4600     4.9840     1.8170 H     1 <1>   0.0800 
 35 H       -7.7460     5.6960    -2.4020 H     1 <1>   0.0800 
 36 H       -7.3780     4.0590    -1.9770 H     1 <1>   0.0800 
 37 H       -5.8240     7.3870     0.1760 H     1 <1>   0.0800 
 38 H       -6.8330     7.5710    -1.2280 H     1 <1>   0.0800 
 39 H       -8.5880     4.3320     0.1570 H     1 <1>   0.0800 
 40 H       -9.6190     4.5980    -1.2040 H     1 <1>   0.0800 
 41 H       -8.0590     7.9900     0.8840 H     1 <1>   0.0800 
 42 H       -7.6570     6.4050     1.4400 H     1 <1>   0.0800 
 43 H      -10.1900     7.2160     1.5610 H     1 <1>   0.0800 
 44 H       -9.6700     8.9610    -0.3130 H     1 <1>   0.0800 
 45 H      -10.1650     8.9090    -1.9860 H     1 <1>   0.0800 
 46 H      -11.2870     5.2870     2.1150 H     1 <1>   0.4000 
 47 H      -12.2130     7.9780    -1.5140 H     1 <1>   0.0800 
 48 H      -11.9580     8.8450    -0.0370 H     1 <1>   0.0800 
 49 H      -13.5320     6.9970     0.7230 H     1 <1>   0.4000 
 50 H      -11.6030     5.4840    -1.6190 H     1 <1>   0.0800 
 51 H      -13.2200     5.7740    -1.0720 H     1 <1>   0.0800 
 52 H      -12.2020     4.6330    -0.2190 H     1 <1>   0.0800 
@<TRIPOS>BOND
  1   1   2  1   
  2   2   3  ar  
  3   2   4  ar  
  4   3   5  ar  
  5   3  27  1   
  6   4   6  ar  
  7   4  28  1   
  8   5   7  ar  
  9   5   8  ar  
 10   6   7  ar  
 11   6  29  1   
 12   7   9  ar  
 13   8  10  ar  
 14   8  11  1   
 15   9  12  ar  
 16   9  30  1   
 17  10  12  ar  
 18  10  31  1   
 19  11  32  1   
 20  11  33  1   
 21  11  34  1   
 22  12  13  1   
 23  13  14  1   
 24  13  15  1   
 25  14  16  1   
 26  14  35  1   
 27  14  36  1   
 28  15  17  1   
 29  15  37  1   
 30  15  38  1   
 31  16  18  1   
 32  16  39  1   
 33  16  40  1   
 34  17  18  1   
 35  17  41  1   
 36  17  42  1   
 37  18  19  1   
 38  18  20  1   
 39  19  21  1   
 40  20  22  1   
 41  20  23  1   
 42  20  43  1   
 43  21  24  1   
 44  21  44  1   
 45  21  45  1   
 46  22  46  1   
 47  23  24  1   
 48  23  25  1   
 49  23  26  1   
 50  24  47  1   
 51  24  48  1   
 52  25  49  1   
 53  26  50  1   
 54  26  51  1   
 55  26  52  1   
@<TRIPOS>SUBSTRUCTURE
  1 ****  13 GROUP 4 **** **** 0

# MOE 2024.06 (io_trps.svl 2023.06)
