@<TRIPOS>MOLECULE
NONAME
55 57 1 0 0 
SMALL
USER_CHARGES


@<TRIPOS>ATOM
  1 S        0.0150     0.2070     0.7250 S.o2  1 <1>   1.3330 
  2 O       -0.7430    -1.0160     0.6340 O.2   1 <1>  -0.6500 
  3 O        0.2310     0.8550     1.9990 O.2   1 <1>  -0.6500 
  4 N        1.5430    -0.0500     0.0310 N.am  1 <1>  -0.8490 
  5 C       -0.7060     1.4540    -0.3470 C.3   1 <1>  -0.0550 
  6 C        1.4880    -0.9100    -1.1610 C.3   1 <1>   0.1160 
  7 C        2.4730    -0.6530     0.9960 C.3   1 <1>   0.1160 
  8 C        0.2010     2.6940    -0.5320 C.3   1 <1>  -0.0800 
  9 C       -0.3940     3.8280    -1.3590 C.3   1 <1>   0.2000 
 10 C        0.6270     3.3730     0.7750 C.3   1 <1>   0.3430 
 11 O       -1.7110     4.0590    -0.9760 O.3   1 <1>  -0.6800 
 12 C        0.4750     5.0300    -0.9830 C.3   1 <1>   0.3430 
 13 N        0.8910     4.8110     0.4490 N.4   1 <1>  -0.9590 
 14 C        2.2890     5.2360     0.7760 C.3   1 <1>   0.4230 
 15 C        2.4220     6.7510     0.5830 C.3   1 <1>  -0.1600 
 16 C        3.3450     4.4480    -0.0190 C.3   1 <1>  -0.1600 
 17 C        3.8450     7.2000     0.8990 C.3   1 <1>   0.2090 
 18 C        4.7410     4.9610     0.3190 C.3   1 <1>   0.2090 
 19 N        4.7620     6.4130     0.0460 N.pl3 1 <1>  -0.8380 
 20 C        6.0370     6.9650    -0.1290 C.ar  1 <1>   0.1000 
 21 C        6.9850     7.1180     0.8910 C.ar  1 <1>   0.1900 
 22 C        6.4070     7.3960    -1.3970 C.ar  1 <1>  -0.1500 
 23 F        6.6930     6.7260     2.1100 F     1 <1>  -0.1900 
 24 C        8.2340     7.6670     0.6770 C.ar  1 <1>  -0.1500 
 25 C        7.6550     7.9500    -1.6320 C.ar  1 <1>  -0.1500 
 26 C        8.5700     8.0870    -0.5990 C.ar  1 <1>  -0.1500 
 27 H       -0.9050     1.0220    -1.3080 H     1 <1>   0.0800 
 28 H       -1.6520     1.7470     0.0680 H     1 <1>   0.0800 
 29 H        2.4680    -1.0030    -1.5970 H     1 <1>   0.0800 
 30 H        0.8280    -0.4890    -1.9000 H     1 <1>   0.0800 
 31 H        1.1290    -1.8940    -0.9020 H     1 <1>   0.0800 
 32 H        3.4380    -0.8030     0.5430 H     1 <1>   0.0800 
 33 H        2.0950    -1.6020     1.3400 H     1 <1>   0.0800 
 34 H        2.5990    -0.0070     1.8480 H     1 <1>   0.0800 
 35 H        1.1030     2.3740    -1.0260 H     1 <1>   0.0800 
 36 H       -0.3840     3.6320    -2.4190 H     1 <1>   0.0800 
 37 H        1.4940     2.8850     1.1930 H     1 <1>   0.0800 
 38 H       -0.1740     3.3050     1.4950 H     1 <1>   0.0800 
 39 H       -1.8200     4.2080    -0.0170 H     1 <1>   0.4000 
 40 H       -0.0640     5.9550    -1.1130 H     1 <1>   0.0800 
 41 H        1.3420     5.0420    -1.6200 H     1 <1>   0.0800 
 42 H        0.2700     5.3790     1.0400 H     1 <1>   0.4500 
 43 H        2.4670     5.0340     1.8210 H     1 <1>   0.0800 
 44 H        2.2120     7.0340    -0.4320 H     1 <1>   0.0800 
 45 H        1.7460     7.2710     1.2370 H     1 <1>   0.0800 
 46 H        3.3110     3.4030     0.2220 H     1 <1>   0.0800 
 47 H        3.2110     4.5650    -1.0780 H     1 <1>   0.0800 
 48 H        4.0790     7.0390     1.9380 H     1 <1>   0.0800 
 49 H        3.9610     8.2500     0.6810 H     1 <1>   0.0800 
 50 H        5.4780     4.4670    -0.2940 H     1 <1>   0.0800 
 51 H        4.9800     4.7790     1.3540 H     1 <1>   0.0800 
 52 H        5.7030     7.2920    -2.2020 H     1 <1>   0.1500 
 53 H        8.9270     7.7630     1.4930 H     1 <1>   0.1500 
 54 H        7.9160     8.2760    -2.6240 H     1 <1>   0.1500 
 55 H        9.5380     8.5180    -0.7890 H     1 <1>   0.1500 
@<TRIPOS>BOND
  1   1   2  2   
  2   1   3  2   
  3   1   4  am  
  4   1   5  1   
  5   4   6  1   
  6   4   7  1   
  7   5   8  1   
  8   5  27  1   
  9   5  28  1   
 10   6  29  1   
 11   6  30  1   
 12   6  31  1   
 13   7  32  1   
 14   7  33  1   
 15   7  34  1   
 16   8   9  1   
 17   8  10  1   
 18   8  35  1   
 19   9  11  1   
 20   9  12  1   
 21   9  36  1   
 22  10  13  1   
 23  10  37  1   
 24  10  38  1   
 25  11  39  1   
 26  12  13  1   
 27  12  40  1   
 28  12  41  1   
 29  13  14  1   
 30  13  42  1   
 31  14  15  1   
 32  14  16  1   
 33  14  43  1   
 34  15  17  1   
 35  15  44  1   
 36  15  45  1   
 37  16  18  1   
 38  16  46  1   
 39  16  47  1   
 40  17  19  1   
 41  17  48  1   
 42  17  49  1   
 43  18  19  1   
 44  18  50  1   
 45  18  51  1   
 46  19  20  1   
 47  20  21  ar  
 48  20  22  ar  
 49  21  23  1   
 50  21  24  ar  
 51  22  25  ar  
 52  22  52  1   
 53  24  26  ar  
 54  24  53  1   
 55  25  26  ar  
 56  25  54  1   
 57  26  55  1   
@<TRIPOS>SUBSTRUCTURE
  1 ****  16 GROUP 4 **** **** 0

# MOE 2024.06 (io_trps.svl 2023.06)
