@<TRIPOS>MOLECULE
NONAME
56 58 1 0 0 
SMALL
USER_CHARGES


@<TRIPOS>ATOM
  1 O       -0.1480    -1.3910    -1.6000 O.2   1 <1>  -0.5700 
  2 C        0.0180    -2.0560    -0.6020 C.2   1 <1>   0.5690 
  3 N        1.2640    -2.4600    -0.1970 N.am  1 <1>  -0.6600 
  4 C       -1.2510    -2.4080     0.1990 C.3   1 <1>   0.4040 
  5 C        1.5730    -3.3540     0.9660 C.3   1 <1>   0.1400 
  6 C        2.4980    -2.0490    -0.9470 C.3   1 <1>   0.1400 
  7 N       -2.4140    -1.4950    -0.1090 N.4   1 <1>  -0.9590 
  8 C        2.5300    -4.4930     0.5530 C.3   1 <1>   0.2000 
  9 C        3.4050    -3.2600    -1.2410 C.3   1 <1>   0.2000 
 10 C       -3.7440    -2.0750     0.2560 C.3   1 <1>   0.3430 
 11 C       -2.2100    -0.1260     0.4460 C.3   1 <1>   0.3430 
 12 O        3.6610    -3.9630    -0.0630 O.3   1 <1>  -0.5600 
 13 C        3.0160    -5.2980     1.7550 C.3   1 <1>  -0.2400 
 14 C        4.7580    -2.8390    -1.8090 C.3   1 <1>  -0.2400 
 15 C       -4.9030    -1.1960    -0.2580 C.3   1 <1>   0.0000 
 16 C       -3.3170     0.7990    -0.0560 C.3   1 <1>  -0.1600 
 17 C       -6.2330    -1.8420     0.1820 C.3   1 <1>   0.2000 
 18 C       -4.7170     0.2500     0.2600 C.3   1 <1>  -0.1600 
 19 C       -4.9870    -1.2660    -1.7940 C.3   1 <1>  -0.1600 
 20 O       -7.2530    -0.8980     0.0620 O.3   1 <1>  -0.5600 
 21 C       -6.4780    -2.9640    -0.8360 C.3   1 <1>  -0.1600 
 22 C       -5.7180    -2.5740    -2.1120 C.3   1 <1>  -0.1600 
 23 C       -8.3970    -1.1450     0.8200 C.3   1 <1>   0.0400 
 24 H       -1.0240    -2.3680     1.2500 H     1 <1>   0.0800 
 25 H       -1.5160    -3.4200    -0.0520 H     1 <1>   0.0800 
 26 H        2.0460    -2.7720     1.7390 H     1 <1>   0.0800 
 27 H        0.6780    -3.7850     1.3730 H     1 <1>   0.0800 
 28 H        2.2400    -1.5740    -1.8780 H     1 <1>   0.0800 
 29 H        3.0460    -1.3350    -0.3570 H     1 <1>   0.0800 
 30 H       -2.3870    -1.3710    -1.1360 H     1 <1>   0.4500 
 31 H        2.0440    -5.1530    -0.1460 H     1 <1>   0.0800 
 32 H        2.9190    -3.9250    -1.9350 H     1 <1>   0.0800 
 33 H       -3.8400    -3.0610    -0.1670 H     1 <1>   0.0800 
 34 H       -3.8170    -2.1580     1.3280 H     1 <1>   0.0800 
 35 H       -2.2290    -0.1590     1.5230 H     1 <1>   0.0800 
 36 H       -1.2530     0.2610     0.1310 H     1 <1>   0.0800 
 37 H        3.5420    -4.6610     2.4450 H     1 <1>   0.0800 
 38 H        3.6790    -6.0770     1.4240 H     1 <1>   0.0800 
 39 H        2.1860    -5.7530     2.2640 H     1 <1>   0.0800 
 40 H        5.2760    -2.2040    -1.1120 H     1 <1>   0.0800 
 41 H        4.6230    -2.3040    -2.7310 H     1 <1>   0.0800 
 42 H        5.3570    -3.7100    -2.0050 H     1 <1>   0.0800 
 43 H       -3.2040     1.7640     0.4070 H     1 <1>   0.0800 
 44 H       -3.2080     0.9430    -1.1170 H     1 <1>   0.0800 
 45 H       -6.2010    -2.1940     1.2000 H     1 <1>   0.0800 
 46 H       -5.4590     0.8990    -0.1770 H     1 <1>   0.0800 
 47 H       -4.8730     0.2660     1.3250 H     1 <1>   0.0800 
 48 H       -5.6000    -0.4510    -2.1460 H     1 <1>   0.0800 
 49 H       -4.0370    -1.2060    -2.2930 H     1 <1>   0.0800 
 50 H       -6.0830    -3.8890    -0.4550 H     1 <1>   0.0800 
 51 H       -7.5260    -3.1030    -1.0360 H     1 <1>   0.0800 
 52 H       -5.0190    -3.3480    -2.3790 H     1 <1>   0.0800 
 53 H       -6.4000    -2.4300    -2.9340 H     1 <1>   0.0800 
 54 H       -9.1070    -0.3630     0.6160 H     1 <1>   0.0800 
 55 H       -8.1410    -1.1350     1.8660 H     1 <1>   0.0800 
 56 H       -8.8200    -2.0940     0.5430 H     1 <1>   0.0800 
@<TRIPOS>BOND
  1   1   2  2   
  2   2   3  am  
  3   2   4  1   
  4   3   5  1   
  5   3   6  1   
  6   4   7  1   
  7   4  24  1   
  8   4  25  1   
  9   5   8  1   
 10   5  26  1   
 11   5  27  1   
 12   6   9  1   
 13   6  28  1   
 14   6  29  1   
 15   7  10  1   
 16   7  11  1   
 17   7  30  1   
 18   8  12  1   
 19   8  13  1   
 20   8  31  1   
 21   9  12  1   
 22   9  14  1   
 23   9  32  1   
 24  10  15  1   
 25  10  33  1   
 26  10  34  1   
 27  11  16  1   
 28  11  35  1   
 29  11  36  1   
 30  13  37  1   
 31  13  38  1   
 32  13  39  1   
 33  14  40  1   
 34  14  41  1   
 35  14  42  1   
 36  15  17  1   
 37  15  18  1   
 38  15  19  1   
 39  16  18  1   
 40  16  43  1   
 41  16  44  1   
 42  17  20  1   
 43  17  21  1   
 44  17  45  1   
 45  18  46  1   
 46  18  47  1   
 47  19  22  1   
 48  19  48  1   
 49  19  49  1   
 50  20  23  1   
 51  21  22  1   
 52  21  50  1   
 53  21  51  1   
 54  22  52  1   
 55  22  53  1   
 56  23  54  1   
 57  23  55  1   
 58  23  56  1   
@<TRIPOS>SUBSTRUCTURE
  1 ****   4 GROUP 4 **** **** 0

# MOE 2024.06 (io_trps.svl 2023.06)
