@<TRIPOS>MOLECULE
NONAME
48 50 1 0 0 
SMALL
USER_CHARGES


@<TRIPOS>ATOM
  1 CL       2.7950     0.6570    -1.6910 Cl    1 <1>  -0.1770 
  2 C        1.8710     2.1410    -1.6080 C.ar  1 <1>   0.1770 
  3 C        1.8670     2.9360    -0.4650 C.ar  1 <1>  -0.1440 
  4 C        1.1470     2.4890    -2.7330 C.ar  1 <1>  -0.1500 
  5 C        1.1140     4.1040    -0.4870 C.ar  1 <1>  -0.1500 
  6 C        2.6440     2.5860     0.8050 C.3   1 <1>   0.3640 
  7 C        0.4000     3.6530    -2.7360 C.ar  1 <1>  -0.1500 
  8 C        0.3870     4.4590    -1.6110 C.ar  1 <1>  -0.1500 
  9 N        2.1270     1.3000     1.3340 N.am  1 <1>  -0.7300 
 10 C        4.1860     2.5910     0.6040 C.3   1 <1>   0.2610 
 11 C        2.9200     0.2680     1.6980 C.2   1 <1>   0.5690 
 12 O        4.8450     1.7670     1.5620 O.3   1 <1>  -0.5600 
 13 C        4.7090     4.0300     0.6870 C.2   1 <1>   0.5690 
 14 O        2.4460    -0.7550     2.1220 O.2   1 <1>  -0.5700 
 15 C        4.4350     0.4160     1.5460 C.3   1 <1>   0.1810 
 16 O        4.3320     4.8510    -0.1170 O.2   1 <1>  -0.5700 
 17 N        5.5950     4.3600     1.6650 N.am  1 <1>  -0.7300 
 18 C        6.1850     5.7010     1.8670 C.3   1 <1>   0.1400 
 19 C        7.4480     5.8370     1.0220 C.3   1 <1>  -0.0990 
 20 C        7.8750     7.2870     0.9790 C.2   1 <1>   0.5690 
 21 O        8.6900     7.6550     1.7910 O.2   1 <1>  -0.5700 
 22 N        7.3300     8.1420     0.0630 N.am  1 <1>  -0.6600 
 23 C        6.2840     7.8150    -0.9380 C.3   1 <1>   0.1400 
 24 C        7.6710     9.5790     0.0230 C.3   1 <1>   0.1400 
 25 C        6.1060     9.0950    -1.7490 C.3   1 <1>  -0.1600 
 26 C        6.5730    10.2140    -0.8220 C.3   1 <1>  -0.1600 
 27 H        1.1690     1.8520    -3.5990 H     1 <1>   0.1500 
 28 H        1.0900     4.7550     0.3710 H     1 <1>   0.1500 
 29 H        2.4240     3.3340     1.5470 H     1 <1>   0.0800 
 30 H       -0.1670     3.9310    -3.6080 H     1 <1>   0.1500 
 31 H       -0.1900     5.3680    -1.6120 H     1 <1>   0.1500 
 32 H        1.1150     1.1760     1.3830 H     1 <1>   0.3700 
 33 H        4.4370     2.2160    -0.3690 H     1 <1>   0.0800 
 34 H        4.7500    -0.0280     0.6200 H     1 <1>   0.0800 
 35 H        4.9250    -0.0870     2.3600 H     1 <1>   0.0800 
 36 H        5.9230     3.6030     2.2760 H     1 <1>   0.3700 
 37 H        5.4670     6.4480     1.5730 H     1 <1>   0.0800 
 38 H        6.4160     5.8500     2.9080 H     1 <1>   0.0800 
 39 H        7.2740     5.4840     0.0240 H     1 <1>   0.0800 
 40 H        8.2380     5.2520     1.4550 H     1 <1>   0.0800 
 41 H        6.5880     6.9970    -1.5680 H     1 <1>   0.0800 
 42 H        5.3680     7.5620    -0.4330 H     1 <1>   0.0800 
 43 H        7.7050     9.9960     1.0150 H     1 <1>   0.0800 
 44 H        8.6310     9.6960    -0.4510 H     1 <1>   0.0800 
 45 H        6.7420     9.0490    -2.6160 H     1 <1>   0.0800 
 46 H        5.0870     9.2240    -2.0690 H     1 <1>   0.0800 
 47 H        5.7670    10.5140    -0.1750 H     1 <1>   0.0800 
 48 H        6.9300    11.0730    -1.3610 H     1 <1>   0.0800 
@<TRIPOS>BOND
  1   1   2  1   
  2   2   3  ar  
  3   2   4  ar  
  4   3   5  ar  
  5   3   6  1   
  6   4   7  ar  
  7   4  27  1   
  8   5   8  ar  
  9   5  28  1   
 10   6   9  1   
 11   6  10  1   
 12   6  29  1   
 13   7   8  ar  
 14   7  30  1   
 15   8  31  1   
 16   9  11  am  
 17   9  32  1   
 18  10  12  1   
 19  10  13  1   
 20  10  33  1   
 21  11  14  2   
 22  11  15  1   
 23  12  15  1   
 24  13  16  2   
 25  13  17  am  
 26  15  34  1   
 27  15  35  1   
 28  17  18  1   
 29  17  36  1   
 30  18  19  1   
 31  18  37  1   
 32  18  38  1   
 33  19  20  1   
 34  19  39  1   
 35  19  40  1   
 36  20  21  2   
 37  20  22  am  
 38  22  23  1   
 39  22  24  1   
 40  23  25  1   
 41  23  41  1   
 42  23  42  1   
 43  24  26  1   
 44  24  43  1   
 45  24  44  1   
 46  25  26  1   
 47  25  45  1   
 48  25  46  1   
 49  26  47  1   
 50  26  48  1   
@<TRIPOS>SUBSTRUCTURE
  1 ****  16 GROUP 4 **** **** 0

# MOE 2024.06 (io_trps.svl 2023.06)
