@<TRIPOS>MOLECULE
NONAME
49 52 1 0 0 
SMALL
USER_CHARGES


@<TRIPOS>ATOM
  1 O       -0.2750     0.3450     0.3350 O.2   1 <1>  -0.5700 
  2 C       -1.3520     0.8990     0.2400 C.2   1 <1>   0.5440 
  3 N       -2.4890     0.1250     0.1630 N.am  1 <1>  -0.6600 
  4 C       -1.4020     2.3360     0.1960 C.ar  1 <1>   0.0860 
  5 C       -3.7650     0.5510    -0.4700 C.3   1 <1>   0.1400 
  6 C       -2.4280    -1.3590     0.2500 C.3   1 <1>   0.1400 
  7 C       -0.4980     3.0760    -0.5400 C.ar  1 <1>   0.1600 
  8 C       -2.3370     3.0820     0.8850 C.ar  1 <1>   0.1600 
  9 C       -4.4360    -0.7470    -0.9220 C.3   1 <1>   0.2000 
 10 C       -3.8540    -1.8400    -0.0290 C.3   1 <1>  -0.0800 
 11 N       -0.5330     4.3840    -0.6190 N.ar  1 <1>  -0.6200 
 12 N       -2.4040     4.3890     0.8270 N.ar  1 <1>  -0.6200 
 13 O       -5.8120    -0.6940    -0.7690 O.3   1 <1>  -0.6800 
 14 C       -3.9380    -3.2350    -0.6730 C.3   1 <1>  -0.0170 
 15 C       -1.4940     5.0020     0.0690 C.ar  1 <1>   0.7200 
 16 C       -3.4340    -4.3240     0.2610 C.ar  1 <1>   0.1670 
 17 N       -1.5500     6.3720    -0.0080 N.pl3 1 <1>  -0.8380 
 18 N       -2.1220    -4.4850     0.3290 N.ar  1 <1>  -0.6200 
 19 C       -4.3410    -5.0920     0.9900 C.ar  1 <1>   0.1600 
 20 C       -2.5670     7.2060     0.7060 C.3   1 <1>   0.2090 
 21 C       -0.5730     7.2000    -0.7840 C.3   1 <1>   0.2090 
 22 C       -1.7820    -5.4510     1.1660 C.ar  1 <1>   0.1600 
 23 N       -4.0030    -6.0560     1.8310 N.ar  1 <1>  -0.6200 
 24 C       -1.8850     8.3400     1.4920 C.3   1 <1>   0.1200 
 25 C       -0.0080     8.3350     0.0880 C.3   1 <1>   0.1200 
 26 C       -2.6910    -6.2100     1.8930 C.ar  1 <1>   0.1600 
 27 O       -1.0380     9.0910     0.6660 O.3   1 <1>  -0.5600 
 28 H       -4.3740     1.0550     0.2590 H     1 <1>   0.0800 
 29 H       -3.5790     1.1950    -1.3120 H     1 <1>   0.0800 
 30 H       -1.7440    -1.7290    -0.4970 H     1 <1>   0.0800 
 31 H       -2.0860    -1.6720     1.2220 H     1 <1>   0.0800 
 32 H        0.2760     2.5560    -1.0800 H     1 <1>   0.1500 
 33 H       -3.0510     2.5730     1.5080 H     1 <1>   0.1500 
 34 H       -4.2140    -0.9300    -1.9600 H     1 <1>   0.0800 
 35 H       -4.3750    -1.8490     0.9120 H     1 <1>   0.0800 
 36 H       -6.0500    -0.5370     0.1650 H     1 <1>   0.4000 
 37 H       -3.3590    -3.2580    -1.5810 H     1 <1>   0.0800 
 38 H       -4.9600    -3.4390    -0.9390 H     1 <1>   0.0800 
 39 H       -5.3930    -4.8990     0.8760 H     1 <1>   0.1500 
 40 H       -3.2400     7.6340    -0.0160 H     1 <1>   0.0800 
 41 H       -3.1520     6.6180     1.3900 H     1 <1>   0.0800 
 42 H        0.2470     6.6080    -1.1480 H     1 <1>   0.0800 
 43 H       -1.0720     7.6260    -1.6370 H     1 <1>   0.0800 
 44 H       -0.7320    -5.6520     1.2840 H     1 <1>   0.1500 
 45 H       -1.3050     7.9340     2.3030 H     1 <1>   0.0800 
 46 H       -2.6250     9.0070     1.8960 H     1 <1>   0.0800 
 47 H        0.5900     8.9990    -0.5090 H     1 <1>   0.0800 
 48 H        0.6040     7.9300     0.8750 H     1 <1>   0.0800 
 49 H       -2.3170    -6.9740     2.5500 H     1 <1>   0.1500 
@<TRIPOS>BOND
  1   1   2  2   
  2   2   3  am  
  3   2   4  1   
  4   3   5  1   
  5   3   6  1   
  6   4   7  ar  
  7   4   8  ar  
  8   5   9  1   
  9   5  28  1   
 10   5  29  1   
 11   6  10  1   
 12   6  30  1   
 13   6  31  1   
 14   7  11  ar  
 15   7  32  1   
 16   8  12  ar  
 17   8  33  1   
 18   9  10  1   
 19   9  13  1   
 20   9  34  1   
 21  10  14  1   
 22  10  35  1   
 23  11  15  ar  
 24  12  15  ar  
 25  13  36  1   
 26  14  16  1   
 27  14  37  1   
 28  14  38  1   
 29  15  17  1   
 30  16  18  ar  
 31  16  19  ar  
 32  17  20  1   
 33  17  21  1   
 34  18  22  ar  
 35  19  23  ar  
 36  19  39  1   
 37  20  24  1   
 38  20  40  1   
 39  20  41  1   
 40  21  25  1   
 41  21  42  1   
 42  21  43  1   
 43  22  26  ar  
 44  22  44  1   
 45  23  26  ar  
 46  24  27  1   
 47  24  45  1   
 48  24  46  1   
 49  25  27  1   
 50  25  47  1   
 51  25  48  1   
 52  26  49  1   
@<TRIPOS>SUBSTRUCTURE
  1 ****   2 GROUP 4 **** **** 0

# MOE 2024.06 (io_trps.svl 2023.06)
