@<TRIPOS>MOLECULE
NONAME
38 39 1 0 0 
SMALL
USER_CHARGES


@<TRIPOS>ATOM
  1 F        1.2110    -1.2250     0.7800 F     1 <1>  -0.3400 
  2 C        0.3160    -0.2690     0.5610 C.3   1 <1>   1.3000 
  3 F        0.2260    -0.0730    -0.7500 F     1 <1>  -0.3400 
  4 F        0.7760     0.8480     1.1050 F     1 <1>  -0.3400 
  5 O       -0.9400    -0.5980     1.1200 O.3   1 <1>  -0.3620 
  6 C       -1.5560    -1.7070     0.6620 C.ar  1 <1>   0.0830 
  7 C       -1.3250    -2.9290     1.2720 C.ar  1 <1>  -0.1500 
  8 C       -2.4340    -1.6170    -0.4070 C.ar  1 <1>  -0.1500 
  9 C       -1.9660    -4.0630     0.8070 C.ar  1 <1>  -0.1500 
 10 C       -3.0740    -2.7530    -0.8710 C.ar  1 <1>  -0.1500 
 11 C       -2.8470    -3.9810    -0.2630 C.ar  1 <1>  -0.1430 
 12 C       -3.5540    -5.2320    -0.7530 C.3   1 <1>   0.4870 
 13 N       -4.9480    -5.2050    -0.2210 N.4   1 <1>  -0.9590 
 14 C       -4.9530    -5.5790     1.2430 C.3   1 <1>   0.3430 
 15 C       -5.8360    -6.0680    -1.0760 C.3   1 <1>   0.3430 
 16 C       -4.7430    -7.0890     1.5190 C.3   1 <1>   0.2000 
 17 C       -6.5440    -7.1640    -0.2660 C.3   1 <1>  -0.1600 
 18 O       -3.3850    -7.3520     1.5250 O.3   1 <1>  -0.6800 
 19 C       -5.4930    -7.9930     0.5040 C.3   1 <1>  -0.1860 
 20 C       -4.6140    -8.6830    -0.5290 C.2   1 <1>   0.9060 
 21 O       -5.0180    -9.7210    -1.0380 O.co2 1 <1>  -0.9000 
 22 O       -3.5830    -8.1100    -0.9110 O.co2 1 <1>  -0.9000 
 23 H       -0.6460    -2.9950     2.1060 H     1 <1>   0.1500 
 24 H       -2.6110    -0.6620    -0.8720 H     1 <1>   0.1500 
 25 H       -1.7730    -5.0130     1.2830 H     1 <1>   0.1500 
 26 H       -3.7440    -2.6690    -1.7100 H     1 <1>   0.1500 
 27 H       -3.0230    -6.1020    -0.4110 H     1 <1>   0.0800 
 28 H       -3.5610    -5.2480    -1.8300 H     1 <1>   0.0800 
 29 H       -5.2450    -4.2290    -0.2980 H     1 <1>   0.4500 
 30 H       -4.2080    -5.0170     1.7810 H     1 <1>   0.0800 
 31 H       -5.9130    -5.3120     1.6500 H     1 <1>   0.0800 
 32 H       -6.5740    -5.4590    -1.5720 H     1 <1>   0.0800 
 33 H       -5.2410    -6.5490    -1.8380 H     1 <1>   0.0800 
 34 H       -5.0940    -7.2990     2.5140 H     1 <1>   0.0800 
 35 H       -7.2750    -6.7400     0.3990 H     1 <1>   0.0800 
 36 H       -7.0680    -7.8120    -0.9490 H     1 <1>   0.0800 
 37 H       -3.1550    -7.7330     0.6220 H     1 <1>   0.4000 
 38 H       -5.9970    -8.7700     1.0490 H     1 <1>   0.0800 
@<TRIPOS>BOND
  1   1   2  1   
  2   2   3  1   
  3   2   4  1   
  4   2   5  1   
  5   5   6  1   
  6   6   7  ar  
  7   6   8  ar  
  8   7   9  ar  
  9   7  23  1   
 10   8  10  ar  
 11   8  24  1   
 12   9  11  ar  
 13   9  25  1   
 14  10  11  ar  
 15  10  26  1   
 16  11  12  1   
 17  12  13  1   
 18  12  27  1   
 19  12  28  1   
 20  13  14  1   
 21  13  15  1   
 22  13  29  1   
 23  14  16  1   
 24  14  30  1   
 25  14  31  1   
 26  15  17  1   
 27  15  32  1   
 28  15  33  1   
 29  16  18  1   
 30  16  19  1   
 31  16  34  1   
 32  17  19  1   
 33  17  35  1   
 34  17  36  1   
 35  18  37  1   
 36  19  20  1   
 37  19  38  1   
 38  20  21  ar  
 39  20  22  ar  
@<TRIPOS>SUBSTRUCTURE
  1 ****  11 GROUP 4 **** **** 0

# MOE 2024.06 (io_trps.svl 2023.06)
