@<TRIPOS>MOLECULE
NONAME
48 51 1 0 0 
SMALL
USER_CHARGES


@<TRIPOS>ATOM
  1 O        0.1650     0.2350     1.4680 O.3   1 <1>  -0.5600 
  2 C        0.1040    -0.9560     0.7290 C.3   1 <1>   0.1200 
  3 C        1.3590     0.9540     1.3220 C.3   1 <1>   0.1200 
  4 C        1.2440    -1.9150     1.1450 C.3   1 <1>   0.5660 
  5 C        2.5720     0.0980     1.7510 C.3   1 <1>   0.4230 
  6 N        2.5780    -1.2440     1.0530 N.4   1 <1>  -0.9590 
  7 C        1.2870    -3.2330     0.3740 C.ar  1 <1>  -0.1430 
  8 C        3.9030     0.8610     1.5280 C.3   1 <1>   0.1100 
  9 C        3.1450    -1.1450    -0.3350 C.3   1 <1>   0.3430 
 10 C        0.8380    -3.3630    -0.9380 C.ar  1 <1>  -0.1500 
 11 C        1.8120    -4.3480     1.0150 C.ar  1 <1>  -0.1500 
 12 N        4.9700    -0.0250     1.0050 N.3   1 <1>  -0.8100 
 13 C        4.5850    -0.5780    -0.3170 C.3   1 <1>   0.1100 
 14 C        0.9210    -4.5810    -1.5900 C.ar  1 <1>  -0.1500 
 15 C        1.8950    -5.5640     0.3620 C.ar  1 <1>  -0.1500 
 16 C        6.2960     0.6420     0.9710 C.3   1 <1>   0.2900 
 17 C        1.4500    -5.6810    -0.9420 C.ar  1 <1>  -0.1500 
 18 C        6.3730     1.7910    -0.0290 C.2   1 <1>  -0.0400 
 19 O        5.7240     2.9160     0.2090 O.3   1 <1>  -0.2800 
 20 C        7.0450     1.8770    -1.1980 C.2   1 <1>  -0.1500 
 21 C        5.9620     3.7380    -0.7920 C.2   1 <1>  -0.0400 
 22 C        6.7730     3.1550    -1.7000 C.2   1 <1>  -0.1500 
 23 C        5.3400     5.1170    -0.7670 C.3   1 <1>  -0.0600 
 24 H       -0.8490    -1.4160     0.9260 H     1 <1>   0.0800 
 25 H        0.1550    -0.7070    -0.3150 H     1 <1>   0.0800 
 26 H        1.4470     1.2720     0.2980 H     1 <1>   0.0800 
 27 H        1.2870     1.8300     1.9440 H     1 <1>   0.0800 
 28 H        1.0630    -2.1620     2.1780 H     1 <1>   0.0800 
 29 H        2.4770    -0.0710     2.8110 H     1 <1>   0.0800 
 30 H        3.2700    -1.8070     1.5620 H     1 <1>   0.4500 
 31 H        4.2150     1.3010     2.4600 H     1 <1>   0.0800 
 32 H        3.7350     1.6680     0.8350 H     1 <1>   0.0800 
 33 H        3.1630    -2.1160    -0.8030 H     1 <1>   0.0800 
 34 H        2.5230    -0.5030    -0.9370 H     1 <1>   0.0800 
 35 H        0.4180    -2.5360    -1.4820 H     1 <1>   0.1500 
 36 H        2.1620    -4.2890     2.0320 H     1 <1>   0.1500 
 37 H        4.6550     0.1800    -1.0790 H     1 <1>   0.0800 
 38 H        5.2730    -1.3630    -0.5820 H     1 <1>   0.0800 
 39 H        0.5710    -4.6790    -2.6040 H     1 <1>   0.1500 
 40 H        2.3020    -6.4250     0.8660 H     1 <1>   0.1500 
 41 H        6.5370     1.0160     1.9520 H     1 <1>   0.0800 
 42 H        7.0430    -0.0890     0.7140 H     1 <1>   0.0800 
 43 H        1.5130    -6.6290    -1.4500 H     1 <1>   0.1500 
 44 H        7.6730     1.1460    -1.6760 H     1 <1>   0.1500 
 45 H        7.1530     3.5590    -2.6210 H     1 <1>   0.1500 
 46 H        5.6280     5.6700    -1.6430 H     1 <1>   0.0800 
 47 H        5.6720     5.6490     0.1060 H     1 <1>   0.0800 
 48 H        4.2690     5.0350    -0.7410 H     1 <1>   0.0800 
@<TRIPOS>BOND
  1   1   2  1   
  2   1   3  1   
  3   2   4  1   
  4   2  24  1   
  5   2  25  1   
  6   3   5  1   
  7   3  26  1   
  8   3  27  1   
  9   4   6  1   
 10   4   7  1   
 11   4  28  1   
 12   5   6  1   
 13   5   8  1   
 14   5  29  1   
 15   6   9  1   
 16   6  30  1   
 17   7  10  ar  
 18   7  11  ar  
 19   8  12  1   
 20   8  31  1   
 21   8  32  1   
 22   9  13  1   
 23   9  33  1   
 24   9  34  1   
 25  10  14  ar  
 26  10  35  1   
 27  11  15  ar  
 28  11  36  1   
 29  12  13  1   
 30  12  16  1   
 31  13  37  1   
 32  13  38  1   
 33  14  17  ar  
 34  14  39  1   
 35  15  17  ar  
 36  15  40  1   
 37  16  18  1   
 38  16  41  1   
 39  16  42  1   
 40  17  43  1   
 41  18  19  1   
 42  18  20  2   
 43  19  21  1   
 44  20  22  1   
 45  20  44  1   
 46  21  22  2   
 47  21  23  1   
 48  22  45  1   
 49  23  46  1   
 50  23  47  1   
 51  23  48  1   
@<TRIPOS>SUBSTRUCTURE
  1 ****   9 GROUP 4 **** **** 0

# MOE 2024.06 (io_trps.svl 2023.06)
