@<TRIPOS>MOLECULE
NONAME
46 48 1 0 0 
SMALL
USER_CHARGES


@<TRIPOS>ATOM
  1 S       -0.1580     0.4400    -0.2890 S.o2  1 <1>   1.3330 
  2 O       -0.6330     1.7710    -0.5890 O.2   1 <1>  -0.6500 
  3 O       -0.4490    -0.1450     1.0010 O.2   1 <1>  -0.6500 
  4 N       -0.7610    -0.6150    -1.4750 N.am  1 <1>  -0.8490 
  5 C        1.6080     0.4000    -0.6010 C.3   1 <1>  -0.0550 
  6 C       -2.1210    -0.2630    -1.8930 C.3   1 <1>   0.1160 
  7 C       -0.7110    -2.0270    -1.0780 C.3   1 <1>   0.1160 
  8 C        2.4300     1.3340     0.3100 C.3   1 <1>  -0.0800 
  9 C        3.8780     1.3970    -0.1480 C.3   1 <1>   0.2200 
 10 C        2.5890     0.7680     1.7220 C.3   1 <1>   0.1200 
 11 N        4.4960     2.6480     0.3440 N.am  1 <1>  -0.7300 
 12 C        4.4990     0.1950     0.5630 C.3   1 <1>   0.1200 
 13 O        3.6960    -0.0800     1.6750 O.3   1 <1>  -0.5600 
 14 C        4.6850     3.7910    -0.3880 C.2   1 <1>   0.5440 
 15 O        4.3220     3.7640    -1.5510 O.2   1 <1>  -0.5700 
 16 C        5.2610     4.9790     0.2510 C.ar  1 <1>   0.3960 
 17 N        5.0120     5.1300     1.5440 N.ar  1 <1>  -0.6200 
 18 C        6.0630     5.9150    -0.4870 C.ar  1 <1>   0.0000 
 19 C        5.4680     6.2280     2.1560 C.ar  1 <1>   0.1600 
 20 C        6.5150     7.0720     0.1790 C.ar  1 <1>   0.0000 
 21 C        6.4680     5.7710    -1.8370 C.ar  1 <1>  -0.1500 
 22 C        6.1890     7.1980     1.5340 C.ar  1 <1>  -0.1500 
 23 C        7.2770     8.0410    -0.5020 C.ar  1 <1>  -0.1500 
 24 C        7.2170     6.7160    -2.4830 C.ar  1 <1>  -0.1500 
 25 C        7.6230     7.8700    -1.8120 C.ar  1 <1>  -0.1500 
 26 H        1.9650    -0.6060    -0.4970 H     1 <1>   0.0800 
 27 H        1.7650     0.6980    -1.6200 H     1 <1>   0.0800 
 28 H       -2.4660    -0.9410    -2.6540 H     1 <1>   0.0800 
 29 H       -2.1350     0.7340    -2.3020 H     1 <1>   0.0800 
 30 H       -2.7930    -0.3000    -1.0520 H     1 <1>   0.0800 
 31 H       -1.0140    -2.6530    -1.9000 H     1 <1>   0.0800 
 32 H       -1.3660    -2.2060    -0.2410 H     1 <1>   0.0800 
 33 H        0.2910    -2.2990    -0.7960 H     1 <1>   0.0800 
 34 H        1.9780     2.3120     0.3180 H     1 <1>   0.0800 
 35 H        3.9870     1.3290    -1.2170 H     1 <1>   0.0800 
 36 H        1.7370     0.2140     2.0730 H     1 <1>   0.0800 
 37 H        2.8120     1.5560     2.4220 H     1 <1>   0.0800 
 38 H        4.6410     2.7140     1.3560 H     1 <1>   0.3700 
 39 H        5.5080     0.3850     0.8860 H     1 <1>   0.0800 
 40 H        4.4780    -0.6730    -0.0710 H     1 <1>   0.0800 
 41 H        5.2300     6.3230     3.2020 H     1 <1>   0.1500 
 42 H        6.1890     4.8940    -2.3920 H     1 <1>   0.1500 
 43 H        6.5230     8.0650     2.0740 H     1 <1>   0.1500 
 44 H        7.5890     8.9230     0.0290 H     1 <1>   0.1500 
 45 H        7.5030     6.5830    -3.5130 H     1 <1>   0.1500 
 46 H        8.2060     8.6080    -2.3360 H     1 <1>   0.1500 
@<TRIPOS>BOND
  1   1   2  2   
  2   1   3  2   
  3   1   4  am  
  4   1   5  1   
  5   4   6  1   
  6   4   7  1   
  7   5   8  1   
  8   5  26  1   
  9   5  27  1   
 10   6  28  1   
 11   6  29  1   
 12   6  30  1   
 13   7  31  1   
 14   7  32  1   
 15   7  33  1   
 16   8   9  1   
 17   8  10  1   
 18   8  34  1   
 19   9  11  1   
 20   9  12  1   
 21   9  35  1   
 22  10  13  1   
 23  10  36  1   
 24  10  37  1   
 25  11  14  am  
 26  11  38  1   
 27  12  13  1   
 28  12  39  1   
 29  12  40  1   
 30  14  15  2   
 31  14  16  1   
 32  16  17  ar  
 33  16  18  ar  
 34  17  19  ar  
 35  18  20  ar  
 36  18  21  ar  
 37  19  22  ar  
 38  19  41  1   
 39  20  22  ar  
 40  20  23  ar  
 41  21  24  ar  
 42  21  42  1   
 43  22  43  1   
 44  23  25  ar  
 45  23  44  1   
 46  24  25  ar  
 47  24  45  1   
 48  25  46  1   
@<TRIPOS>SUBSTRUCTURE
  1 ****  11 GROUP 4 **** **** 0

# MOE 2024.06 (io_trps.svl 2023.06)
