@<TRIPOS>MOLECULE
NONAME
49 51 1 0 0 
SMALL
USER_CHARGES


@<TRIPOS>ATOM
  1 O        1.5130    -0.0920     1.3110 O.3   1 <1>  -0.6800 
  2 C        1.8420    -0.0930    -0.0430 C.3   1 <1>   0.2000 
  3 C        2.5650    -1.3900    -0.4160 C.3   1 <1>  -0.0800 
  4 C        2.8840     1.0000    -0.3140 C.3   1 <1>   0.2090 
  5 C        4.0290    -1.1260    -0.0670 C.3   1 <1>   0.2090 
  6 C        2.0240    -2.6890     0.2110 C.3   1 <1>   0.0210 
  7 N        4.2210     0.3390    -0.2360 N.pl3 1 <1>  -0.8380 
  8 C        2.8670    -3.8910    -0.1770 C.2   1 <1>   0.1080 
  9 C        5.3930     0.9980    -0.2860 C.ar  1 <1>   0.4100 
 10 N        3.2550    -4.1250    -1.3920 N.2   1 <1>  -0.7070 
 11 C        3.3170    -4.8610     0.7120 C.2   1 <1>  -0.1500 
 12 N        5.3480     2.3220    -0.4870 N.ar  1 <1>  -0.6200 
 13 C        6.6250     0.3500    -0.1350 C.ar  1 <1>  -0.1500 
 14 N        3.9610    -5.2680    -1.3120 N.pl3 1 <1>   0.3000 
 15 C        4.0160    -5.7320    -0.0460 C.2   1 <1>  -0.3320 
 16 C        6.4650     2.9810    -0.5340 C.ar  1 <1>   0.5280 
 17 C        7.7800     1.0710    -0.1920 C.ar  1 <1>   0.2180 
 18 C        4.7400    -7.0000     0.3660 C.3   1 <1>  -0.0600 
 19 N        7.6750     2.3990    -0.3950 N.ar  1 <1>  -0.1790 
 20 C        6.4090     4.4850    -0.7590 C.3   1 <1>  -0.0170 
 21 C        9.1560     0.4470    -0.0370 C.3   1 <1>  -0.0970 
 22 C        6.8180     5.2820     0.4920 C.3   1 <1>  -0.1600 
 23 C        6.7450     6.7910     0.2370 C.3   1 <1>  -0.2400 
 24 H        0.7650    -0.6930     1.4850 H     1 <1>   0.4000 
 25 H        0.9410     0.0660    -0.6100 H     1 <1>   0.0800 
 26 H        2.5170    -1.4910    -1.4860 H     1 <1>   0.0800 
 27 H        2.8020     1.8020     0.4000 H     1 <1>   0.0800 
 28 H        2.7510     1.3900    -1.3070 H     1 <1>   0.0800 
 29 H        4.6790    -1.6880    -0.7160 H     1 <1>   0.0800 
 30 H        4.2190    -1.3880     0.9600 H     1 <1>   0.0800 
 31 H        1.0170    -2.8580    -0.1250 H     1 <1>   0.0800 
 32 H        2.0160    -2.6130     1.2830 H     1 <1>   0.0800 
 33 H        3.1310    -4.8900     1.7710 H     1 <1>   0.1500 
 34 H        6.6410    -0.7100     0.0270 H     1 <1>   0.1500 
 35 H        4.3880    -5.7060    -2.1380 H     1 <1>   0.2700 
 36 H        4.6380    -7.1580     1.4250 H     1 <1>   0.0800 
 37 H        5.7870    -6.9270     0.1310 H     1 <1>   0.0800 
 38 H        4.3240    -7.8490    -0.1470 H     1 <1>   0.0800 
 39 H        8.5070     2.9860    -0.4410 H     1 <1>   0.4570 
 40 H        7.0410     4.7470    -1.5880 H     1 <1>   0.0800 
 41 H        5.4010     4.7560    -1.0280 H     1 <1>   0.0800 
 42 H        9.0720    -0.6160     0.1160 H     1 <1>   0.0800 
 43 H        9.6660     0.8660     0.8130 H     1 <1>   0.0800 
 44 H        9.7460     0.6120    -0.9200 H     1 <1>   0.0800 
 45 H        6.1540     5.0340     1.3050 H     1 <1>   0.0800 
 46 H        7.8200     5.0310     0.7940 H     1 <1>   0.0800 
 47 H        5.7440     7.0820    -0.0290 H     1 <1>   0.0800 
 48 H        7.4120     7.0810    -0.5560 H     1 <1>   0.0800 
 49 H        7.0240     7.3290     1.1270 H     1 <1>   0.0800 
@<TRIPOS>BOND
  1   1   2  1   
  2   1  24  1   
  3   2   3  1   
  4   2   4  1   
  5   2  25  1   
  6   3   5  1   
  7   3   6  1   
  8   3  26  1   
  9   4   7  1   
 10   4  27  1   
 11   4  28  1   
 12   5   7  1   
 13   5  29  1   
 14   5  30  1   
 15   6   8  1   
 16   6  31  1   
 17   6  32  1   
 18   7   9  1   
 19   8  10  2   
 20   8  11  1   
 21   9  12  ar  
 22   9  13  ar  
 23  10  14  1   
 24  11  15  2   
 25  11  33  1   
 26  12  16  ar  
 27  13  17  ar  
 28  13  34  1   
 29  14  15  1   
 30  14  35  1   
 31  15  18  1   
 32  16  19  ar  
 33  16  20  1   
 34  17  19  ar  
 35  17  21  1   
 36  18  36  1   
 37  18  37  1   
 38  18  38  1   
 39  19  39  1   
 40  20  22  1   
 41  20  40  1   
 42  20  41  1   
 43  21  42  1   
 44  21  43  1   
 45  21  44  1   
 46  22  23  1   
 47  22  45  1   
 48  22  46  1   
 49  23  47  1   
 50  23  48  1   
 51  23  49  1   
@<TRIPOS>SUBSTRUCTURE
  1 ****   7 GROUP 4 **** **** 0

# MOE 2024.06 (io_trps.svl 2023.06)
