@<TRIPOS>MOLECULE
NONAME
36 37 1 0 0 
SMALL
USER_CHARGES


@<TRIPOS>ATOM
  1 O        0.0920    -0.0360    -0.0580 O.2   1 <1>  -0.5700 
  2 C        1.1890    -0.5530    -0.1680 C.2   1 <1>   0.7150 
  3 N        2.2660     0.2610    -0.2600 N.am  1 <1>  -0.7300 
  4 C        1.3800    -1.9810    -0.1960 C.2   1 <1>  -0.2370 
  5 C        2.2590     1.7140    -0.0520 C.3   1 <1>   0.3200 
  6 N        0.3730    -2.9170    -0.1270 N.pl3 1 <1>   0.0480 
  7 C        2.5660    -2.6690    -0.2940 C.2   1 <1>  -0.1500 
  8 C        3.6730     2.1840     0.2810 C.2   1 <1>   0.0060 
  9 C        0.9360    -4.1490    -0.1810 C.2   1 <1>  -0.3020 
 10 C       -1.0780    -2.6750    -0.0140 C.3   1 <1>   0.0160 
 11 C        2.2850    -4.0300    -0.2840 C.2   1 <1>  -0.1500 
 12 N        4.7200     1.4130     0.2820 N.2   1 <1>  -0.5650 
 13 N        3.9510     3.4720     0.6050 N.pl3 1 <1>   0.0480 
 14 C        5.7280     2.2360     0.6210 C.2   1 <1>   0.0770 
 15 C        5.2790     3.4920     0.8210 C.2   1 <1>  -0.3020 
 16 C        3.0380     4.6300     0.7100 C.3   1 <1>   0.0960 
 17 C        2.8730     5.3120    -0.6540 C.3   1 <1>  -0.1600 
 18 C        1.9230     6.5110    -0.5650 C.3   1 <1>  -0.2400 
 19 H        3.2120    -0.1260    -0.2070 H     1 <1>   0.3700 
 20 H        1.5900     1.9540     0.7560 H     1 <1>   0.0800 
 21 H        1.9130     2.1950    -0.9490 H     1 <1>   0.0800 
 22 H        3.5570    -2.2540    -0.3660 H     1 <1>   0.1500 
 23 H        0.3560    -5.0530    -0.1450 H     1 <1>   0.1500 
 24 H       -1.4080    -2.0990    -0.8600 H     1 <1>   0.0800 
 25 H       -1.2760    -2.1270     0.8890 H     1 <1>   0.0800 
 26 H       -1.6040    -3.6110     0.0100 H     1 <1>   0.0800 
 27 H        3.0140    -4.8200    -0.3470 H     1 <1>   0.1500 
 28 H        6.7400     1.8740     0.7050 H     1 <1>   0.1500 
 29 H        5.8220     4.3770     1.0980 H     1 <1>   0.1500 
 30 H        3.4480     5.3250     1.4210 H     1 <1>   0.0800 
 31 H        2.0850     4.2950     1.0780 H     1 <1>   0.0800 
 32 H        2.4830     4.6070    -1.3690 H     1 <1>   0.0800 
 33 H        3.8340     5.6500    -1.0030 H     1 <1>   0.0800 
 34 H        0.9460     6.1980    -0.2390 H     1 <1>   0.0800 
 35 H        1.8250     6.9740    -1.5320 H     1 <1>   0.0800 
 36 H        2.3010     7.2440     0.1250 H     1 <1>   0.0800 
@<TRIPOS>BOND
  1   1   2  2   
  2   2   3  am  
  3   2   4  1   
  4   3   5  1   
  5   3  19  1   
  6   4   6  1   
  7   4   7  2   
  8   5   8  1   
  9   5  20  1   
 10   5  21  1   
 11   6   9  1   
 12   6  10  1   
 13   7  11  1   
 14   7  22  1   
 15   8  12  2   
 16   8  13  1   
 17   9  11  2   
 18   9  23  1   
 19  10  24  1   
 20  10  25  1   
 21  10  26  1   
 22  11  27  1   
 23  12  14  1   
 24  13  15  1   
 25  13  16  1   
 26  14  15  2   
 27  14  28  1   
 28  15  29  1   
 29  16  17  1   
 30  16  30  1   
 31  16  31  1   
 32  17  18  1   
 33  17  32  1   
 34  17  33  1   
 35  18  34  1   
 36  18  35  1   
 37  18  36  1   
@<TRIPOS>SUBSTRUCTURE
  1 ****   3 GROUP 4 **** **** 0

# MOE 2024.06 (io_trps.svl 2023.06)
