@<TRIPOS>MOLECULE
NONAME
43 45 1 0 0 
SMALL
USER_CHARGES


@<TRIPOS>ATOM
  1 S        1.0690     0.4310     1.5260 S.3   1 <1>  -0.0800 
  2 C        0.7880    -0.5280     0.0660 C.2   1 <1>   0.4420 
  3 C        1.1950     1.8750     0.5500 C.ar  1 <1>   0.0400 
  4 N        0.7980     0.1560    -1.0140 N.2   1 <1>  -0.5650 
  5 N        0.5960    -1.8860     0.1300 N.am  1 <1>  -0.4940 
  6 C        1.0210     1.5110    -0.7730 C.ar  1 <1>   0.2270 
  7 C        1.4260     3.1720     0.9760 C.ar  1 <1>  -0.1500 
  8 C        0.4340    -2.7420     1.1800 C.2   1 <1>   0.5690 
  9 C        1.0900     2.5470    -1.7040 C.ar  1 <1>   0.1900 
 10 C        1.4870     4.1730     0.0180 C.ar  1 <1>  -0.1500 
 11 O        0.3340    -2.3770     2.3230 O.2   1 <1>  -0.5700 
 12 C        0.3730    -4.2310     0.9090 C.3   1 <1>  -0.0990 
 13 F        0.9360     2.2840    -2.9760 F     1 <1>  -0.1900 
 14 C        1.3180     3.8600    -1.3280 C.ar  1 <1>  -0.1500 
 15 C       -1.0160    -4.6600     0.4050 C.3   1 <1>   0.2510 
 16 N       -1.3260    -6.0910     0.7310 N.3   1 <1>  -0.8100 
 17 C       -1.2890    -4.3260    -1.0800 C.2   1 <1>   0.5690 
 18 C       -0.2960    -7.1150     0.4400 C.3   1 <1>   0.1900 
 19 C       -2.7320    -6.3890     0.3450 C.3   1 <1>   0.1100 
 20 O       -0.5670    -3.5860    -1.7060 O.2   1 <1>  -0.5700 
 21 N       -2.3570    -4.8980    -1.6850 N.am  1 <1>  -0.7300 
 22 C       -0.1890    -7.5010    -1.0350 C.3   1 <1>  -0.2400 
 23 C       -0.5520    -8.3490     1.3040 C.3   1 <1>  -0.2400 
 24 C       -3.1040    -6.0580    -1.1240 C.3   1 <1>   0.1400 
 25 H        0.4600    -2.3070    -0.7970 H     1 <1>   0.3700 
 26 H        1.5530     3.3880     2.0230 H     1 <1>   0.1500 
 27 H        1.6650     5.1930     0.3140 H     1 <1>   0.1500 
 28 H        0.5770    -4.7310     1.8380 H     1 <1>   0.0800 
 29 H        1.1320    -4.5000     0.1990 H     1 <1>   0.0800 
 30 H        1.3640     4.6280    -2.0800 H     1 <1>   0.1500 
 31 H       -1.7240    -4.0730     0.9630 H     1 <1>   0.0800 
 32 H        0.6630    -6.7370     0.7450 H     1 <1>   0.0800 
 33 H       -3.3730    -5.8010     0.9800 H     1 <1>   0.0800 
 34 H       -2.9720    -7.4160     0.5510 H     1 <1>   0.0800 
 35 H       -2.5050    -4.6700    -2.6710 H     1 <1>   0.3700 
 36 H       -1.0640    -8.0270    -1.3650 H     1 <1>   0.0800 
 37 H        0.6510    -8.1580    -1.1670 H     1 <1>   0.0800 
 38 H       -0.0230    -6.6370    -1.6500 H     1 <1>   0.0800 
 39 H       -1.4240    -8.8850     0.9820 H     1 <1>   0.0800 
 40 H       -0.6690    -8.0580     2.3330 H     1 <1>   0.0800 
 41 H        0.2890    -9.0160     1.2390 H     1 <1>   0.0800 
 42 H       -4.1600    -5.8580    -1.1780 H     1 <1>   0.0800 
 43 H       -2.9150    -6.9190    -1.7390 H     1 <1>   0.0800 
@<TRIPOS>BOND
  1   1   2  1   
  2   1   3  1   
  3   2   4  2   
  4   2   5  1   
  5   3   6  ar  
  6   3   7  ar  
  7   4   6  1   
  8   5   8  am  
  9   5  25  1   
 10   6   9  ar  
 11   7  10  ar  
 12   7  26  1   
 13   8  11  2   
 14   8  12  1   
 15   9  13  1   
 16   9  14  ar  
 17  10  14  ar  
 18  10  27  1   
 19  12  15  1   
 20  12  28  1   
 21  12  29  1   
 22  14  30  1   
 23  15  16  1   
 24  15  17  1   
 25  15  31  1   
 26  16  18  1   
 27  16  19  1   
 28  17  20  2   
 29  17  21  am  
 30  18  22  1   
 31  18  23  1   
 32  18  32  1   
 33  19  24  1   
 34  19  33  1   
 35  19  34  1   
 36  21  24  1   
 37  21  35  1   
 38  22  36  1   
 39  22  37  1   
 40  22  38  1   
 41  23  39  1   
 42  23  40  1   
 43  23  41  1   
 44  24  42  1   
 45  24  43  1   
@<TRIPOS>SUBSTRUCTURE
  1 ****   5 GROUP 4 **** **** 0

# MOE 2024.06 (io_trps.svl 2023.06)
