@<TRIPOS>MOLECULE
NONAME
41 42 1 0 0 
SMALL
USER_CHARGES


@<TRIPOS>ATOM
  1 S        2.2270     0.9590    -0.4010 S.3   1 <1>  -0.4600 
  2 C        0.7390     1.8240     0.2310 C.3   1 <1>   0.1310 
  3 C        2.1000    -0.7020     0.3130 C.3   1 <1>   0.0700 
  4 C        0.7280     3.3050    -0.1300 C.2   1 <1>   0.5690 
  5 C        1.0490    -1.4920    -0.4710 C.3   1 <1>  -0.1600 
  6 O       -0.2520     3.9560     0.1380 O.2   1 <1>  -0.5700 
  7 N        1.8070     3.8610    -0.7320 N.am  1 <1>  -0.7300 
  8 C        0.9290    -2.9250     0.0560 C.3   1 <1>  -0.2400 
  9 C        1.9560     5.2840    -1.0690 C.3   1 <1>   0.2840 
 10 C        3.4320     5.6360    -1.0120 C.ar  1 <1>  -0.1430 
 11 C        4.0570     5.8040     0.2150 C.ar  1 <1>  -0.1500 
 12 C        4.1710     5.7810    -2.1770 C.ar  1 <1>  -0.1500 
 13 C        5.4010     6.1270     0.2860 C.ar  1 <1>   0.0820 
 14 C        5.5180     6.0960    -2.1150 C.ar  1 <1>  -0.1500 
 15 O        5.9500     6.2510     1.5180 O.3   1 <1>  -0.3630 
 16 C        6.1390     6.2770    -0.8910 C.ar  1 <1>   0.0820 
 17 C        6.5420     7.4800     1.8570 C.3   1 <1>   0.1200 
 18 O        7.4640     6.5620    -0.8990 O.3   1 <1>  -0.3630 
 19 C        7.9330     7.6010     1.2320 C.3   1 <1>  -0.1600 
 20 C        7.8870     7.7560    -0.2880 C.3   1 <1>   0.1200 
 21 H        0.7320     1.7100     1.2990 H     1 <1>   0.0800 
 22 H       -0.1200     1.3410    -0.1940 H     1 <1>   0.0800 
 23 H        1.8380    -0.5960     1.3510 H     1 <1>   0.0800 
 24 H        3.0730    -1.1550     0.2250 H     1 <1>   0.0800 
 25 H        1.3290    -1.5170    -1.5100 H     1 <1>   0.0800 
 26 H        0.0930    -1.0070    -0.3910 H     1 <1>   0.0800 
 27 H        2.6230     3.2710    -0.9250 H     1 <1>   0.3700 
 28 H        1.8690    -3.4400    -0.0370 H     1 <1>   0.0800 
 29 H        0.1890    -3.4640    -0.5110 H     1 <1>   0.0800 
 30 H        0.6340    -2.9250     1.0900 H     1 <1>   0.0800 
 31 H        1.4020     5.8860    -0.3680 H     1 <1>   0.0800 
 32 H        1.5630     5.4590    -2.0550 H     1 <1>   0.0800 
 33 H        3.5040     5.6780     1.1290 H     1 <1>   0.1500 
 34 H        3.7040     5.6440    -3.1370 H     1 <1>   0.1500 
 35 H        6.0950     6.1990    -3.0160 H     1 <1>   0.1500 
 36 H        6.6190     7.5060     2.9300 H     1 <1>   0.0800 
 37 H        5.8920     8.2750     1.5350 H     1 <1>   0.0800 
 38 H        8.5360     6.7520     1.5010 H     1 <1>   0.0800 
 39 H        8.4040     8.4760     1.6400 H     1 <1>   0.0800 
 40 H        7.2210     8.5480    -0.5860 H     1 <1>   0.0800 
 41 H        8.8710     7.9690    -0.6650 H     1 <1>   0.0800 
@<TRIPOS>BOND
  1   1   2  1   
  2   1   3  1   
  3   2   4  1   
  4   2  21  1   
  5   2  22  1   
  6   3   5  1   
  7   3  23  1   
  8   3  24  1   
  9   4   6  2   
 10   4   7  am  
 11   5   8  1   
 12   5  25  1   
 13   5  26  1   
 14   7   9  1   
 15   7  27  1   
 16   8  28  1   
 17   8  29  1   
 18   8  30  1   
 19   9  10  1   
 20   9  31  1   
 21   9  32  1   
 22  10  11  ar  
 23  10  12  ar  
 24  11  13  ar  
 25  11  33  1   
 26  12  14  ar  
 27  12  34  1   
 28  13  15  1   
 29  13  16  ar  
 30  14  16  ar  
 31  14  35  1   
 32  15  17  1   
 33  16  18  1   
 34  17  19  1   
 35  17  36  1   
 36  17  37  1   
 37  18  20  1   
 38  19  20  1   
 39  19  38  1   
 40  19  39  1   
 41  20  40  1   
 42  20  41  1   
@<TRIPOS>SUBSTRUCTURE
  1 ****  11 GROUP 4 **** **** 0

# MOE 2024.06 (io_trps.svl 2023.06)
