@<TRIPOS>MOLECULE
NONAME
53 56 1 0 0 
SMALL
USER_CHARGES


@<TRIPOS>ATOM
  1 O       -2.4290    -0.6060     0.8890 O.2   1 <1>  -0.5700 
  2 C       -2.7920     0.4490     0.3760 C.2   1 <1>   0.4690 
  3 C       -3.7350     0.4800    -0.7030 C.2   1 <1>   0.0290 
  4 C       -2.2570     1.6850     0.8840 C.ar  1 <1>   0.0860 
  5 C       -4.2900    -0.7260    -1.2740 C.2   1 <1>   0.6160 
  6 C       -4.1020     1.7070    -1.1880 C.2   1 <1>  -0.0500 
  7 C       -2.6780     2.9070     0.3330 C.ar  1 <1>   0.4100 
  8 C       -1.3210     1.7290     1.9170 C.ar  1 <1>  -0.1500 
  9 O       -5.1850    -0.6600    -2.0980 O.2   1 <1>  -0.5700 
 10 N       -3.8550    -1.9740    -0.9370 N.am  1 <1>  -0.7300 
 11 N       -3.6120     2.8880    -0.7040 N.pl3 1 <1>  -0.5690 
 12 N       -2.2290     4.0960     0.7500 N.ar  1 <1>  -0.6200 
 13 C       -0.8670     2.9550     2.3340 C.ar  1 <1>  -0.1500 
 14 C       -4.3750    -3.2610    -1.4520 C.3   1 <1>   0.2200 
 15 C       -4.0910     4.1570    -1.3210 C.3   1 <1>   0.2090 
 16 C       -1.3490     4.1040     1.7230 C.ar  1 <1>   0.1670 
 17 C       -5.2160    -3.9260    -0.3750 C.3   1 <1>  -0.0800 
 18 C       -3.2260    -4.2540    -1.6360 C.3   1 <1>   0.1200 
 19 C       -3.1660     4.5450    -2.4730 C.3   1 <1>  -0.2400 
 20 C       -0.8590     5.4650     2.1710 C.3   1 <1>  -0.0970 
 21 C       -4.1420    -4.6450     0.4410 C.3   1 <1>   0.1200 
 22 C       -6.2370    -4.9040    -0.9860 C.3   1 <1>  -0.0170 
 23 O       -3.1540    -5.0230    -0.4680 O.3   1 <1>  -0.5600 
 24 C       -7.0810    -5.5770     0.0860 C.ar  1 <1>  -0.1430 
 25 C       -8.1150    -4.9170     0.7190 C.ar  1 <1>  -0.1500 
 26 C       -6.8590    -6.8810     0.4810 C.ar  1 <1>  -0.1500 
 27 C       -8.8540    -5.5730     1.6890 C.ar  1 <1>   0.1600 
 28 C       -7.6580    -7.4450     1.4620 C.ar  1 <1>   0.1600 
 29 N       -8.6500    -6.8220     2.0770 N.ar  1 <1>  -0.6200 
 30 H       -4.8120     1.7690    -2.0000 H     1 <1>   0.1500 
 31 H       -0.9660     0.8200     2.3720 H     1 <1>   0.1500 
 32 H       -3.1550    -2.0380    -0.1830 H     1 <1>   0.3700 
 33 H       -0.1460     3.0240     3.1280 H     1 <1>   0.1500 
 34 H       -4.9150    -3.1020    -2.3700 H     1 <1>   0.0800 
 35 H       -5.0920     4.0200    -1.6920 H     1 <1>   0.0800 
 36 H       -4.1240     4.9450    -0.5870 H     1 <1>   0.0800 
 37 H       -5.7380    -3.2000     0.2220 H     1 <1>   0.0800 
 38 H       -2.2830    -3.7630    -1.8000 H     1 <1>   0.0800 
 39 H       -3.4330    -4.9260    -2.4500 H     1 <1>   0.0800 
 40 H       -3.1500     3.7690    -3.2170 H     1 <1>   0.0800 
 41 H       -2.1690     4.7090    -2.1050 H     1 <1>   0.0800 
 42 H       -3.5150     5.4530    -2.9280 H     1 <1>   0.0800 
 43 H       -0.1420     5.3800     2.9660 H     1 <1>   0.0800 
 44 H       -1.6920     6.0500     2.5150 H     1 <1>   0.0800 
 45 H       -0.4000     5.9710     1.3410 H     1 <1>   0.0800 
 46 H       -4.5040    -5.5160     0.9570 H     1 <1>   0.0800 
 47 H       -3.6910    -3.9710     1.1500 H     1 <1>   0.0800 
 48 H       -5.7310    -5.6550    -1.5680 H     1 <1>   0.0800 
 49 H       -6.8910    -4.3660    -1.6500 H     1 <1>   0.0800 
 50 H       -8.3520    -3.9000     0.4660 H     1 <1>   0.1500 
 51 H       -6.0730    -7.4640     0.0360 H     1 <1>   0.1500 
 52 H       -9.6560    -5.0420     2.1720 H     1 <1>   0.1500 
 53 H       -7.4690    -8.4630     1.7570 H     1 <1>   0.1500 
@<TRIPOS>BOND
  1   1   2  2   
  2   2   3  1   
  3   2   4  1   
  4   3   5  1   
  5   3   6  2   
  6   4   7  ar  
  7   4   8  ar  
  8   5   9  2   
  9   5  10  am  
 10   6  11  1   
 11   6  30  1   
 12   7  11  1   
 13   7  12  ar  
 14   8  13  ar  
 15   8  31  1   
 16  10  14  1   
 17  10  32  1   
 18  11  15  1   
 19  12  16  ar  
 20  13  16  ar  
 21  13  33  1   
 22  14  17  1   
 23  14  18  1   
 24  14  34  1   
 25  15  19  1   
 26  15  35  1   
 27  15  36  1   
 28  16  20  1   
 29  17  21  1   
 30  17  22  1   
 31  17  37  1   
 32  18  23  1   
 33  18  38  1   
 34  18  39  1   
 35  19  40  1   
 36  19  41  1   
 37  19  42  1   
 38  20  43  1   
 39  20  44  1   
 40  20  45  1   
 41  21  23  1   
 42  21  46  1   
 43  21  47  1   
 44  22  24  1   
 45  22  48  1   
 46  22  49  1   
 47  24  25  ar  
 48  24  26  ar  
 49  25  27  ar  
 50  25  50  1   
 51  26  28  ar  
 52  26  51  1   
 53  27  29  ar  
 54  27  52  1   
 55  28  29  ar  
 56  28  53  1   
@<TRIPOS>SUBSTRUCTURE
  1 ****   5 GROUP 4 **** **** 0

# MOE 2024.06 (io_trps.svl 2023.06)
