@<TRIPOS>MOLECULE
NONAME
58 62 1 0 0 
SMALL
USER_CHARGES


@<TRIPOS>ATOM
  1 O       -1.2410     0.2910     2.0060 O.2   1 <1>  -0.5700 
  2 C       -1.3740     0.3670     0.7980 C.2   1 <1>   0.7160 
  3 N       -1.5210    -0.8000     0.0810 N.am  1 <1>  -0.6600 
  4 C       -1.5000     1.6330     0.1650 C.2   1 <1>  -0.0860 
  5 C       -1.9940    -2.0210     0.7880 C.3   1 <1>   0.1400 
  6 C       -1.6520    -0.8390    -1.3970 C.3   1 <1>   0.1400 
  7 C       -2.7020     2.3310     0.0510 C.2   1 <1>   0.3720 
  8 C       -0.6100     2.3930    -0.5210 C.2   1 <1>   0.0870 
  9 C       -3.4470    -1.8080     1.2670 C.3   1 <1>   0.4230 
 10 C       -3.1080    -0.6250    -1.8340 C.3   1 <1>  -0.1600 
 11 N       -2.5450     3.3890    -0.6650 N.2   1 <1>  -0.4100 
 12 N       -3.9260     1.9290     0.6250 N.pl3 1 <1>  -0.8210 
 13 O       -1.2780     3.4140    -0.9920 O.3   1 <1>  -0.0190 
 14 C        0.7950     2.2270    -0.7940 C.ar  1 <1>   0.0530 
 15 N       -4.3430    -1.0930     0.3000 N.4   1 <1>  -0.9590 
 16 C       -4.1870    -3.1020     1.5890 C.3   1 <1>  -0.1600 
 17 C       -4.1560    -1.4950    -1.1280 C.3   1 <1>   0.3430 
 18 C       -5.1190     2.6030     0.0000 C.3   1 <1>   0.2090 
 19 C       -3.9420     2.2600     2.0910 C.3   1 <1>   0.2090 
 20 C        1.3720     2.7740    -1.9410 C.ar  1 <1>  -0.1500 
 21 C        1.6290     1.5120     0.0660 C.ar  1 <1>  -0.1500 
 22 C       -5.7220    -1.3880     0.7600 C.3   1 <1>   0.3430 
 23 C       -5.6680    -2.7820     1.3790 C.3   1 <1>  -0.1600 
 24 C       -6.4300     2.2010     0.6970 C.3   1 <1>   0.1200 
 25 C       -5.2750     1.8580     2.7460 C.3   1 <1>   0.1200 
 26 C        2.7140     2.6040    -2.2250 C.ar  1 <1>  -0.1500 
 27 C        2.9720     1.3370    -0.2130 C.ar  1 <1>  -0.1500 
 28 O       -6.3690     2.4220     2.0780 O.3   1 <1>  -0.5600 
 29 C        3.5180     1.8820    -1.3610 C.ar  1 <1>  -0.1500 
 30 H       -1.9310    -2.8730     0.1350 H     1 <1>   0.0800 
 31 H       -1.3630    -2.2180     1.6380 H     1 <1>   0.0800 
 32 H       -1.0240    -0.0840    -1.8410 H     1 <1>   0.0800 
 33 H       -1.2970    -1.7920    -1.7550 H     1 <1>   0.0800 
 34 H       -3.4050    -1.2200     2.1710 H     1 <1>   0.0800 
 35 H       -3.1570    -0.8460    -2.8850 H     1 <1>   0.0800 
 36 H       -3.3750     0.4100    -1.7380 H     1 <1>   0.0800 
 37 H       -4.1480    -0.0690     0.3760 H     1 <1>   0.4500 
 38 H       -3.8840    -3.8880     0.9180 H     1 <1>   0.0800 
 39 H       -3.9820    -3.4170     2.5980 H     1 <1>   0.0800 
 40 H       -3.8810    -2.5350    -1.1900 H     1 <1>   0.0800 
 41 H       -5.0900    -1.3710    -1.6510 H     1 <1>   0.0800 
 42 H       -5.0150     3.6750     0.0680 H     1 <1>   0.0800 
 43 H       -5.1720     2.3480    -1.0440 H     1 <1>   0.0800 
 44 H       -3.1400     1.7550     2.5970 H     1 <1>   0.0800 
 45 H       -3.7930     3.3190     2.2250 H     1 <1>   0.0800 
 46 H        0.7610     3.3410    -2.6220 H     1 <1>   0.1500 
 47 H        1.2330     1.0910     0.9730 H     1 <1>   0.1500 
 48 H       -6.0090    -0.6770     1.5180 H     1 <1>   0.0800 
 49 H       -6.4330    -1.3390    -0.0490 H     1 <1>   0.0800 
 50 H       -6.2080    -2.7870     2.3110 H     1 <1>   0.0800 
 51 H       -6.1240    -3.5000     0.7200 H     1 <1>   0.0800 
 52 H       -6.6520     1.1660     0.5240 H     1 <1>   0.0800 
 53 H       -7.2430     2.7910     0.3120 H     1 <1>   0.0800 
 54 H       -5.3010     2.2110     3.7620 H     1 <1>   0.0800 
 55 H       -5.3870     0.7910     2.7550 H     1 <1>   0.0800 
 56 H        3.1370     3.0350    -3.1160 H     1 <1>   0.1500 
 57 H        3.5960     0.7800     0.4650 H     1 <1>   0.1500 
 58 H        4.5630     1.7480    -1.5800 H     1 <1>   0.1500 
@<TRIPOS>BOND
  1   1   2  2   
  2   2   3  am  
  3   2   4  1   
  4   3   5  1   
  5   3   6  1   
  6   4   7  1   
  7   4   8  2   
  8   5   9  1   
  9   5  30  1   
 10   5  31  1   
 11   6  10  1   
 12   6  32  1   
 13   6  33  1   
 14   7  11  2   
 15   7  12  1   
 16   8  13  1   
 17   8  14  1   
 18   9  15  1   
 19   9  16  1   
 20   9  34  1   
 21  10  17  1   
 22  10  35  1   
 23  10  36  1   
 24  11  13  1   
 25  12  18  1   
 26  12  19  1   
 27  14  20  ar  
 28  14  21  ar  
 29  15  17  1   
 30  15  22  1   
 31  15  37  1   
 32  16  23  1   
 33  16  38  1   
 34  16  39  1   
 35  17  40  1   
 36  17  41  1   
 37  18  24  1   
 38  18  42  1   
 39  18  43  1   
 40  19  25  1   
 41  19  44  1   
 42  19  45  1   
 43  20  26  ar  
 44  20  46  1   
 45  21  27  ar  
 46  21  47  1   
 47  22  23  1   
 48  22  48  1   
 49  22  49  1   
 50  23  50  1   
 51  23  51  1   
 52  24  28  1   
 53  24  52  1   
 54  24  53  1   
 55  25  28  1   
 56  25  54  1   
 57  25  55  1   
 58  26  29  ar  
 59  26  56  1   
 60  27  29  ar  
 61  27  57  1   
 62  29  58  1   
@<TRIPOS>SUBSTRUCTURE
  1 ****   4 GROUP 4 **** **** 0

# MOE 2024.06 (io_trps.svl 2023.06)
