@<TRIPOS>MOLECULE
NONAME
57 60 1 0 0 
SMALL
USER_CHARGES


@<TRIPOS>ATOM
  1 O        0.2100     1.5730    -1.0620 O.2   1 <1>  -0.5700 
  2 C       -0.2170     2.7030    -1.0030 C.2   1 <1>   0.5690 
  3 N       -1.2040     3.0990    -0.1380 N.am  1 <1>  -0.5090 
  4 C        0.3810     3.7510    -1.9320 C.3   1 <1>   0.1810 
  5 C       -1.6780     4.5220    -0.1120 C.3   1 <1>   0.3640 
  6 C       -1.6600     2.2320     0.9770 C.3   1 <1>   0.0490 
  7 O        0.4910     4.9850    -1.2740 O.3   1 <1>  -0.5600 
  8 C       -3.0790     4.6230    -0.7170 C.ar  1 <1>  -0.1440 
  9 C       -0.7450     5.5370    -0.8380 C.3   1 <1>   0.2610 
 10 C       -2.2500     0.8960     0.6500 C.3   1 <1>  -0.2000 
 11 C       -3.1200     1.9750     1.2070 C.3   1 <1>  -0.2000 
 12 C       -3.4640     3.8540    -1.8090 C.ar  1 <1>   0.1600 
 13 C       -3.9960     5.5110    -0.1850 C.ar  1 <1>  -0.1500 
 14 C       -0.4980     6.7430     0.0760 C.2   1 <1>   0.5690 
 15 N       -4.6470     3.9070    -2.3990 N.ar  1 <1>  -0.6200 
 16 C       -5.2350     5.5740    -0.7830 C.ar  1 <1>  -0.1500 
 17 O       -1.4440     7.3360     0.5380 O.2   1 <1>  -0.5700 
 18 N        0.7800     7.1130     0.3520 N.am  1 <1>  -0.7300 
 19 C       -5.5060     4.7640    -1.8710 C.ar  1 <1>   0.1600 
 20 C        1.1990     8.2800     1.1510 C.3   1 <1>   0.1400 
 21 C        2.1970     9.1000     0.3390 C.3   1 <1>  -0.1600 
 22 C        2.6230    10.3500     1.1020 C.3   1 <1>   0.1200 
 23 O        3.5590    11.0120     0.3210 O.3   1 <1>  -0.5600 
 24 C        4.0080    12.2270     0.8340 C.3   1 <1>   0.2000 
 25 C        3.0910    13.3510     0.3560 C.3   1 <1>  -0.1600 
 26 C        5.3360    12.5450     0.1590 C.3   1 <1>  -0.1600 
 27 C        3.5320    13.6550    -1.0790 C.3   1 <1>  -0.1600 
 28 C        4.9740    13.1460    -1.2030 C.3   1 <1>  -0.1600 
 29 H       -0.2300     3.8710    -2.8080 H     1 <1>   0.0800 
 30 H        1.3680     3.4460    -2.2280 H     1 <1>   0.0800 
 31 H       -1.7470     4.8100     0.9230 H     1 <1>   0.0800 
 32 H       -1.0080     2.2910     1.8330 H     1 <1>   0.1000 
 33 H       -1.2440     5.9070    -1.7150 H     1 <1>   0.0800 
 34 H       -2.3550     0.6210    -0.3850 H     1 <1>   0.1000 
 35 H       -2.0010     0.0580     1.2770 H     1 <1>   0.1000 
 36 H       -3.4730     1.8630     2.2170 H     1 <1>   0.1000 
 37 H       -3.8710     2.3800     0.5550 H     1 <1>   0.1000 
 38 H       -2.7670     3.1490    -2.2280 H     1 <1>   0.1500 
 39 H       -3.7620     6.1380     0.6600 H     1 <1>   0.1500 
 40 H       -5.9870     6.2470    -0.4110 H     1 <1>   0.1500 
 41 H        1.5280     6.5650    -0.0880 H     1 <1>   0.3700 
 42 H       -6.4770     4.8230    -2.3310 H     1 <1>   0.1500 
 43 H        0.3390     8.8820     1.3970 H     1 <1>   0.0800 
 44 H        1.6520     7.9400     2.0670 H     1 <1>   0.0800 
 45 H        1.7410     9.4010    -0.5870 H     1 <1>   0.0800 
 46 H        3.0680     8.5050     0.1320 H     1 <1>   0.0800 
 47 H        3.0830    10.0900     2.0410 H     1 <1>   0.0800 
 48 H        1.7800    10.9980     1.2700 H     1 <1>   0.0800 
 49 H        4.1000    12.1640     1.9060 H     1 <1>   0.0800 
 50 H        2.0490    13.0950     0.4170 H     1 <1>   0.0800 
 51 H        3.2700    14.2190     0.9650 H     1 <1>   0.0800 
 52 H        5.8510    13.2860     0.7440 H     1 <1>   0.0800 
 53 H        5.9600    11.6720     0.0730 H     1 <1>   0.0800 
 54 H        2.9060    13.1140    -1.7690 H     1 <1>   0.0800 
 55 H        3.4610    14.7070    -1.2940 H     1 <1>   0.0800 
 56 H        5.6540    13.9370    -1.4710 H     1 <1>   0.0800 
 57 H        5.0160    12.3780    -1.9560 H     1 <1>   0.0800 
@<TRIPOS>BOND
  1   1   2  2   
  2   2   3  am  
  3   2   4  1   
  4   3   5  1   
  5   3   6  1   
  6   4   7  1   
  7   4  29  1   
  8   4  30  1   
  9   5   8  1   
 10   5   9  1   
 11   5  31  1   
 12   6  10  1   
 13   6  11  1   
 14   6  32  1   
 15   7   9  1   
 16   8  12  ar  
 17   8  13  ar  
 18   9  14  1   
 19   9  33  1   
 20  10  11  1   
 21  10  34  1   
 22  10  35  1   
 23  11  36  1   
 24  11  37  1   
 25  12  15  ar  
 26  12  38  1   
 27  13  16  ar  
 28  13  39  1   
 29  14  17  2   
 30  14  18  am  
 31  15  19  ar  
 32  16  19  ar  
 33  16  40  1   
 34  18  20  1   
 35  18  41  1   
 36  19  42  1   
 37  20  21  1   
 38  20  43  1   
 39  20  44  1   
 40  21  22  1   
 41  21  45  1   
 42  21  46  1   
 43  22  23  1   
 44  22  47  1   
 45  22  48  1   
 46  23  24  1   
 47  24  25  1   
 48  24  26  1   
 49  24  49  1   
 50  25  27  1   
 51  25  50  1   
 52  25  51  1   
 53  26  28  1   
 54  26  52  1   
 55  26  53  1   
 56  27  28  1   
 57  27  54  1   
 58  27  55  1   
 59  28  56  1   
 60  28  57  1   
@<TRIPOS>SUBSTRUCTURE
  1 ****  14 GROUP 4 **** **** 0

# MOE 2024.06 (io_trps.svl 2023.06)
