@<TRIPOS>MOLECULE
NONAME
17 17 1 0 0 
SMALL
USER_CHARGES


@<TRIPOS>ATOM
  1 O        0.4320     0.0960     0.4570 O.2   1 <1>  -0.5700 
  2 C        1.5110    -0.3110     0.1220 C.2   1 <1>   0.5690 
  3 N        2.5990     0.4400    -0.2230 N.am  1 <1>  -0.1800 
  4 C        1.8390    -1.7870     0.1240 C.3   1 <1>  -0.0990 
  5 C        3.6960    -0.3600    -0.3560 C.2   1 <1>   0.5690 
  6 C        2.5590     1.7710    -0.5660 C.2   1 <1>   0.5690 
  7 C        3.3520    -1.8160    -0.1360 C.3   1 <1>  -0.0990 
  8 O        4.8140     0.0020    -0.6110 O.2   1 <1>  -0.5700 
  9 O        1.7460     2.2130    -1.3340 O.2   1 <1>  -0.5700 
 10 C        3.5810     2.7190     0.0240 C.3   1 <1>  -0.1790 
 11 H        1.2930    -2.2790    -0.6610 H     1 <1>   0.0800 
 12 H        1.5890    -2.2220     1.0750 H     1 <1>   0.0800 
 13 H        3.5940    -2.3910    -1.0120 H     1 <1>   0.0800 
 14 H        3.8920    -2.1940     0.7130 H     1 <1>   0.0800 
 15 H        3.8270     2.4300     1.0290 H     1 <1>   0.0800 
 16 H        3.1810     3.7160     0.0370 H     1 <1>   0.0800 
 17 H        4.4710     2.7100    -0.5780 H     1 <1>   0.0800 
@<TRIPOS>BOND
  1   1   2  2   
  2   2   3  am  
  3   2   4  1   
  4   3   5  am  
  5   3   6  am  
  6   4   7  1   
  7   4  11  1   
  8   4  12  1   
  9   5   7  1   
 10   5   8  2   
 11   6   9  2   
 12   6  10  1   
 13   7  13  1   
 14   7  14  1   
 15  10  15  1   
 16  10  16  1   
 17  10  17  1   
@<TRIPOS>SUBSTRUCTURE
  1 ****   3 GROUP 4 **** **** 0

# MOE 2024.06 (io_trps.svl 2023.06)
