@<TRIPOS>MOLECULE
NONAME
46 48 1 0 0 
SMALL
USER_CHARGES


@<TRIPOS>ATOM
  1 S        0.3980     0.0840     0.7290 S.o2  1 <1>   1.3330 
  2 O        1.8140     0.1910     0.9990 O.2   1 <1>  -0.6500 
  3 O       -0.5500     0.2310     1.8100 O.2   1 <1>  -0.6500 
  4 N        0.1190    -1.4070    -0.0330 N.am  1 <1>  -0.8490 
  5 C       -0.0440     1.2710    -0.5370 C.3   1 <1>  -0.0550 
  6 C        1.2440    -1.8580    -0.8600 C.3   1 <1>   0.1160 
  7 C       -0.2500    -2.4570     0.9210 C.3   1 <1>   0.1160 
  8 C        0.0070     2.7260    -0.0390 C.3   1 <1>  -0.0800 
  9 C       -0.4950     3.7190    -1.0800 C.3   1 <1>   0.2000 
 10 C        1.4130     3.2310     0.2980 C.3   1 <1>   0.1400 
 11 O       -1.8790     3.7640    -1.0700 O.3   1 <1>  -0.6800 
 12 C        0.1220     5.0570    -0.6820 C.3   1 <1>   0.1400 
 13 N        1.3740     4.6940     0.0340 N.am  1 <1>  -0.6600 
 14 C        2.5110     5.4670     0.0630 C.2   1 <1>   0.5440 
 15 O        3.5860     4.9220     0.2030 O.2   1 <1>  -0.5700 
 16 C        2.4600     6.9010    -0.0860 C.ar  1 <1>   0.0860 
 17 C        3.3760     7.5890    -0.8560 C.ar  1 <1>   0.1600 
 18 C        1.5040     7.6840     0.5310 C.ar  1 <1>   0.1600 
 19 N        3.3360     8.8940    -1.0290 N.ar  1 <1>  -0.6200 
 20 N        1.4300     8.9880     0.3800 N.ar  1 <1>  -0.6200 
 21 C        2.3590     9.5270    -0.3970 C.ar  1 <1>   0.5880 
 22 C        2.2920    11.0360    -0.5890 C.3   1 <1>  -0.0680 
 23 C        3.4790    11.9100    -0.2960 C.3   1 <1>  -0.2000 
 24 C        2.2730    11.9710     0.5880 C.3   1 <1>  -0.2000 
 25 H        0.6060     1.1570    -1.3820 H     1 <1>   0.0800 
 26 H       -1.0450     1.0600    -0.8640 H     1 <1>   0.0800 
 27 H        0.9790    -2.7590    -1.3850 H     1 <1>   0.0800 
 28 H        2.1100    -2.0510    -0.2460 H     1 <1>   0.0800 
 29 H        1.4980    -1.1050    -1.5860 H     1 <1>   0.0800 
 30 H       -0.4350    -3.3830     0.4040 H     1 <1>   0.0800 
 31 H       -1.1500    -2.1800     1.4450 H     1 <1>   0.0800 
 32 H        0.5380    -2.6030     1.6410 H     1 <1>   0.0800 
 33 H       -0.5880     2.8180     0.8540 H     1 <1>   0.0800 
 34 H       -0.1710     3.4500    -2.0720 H     1 <1>   0.0800 
 35 H        2.1530     2.7770    -0.3410 H     1 <1>   0.0800 
 36 H        1.6710     3.0360     1.3260 H     1 <1>   0.0800 
 37 H       -2.2170     3.9010    -0.1640 H     1 <1>   0.4000 
 38 H       -0.5310     5.5880    -0.0110 H     1 <1>   0.0800 
 39 H        0.3330     5.6550    -1.5520 H     1 <1>   0.0800 
 40 H        4.1640     7.0380    -1.3430 H     1 <1>   0.1500 
 41 H        0.7780     7.2140     1.1730 H     1 <1>   0.1500 
 42 H        1.6860    11.2950    -1.4360 H     1 <1>   0.1000 
 43 H        4.3760    11.4460     0.0770 H     1 <1>   0.1000 
 44 H        3.6850    12.7310    -0.9610 H     1 <1>   0.1000 
 45 H        1.6330    12.8340     0.5440 H     1 <1>   0.1000 
 46 H        2.3320    11.5500     1.5770 H     1 <1>   0.1000 
@<TRIPOS>BOND
  1   1   2  2   
  2   1   3  2   
  3   1   4  am  
  4   1   5  1   
  5   4   6  1   
  6   4   7  1   
  7   5   8  1   
  8   5  25  1   
  9   5  26  1   
 10   6  27  1   
 11   6  28  1   
 12   6  29  1   
 13   7  30  1   
 14   7  31  1   
 15   7  32  1   
 16   8   9  1   
 17   8  10  1   
 18   8  33  1   
 19   9  11  1   
 20   9  12  1   
 21   9  34  1   
 22  10  13  1   
 23  10  35  1   
 24  10  36  1   
 25  11  37  1   
 26  12  13  1   
 27  12  38  1   
 28  12  39  1   
 29  13  14  am  
 30  14  15  2   
 31  14  16  1   
 32  16  17  ar  
 33  16  18  ar  
 34  17  19  ar  
 35  17  40  1   
 36  18  20  ar  
 37  18  41  1   
 38  19  21  ar  
 39  20  21  ar  
 40  21  22  1   
 41  22  23  1   
 42  22  24  1   
 43  22  42  1   
 44  23  24  1   
 45  23  43  1   
 46  23  44  1   
 47  24  45  1   
 48  24  46  1   
@<TRIPOS>SUBSTRUCTURE
  1 ****  13 GROUP 4 **** **** 0

# MOE 2024.06 (io_trps.svl 2023.06)
