@<TRIPOS>MOLECULE
NONAME
55 58 1 0 0 
SMALL
USER_CHARGES


@<TRIPOS>ATOM
  1 O        1.4540     0.0410    -1.9300 O.2   1 <1>  -0.5700 
  2 C        1.4310    -1.0130    -1.3420 C.2   1 <1>   0.5690 
  3 N        0.3180    -1.5900    -0.8210 N.am  1 <1>  -0.6600 
  4 C        2.6590    -1.8840    -1.2070 C.3   1 <1>  -0.0190 
  5 C       -1.0270    -0.9790    -0.7960 C.3   1 <1>   0.2200 
  6 C        0.6090    -2.9310    -0.2550 C.3   1 <1>   0.1400 
  7 C        2.1380    -2.9630    -0.2560 C.3   1 <1>   0.4180 
  8 C        3.9890    -1.4660    -0.4930 C.3   1 <1>  -0.0190 
  9 C       -1.4330    -0.6980     0.6490 C.3   1 <1>  -0.2400 
 10 C       -2.0280    -1.8980    -1.4930 C.3   1 <1>  -0.2400 
 11 O        2.6380    -2.4920     0.9470 O.3   1 <1>  -0.5600 
 12 C        2.9810    -4.2050    -0.4010 C.2   1 <1>  -0.2880 
 13 C        4.2100    -0.0590     0.0630 C.2   1 <1>   0.5690 
 14 C        3.9910    -2.4670     0.6750 C.3   1 <1>   0.3380 
 15 C        4.1420    -3.8890     0.1580 C.2   1 <1>  -0.2880 
 16 O        5.0690     0.0610     0.9060 O.2   1 <1>  -0.5700 
 17 N        3.5290     1.0250    -0.4140 N.am  1 <1>  -0.4940 
 18 C        3.5310     2.3730     0.0210 C.2   1 <1>  -0.0880 
 19 N        4.5990     3.1450     0.3790 N.pl3 1 <1>   0.3140 
 20 C        2.4350     3.1590     0.1390 C.2   1 <1>  -0.1810 
 21 N        4.1980     4.3950     0.7320 N.2   1 <1>  -0.7070 
 22 C        6.0340     2.7670     0.3460 C.3   1 <1>   0.0960 
 23 C        2.9110     4.3860     0.5820 C.2   1 <1>   0.1390 
 24 C        0.9860     2.8030    -0.1380 C.3   1 <1>  -0.0590 
 25 C        6.9500     3.9190    -0.1010 C.3   1 <1>  -0.1600 
 26 C        8.4080     3.4570    -0.2100 C.3   1 <1>  -0.1600 
 27 C        9.3170     4.6050    -0.6570 C.3   1 <1>  -0.2400 
 28 H        2.8610    -2.3160    -2.1700 H     1 <1>   0.0800 
 29 H       -0.9900    -0.0430    -1.3310 H     1 <1>   0.0800 
 30 H        0.2240    -3.0440     0.7420 H     1 <1>   0.0800 
 31 H        0.2140    -3.6910    -0.9050 H     1 <1>   0.0800 
 32 H        4.8270    -1.6850    -1.1280 H     1 <1>   0.0800 
 33 H       -1.5510    -1.6100     1.2030 H     1 <1>   0.0800 
 34 H       -2.3680    -0.1680     0.6670 H     1 <1>   0.0800 
 35 H       -0.6890    -0.0860     1.1270 H     1 <1>   0.0800 
 36 H       -2.1410    -2.8240    -0.9600 H     1 <1>   0.0800 
 37 H       -1.7040    -2.0970    -2.4990 H     1 <1>   0.0800 
 38 H       -2.9880    -1.4170    -1.5390 H     1 <1>   0.0800 
 39 H        2.6190    -5.0900    -0.8950 H     1 <1>   0.1500 
 40 H        4.5550    -2.2290     1.5620 H     1 <1>   0.0800 
 41 H        5.0650    -4.4290     0.2790 H     1 <1>   0.1500 
 42 H        2.7760     0.8220    -1.0860 H     1 <1>   0.3700 
 43 H        6.3100     2.4320     1.3280 H     1 <1>   0.0800 
 44 H        6.1480     1.9490    -0.3390 H     1 <1>   0.0800 
 45 H        2.2910     5.2430     0.7830 H     1 <1>   0.1500 
 46 H        0.3320     3.4190     0.4530 H     1 <1>   0.0800 
 47 H        0.8050     1.7740     0.1120 H     1 <1>   0.0800 
 48 H        0.7660     2.9520    -1.1790 H     1 <1>   0.0800 
 49 H        6.6140     4.2850    -1.0570 H     1 <1>   0.0800 
 50 H        6.8820     4.7220     0.6140 H     1 <1>   0.0800 
 51 H        8.7430     3.0910     0.7460 H     1 <1>   0.0800 
 52 H        8.4820     2.6510    -0.9210 H     1 <1>   0.0800 
 53 H        9.2740     5.4140     0.0520 H     1 <1>   0.0800 
 54 H        9.0110     4.9730    -1.6210 H     1 <1>   0.0800 
 55 H       10.3350     4.2650    -0.7260 H     1 <1>   0.0800 
@<TRIPOS>BOND
  1   1   2  2   
  2   2   3  am  
  3   2   4  1   
  4   3   5  1   
  5   3   6  1   
  6   4   7  1   
  7   4   8  1   
  8   4  28  1   
  9   5   9  1   
 10   5  10  1   
 11   5  29  1   
 12   6   7  1   
 13   6  30  1   
 14   6  31  1   
 15   7  11  1   
 16   7  12  1   
 17   8  13  1   
 18   8  14  1   
 19   8  32  1   
 20   9  33  1   
 21   9  34  1   
 22   9  35  1   
 23  10  36  1   
 24  10  37  1   
 25  10  38  1   
 26  11  14  1   
 27  12  15  2   
 28  12  39  1   
 29  13  16  2   
 30  13  17  am  
 31  14  15  1   
 32  14  40  1   
 33  15  41  1   
 34  17  18  1   
 35  17  42  1   
 36  18  19  1   
 37  18  20  2   
 38  19  21  1   
 39  19  22  1   
 40  20  23  1   
 41  20  24  1   
 42  21  23  2   
 43  22  25  1   
 44  22  43  1   
 45  22  44  1   
 46  23  45  1   
 47  24  46  1   
 48  24  47  1   
 49  24  48  1   
 50  25  26  1   
 51  25  49  1   
 52  25  50  1   
 53  26  27  1   
 54  26  51  1   
 55  26  52  1   
 56  27  53  1   
 57  27  54  1   
 58  27  55  1   
@<TRIPOS>SUBSTRUCTURE
  1 ****  17 GROUP 4 **** **** 0

# MOE 2024.06 (io_trps.svl 2023.06)
