@<TRIPOS>MOLECULE
NONAME
36 37 1 0 0 
SMALL
USER_CHARGES


@<TRIPOS>ATOM
  1 O       -0.0380     0.6630    -1.1460 O.3   1 <1>  -0.3630 
  2 C       -1.2460     1.0660    -0.6600 C.ar  1 <1>   0.3920 
  3 C        0.3280    -0.7030    -1.1310 C.3   1 <1>   0.0400 
  4 N       -2.0640     0.1430    -0.1730 N.ar  1 <1>  -0.6200 
  5 C       -1.5440     2.4580    -0.7010 C.ar  1 <1>   0.4100 
  6 C       -3.1960     0.6740     0.2700 C.ar  1 <1>   0.1600 
  7 N       -2.6830     2.9600    -0.2430 N.ar  1 <1>  -0.6200 
  8 N       -0.6340     3.3660    -1.2290 N.pl3 1 <1>  -0.8690 
  9 C       -3.4900     2.0270     0.2360 C.ar  1 <1>   0.1600 
 10 C       -0.5740     4.8060    -0.8540 C.3   1 <1>   0.2090 
 11 C        0.4960     5.1320     0.2160 C.3   1 <1>   0.0000 
 12 C        0.4830     4.2320     1.4870 C.3   1 <1>   0.0000 
 13 C        1.9270     4.6020    -0.0930 C.3   1 <1>   0.0000 
 14 C        0.4770     6.6240     0.5780 C.3   1 <1>   0.1200 
 15 C        1.6810     3.4390     0.9030 C.3   1 <1>   0.0000 
 16 O        0.7270     7.3790    -0.5650 O.3   1 <1>  -0.5600 
 17 C        0.7420     8.7510    -0.3450 C.3   1 <1>   0.0400 
 18 H        1.3100    -0.7950    -1.5580 H     1 <1>   0.0800 
 19 H       -0.3830    -1.2600    -1.7160 H     1 <1>   0.0800 
 20 H        0.3320    -1.0520    -0.1130 H     1 <1>   0.0800 
 21 H       -3.9220    -0.0050     0.6810 H     1 <1>   0.1500 
 22 H        0.2750     2.9520    -1.4570 H     1 <1>   0.4000 
 23 H       -4.4380     2.3590     0.6210 H     1 <1>   0.1500 
 24 H       -1.5350     5.1350    -0.5000 H     1 <1>   0.0800 
 25 H       -0.3580     5.3730    -1.7440 H     1 <1>   0.0800 
 26 H       -0.4070     3.6420     1.6130 H     1 <1>   0.0000 
 27 H        0.7580     4.7620     2.3830 H     1 <1>   0.0000 
 28 H        2.7060     5.2620     0.2480 H     1 <1>   0.0000 
 29 H        2.0700     4.2740    -1.1080 H     1 <1>   0.0000 
 30 H        1.2370     6.8470     1.3080 H     1 <1>   0.0800 
 31 H       -0.4890     6.8990     0.9680 H     1 <1>   0.0800 
 32 H        1.3840     2.5270     0.4180 H     1 <1>   0.0000 
 33 H        2.4840     3.3010     1.6050 H     1 <1>   0.0000 
 34 H        0.9400     9.2380    -1.2830 H     1 <1>   0.0800 
 35 H        1.5210     8.9900     0.3580 H     1 <1>   0.0800 
 36 H       -0.2180     9.0620     0.0300 H     1 <1>   0.0800 
@<TRIPOS>BOND
  1   1   2  1   
  2   1   3  1   
  3   2   4  ar  
  4   2   5  ar  
  5   3  18  1   
  6   3  19  1   
  7   3  20  1   
  8   4   6  ar  
  9   5   7  ar  
 10   5   8  1   
 11   6   9  ar  
 12   6  21  1   
 13   7   9  ar  
 14   8  10  1   
 15   8  22  1   
 16   9  23  1   
 17  10  11  1   
 18  10  24  1   
 19  10  25  1   
 20  11  12  1   
 21  11  13  1   
 22  11  14  1   
 23  12  15  1   
 24  12  26  1   
 25  12  27  1   
 26  13  15  1   
 27  13  28  1   
 28  13  29  1   
 29  14  16  1   
 30  14  30  1   
 31  14  31  1   
 32  15  32  1   
 33  15  33  1   
 34  16  17  1   
 35  17  34  1   
 36  17  35  1   
 37  17  36  1   
@<TRIPOS>SUBSTRUCTURE
  1 ****   8 GROUP 4 **** **** 0

# MOE 2024.06 (io_trps.svl 2023.06)
