@<TRIPOS>MOLECULE
NONAME
44 46 1 0 0 
SMALL
USER_CHARGES


@<TRIPOS>ATOM
  1 O        0.6630    -0.1340     1.2100 O.2   1 <1>  -0.5700 
  2 C        1.4570    -0.3590     0.3290 C.2   1 <1>   0.5690 
  3 N        2.1490     0.6390    -0.2690 N.am  1 <1>  -0.7300 
  4 C        1.6950    -1.7910    -0.1410 C.3   1 <1>  -0.0190 
  5 C        2.1060     2.0520     0.1460 C.3   1 <1>   0.2840 
  6 C        0.5900    -2.7220     0.3990 C.3   1 <1>   0.0960 
  7 C        3.1010    -2.2780     0.2670 C.3   1 <1>  -0.2400 
  8 C        3.5070     2.6200     0.0110 C.ar  1 <1>  -0.1440 
  9 N        0.6390    -4.0570    -0.2260 N.pl3 1 <1>   0.3140 
 10 C        3.8480     3.4140    -1.0740 C.ar  1 <1>  -0.1500 
 11 C        4.4620     2.3410     0.9760 C.ar  1 <1>  -0.1500 
 12 N        1.2110    -5.1090     0.3420 N.2   1 <1>  -0.7070 
 13 C        0.1450    -4.4300    -1.4110 C.2   1 <1>   0.0360 
 14 C        5.1290     3.9240    -1.1900 C.ar  1 <1>  -0.1500 
 15 C        5.7430     2.8520     0.8600 C.ar  1 <1>  -0.1500 
 16 C        1.0250    -6.0360    -0.5380 C.2   1 <1>   0.3660 
 17 N        0.3710    -5.6710    -1.6480 N.2   1 <1>  -0.5650 
 18 C        6.0890     3.6510    -0.2230 C.ar  1 <1>  -0.0230 
 19 N        7.3990     4.1780    -0.3370 N.pl3 1 <1>   0.3260 
 20 C        7.8300     5.4600    -0.1560 C.2   1 <1>   0.0070 
 21 C        8.5250     3.5030    -0.6510 C.2   1 <1>  -0.3020 
 22 N        9.1000     5.6240    -0.3340 N.2   1 <1>  -0.5650 
 23 C        6.8970     6.5920     0.2290 C.3   1 <1>  -0.0600 
 24 C        9.5410     4.3910    -0.6460 C.2   1 <1>   0.0770 
 25 H        2.8710     0.4320    -0.9600 H     1 <1>   0.3700 
 26 H        1.6290    -1.7810    -1.2140 H     1 <1>   0.0800 
 27 H        1.7690     2.1300     1.1670 H     1 <1>   0.0800 
 28 H        1.4160     2.5890    -0.4820 H     1 <1>   0.0800 
 29 H       -0.3780    -2.2970     0.2020 H     1 <1>   0.0800 
 30 H        0.6930    -2.8380     1.4630 H     1 <1>   0.0800 
 31 H        3.1870    -2.3130     1.3400 H     1 <1>   0.0800 
 32 H        3.8580    -1.6150    -0.1120 H     1 <1>   0.0800 
 33 H        3.2950    -3.2620    -0.1220 H     1 <1>   0.0800 
 34 H        3.1190     3.6380    -1.8340 H     1 <1>   0.1500 
 35 H        4.2090     1.7230     1.8210 H     1 <1>   0.1500 
 36 H       -0.3730    -3.7580    -2.0700 H     1 <1>   0.1500 
 37 H        5.3850     4.5370    -2.0370 H     1 <1>   0.1500 
 38 H        6.4770     2.6310     1.6160 H     1 <1>   0.1500 
 39 H        1.3670    -7.0510    -0.4100 H     1 <1>   0.1500 
 40 H        8.5280     2.4500    -0.8550 H     1 <1>   0.1500 
 41 H        6.3750     6.3470     1.1360 H     1 <1>   0.0800 
 42 H        6.1850     6.7660    -0.5560 H     1 <1>   0.0800 
 43 H        7.4630     7.4920     0.3880 H     1 <1>   0.0800 
 44 H       10.5830     4.2100    -0.8520 H     1 <1>   0.1500 
@<TRIPOS>BOND
  1   1   2  2   
  2   2   3  am  
  3   2   4  1   
  4   3   5  1   
  5   3  25  1   
  6   4   6  1   
  7   4   7  1   
  8   4  26  1   
  9   5   8  1   
 10   5  27  1   
 11   5  28  1   
 12   6   9  1   
 13   6  29  1   
 14   6  30  1   
 15   7  31  1   
 16   7  32  1   
 17   7  33  1   
 18   8  10  ar  
 19   8  11  ar  
 20   9  12  1   
 21   9  13  1   
 22  10  14  ar  
 23  10  34  1   
 24  11  15  ar  
 25  11  35  1   
 26  12  16  2   
 27  13  17  2   
 28  13  36  1   
 29  14  18  ar  
 30  14  37  1   
 31  15  18  ar  
 32  15  38  1   
 33  16  17  1   
 34  16  39  1   
 35  18  19  1   
 36  19  20  1   
 37  19  21  1   
 38  20  22  2   
 39  20  23  1   
 40  21  24  2   
 41  21  40  1   
 42  22  24  1   
 43  23  41  1   
 44  23  42  1   
 45  23  43  1   
 46  24  44  1   
@<TRIPOS>SUBSTRUCTURE
  1 ****   3 GROUP 4 **** **** 0

# MOE 2024.06 (io_trps.svl 2023.06)
