@<TRIPOS>MOLECULE
NONAME
48 49 1 0 0 
SMALL
USER_CHARGES


@<TRIPOS>ATOM
  1 S       -0.9590     0.3810     1.6590 S.o2  1 <1>   1.4470 
  2 O       -1.4740     1.6600     2.1020 O.2   1 <1>  -0.6500 
  3 O       -0.9220    -0.7000     2.6200 O.2   1 <1>  -0.6500 
  4 N       -1.9460    -0.0830     0.3580 N.am  1 <1>  -0.8490 
  5 C        0.6840     0.6380     0.9330 C.ar  1 <1>  -0.0090 
  6 C       -1.4290    -1.0640    -0.6230 C.3   1 <1>   0.1960 
  7 C       -3.3670    -0.2550     0.6960 C.3   1 <1>   0.1960 
  8 C        0.8850     1.5900    -0.0580 C.ar  1 <1>  -0.1500 
  9 C        1.7780    -0.1150     1.3360 C.ar  1 <1>  -0.1500 
 10 C       -1.5980    -2.5650    -0.2490 C.3   1 <1>  -0.1060 
 11 C       -3.8770    -1.6870     0.4800 C.3   1 <1>  -0.1600 
 12 C        2.1280     1.7920    -0.6390 C.ar  1 <1>  -0.1440 
 13 C        3.0240     0.0740     0.7660 C.ar  1 <1>  -0.1500 
 14 C       -1.8980    -3.2910    -1.5800 C.2   1 <1>   0.9060 
 15 C       -2.7630    -2.6840     0.7760 C.3   1 <1>   0.2000 
 16 C       -0.3210    -3.1760     0.4080 C.3   1 <1>  -0.1600 
 17 C        3.2090     1.0250    -0.2230 C.ar  1 <1>  -0.1440 
 18 C        2.2710     2.8480    -1.7250 C.3   1 <1>  -0.0960 
 19 O       -2.6560    -4.2720    -1.6070 O.co2 1 <1>  -0.9000 
 20 O       -1.3750    -2.8790    -2.6230 O.co2 1 <1>  -0.9000 
 21 O       -3.3030    -3.9520     0.8130 O.3   1 <1>  -0.6800 
 22 C        0.9550    -3.1780    -0.4550 C.3   1 <1>  -0.1600 
 23 C        4.5930     1.2030    -0.8310 C.3   1 <1>  -0.0970 
 24 C        2.1240    -3.8140     0.3020 C.3   1 <1>  -0.2400 
 25 H       -1.9910    -0.8790    -1.5240 H     1 <1>   0.0800 
 26 H       -0.4110    -0.8450    -0.8830 H     1 <1>   0.0800 
 27 H       -3.5240     0.0150     1.7280 H     1 <1>   0.0800 
 28 H       -3.9510     0.4210     0.0960 H     1 <1>   0.0800 
 29 H        0.0400     2.1780    -0.3750 H     1 <1>   0.1500 
 30 H        1.6520    -0.8620     2.1010 H     1 <1>   0.1500 
 31 H       -4.2080    -1.8060    -0.5370 H     1 <1>   0.0800 
 32 H       -4.7140    -1.8650     1.1310 H     1 <1>   0.0800 
 33 H        3.8490    -0.5320     1.0990 H     1 <1>   0.1500 
 34 H       -2.3980    -2.4900     1.7690 H     1 <1>   0.0800 
 35 H       -0.1120    -2.6680     1.3290 H     1 <1>   0.0800 
 36 H       -0.5470    -4.1980     0.6610 H     1 <1>   0.0800 
 37 H        1.3310     3.3330    -1.9190 H     1 <1>   0.0800 
 38 H        2.6080     2.3930    -2.6390 H     1 <1>   0.0800 
 39 H        2.9800     3.5970    -1.4220 H     1 <1>   0.0800 
 40 H       -3.2130    -4.3120    -0.1270 H     1 <1>   0.4000 
 41 H        0.7810    -3.7370    -1.3600 H     1 <1>   0.0800 
 42 H        1.2300    -2.1780    -0.7370 H     1 <1>   0.0800 
 43 H        5.3040     0.5390    -0.3740 H     1 <1>   0.0800 
 44 H        4.9330     2.2120    -0.6860 H     1 <1>   0.0800 
 45 H        4.5610     0.9900    -1.8840 H     1 <1>   0.0800 
 46 H        1.8900    -4.8320     0.5580 H     1 <1>   0.0800 
 47 H        2.3310    -3.2660     1.2030 H     1 <1>   0.0800 
 48 H        3.0040    -3.8080    -0.3160 H     1 <1>   0.0800 
@<TRIPOS>BOND
  1   1   2  2   
  2   1   3  2   
  3   1   4  am  
  4   1   5  1   
  5   4   6  1   
  6   4   7  1   
  7   5   8  ar  
  8   5   9  ar  
  9   6  10  1   
 10   6  25  1   
 11   6  26  1   
 12   7  11  1   
 13   7  27  1   
 14   7  28  1   
 15   8  12  ar  
 16   8  29  1   
 17   9  13  ar  
 18   9  30  1   
 19  10  14  1   
 20  10  15  1   
 21  10  16  1   
 22  11  15  1   
 23  11  31  1   
 24  11  32  1   
 25  12  17  ar  
 26  12  18  1   
 27  13  17  ar  
 28  13  33  1   
 29  14  19  ar  
 30  14  20  ar  
 31  15  21  1   
 32  15  34  1   
 33  16  22  1   
 34  16  35  1   
 35  16  36  1   
 36  17  23  1   
 37  18  37  1   
 38  18  38  1   
 39  18  39  1   
 40  21  40  1   
 41  22  24  1   
 42  22  41  1   
 43  22  42  1   
 44  23  43  1   
 45  23  44  1   
 46  23  45  1   
 47  24  46  1   
 48  24  47  1   
 49  24  48  1   
@<TRIPOS>SUBSTRUCTURE
  1 ****   6 GROUP 4 **** **** 0

# MOE 2024.06 (io_trps.svl 2023.06)
