@<TRIPOS>MOLECULE
NONAME
48 49 1 0 0 
SMALL
USER_CHARGES


@<TRIPOS>ATOM
  1 O       -4.9970     2.7560     0.1970 O.2   1 <1>  -0.5700 
  2 C       -4.2710     1.8850     0.6260 C.2   1 <1>   0.5690 
  3 N       -4.7980     0.9080     1.4350 N.am  1 <1>  -0.6600 
  4 C       -2.8070     1.8940     0.1730 C.3   1 <1>  -0.0190 
  5 C       -4.0310    -0.2750     1.9420 C.3   1 <1>   0.3210 
  6 C       -6.2420     0.9380     1.8430 C.3   1 <1>   0.1400 
  7 C       -2.1630     3.2790     0.3850 C.3   1 <1>  -0.0220 
  8 C       -2.6800     1.4560    -1.3000 C.3   1 <1>  -0.1600 
  9 C       -3.8460    -1.3440     0.8660 C.2   1 <1>   0.0460 
 10 C       -7.1830     0.3380     0.7780 C.3   1 <1>   0.3430 
 11 C       -0.7940     3.3500    -0.2700 C.2   1 <1>  -0.2880 
 12 C       -1.2110     1.3420    -1.7400 C.3   1 <1>  -0.0220 
 13 N       -4.9050    -1.8660     0.2060 N.2   1 <1>  -0.5650 
 14 C       -2.6920    -1.9250     0.4560 C.2   1 <1>  -0.3320 
 15 N       -7.0820     1.0650    -0.5270 N.4   1 <1>  -0.9590 
 16 C       -0.3740     2.4890    -1.2010 C.2   1 <1>  -0.2880 
 17 C       -4.3770    -2.7520    -0.5760 C.2   1 <1>   0.0360 
 18 N       -3.0360    -2.8340    -0.4750 N.pl3 1 <1>   0.0330 
 19 C       -1.2470    -1.7270     0.8880 C.3   1 <1>  -0.0600 
 20 C       -8.3810     1.6280    -0.9860 C.3   1 <1>   0.2630 
 21 C       -6.4390     0.2080    -1.5620 C.3   1 <1>   0.2630 
 22 H       -2.2350     1.2040     0.7590 H     1 <1>   0.0800 
 23 H       -4.5550    -0.7250     2.7670 H     1 <1>   0.0800 
 24 H       -3.0780     0.0410     2.3230 H     1 <1>   0.0800 
 25 H       -6.5360     1.9560     2.0350 H     1 <1>   0.0800 
 26 H       -6.3720     0.3990     2.7650 H     1 <1>   0.0800 
 27 H       -2.0690     3.4670     1.4400 H     1 <1>   0.0800 
 28 H       -2.7810     4.0540    -0.0370 H     1 <1>   0.0800 
 29 H       -3.1720     2.1860    -1.9200 H     1 <1>   0.0800 
 30 H       -3.1670     0.5090    -1.4470 H     1 <1>   0.0800 
 31 H       -8.1940     0.3920     1.1450 H     1 <1>   0.0800 
 32 H       -6.9430    -0.7040     0.6430 H     1 <1>   0.0800 
 33 H       -0.1930     4.1720     0.0830 H     1 <1>   0.1500 
 34 H       -1.1650     1.3380    -2.8150 H     1 <1>   0.0800 
 35 H       -0.7940     0.4170    -1.3870 H     1 <1>   0.0800 
 36 H       -6.4170     1.8540    -0.3500 H     1 <1>   0.4500 
 37 H        0.6060     2.5460    -1.6470 H     1 <1>   0.1500 
 38 H       -4.9330    -3.3830    -1.2480 H     1 <1>   0.1500 
 39 H       -2.4160    -3.4710    -0.9860 H     1 <1>   0.2700 
 40 H       -1.1570    -0.9230     1.5950 H     1 <1>   0.0800 
 41 H       -0.6300    -1.5000     0.0380 H     1 <1>   0.0800 
 42 H       -0.8760    -2.6250     1.3500 H     1 <1>   0.0800 
 43 H       -9.0870     0.8360    -1.1710 H     1 <1>   0.0800 
 44 H       -8.2400     2.1890    -1.8950 H     1 <1>   0.0800 
 45 H       -8.7850     2.2890    -0.2360 H     1 <1>   0.0800 
 46 H       -7.0110    -0.6920    -1.7140 H     1 <1>   0.0800 
 47 H       -5.4460    -0.0650    -1.2450 H     1 <1>   0.0800 
 48 H       -6.3630     0.7410    -2.4950 H     1 <1>   0.0800 
@<TRIPOS>BOND
  1   1   2  2   
  2   2   3  am  
  3   2   4  1   
  4   3   5  1   
  5   3   6  1   
  6   4   7  1   
  7   4   8  1   
  8   4  22  1   
  9   5   9  1   
 10   5  23  1   
 11   5  24  1   
 12   6  10  1   
 13   6  25  1   
 14   6  26  1   
 15   7  11  1   
 16   7  27  1   
 17   7  28  1   
 18   8  12  1   
 19   8  29  1   
 20   8  30  1   
 21   9  13  1   
 22   9  14  2   
 23  10  15  1   
 24  10  31  1   
 25  10  32  1   
 26  11  16  2   
 27  11  33  1   
 28  12  16  1   
 29  12  34  1   
 30  12  35  1   
 31  13  17  2   
 32  14  18  1   
 33  14  19  1   
 34  15  20  1   
 35  15  21  1   
 36  15  36  1   
 37  16  37  1   
 38  17  18  1   
 39  17  38  1   
 40  18  39  1   
 41  19  40  1   
 42  19  41  1   
 43  19  42  1   
 44  20  43  1   
 45  20  44  1   
 46  20  45  1   
 47  21  46  1   
 48  21  47  1   
 49  21  48  1   
@<TRIPOS>SUBSTRUCTURE
  1 ****   2 GROUP 4 **** **** 0

# MOE 2024.06 (io_trps.svl 2023.06)
