@<TRIPOS>MOLECULE
Untitled Document
40 41 1 0 0 
SMALL
USER_CHARGES


@<TRIPOS>ATOM
  1 S       -4.3080     0.0360    -1.1500 S.o2  1 <1>   1.2040 
  2 O       -3.2930    -0.9240    -0.7810 O.2   1 <1>  -0.6500 
  3 O       -4.5410     0.3080    -2.5500 O.2   1 <1>  -0.6500 
  4 C       -5.8560    -0.4310    -0.3470 C.ar  1 <1>  -0.0090 
  5 C       -3.8530     1.5720    -0.3640 C.3   1 <1>  -0.1350 
  6 C       -6.9870     0.3680    -0.4230 C.ar  1 <1>   0.1900 
  7 C       -5.9700    -1.6150     0.3710 C.ar  1 <1>  -0.1500 
  8 F       -6.8990     1.4930    -1.0810 F     1 <1>  -0.1900 
  9 C       -8.2060     0.0410     0.1660 C.ar  1 <1>  -0.1440 
 10 C       -7.1630    -1.9720     0.9760 C.ar  1 <1>  -0.1500 
 11 C       -8.2740    -1.1520     0.8730 C.ar  1 <1>  -0.1500 
 12 C       -9.4370     0.9450     0.0390 C.3   1 <1>   0.0640 
 13 C       -9.9540     1.4000     1.4110 C.3   1 <1>  -0.1600 
 14 C      -10.5560     0.2440    -0.7420 C.3   1 <1>  -0.1600 
 15 C      -11.2010     2.2710     1.2660 C.3   1 <1>   0.3430 
 16 C      -11.7940     1.1310    -0.8500 C.3   1 <1>   0.3430 
 17 N      -12.2570     1.5290     0.5160 N.4   1 <1>  -0.9590 
 18 C      -13.5080     2.3300     0.4670 C.3   1 <1>   0.3430 
 19 C      -14.6830     1.4300     0.1030 C.3   1 <1>  -0.2400 
 20 H       -2.9000     1.8990    -0.7330 H     1 <1>   0.0800 
 21 H       -3.7790     1.4430     0.6980 H     1 <1>   0.0800 
 22 H       -4.5730     2.3380    -0.5740 H     1 <1>   0.0800 
 23 H       -5.1180    -2.2710     0.4560 H     1 <1>   0.1500 
 24 H       -7.2250    -2.8970     1.5260 H     1 <1>   0.1500 
 25 H       -9.1860    -1.4650     1.3500 H     1 <1>   0.1500 
 26 H       -9.1740     1.8330    -0.5110 H     1 <1>   0.0800 
 27 H       -9.1850     1.9680     1.9060 H     1 <1>   0.0800 
 28 H      -10.1830     0.5560     2.0350 H     1 <1>   0.0800 
 29 H      -10.8240    -0.6860    -0.2740 H     1 <1>   0.0800 
 30 H      -10.2030     0.0140    -1.7330 H     1 <1>   0.0800 
 31 H      -10.9470     3.1770     0.7390 H     1 <1>   0.0800 
 32 H      -11.5640     2.5410     2.2460 H     1 <1>   0.0800 
 33 H      -12.5730     0.5910    -1.3650 H     1 <1>   0.0800 
 34 H      -11.5570     2.0110    -1.4260 H     1 <1>   0.0800 
 35 H      -12.4640     0.6680     1.0390 H     1 <1>   0.4500 
 36 H      -13.4140     3.1300    -0.2520 H     1 <1>   0.0800 
 37 H      -13.6960     2.7680     1.4350 H     1 <1>   0.0800 
 38 H      -14.5920     1.0430    -0.8960 H     1 <1>   0.0800 
 39 H      -15.5910     2.0060     0.1450 H     1 <1>   0.0800 
 40 H      -14.7760     0.6180     0.8020 H     1 <1>   0.0800 
@<TRIPOS>BOND
  1   1   2  2   
  2   1   3  2   
  3   1   4  1   
  4   1   5  1   
  5   4   6  ar  
  6   4   7  ar  
  7   5  20  1   
  8   5  21  1   
  9   5  22  1   
 10   6   8  1   
 11   6   9  ar  
 12   7  10  ar  
 13   7  23  1   
 14   9  11  ar  
 15   9  12  1   
 16  10  11  ar  
 17  10  24  1   
 18  11  25  1   
 19  12  13  1   
 20  12  14  1   
 21  12  26  1   
 22  13  15  1   
 23  13  27  1   
 24  13  28  1   
 25  14  16  1   
 26  14  29  1   
 27  14  30  1   
 28  15  17  1   
 29  15  31  1   
 30  15  32  1   
 31  16  17  1   
 32  16  33  1   
 33  16  34  1   
 34  17  18  1   
 35  17  35  1   
 36  18  19  1   
 37  18  36  1   
 38  18  37  1   
 39  19  38  1   
 40  19  39  1   
 41  19  40  1   
@<TRIPOS>SUBSTRUCTURE
  1 ****   9 GROUP 4 **** **** 0

# MOE 2024.06 (io_trps.svl 2023.06)
