@<TRIPOS>MOLECULE
NONAME
50 53 1 0 0 
SMALL
USER_CHARGES


@<TRIPOS>ATOM
  1 O       -3.3920     1.5380    -1.8520 O.2   1 <1>  -0.5700 
  2 C       -2.7950     1.4840    -0.8060 C.2   1 <1>   0.5690 
  3 N       -2.4510     0.3070    -0.2350 N.am  1 <1>  -0.7300 
  4 C       -2.4120     2.7720    -0.1070 C.3   1 <1>  -0.0990 
  5 C       -2.7280    -1.0220    -0.8220 C.3   1 <1>   0.2200 
  6 C       -0.9080     3.0630    -0.2410 C.3   1 <1>  -0.1600 
  7 C       -3.9370    -1.6270    -0.1310 C.3   1 <1>  -0.0800 
  8 C       -1.6250    -1.9970    -0.4280 C.3   1 <1>   0.1200 
  9 C       -0.5310     4.4020     0.4080 C.3   1 <1>   0.0960 
 10 C       -3.3150    -2.2710     1.1140 C.3   1 <1>   0.1200 
 11 C       -4.6440    -2.6580    -1.0330 C.3   1 <1>  -0.0160 
 12 O       -1.9520    -2.4480     0.8520 O.3   1 <1>  -0.5600 
 13 N        0.9280     4.6080     0.3570 N.pl3 1 <1>   0.3140 
 14 C       -5.9130    -3.1980    -0.3810 C.ar  1 <1>  -0.1440 
 15 N        1.7480     4.1550     1.2940 N.2   1 <1>  -0.7070 
 16 C        1.6520     5.2270    -0.5800 C.2   1 <1>   0.0360 
 17 C       -7.1090    -2.4440    -0.3140 C.ar  1 <1>   0.0000 
 18 C       -5.9250    -4.4480     0.1640 C.ar  1 <1>  -0.1500 
 19 C        2.9040     4.5330     0.8580 C.2   1 <1>   0.3660 
 20 N        2.9050     5.2030    -0.3020 N.2   1 <1>  -0.5650 
 21 C       -8.2220    -3.0340     0.3340 C.ar  1 <1>   0.3100 
 22 C       -7.2690    -1.1440    -0.8510 C.ar  1 <1>  -0.1500 
 23 C       -7.0830    -4.9410     0.7760 C.ar  1 <1>   0.1600 
 24 N       -8.1930    -4.2790     0.8720 N.ar  1 <1>  -0.6200 
 25 C       -9.4190    -2.3060     0.4270 C.ar  1 <1>  -0.1500 
 26 C       -8.4510    -0.4630    -0.7450 C.ar  1 <1>  -0.1500 
 27 C       -9.5410    -1.0480    -0.0960 C.ar  1 <1>  -0.1500 
 28 H       -1.9740     0.2770     0.6690 H     1 <1>   0.3700 
 29 H       -2.9790     3.5750    -0.5450 H     1 <1>   0.0800 
 30 H       -2.6860     2.6980     0.9290 H     1 <1>   0.0800 
 31 H       -2.8410    -0.9420    -1.8900 H     1 <1>   0.0800 
 32 H       -0.6450     3.0840    -1.2860 H     1 <1>   0.0800 
 33 H       -0.3500     2.2720     0.2320 H     1 <1>   0.0800 
 34 H       -4.6410    -0.8650     0.1510 H     1 <1>   0.0800 
 35 H       -0.6500    -1.5410    -0.4150 H     1 <1>   0.0800 
 36 H       -1.6190    -2.8500    -1.0830 H     1 <1>   0.0800 
 37 H       -0.8290     4.4100     1.4410 H     1 <1>   0.0800 
 38 H       -1.0140     5.2170    -0.0980 H     1 <1>   0.0800 
 39 H       -3.7500    -3.2250     1.3570 H     1 <1>   0.0800 
 40 H       -3.3990    -1.6160     1.9630 H     1 <1>   0.0800 
 41 H       -3.9750    -3.4730    -1.2460 H     1 <1>   0.0800 
 42 H       -4.8980    -2.2090    -1.9780 H     1 <1>   0.0800 
 43 H        1.2190     5.6800    -1.4540 H     1 <1>   0.1500 
 44 H       -5.0560    -5.0820     0.1440 H     1 <1>   0.1500 
 45 H        3.8270     4.3340     1.3780 H     1 <1>   0.1500 
 46 H       -6.4470    -0.6740    -1.3580 H     1 <1>   0.1500 
 47 H       -7.0480    -5.9320     1.1950 H     1 <1>   0.1500 
 48 H      -10.2450    -2.7770     0.9280 H     1 <1>   0.1500 
 49 H       -8.5560     0.5260    -1.1580 H     1 <1>   0.1500 
 50 H      -10.4650    -0.5020    -0.0180 H     1 <1>   0.1500 
@<TRIPOS>BOND
  1   1   2  2   
  2   2   3  am  
  3   2   4  1   
  4   3   5  1   
  5   3  28  1   
  6   4   6  1   
  7   4  29  1   
  8   4  30  1   
  9   5   7  1   
 10   5   8  1   
 11   5  31  1   
 12   6   9  1   
 13   6  32  1   
 14   6  33  1   
 15   7  10  1   
 16   7  11  1   
 17   7  34  1   
 18   8  12  1   
 19   8  35  1   
 20   8  36  1   
 21   9  13  1   
 22   9  37  1   
 23   9  38  1   
 24  10  12  1   
 25  10  39  1   
 26  10  40  1   
 27  11  14  1   
 28  11  41  1   
 29  11  42  1   
 30  13  15  1   
 31  13  16  1   
 32  14  17  ar  
 33  14  18  ar  
 34  15  19  2   
 35  16  20  2   
 36  16  43  1   
 37  17  21  ar  
 38  17  22  ar  
 39  18  23  ar  
 40  18  44  1   
 41  19  20  1   
 42  19  45  1   
 43  21  24  ar  
 44  21  25  ar  
 45  22  26  ar  
 46  22  46  1   
 47  23  24  ar  
 48  23  47  1   
 49  25  27  ar  
 50  25  48  1   
 51  26  27  ar  
 52  26  49  1   
 53  27  50  1   
@<TRIPOS>SUBSTRUCTURE
  1 ****   3 GROUP 4 **** **** 0

# MOE 2024.06 (io_trps.svl 2023.06)
