@<TRIPOS>MOLECULE
NONAME
45 47 1 0 0 
SMALL
USER_CHARGES


@<TRIPOS>ATOM
  1 O        0.4370     1.2320    -0.9390 O.co2 1 <1>  -0.9000 
  2 C       -0.1550     0.4700    -0.1570 C.2   1 <1>   0.9060 
  3 O        0.2440    -0.6520     0.1520 O.co2 1 <1>  -0.9000 
  4 C       -1.4680     1.0190     0.4330 C.3   1 <1>   0.3170 
  5 N       -1.6990     2.4400    -0.0290 N.4   1 <1>  -0.9590 
  6 C       -2.7090     0.2280    -0.0050 C.3   1 <1>  -0.1600 
  7 C       -2.9940     2.4710    -0.7580 C.3   1 <1>   0.3430 
  8 C       -1.5910     3.3940     1.0910 C.3   1 <1>   0.4860 
  9 C       -3.7850     1.2770    -0.2200 C.3   1 <1>   0.2000 
 10 C       -1.7740     4.8050     0.5650 C.ar  1 <1>  -0.1430 
 11 O       -4.3220     1.6100     1.0200 O.3   1 <1>  -0.6800 
 12 C       -0.7480     5.4300    -0.1280 C.ar  1 <1>  -0.1500 
 13 C       -2.9680     5.4780     0.7700 C.ar  1 <1>  -0.1500 
 14 C       -0.9090     6.7160    -0.6180 C.ar  1 <1>  -0.1430 
 15 C       -3.1380     6.7610     0.2820 C.ar  1 <1>  -0.1500 
 16 C       -2.1100     7.3880    -0.4160 C.ar  1 <1>   0.0820 
 17 C        0.2470     7.3820    -1.3590 C.3   1 <1>   0.2390 
 18 O       -2.2180     8.6460    -0.9130 O.3   1 <1>  -0.3630 
 19 N        1.2010     7.9900    -0.4070 N.pl3 1 <1>   0.3140 
 20 C       -3.3600     9.4430    -0.6850 C.3   1 <1>   0.0400 
 21 N        2.5170     7.6930    -0.4260 N.2   1 <1>  -0.7070 
 22 C        0.9230     8.8920     0.5580 C.2   1 <1>  -0.3020 
 23 C        3.0350     8.4090     0.5250 C.2   1 <1>   0.1390 
 24 C        2.0850     9.1820     1.1800 C.2   1 <1>  -0.1500 
 25 H       -1.3880     0.9880     1.5040 H     1 <1>   0.0800 
 26 H       -0.8900     2.5780    -0.6800 H     1 <1>   0.4500 
 27 H       -2.9760    -0.5250     0.7140 H     1 <1>   0.0800 
 28 H       -2.4930    -0.2640    -0.9390 H     1 <1>   0.0800 
 29 H       -3.5270     3.3950    -0.6160 H     1 <1>   0.0800 
 30 H       -2.8070     2.3250    -1.8090 H     1 <1>   0.0800 
 31 H       -2.3480     3.1780     1.8270 H     1 <1>   0.0800 
 32 H       -0.6220     3.3050     1.5550 H     1 <1>   0.0800 
 33 H       -4.5780     0.9650    -0.8790 H     1 <1>   0.0800 
 34 H       -4.8370     0.8600     1.3820 H     1 <1>   0.4000 
 35 H        0.1890     4.9160    -0.2830 H     1 <1>   0.1500 
 36 H       -3.7730     5.0080     1.3100 H     1 <1>   0.1500 
 37 H       -4.0750     7.2550     0.4570 H     1 <1>   0.1500 
 38 H       -0.1030     8.1480    -2.0240 H     1 <1>   0.0800 
 39 H        0.7770     6.6510    -1.9430 H     1 <1>   0.0800 
 40 H       -3.1960    10.4010    -1.1450 H     1 <1>   0.0800 
 41 H       -3.4960     9.5660     0.3750 H     1 <1>   0.0800 
 42 H       -4.2140     8.9660    -1.1320 H     1 <1>   0.0800 
 43 H       -0.0690     9.2640     0.7390 H     1 <1>   0.1500 
 44 H        4.0840     8.3960     0.7710 H     1 <1>   0.1500 
 45 H        2.2660     9.8550     1.9980 H     1 <1>   0.1500 
@<TRIPOS>BOND
  1   1   2  ar  
  2   2   3  ar  
  3   2   4  1   
  4   4   5  1   
  5   4   6  1   
  6   4  25  1   
  7   5   7  1   
  8   5   8  1   
  9   5  26  1   
 10   6   9  1   
 11   6  27  1   
 12   6  28  1   
 13   7   9  1   
 14   7  29  1   
 15   7  30  1   
 16   8  10  1   
 17   8  31  1   
 18   8  32  1   
 19   9  11  1   
 20   9  33  1   
 21  10  12  ar  
 22  10  13  ar  
 23  11  34  1   
 24  12  14  ar  
 25  12  35  1   
 26  13  15  ar  
 27  13  36  1   
 28  14  16  ar  
 29  14  17  1   
 30  15  16  ar  
 31  15  37  1   
 32  16  18  1   
 33  17  19  1   
 34  17  38  1   
 35  17  39  1   
 36  18  20  1   
 37  19  21  1   
 38  19  22  1   
 39  20  40  1   
 40  20  41  1   
 41  20  42  1   
 42  21  23  2   
 43  22  24  2   
 44  22  43  1   
 45  23  24  1   
 46  23  44  1   
 47  24  45  1   
@<TRIPOS>SUBSTRUCTURE
  1 ****  12 GROUP 4 **** **** 0

# MOE 2024.06 (io_trps.svl 2023.06)
