@<TRIPOS>MOLECULE
NONAME
50 53 1 0 0 
SMALL
USER_CHARGES


@<TRIPOS>ATOM
  1 O        0.0400     0.4970     0.0610 O.2   1 <1>  -0.5700 
  2 C       -0.0540     1.7040     0.0600 C.2   1 <1>   0.5690 
  3 N       -1.2750     2.3280     0.0080 N.am  1 <1>  -0.6600 
  4 C        1.2220     2.5300     0.1200 C.3   1 <1>  -0.0990 
  5 C       -1.4470     3.8120     0.0910 C.3   1 <1>   0.1400 
  6 C       -2.5200     1.5140    -0.1430 C.3   1 <1>   0.1400 
  7 C        2.5020     1.6990    -0.0720 C.3   1 <1>   0.0200 
  8 C       -2.8090     4.1450     0.6960 C.3   1 <1>  -0.1600 
  9 C       -3.5930     2.3050    -0.8920 C.3   1 <1>  -0.1600 
 10 C        3.7630     2.5490    -0.0280 C.2   1 <1>   0.0060 
 11 C       -3.9550     3.6270    -0.1900 C.3   1 <1>   0.4180 
 12 N        3.7960     3.8290     0.1280 N.2   1 <1>  -0.5650 
 13 N        4.9920     1.9850    -0.1550 N.pl3 1 <1>   0.0330 
 14 O       -4.1750     4.5480    -1.2300 O.3   1 <1>  -0.5600 
 15 C       -5.2250     3.4400     0.6400 C.2   1 <1>  -0.2880 
 16 C        5.1220     4.1420     0.1030 C.ar  1 <1>   0.2270 
 17 C        5.8840     3.0030    -0.0730 C.ar  1 <1>  -0.1520 
 18 C       -4.9770     5.6660    -0.9620 C.3   1 <1>   0.1200 
 19 C       -6.3450     4.1450     0.4710 C.2   1 <1>  -0.2760 
 20 C        5.7460     5.3820     0.2250 C.ar  1 <1>  -0.1500 
 21 C        7.2790     3.0630    -0.1330 C.ar  1 <1>  -0.1500 
 22 C       -6.3990     5.2380    -0.5790 C.3   1 <1>  -0.0220 
 23 C       -7.6240     3.9350     1.2630 C.3   1 <1>  -0.1020 
 24 C        7.1210     5.4540     0.1680 C.ar  1 <1>  -0.1500 
 25 C        7.8860     4.2940    -0.0110 C.ar  1 <1>  -0.1500 
 26 H        1.2680     3.0200     1.0740 H     1 <1>   0.0800 
 27 H        1.1850     3.2800    -0.6480 H     1 <1>   0.0800 
 28 H       -1.3760     4.2340    -0.8980 H     1 <1>   0.0800 
 29 H       -0.6770     4.2450     0.7040 H     1 <1>   0.0800 
 30 H       -2.8780     1.2360     0.8330 H     1 <1>   0.0800 
 31 H       -2.3010     0.6100    -0.6880 H     1 <1>   0.0800 
 32 H        2.4530     1.1940    -1.0200 H     1 <1>   0.0800 
 33 H        2.5570     0.9550     0.7030 H     1 <1>   0.0800 
 34 H       -2.8960     5.2030     0.8480 H     1 <1>   0.0800 
 35 H       -2.8630     3.6830     1.6650 H     1 <1>   0.0800 
 36 H       -4.4740     1.6990    -0.9980 H     1 <1>   0.0800 
 37 H       -3.2190     2.5060    -1.8800 H     1 <1>   0.0800 
 38 H        5.2080     0.9950    -0.2860 H     1 <1>   0.2700 
 39 H       -5.1270     2.6620     1.3760 H     1 <1>   0.1500 
 40 H       -4.9960     6.2760    -1.8470 H     1 <1>   0.0800 
 41 H       -4.5300     6.2300    -0.1630 H     1 <1>   0.0800 
 42 H        5.1340     6.2540     0.3610 H     1 <1>   0.1500 
 43 H        7.8570     2.1670    -0.2700 H     1 <1>   0.1500 
 44 H       -6.9200     4.8820    -1.4510 H     1 <1>   0.0800 
 45 H       -6.9240     6.0960    -0.2000 H     1 <1>   0.0800 
 46 H       -7.8810     4.8300     1.8010 H     1 <1>   0.0800 
 47 H       -7.5020     3.1350     1.9700 H     1 <1>   0.0800 
 48 H       -8.4320     3.6830     0.5990 H     1 <1>   0.0800 
 49 H        7.6190     6.4030     0.2610 H     1 <1>   0.1500 
 50 H        8.9580     4.3760    -0.0520 H     1 <1>   0.1500 
@<TRIPOS>BOND
  1   1   2  2   
  2   2   3  am  
  3   2   4  1   
  4   3   5  1   
  5   3   6  1   
  6   4   7  1   
  7   4  26  1   
  8   4  27  1   
  9   5   8  1   
 10   5  28  1   
 11   5  29  1   
 12   6   9  1   
 13   6  30  1   
 14   6  31  1   
 15   7  10  1   
 16   7  32  1   
 17   7  33  1   
 18   8  11  1   
 19   8  34  1   
 20   8  35  1   
 21   9  11  1   
 22   9  36  1   
 23   9  37  1   
 24  10  12  2   
 25  10  13  1   
 26  11  14  1   
 27  11  15  1   
 28  12  16  1   
 29  13  17  1   
 30  13  38  1   
 31  14  18  1   
 32  15  19  2   
 33  15  39  1   
 34  16  17  ar  
 35  16  20  ar  
 36  17  21  ar  
 37  18  22  1   
 38  18  40  1   
 39  18  41  1   
 40  19  22  1   
 41  19  23  1   
 42  20  24  ar  
 43  20  42  1   
 44  21  25  ar  
 45  21  43  1   
 46  22  44  1   
 47  22  45  1   
 48  23  46  1   
 49  23  47  1   
 50  23  48  1   
 51  24  25  ar  
 52  24  49  1   
 53  25  50  1   
@<TRIPOS>SUBSTRUCTURE
  1 ****   4 GROUP 4 **** **** 0

# MOE 2024.06 (io_trps.svl 2023.06)
