@<TRIPOS>MOLECULE
NONAME
45 47 1 0 0 
SMALL
USER_CHARGES


@<TRIPOS>ATOM
  1 O       -2.0700     0.4310    -1.9030 O.2   1 <1>  -0.5700 
  2 C       -1.8470     0.5540    -0.7100 C.2   1 <1>   0.7160 
  3 N       -1.8670    -0.5830     0.0520 N.am  1 <1>  -0.7300 
  4 C       -1.5800     1.8420    -0.0810 C.2   1 <1>   0.2030 
  5 C       -2.1470    -1.9500    -0.4460 C.3   1 <1>   0.2200 
  6 N       -2.0670     3.0160    -0.4400 N.2   1 <1>  -0.7070 
  7 C       -0.7510     1.9980     1.0390 C.2   1 <1>  -0.1500 
  8 C       -3.5880    -2.3580    -0.1660 C.3   1 <1>  -0.0800 
  9 C       -1.4030    -2.9460     0.4330 C.3   1 <1>   0.1200 
 10 N       -1.5600     3.9090     0.4200 N.pl3 1 <1>   0.3140 
 11 C       -0.7620     3.3130     1.3280 C.2   1 <1>  -0.3020 
 12 C       -3.5290    -2.8630     1.2810 C.3   1 <1>   0.1200 
 13 C       -4.6620    -1.2840    -0.4200 C.3   1 <1>  -0.0160 
 14 O       -2.1770    -3.0510     1.5890 O.3   1 <1>  -0.5600 
 15 C       -1.8770     5.3610     0.3170 C.3   1 <1>   0.1760 
 16 C       -6.0550    -1.8450    -0.1780 C.ar  1 <1>  -0.1430 
 17 C       -0.6090     6.1750     0.0290 C.3   1 <1>  -0.2400 
 18 C       -2.5760     5.8600     1.5890 C.3   1 <1>  -0.2400 
 19 C       -6.7450    -1.6150     0.9950 C.ar  1 <1>  -0.1500 
 20 C       -6.7000    -2.6170    -1.1230 C.ar  1 <1>  -0.1500 
 21 C       -8.0070    -2.1590     1.1640 C.ar  1 <1>   0.1600 
 22 C       -7.9650    -3.1130    -0.8540 C.ar  1 <1>   0.1600 
 23 N       -8.6330    -2.9060     0.2690 N.ar  1 <1>  -0.6200 
 24 H       -1.8170    -0.5090     1.0690 H     1 <1>   0.3700 
 25 H       -1.8800    -2.0410    -1.4860 H     1 <1>   0.0800 
 26 H       -0.2180     1.2120     1.5420 H     1 <1>   0.1500 
 27 H       -3.8120    -3.2060    -0.7890 H     1 <1>   0.0800 
 28 H       -0.4090    -2.6230     0.6860 H     1 <1>   0.0800 
 29 H       -1.3680    -3.9160    -0.0320 H     1 <1>   0.0800 
 30 H       -0.2570     3.8510     2.1070 H     1 <1>   0.1500 
 31 H       -4.0490    -3.7980     1.3980 H     1 <1>   0.0800 
 32 H       -3.9220    -2.1390     1.9730 H     1 <1>   0.0800 
 33 H       -4.5890    -0.9380    -1.4370 H     1 <1>   0.0800 
 34 H       -4.5060    -0.4330     0.2190 H     1 <1>   0.0800 
 35 H       -2.5530     5.4770    -0.5130 H     1 <1>   0.0800 
 36 H        0.0890     6.0990     0.8440 H     1 <1>   0.0800 
 37 H       -0.8610     7.2110    -0.1100 H     1 <1>   0.0800 
 38 H       -0.1420     5.8180    -0.8720 H     1 <1>   0.0800 
 39 H       -1.9250     5.7780     2.4420 H     1 <1>   0.0800 
 40 H       -3.4680     5.2850     1.7660 H     1 <1>   0.0800 
 41 H       -2.8570     6.8910     1.4730 H     1 <1>   0.0800 
 42 H       -6.3150    -1.0180     1.7780 H     1 <1>   0.1500 
 43 H       -6.2310    -2.8350    -2.0650 H     1 <1>   0.1500 
 44 H       -8.5310    -1.9690     2.0850 H     1 <1>   0.1500 
 45 H       -8.4520    -3.7140    -1.6030 H     1 <1>   0.1500 
@<TRIPOS>BOND
  1   1   2  2   
  2   2   3  am  
  3   2   4  1   
  4   3   5  1   
  5   3  24  1   
  6   4   6  2   
  7   4   7  1   
  8   5   8  1   
  9   5   9  1   
 10   5  25  1   
 11   6  10  1   
 12   7  11  2   
 13   7  26  1   
 14   8  12  1   
 15   8  13  1   
 16   8  27  1   
 17   9  14  1   
 18   9  28  1   
 19   9  29  1   
 20  10  11  1   
 21  10  15  1   
 22  11  30  1   
 23  12  14  1   
 24  12  31  1   
 25  12  32  1   
 26  13  16  1   
 27  13  33  1   
 28  13  34  1   
 29  15  17  1   
 30  15  18  1   
 31  15  35  1   
 32  16  19  ar  
 33  16  20  ar  
 34  17  36  1   
 35  17  37  1   
 36  17  38  1   
 37  18  39  1   
 38  18  40  1   
 39  18  41  1   
 40  19  21  ar  
 41  19  42  1   
 42  20  22  ar  
 43  20  43  1   
 44  21  23  ar  
 45  21  44  1   
 46  22  23  ar  
 47  22  45  1   
@<TRIPOS>SUBSTRUCTURE
  1 ****   3 GROUP 4 **** **** 0

# MOE 2024.06 (io_trps.svl 2023.06)
