@<TRIPOS>MOLECULE
NONAME
61 64 1 0 0 
SMALL
USER_CHARGES


@<TRIPOS>ATOM
  1 O       -0.3350     2.2980     1.4890 O.2   1 <1>  -0.5700 
  2 C       -1.5340     2.3890     1.2970 C.2   1 <1>   0.6900 
  3 N       -2.3510     2.9440     2.2540 N.am  1 <1>  -0.6600 
  4 N       -2.0650     2.0430     0.0880 N.am  1 <1>  -0.5470 
  5 C       -1.7720     3.4120     3.5370 C.3   1 <1>   0.1400 
  6 C       -3.5790     3.7010     1.9220 C.3   1 <1>   0.1400 
  7 C       -1.4230     1.8190    -1.1350 C.ar  1 <1>   0.1170 
  8 C       -1.2420     4.8340     3.3390 C.3   1 <1>  -0.1600 
  9 C       -3.1580     5.1230     1.5510 C.3   1 <1>  -0.1600 
 10 C       -0.2350     1.1010    -1.2300 C.ar  1 <1>  -0.1500 
 11 C       -1.9830     2.3310    -2.2990 C.ar  1 <1>  -0.1500 
 12 C       -2.2180     5.7690     2.5910 C.3   1 <1>   0.2890 
 13 C        0.3860     0.9160    -2.4520 C.ar  1 <1>  -0.1500 
 14 C       -1.3660     2.1480    -3.5240 C.ar  1 <1>  -0.1500 
 15 N       -1.4570     6.8630     1.9380 N.pl3 1 <1>  -0.8690 
 16 C       -0.1780     1.4420    -3.6010 C.ar  1 <1>  -0.1500 
 17 C       -0.5350     6.8380     0.9550 C.ar  1 <1>   0.4100 
 18 N       -0.0670     8.0140     0.6070 N.ar  1 <1>  -0.6200 
 19 C       -0.0920     5.6550     0.3330 C.ar  1 <1>  -0.1500 
 20 C        0.8450     8.0670    -0.3570 C.ar  1 <1>   0.7710 
 21 C        0.8420     5.7210    -0.6400 C.ar  1 <1>   0.2170 
 22 N        1.2950     6.9530    -0.9660 N.ar  1 <1>  -0.1790 
 23 N        1.3430     9.2760    -0.7360 N.pl3 1 <1>  -0.8380 
 24 C        1.3850     4.4910    -1.3580 C.3   1 <1>  -0.0170 
 25 C        2.2470     9.5700    -1.9040 C.3   1 <1>   0.2090 
 26 C        1.0070    10.5460     0.0120 C.3   1 <1>   0.2090 
 27 C        2.9070     4.3550    -1.2210 C.3   1 <1>  -0.2400 
 28 C        1.6940    10.7270    -2.7590 C.3   1 <1>   0.1200 
 29 C        0.5300    11.6510    -0.9460 C.3   1 <1>   0.1200 
 30 O        1.4650    11.8530    -1.9670 O.3   1 <1>  -0.5600 
 31 H       -3.0780     2.0530     0.0680 H     1 <1>   0.3700 
 32 H       -0.9750     2.7570     3.8490 H     1 <1>   0.0800 
 33 H       -2.5320     3.3970     4.3000 H     1 <1>   0.0800 
 34 H       -4.2320     3.7180     2.7780 H     1 <1>   0.0800 
 35 H       -4.1130     3.2420     1.1090 H     1 <1>   0.0800 
 36 H       -0.3050     4.7560     2.8240 H     1 <1>   0.0800 
 37 H       -1.0240     5.2570     4.3020 H     1 <1>   0.0800 
 38 H       -4.0380     5.7330     1.4540 H     1 <1>   0.0800 
 39 H       -2.6980     5.0850     0.5840 H     1 <1>   0.0800 
 40 H        0.2050     0.6830    -0.3420 H     1 <1>   0.1500 
 41 H       -2.9070     2.8780    -2.2500 H     1 <1>   0.1500 
 42 H       -2.8530     6.2090     3.3440 H     1 <1>   0.0800 
 43 H        1.3050     0.3580    -2.5080 H     1 <1>   0.1500 
 44 H       -1.8110     2.5480    -4.4190 H     1 <1>   0.1500 
 45 H       -1.6690     7.7930     2.3110 H     1 <1>   0.4000 
 46 H        0.3020     1.2940    -4.5540 H     1 <1>   0.1500 
 47 H       -0.4940     4.7140     0.6390 H     1 <1>   0.1500 
 48 H        2.0200     7.0790    -1.6560 H     1 <1>   0.4570 
 49 H        1.1110     4.5230    -2.3980 H     1 <1>   0.0800 
 50 H        0.9290     3.6120    -0.9370 H     1 <1>   0.0800 
 51 H        2.3670     8.7130    -2.5390 H     1 <1>   0.0800 
 52 H        3.2200     9.8540    -1.5370 H     1 <1>   0.0800 
 53 H        1.8840    10.8950     0.5280 H     1 <1>   0.0800 
 54 H        0.2430    10.3900     0.7530 H     1 <1>   0.0800 
 55 H        3.4260     5.1660    -1.6980 H     1 <1>   0.0800 
 56 H        3.2270     3.4350    -1.6820 H     1 <1>   0.0800 
 57 H        3.1870     4.3190    -0.1820 H     1 <1>   0.0800 
 58 H        0.7700    10.4480    -3.2360 H     1 <1>   0.0800 
 59 H        2.4040    11.0030    -3.5180 H     1 <1>   0.0800 
 60 H        0.4200    12.5800    -0.4150 H     1 <1>   0.0800 
 61 H       -0.4170    11.3920    -1.3870 H     1 <1>   0.0800 
@<TRIPOS>BOND
  1   1   2  2   
  2   2   3  am  
  3   2   4  am  
  4   3   5  1   
  5   3   6  1   
  6   4   7  1   
  7   4  31  1   
  8   5   8  1   
  9   5  32  1   
 10   5  33  1   
 11   6   9  1   
 12   6  34  1   
 13   6  35  1   
 14   7  10  ar  
 15   7  11  ar  
 16   8  12  1   
 17   8  36  1   
 18   8  37  1   
 19   9  12  1   
 20   9  38  1   
 21   9  39  1   
 22  10  13  ar  
 23  10  40  1   
 24  11  14  ar  
 25  11  41  1   
 26  12  15  1   
 27  12  42  1   
 28  13  16  ar  
 29  13  43  1   
 30  14  16  ar  
 31  14  44  1   
 32  15  17  1   
 33  15  45  1   
 34  16  46  1   
 35  17  18  ar  
 36  17  19  ar  
 37  18  20  ar  
 38  19  21  ar  
 39  19  47  1   
 40  20  22  ar  
 41  20  23  1   
 42  21  22  ar  
 43  21  24  1   
 44  22  48  1   
 45  23  25  1   
 46  23  26  1   
 47  24  27  1   
 48  24  49  1   
 49  24  50  1   
 50  25  28  1   
 51  25  51  1   
 52  25  52  1   
 53  26  29  1   
 54  26  53  1   
 55  26  54  1   
 56  27  55  1   
 57  27  56  1   
 58  27  57  1   
 59  28  30  1   
 60  28  58  1   
 61  28  59  1   
 62  29  30  1   
 63  29  60  1   
 64  29  61  1   
@<TRIPOS>SUBSTRUCTURE
  1 ****  19 GROUP 4 **** **** 0

# MOE 2024.06 (io_trps.svl 2023.06)
