@<TRIPOS>MOLECULE
NONAME
53 54 1 0 0 
SMALL
USER_CHARGES


@<TRIPOS>ATOM
  1 O       -2.4250     0.3710    -1.8270 O.2   1 <1>  -0.5700 
  2 C       -2.3710     0.7790    -0.6940 C.2   1 <1>   0.5690 
  3 N       -2.6940    -0.0340     0.3590 N.am  1 <1>  -0.6600 
  4 C       -2.0110     2.2390    -0.4690 C.3   1 <1>  -0.0990 
  5 C       -2.5150    -1.5070     0.2170 C.3   1 <1>   0.3200 
  6 C       -3.3250     0.4680     1.6260 C.3   1 <1>   0.1400 
  7 C       -0.8860     2.7240    -1.3920 C.3   1 <1>  -0.0170 
  8 C       -3.8830    -2.1400     0.0880 C.2   1 <1>  -0.3320 
  9 C       -4.6370     1.2440     1.3610 C.3   1 <1>   0.3430 
 10 C       -0.5660     4.1790    -1.0720 C.ar  1 <1>  -0.1440 
 11 N       -4.4910    -2.8830     1.0350 N.pl3 1 <1>   0.0330 
 12 C       -4.7260    -2.0930    -0.9660 C.2   1 <1>   0.0770 
 13 N       -5.4970     0.5370     0.3590 N.4   1 <1>  -0.9590 
 14 C        0.4120     4.5510    -0.1520 C.ar  1 <1>  -0.1430 
 15 C       -1.2950     5.1630    -1.7230 C.ar  1 <1>  -0.1500 
 16 C       -5.6940    -3.1940     0.5090 C.2   1 <1>   0.0360 
 17 N       -5.8840    -2.7120    -0.6760 N.2   1 <1>  -0.5650 
 18 C       -5.7180     1.3290    -0.8880 C.3   1 <1>   0.2630 
 19 C       -6.7930     0.0500     0.9150 C.3   1 <1>   0.2630 
 20 C        0.6310     5.8980     0.1000 C.ar  1 <1>  -0.1500 
 21 C        1.2650     3.5290     0.5860 C.3   1 <1>  -0.0970 
 22 C       -1.0680     6.5020    -1.4630 C.ar  1 <1>  -0.1500 
 23 C       -0.1030     6.8770    -0.5460 C.ar  1 <1>  -0.1430 
 24 C        0.1570     8.3440    -0.2560 C.3   1 <1>  -0.0970 
 25 H       -1.6940     2.3870     0.5450 H     1 <1>   0.0800 
 26 H       -2.8820     2.8420    -0.6430 H     1 <1>   0.0800 
 27 H       -1.9850    -1.8970     1.0700 H     1 <1>   0.0800 
 28 H       -1.9310    -1.7290    -0.6620 H     1 <1>   0.0800 
 29 H       -2.6300     1.1000     2.1520 H     1 <1>   0.0800 
 30 H       -3.5430    -0.3640     2.2720 H     1 <1>   0.0800 
 31 H       -1.1940     2.6430    -2.4200 H     1 <1>   0.0800 
 32 H       -0.0150     2.1040    -1.2770 H     1 <1>   0.0800 
 33 H       -4.3910     2.2270     0.9950 H     1 <1>   0.0800 
 34 H       -5.1720     1.3700     2.2880 H     1 <1>   0.0800 
 35 H       -4.1240    -3.1950     1.9410 H     1 <1>   0.2700 
 36 H       -4.5590    -1.6250    -1.9260 H     1 <1>   0.1500 
 37 H       -4.9580    -0.3080     0.0680 H     1 <1>   0.4500 
 38 H       -2.0470     4.8940    -2.4430 H     1 <1>   0.1500 
 39 H       -6.4140    -3.7960     1.0400 H     1 <1>   0.1500 
 40 H       -6.2470     2.2410    -0.6680 H     1 <1>   0.0800 
 41 H       -6.2970     0.7520    -1.5920 H     1 <1>   0.0800 
 42 H       -4.7750     1.5720    -1.3510 H     1 <1>   0.0800 
 43 H       -7.4210     0.8810     1.1940 H     1 <1>   0.0800 
 44 H       -6.6210    -0.5660     1.7820 H     1 <1>   0.0800 
 45 H       -7.3080    -0.5450     0.1770 H     1 <1>   0.0800 
 46 H        1.3870     6.1940     0.8060 H     1 <1>   0.1500 
 47 H        0.6440     2.8050     1.0800 H     1 <1>   0.0800 
 48 H        1.8780     4.0040     1.3300 H     1 <1>   0.0800 
 49 H        1.9110     3.0250    -0.1090 H     1 <1>   0.0800 
 50 H       -1.6420     7.2500    -1.9810 H     1 <1>   0.1500 
 51 H        0.3890     8.4840     0.7840 H     1 <1>   0.0800 
 52 H       -0.7080     8.9370    -0.4930 H     1 <1>   0.0800 
 53 H        0.9870     8.6890    -0.8470 H     1 <1>   0.0800 
@<TRIPOS>BOND
  1   1   2  2   
  2   2   3  am  
  3   2   4  1   
  4   3   5  1   
  5   3   6  1   
  6   4   7  1   
  7   4  25  1   
  8   4  26  1   
  9   5   8  1   
 10   5  27  1   
 11   5  28  1   
 12   6   9  1   
 13   6  29  1   
 14   6  30  1   
 15   7  10  1   
 16   7  31  1   
 17   7  32  1   
 18   8  11  1   
 19   8  12  2   
 20   9  13  1   
 21   9  33  1   
 22   9  34  1   
 23  10  14  ar  
 24  10  15  ar  
 25  11  16  1   
 26  11  35  1   
 27  12  17  1   
 28  12  36  1   
 29  13  18  1   
 30  13  19  1   
 31  13  37  1   
 32  14  20  ar  
 33  14  21  1   
 34  15  22  ar  
 35  15  38  1   
 36  16  17  2   
 37  16  39  1   
 38  18  40  1   
 39  18  41  1   
 40  18  42  1   
 41  19  43  1   
 42  19  44  1   
 43  19  45  1   
 44  20  23  ar  
 45  20  46  1   
 46  21  47  1   
 47  21  48  1   
 48  21  49  1   
 49  22  23  ar  
 50  22  50  1   
 51  23  24  1   
 52  24  51  1   
 53  24  52  1   
 54  24  53  1   
@<TRIPOS>SUBSTRUCTURE
  1 ****   4 GROUP 4 **** **** 0

# MOE 2024.06 (io_trps.svl 2023.06)
