@<TRIPOS>MOLECULE
NONAME
50 52 1 0 0 
SMALL
USER_CHARGES


@<TRIPOS>ATOM
  1 O       -3.4350     0.1780    -2.6560 O.2   1 <1>  -0.5700 
  2 C       -3.0860    -0.3450    -1.6280 C.2   1 <1>   0.5690 
  3 N       -2.7680     0.3750    -0.5120 N.am  1 <1>  -0.6600 
  4 C       -3.0600    -1.8510    -1.5960 C.3   1 <1>  -0.0190 
  5 C       -2.3890    -0.2590     0.7830 C.3   1 <1>   0.2200 
  6 C       -2.7260     1.8710    -0.5420 C.3   1 <1>   0.0600 
  7 C       -1.6550    -2.4110    -1.2870 C.3   1 <1>   0.1200 
  8 C       -4.2150    -2.3350    -0.7130 C.3   1 <1>   0.3430 
  9 C       -1.0970    -1.0970     0.6290 C.3   1 <1>   0.1200 
 10 C       -3.5870    -1.0400     1.3920 C.3   1 <1>   0.3430 
 11 O       -1.3290    -2.3670     0.0760 O.3   1 <1>  -0.5600 
 12 N       -3.8800    -2.3680     0.7480 N.4   1 <1>  -0.9590 
 13 C       -4.8270    -3.2010     1.5310 C.3   1 <1>   0.5240 
 14 C       -4.8470    -4.5840     0.9220 C.2   1 <1>  -0.1810 
 15 C       -3.8020    -5.5030     0.9340 C.2   1 <1>   0.1080 
 16 C       -5.8400    -5.1930     0.2330 C.2   1 <1>  -0.3320 
 17 N       -4.1070    -6.5820     0.2970 N.2   1 <1>  -0.7070 
 18 C       -2.4410    -5.3450     1.5790 C.3   1 <1>  -0.0590 
 19 N       -5.3730    -6.4140    -0.1270 N.pl3 1 <1>   0.3140 
 20 C       -7.2370    -4.6900    -0.1110 C.3   1 <1>  -0.0600 
 21 C       -6.0660    -7.4780    -0.8960 C.3   1 <1>   0.2340 
 22 C       -7.2530    -8.0440    -0.1260 C.2   1 <1>  -0.2880 
 23 C       -8.5170    -8.0840    -0.5620 C.2   1 <1>  -0.3000 
 24 H       -3.2930    -2.1670    -2.5970 H     1 <1>   0.0800 
 25 H       -2.1580     0.5390     1.4680 H     1 <1>   0.0800 
 26 H       -3.4230     2.2760     0.1700 H     1 <1>   0.0800 
 27 H       -2.9860     2.2460    -1.5180 H     1 <1>   0.0800 
 28 H       -1.7340     2.2150    -0.3050 H     1 <1>   0.0800 
 29 H       -0.8990    -1.8800    -1.8430 H     1 <1>   0.0800 
 30 H       -1.6140    -3.4470    -1.5800 H     1 <1>   0.0800 
 31 H       -4.4650    -3.3320    -1.0380 H     1 <1>   0.0800 
 32 H       -5.0800    -1.7130    -0.8820 H     1 <1>   0.0800 
 33 H       -0.6660    -1.2620     1.6010 H     1 <1>   0.0800 
 34 H       -0.3690    -0.5770     0.0290 H     1 <1>   0.0800 
 35 H       -4.4620    -0.4130     1.3490 H     1 <1>   0.0800 
 36 H       -3.3610    -1.2120     2.4310 H     1 <1>   0.0800 
 37 H       -2.9720    -2.8740     0.7580 H     1 <1>   0.4500 
 38 H       -4.5110    -3.2690     2.5590 H     1 <1>   0.0800 
 39 H       -5.8150    -2.7730     1.4990 H     1 <1>   0.0800 
 40 H       -2.4590    -4.6130     2.3620 H     1 <1>   0.0800 
 41 H       -1.7170    -5.0630     0.8360 H     1 <1>   0.0800 
 42 H       -2.1400    -6.2870     2.0010 H     1 <1>   0.0800 
 43 H       -7.3770    -3.6750     0.2100 H     1 <1>   0.0800 
 44 H       -7.9770    -5.3000     0.3770 H     1 <1>   0.0800 
 45 H       -7.4010    -4.7370    -1.1730 H     1 <1>   0.0800 
 46 H       -6.3860    -7.0680    -1.8350 H     1 <1>   0.0800 
 47 H       -5.3590    -8.2630    -1.0920 H     1 <1>   0.0800 
 48 H       -6.9600    -8.4250     0.8390 H     1 <1>   0.1500 
 49 H       -9.3320    -8.4940     0.0100 H     1 <1>   0.1500 
 50 H       -8.8480    -7.7190    -1.5190 H     1 <1>   0.1500 
@<TRIPOS>BOND
  1   1   2  2   
  2   2   3  am  
  3   2   4  1   
  4   3   5  1   
  5   3   6  1   
  6   4   7  1   
  7   4   8  1   
  8   4  24  1   
  9   5   9  1   
 10   5  10  1   
 11   5  25  1   
 12   6  26  1   
 13   6  27  1   
 14   6  28  1   
 15   7  11  1   
 16   7  29  1   
 17   7  30  1   
 18   8  12  1   
 19   8  31  1   
 20   8  32  1   
 21   9  11  1   
 22   9  33  1   
 23   9  34  1   
 24  10  12  1   
 25  10  35  1   
 26  10  36  1   
 27  12  13  1   
 28  12  37  1   
 29  13  14  1   
 30  13  38  1   
 31  13  39  1   
 32  14  15  1   
 33  14  16  2   
 34  15  17  2   
 35  15  18  1   
 36  16  19  1   
 37  16  20  1   
 38  17  19  1   
 39  18  40  1   
 40  18  41  1   
 41  18  42  1   
 42  19  21  1   
 43  20  43  1   
 44  20  44  1   
 45  20  45  1   
 46  21  22  1   
 47  21  46  1   
 48  21  47  1   
 49  22  23  2   
 50  22  48  1   
 51  23  49  1   
 52  23  50  1   
@<TRIPOS>SUBSTRUCTURE
  1 ****   8 GROUP 4 **** **** 0

# MOE 2024.06 (io_trps.svl 2023.06)
