@<TRIPOS>MOLECULE
NONAME
55 57 1 0 0 
SMALL
USER_CHARGES


@<TRIPOS>ATOM
  1 F        0.6010    -1.4530     0.0780 F     1 <1>  -0.3400 
  2 C        0.4920    -2.7440    -0.1980 C.3   1 <1>   0.8800 
  3 F        0.2460    -2.8190    -1.5010 F     1 <1>  -0.3400 
  4 O       -0.6250    -3.2460     0.5000 O.3   1 <1>  -0.3630 
  5 C       -0.8840    -4.5750     0.5660 C.ar  1 <1>   0.0830 
  6 C       -0.2170    -5.5440    -0.1790 C.ar  1 <1>  -0.1500 
  7 C       -1.8840    -4.9630     1.4420 C.ar  1 <1>  -0.1500 
  8 C       -0.5580    -6.8780    -0.0440 C.ar  1 <1>  -0.1500 
  9 C       -2.2250    -6.2970     1.5780 C.ar  1 <1>  -0.1500 
 10 C       -1.5680    -7.2620     0.8280 C.ar  1 <1>  -0.1440 
 11 C       -1.9500    -8.7240     0.9500 C.3   1 <1>   0.4870 
 12 N       -2.8230    -9.0640    -0.2030 N.4   1 <1>  -0.9590 
 13 C       -2.9260   -10.5490    -0.3850 C.3   1 <1>   0.5660 
 14 C       -4.1750    -8.4210    -0.0990 C.3   1 <1>   0.3430 
 15 C       -1.5450   -11.0580    -0.7730 C.ar  1 <1>  -0.1430 
 16 C       -3.9990   -10.9740    -1.4250 C.3   1 <1>   0.2000 
 17 C       -5.1120    -8.8890    -1.2260 C.3   1 <1>   0.1200 
 18 C       -0.9060   -11.9620     0.0630 C.ar  1 <1>  -0.1500 
 19 C       -0.9040   -10.6370    -1.9340 C.ar  1 <1>  -0.1500 
 20 O       -5.2080   -10.2820    -1.2200 O.3   1 <1>  -0.5600 
 21 C       -4.2770   -12.4830    -1.3220 C.3   1 <1>   0.1200 
 22 C        0.3590   -12.4360    -0.2380 C.ar  1 <1>   0.0830 
 23 C        0.3660   -11.0980    -2.2350 C.ar  1 <1>  -0.1500 
 24 O       -4.4500   -12.8490     0.0110 O.3   1 <1>  -0.6800 
 25 O        0.8990   -13.3330     0.6190 O.3   1 <1>  -0.3630 
 26 C        1.0130   -11.9800    -1.3880 C.ar  1 <1>   0.0830 
 27 C        1.1380   -14.6300     0.1140 C.3   1 <1>   0.0400 
 28 O        2.2670   -12.3610    -1.7310 O.3   1 <1>  -0.3630 
 29 C        3.3120   -11.9930    -0.8560 C.3   1 <1>   0.0400 
 30 H        1.4090    -3.2520     0.0430 H     1 <1>   0.0800 
 31 H        0.5630    -5.2840    -0.8720 H     1 <1>   0.1500 
 32 H       -2.3930    -4.2100     2.0190 H     1 <1>   0.1500 
 33 H       -0.0240    -7.6120    -0.6250 H     1 <1>   0.1500 
 34 H       -3.0010    -6.5650     2.2750 H     1 <1>   0.1500 
 35 H       -2.4620    -8.9050     1.8810 H     1 <1>   0.0800 
 36 H       -1.0520    -9.3220     0.9320 H     1 <1>   0.0800 
 37 H       -2.3520    -8.6950    -1.0330 H     1 <1>   0.4500 
 38 H       -3.2030   -10.9920     0.5570 H     1 <1>   0.0800 
 39 H       -4.6290    -8.6740     0.8450 H     1 <1>   0.0800 
 40 H       -4.0740    -7.3480    -0.1420 H     1 <1>   0.0800 
 41 H       -3.6670   -10.7520    -2.4230 H     1 <1>   0.0800 
 42 H       -4.7620    -8.5640    -2.1900 H     1 <1>   0.0800 
 43 H       -6.1020    -8.4940    -1.0700 H     1 <1>   0.0800 
 44 H       -1.3800   -12.3260     0.9600 H     1 <1>   0.1500 
 45 H       -1.3720    -9.9530    -2.6210 H     1 <1>   0.1500 
 46 H       -3.4490   -13.0490    -1.7130 H     1 <1>   0.0800 
 47 H       -5.1680   -12.7350    -1.8720 H     1 <1>   0.0800 
 48 H        0.8700   -10.7770    -3.1310 H     1 <1>   0.1500 
 49 H       -4.8580   -13.7390     0.0740 H     1 <1>   0.4000 
 50 H        1.4690   -15.2520     0.9260 H     1 <1>   0.0800 
 51 H        1.9000   -14.5860    -0.6440 H     1 <1>   0.0800 
 52 H        0.2240   -15.0180    -0.2980 H     1 <1>   0.0800 
 53 H        4.2450   -12.2700    -1.3120 H     1 <1>   0.0800 
 54 H        3.1970   -12.5110     0.0790 H     1 <1>   0.0800 
 55 H        3.2800   -10.9300    -0.7020 H     1 <1>   0.0800 
@<TRIPOS>BOND
  1   1   2  1   
  2   2   3  1   
  3   2   4  1   
  4   2  30  1   
  5   4   5  1   
  6   5   6  ar  
  7   5   7  ar  
  8   6   8  ar  
  9   6  31  1   
 10   7   9  ar  
 11   7  32  1   
 12   8  10  ar  
 13   8  33  1   
 14   9  10  ar  
 15   9  34  1   
 16  10  11  1   
 17  11  12  1   
 18  11  35  1   
 19  11  36  1   
 20  12  13  1   
 21  12  14  1   
 22  12  37  1   
 23  13  15  1   
 24  13  16  1   
 25  13  38  1   
 26  14  17  1   
 27  14  39  1   
 28  14  40  1   
 29  15  18  ar  
 30  15  19  ar  
 31  16  20  1   
 32  16  21  1   
 33  16  41  1   
 34  17  20  1   
 35  17  42  1   
 36  17  43  1   
 37  18  22  ar  
 38  18  44  1   
 39  19  23  ar  
 40  19  45  1   
 41  21  24  1   
 42  21  46  1   
 43  21  47  1   
 44  22  25  1   
 45  22  26  ar  
 46  23  26  ar  
 47  23  48  1   
 48  24  49  1   
 49  25  27  1   
 50  26  28  1   
 51  27  50  1   
 52  27  51  1   
 53  27  52  1   
 54  28  29  1   
 55  29  53  1   
 56  29  54  1   
 57  29  55  1   
@<TRIPOS>SUBSTRUCTURE
  1 ****  11 GROUP 4 **** **** 0

# MOE 2024.06 (io_trps.svl 2023.06)
