@<TRIPOS>MOLECULE
NONAME
49 51 1 0 0 
SMALL
USER_CHARGES


@<TRIPOS>ATOM
  1 S       -0.5500    -0.4960     1.1400 S.o2  1 <1>   1.3330 
  2 O       -1.5060     0.3610     0.4840 O.2   1 <1>  -0.6500 
  3 O       -0.8620    -1.0880     2.4180 O.2   1 <1>  -0.6500 
  4 N       -0.2080    -1.7900     0.0420 N.am  1 <1>  -0.6930 
  5 C        1.0060     0.3640     1.2180 C.3   1 <1>  -0.1350 
  6 C        0.8640    -2.6730     0.1900 C.ar  1 <1>   0.1990 
  7 C       -1.2540    -2.0770    -0.9990 C.3   1 <1>   0.2570 
  8 C        1.6490    -2.9960    -0.9120 C.ar  1 <1>  -0.1500 
  9 C        1.1820    -3.2520     1.4200 C.ar  1 <1>  -0.1500 
 10 C       -1.6190    -3.5590    -1.1280 C.2   1 <1>   0.5690 
 11 C        2.7130    -3.8600    -0.7570 C.ar  1 <1>   0.1900 
 12 C        2.2550    -4.1190     1.5580 C.ar  1 <1>  -0.1500 
 13 O       -1.2770    -4.1390    -2.1330 O.2   1 <1>  -0.5700 
 14 N       -2.3170    -4.1980    -0.1360 N.am  1 <1>  -0.6600 
 15 F        3.4480    -4.1460    -1.7970 F     1 <1>  -0.1900 
 16 C        3.0360    -4.4300     0.4590 C.ar  1 <1>  -0.1500 
 17 C       -2.7670    -3.6010     1.1480 C.3   1 <1>   0.1400 
 18 C       -2.5940    -5.6540    -0.1620 C.3   1 <1>   0.1400 
 19 C       -3.4750    -4.7420     1.8790 C.3   1 <1>   0.2000 
 20 C       -2.8830    -6.0220     1.2940 C.3   1 <1>  -0.0800 
 21 O       -3.2550    -4.6970     3.2460 O.3   1 <1>  -0.6800 
 22 C       -3.8090    -7.2370     1.4670 C.3   1 <1>  -0.0160 
 23 C       -3.1830    -8.5030     0.9060 C.ar  1 <1>   0.1670 
 24 N       -3.3160    -8.7020    -0.3950 N.ar  1 <1>  -0.6200 
 25 C       -2.5070    -9.3790     1.7540 C.ar  1 <1>   0.1600 
 26 C       -2.7310    -9.8210    -0.7890 C.ar  1 <1>   0.1600 
 27 N       -1.9210   -10.4990     1.3620 N.ar  1 <1>  -0.6200 
 28 C       -2.0560   -10.6890     0.0600 C.ar  1 <1>   0.1600 
 29 H        1.2970     0.6920     0.2390 H     1 <1>   0.0800 
 30 H        1.7690    -0.2800     1.6090 H     1 <1>   0.0800 
 31 H        0.9200     1.2210     1.8560 H     1 <1>   0.0800 
 32 H       -2.1610    -1.5460    -0.7790 H     1 <1>   0.0800 
 33 H       -0.9000    -1.7260    -1.9510 H     1 <1>   0.0800 
 34 H        1.4360    -2.5840    -1.8800 H     1 <1>   0.1500 
 35 H        0.5830    -3.0370     2.2840 H     1 <1>   0.1500 
 36 H        2.4800    -4.5530     2.5180 H     1 <1>   0.1500 
 37 H        3.8740    -5.1000     0.5370 H     1 <1>   0.1500 
 38 H       -1.9090    -3.2740     1.7060 H     1 <1>   0.0800 
 39 H       -3.4390    -2.7790     0.9740 H     1 <1>   0.0800 
 40 H       -3.4530    -5.8370    -0.7860 H     1 <1>   0.0800 
 41 H       -1.7520    -6.2030    -0.5510 H     1 <1>   0.0800 
 42 H       -4.5360    -4.6880     1.7030 H     1 <1>   0.0800 
 43 H       -1.9360    -6.2230     1.7650 H     1 <1>   0.0800 
 44 H       -2.3060    -4.5630     3.4370 H     1 <1>   0.4000 
 45 H       -4.7470    -7.0600     0.9700 H     1 <1>   0.0800 
 46 H       -4.0200    -7.3740     2.5130 H     1 <1>   0.0800 
 47 H       -2.4450    -9.1430     2.8010 H     1 <1>   0.1500 
 48 H       -2.7870   -10.0620    -1.8360 H     1 <1>   0.1500 
 49 H       -1.6110   -11.5760    -0.3550 H     1 <1>   0.1500 
@<TRIPOS>BOND
  1   1   2  2   
  2   1   3  2   
  3   1   4  am  
  4   1   5  1   
  5   4   6  1   
  6   4   7  1   
  7   5  29  1   
  8   5  30  1   
  9   5  31  1   
 10   6   8  ar  
 11   6   9  ar  
 12   7  10  1   
 13   7  32  1   
 14   7  33  1   
 15   8  11  ar  
 16   8  34  1   
 17   9  12  ar  
 18   9  35  1   
 19  10  13  2   
 20  10  14  am  
 21  11  15  1   
 22  11  16  ar  
 23  12  16  ar  
 24  12  36  1   
 25  14  17  1   
 26  14  18  1   
 27  16  37  1   
 28  17  19  1   
 29  17  38  1   
 30  17  39  1   
 31  18  20  1   
 32  18  40  1   
 33  18  41  1   
 34  19  20  1   
 35  19  21  1   
 36  19  42  1   
 37  20  22  1   
 38  20  43  1   
 39  21  44  1   
 40  22  23  1   
 41  22  45  1   
 42  22  46  1   
 43  23  24  ar  
 44  23  25  ar  
 45  24  26  ar  
 46  25  27  ar  
 47  25  47  1   
 48  26  28  ar  
 49  26  48  1   
 50  27  28  ar  
 51  28  49  1   
@<TRIPOS>SUBSTRUCTURE
  1 ****  14 GROUP 4 **** **** 0

# MOE 2024.06 (io_trps.svl 2023.06)
