@<TRIPOS>MOLECULE
Untitled Document
57 60 1 0 0 
SMALL
USER_CHARGES


@<TRIPOS>ATOM
  1 O       -0.2180    -0.7400    -0.5600 O.3   1 <1>  -0.3630 
  2 C       -1.4260    -1.3180    -0.3740 C.ar  1 <1>   0.3920 
  3 C        0.9430    -1.2330     0.0730 C.3   1 <1>   0.2000 
  4 N       -1.5350    -2.3550     0.4620 N.ar  1 <1>  -0.3100 
  5 C       -2.4980    -0.8070    -1.0700 C.ar  1 <1>  -0.1500 
  6 C        1.9900    -0.1250     0.0480 C.3   1 <1>  -0.1600 
  7 C        1.4600    -2.4420    -0.7100 C.3   1 <1>  -0.1600 
  8 N       -2.6970    -2.9340     0.6330 N.ar  1 <1>  -0.3100 
  9 C       -3.7150    -1.4160    -0.8830 C.ar  1 <1>  -0.1500 
 10 C        3.3290    -0.5870     0.6390 C.3   1 <1>   0.5030 
 11 C        2.7730    -2.9760    -0.1320 C.3   1 <1>   0.5030 
 12 C       -3.7880    -2.4990    -0.0190 C.ar  1 <1>   0.3100 
 13 N        3.7410    -1.8870     0.0820 N.4   1 <1>  -0.9060 
 14 C        3.2880    -0.6600     2.1680 C.3   1 <1>  -0.2400 
 15 C        4.4270     0.3970     0.2410 C.3   1 <1>  -0.2400 
 16 C        3.4300    -3.9160    -1.1420 C.3   1 <1>  -0.2400 
 17 C        2.5540    -3.7530     1.1690 C.3   1 <1>  -0.2400 
 18 C       -5.0410    -3.1770     0.2270 C.ar  1 <1>   0.0000 
 19 C       -5.8630    -3.6630    -0.7970 C.ar  1 <1>   0.0820 
 20 C       -5.4810    -3.3780     1.5350 C.ar  1 <1>  -0.1500 
 21 O       -5.4970    -3.5270    -2.0830 O.3   1 <1>  -0.5330 
 22 C       -7.0600    -4.3010    -0.5220 C.ar  1 <1>  -0.1500 
 23 C       -6.6760    -4.0160     1.8070 C.ar  1 <1>  -0.1500 
 24 C       -7.4940    -4.4870     0.7850 C.ar  1 <1>   0.0540 
 25 C       -8.7480    -5.1480     1.0680 C.2   1 <1>  -0.0540 
 26 C       -9.6060    -4.9130     2.1480 C.2   1 <1>   0.1390 
 27 C       -9.3850    -6.1280     0.3750 C.2   1 <1>  -0.3020 
 28 N      -10.6610    -5.6660     2.1340 N.2   1 <1>  -0.7070 
 29 N      -10.5200    -6.4210     1.0320 N.pl3 1 <1>   0.3000 
 30 H        0.6960    -1.4860     1.0910 H     1 <1>   0.0800 
 31 H       -2.3770     0.0310    -1.7300 H     1 <1>   0.1500 
 32 H        1.6250     0.7200     0.6050 H     1 <1>   0.0800 
 33 H        2.1330     0.1940    -0.9690 H     1 <1>   0.0800 
 34 H        1.6040    -2.1550    -1.7370 H     1 <1>   0.0800 
 35 H        0.7280    -3.2300    -0.6950 H     1 <1>   0.0800 
 36 H       -4.5950    -1.0710    -1.3940 H     1 <1>   0.1500 
 37 H        4.5020    -2.2510     0.6580 H     1 <1>   0.4500 
 38 H        4.1470    -1.6870    -0.8340 H     1 <1>   0.4500 
 39 H        2.4510    -1.2230     2.5300 H     1 <1>   0.0800 
 40 H        3.1830     0.3310     2.5730 H     1 <1>   0.0800 
 41 H        4.1960    -1.0780     2.5640 H     1 <1>   0.0800 
 42 H        4.5200     0.4710    -0.8290 H     1 <1>   0.0800 
 43 H        5.3770     0.1120     0.6580 H     1 <1>   0.0800 
 44 H        4.1910     1.3800     0.6120 H     1 <1>   0.0800 
 45 H        3.6310    -3.4150    -2.0730 H     1 <1>   0.0800 
 46 H        2.7720    -4.7410    -1.3550 H     1 <1>   0.0800 
 47 H        4.3480    -4.3240    -0.7550 H     1 <1>   0.0800 
 48 H        1.9620    -3.2100     1.8780 H     1 <1>   0.0800 
 49 H        3.4890    -4.0320     1.6220 H     1 <1>   0.0800 
 50 H        2.0120    -4.6590     0.9590 H     1 <1>   0.0800 
 51 H       -4.8690    -3.0290     2.3490 H     1 <1>   0.1500 
 52 H       -6.1040    -3.9560    -2.7130 H     1 <1>   0.4500 
 53 H       -7.6750    -4.6590    -1.3250 H     1 <1>   0.1500 
 54 H       -6.9750    -4.1560     2.8310 H     1 <1>   0.1500 
 55 H       -9.4180    -4.1800     2.9140 H     1 <1>   0.1500 
 56 H       -9.0840    -6.6230    -0.5290 H     1 <1>   0.1500 
 57 H      -11.2190    -7.1250     0.7620 H     1 <1>   0.2700 
@<TRIPOS>BOND
  1   1   2  1   
  2   1   3  1   
  3   2   4  ar  
  4   2   5  ar  
  5   3   6  1   
  6   3   7  1   
  7   3  30  1   
  8   4   8  ar  
  9   5   9  ar  
 10   5  31  1   
 11   6  10  1   
 12   6  32  1   
 13   6  33  1   
 14   7  11  1   
 15   7  34  1   
 16   7  35  1   
 17   8  12  ar  
 18   9  12  ar  
 19   9  36  1   
 20  10  13  1   
 21  10  14  1   
 22  10  15  1   
 23  11  13  1   
 24  11  16  1   
 25  11  17  1   
 26  12  18  1   
 27  13  37  1   
 28  13  38  1   
 29  14  39  1   
 30  14  40  1   
 31  14  41  1   
 32  15  42  1   
 33  15  43  1   
 34  15  44  1   
 35  16  45  1   
 36  16  46  1   
 37  16  47  1   
 38  17  48  1   
 39  17  49  1   
 40  17  50  1   
 41  18  19  ar  
 42  18  20  ar  
 43  19  21  1   
 44  19  22  ar  
 45  20  23  ar  
 46  20  51  1   
 47  21  52  1   
 48  22  24  ar  
 49  22  53  1   
 50  23  24  ar  
 51  23  54  1   
 52  24  25  1   
 53  25  26  1   
 54  25  27  2   
 55  26  28  2   
 56  26  55  1   
 57  27  29  1   
 58  27  56  1   
 59  28  29  1   
 60  29  57  1   
@<TRIPOS>SUBSTRUCTURE
  1 ****   8 GROUP 4 **** **** 0

# MOE 2024.06 (io_trps.svl 2023.06)
