@<TRIPOS>MOLECULE
NONAME
56 58 1 0 0 
SMALL
USER_CHARGES


@<TRIPOS>ATOM
  1 O        0.3590     0.0290    -1.0960 O.2   1 <1>  -0.5700 
  2 C        1.1270    -0.6520    -0.4460 C.2   1 <1>   0.5440 
  3 N        2.3640    -0.1560    -0.1440 N.am  1 <1>  -0.7300 
  4 C        0.7380    -1.9790    -0.0060 C.ar  1 <1>   0.0860 
  5 C        2.8700     1.1680    -0.5260 C.3   1 <1>   0.2200 
  6 C       -0.1480    -2.7610    -0.7220 C.ar  1 <1>  -0.1500 
  7 C        1.2150    -2.5620     1.1630 C.ar  1 <1>  -0.1500 
  8 C        3.9940     0.9740    -1.5360 C.3   1 <1>  -0.2400 
  9 C        3.3690     1.8670     0.7340 C.3   1 <1>  -0.2400 
 10 C       -0.5060    -4.0280    -0.2870 C.ar  1 <1>   0.4100 
 11 C        0.8060    -3.8300     1.5210 C.ar  1 <1>   0.1600 
 12 N       -0.0370    -4.5730     0.8280 N.ar  1 <1>  -0.6200 
 13 N       -1.4100    -4.7650    -1.0250 N.pl3 1 <1>  -0.8380 
 14 C       -2.8390    -4.3330    -0.9580 C.3   1 <1>   0.2090 
 15 C       -1.2800    -6.2580    -1.0560 C.3   1 <1>   0.2090 
 16 C       -3.6190    -5.1040     0.1280 C.3   1 <1>   0.2950 
 17 C       -2.1610    -6.9410     0.0180 C.3   1 <1>   0.2000 
 18 O       -3.4830    -6.4870    -0.0730 O.3   1 <1>  -0.5600 
 19 C       -5.1120    -4.7250     0.1120 C.3   1 <1>  -0.1950 
 20 C       -2.2100    -8.4680    -0.1200 C.3   1 <1>  -0.1600 
 21 C       -6.1790    -5.6290     0.6490 C.3   1 <1>  -0.2000 
 22 C       -6.0920    -5.3580    -0.8280 C.3   1 <1>  -0.2000 
 23 C       -0.8440    -9.1360     0.1120 C.3   1 <1>  -0.1600 
 24 C       -0.9640   -10.6640     0.0560 C.3   1 <1>  -0.1600 
 25 C        0.3950   -11.3320     0.2850 C.3   1 <1>  -0.2400 
 26 H        3.0580    -0.7670     0.2810 H     1 <1>   0.3700 
 27 H        2.0800     1.7520    -0.9720 H     1 <1>   0.0800 
 28 H       -0.5690    -2.3900    -1.6380 H     1 <1>   0.1500 
 29 H        1.8960    -2.0250     1.7950 H     1 <1>   0.1500 
 30 H        4.7970     0.3980    -1.1140 H     1 <1>   0.0800 
 31 H        4.3800     1.9310    -1.8400 H     1 <1>   0.0800 
 32 H        3.6150     0.4740    -2.4100 H     1 <1>   0.0800 
 33 H        4.1620     1.3070     1.1960 H     1 <1>   0.0800 
 34 H        2.5590     1.9840     1.4310 H     1 <1>   0.0800 
 35 H        3.7400     2.8450     0.4840 H     1 <1>   0.0800 
 36 H        1.1900    -4.2600     2.4310 H     1 <1>   0.1500 
 37 H       -2.8930    -3.2790    -0.7480 H     1 <1>   0.0800 
 38 H       -3.3050    -4.5030    -1.9130 H     1 <1>   0.0800 
 39 H       -1.5690    -6.6130    -2.0290 H     1 <1>   0.0800 
 40 H       -0.2500    -6.5280    -0.9030 H     1 <1>   0.0800 
 41 H       -3.2100    -4.8670     1.0950 H     1 <1>   0.0800 
 42 H       -1.7900    -6.6870     0.9970 H     1 <1>   0.0800 
 43 H       -5.2450    -3.6750     0.3080 H     1 <1>   0.1000 
 44 H       -2.9070    -8.8460     0.6070 H     1 <1>   0.0800 
 45 H       -2.5750    -8.7220    -1.1000 H     1 <1>   0.0800 
 46 H       -5.9050    -6.6080     1.0040 H     1 <1>   0.1000 
 47 H       -6.9910    -5.1990     1.2090 H     1 <1>   0.1000 
 48 H       -6.8450    -4.7430    -1.2870 H     1 <1>   0.1000 
 49 H       -5.7610    -6.1570    -1.4700 H     1 <1>   0.1000 
 50 H       -0.1440    -8.8140    -0.6380 H     1 <1>   0.0800 
 51 H       -0.4630    -8.8440     1.0760 H     1 <1>   0.0800 
 52 H       -1.6550   -11.0010     0.8110 H     1 <1>   0.0800 
 53 H       -1.3490   -10.9620    -0.9040 H     1 <1>   0.0800 
 54 H        0.7880   -11.0640     1.2500 H     1 <1>   0.0800 
 55 H        1.0960   -11.0280    -0.4720 H     1 <1>   0.0800 
 56 H        0.2900   -12.4020     0.2440 H     1 <1>   0.0800 
@<TRIPOS>BOND
  1   1   2  2   
  2   2   3  am  
  3   2   4  1   
  4   3   5  1   
  5   3  26  1   
  6   4   6  ar  
  7   4   7  ar  
  8   5   8  1   
  9   5   9  1   
 10   5  27  1   
 11   6  10  ar  
 12   6  28  1   
 13   7  11  ar  
 14   7  29  1   
 15   8  30  1   
 16   8  31  1   
 17   8  32  1   
 18   9  33  1   
 19   9  34  1   
 20   9  35  1   
 21  10  12  ar  
 22  10  13  1   
 23  11  12  ar  
 24  11  36  1   
 25  13  14  1   
 26  13  15  1   
 27  14  16  1   
 28  14  37  1   
 29  14  38  1   
 30  15  17  1   
 31  15  39  1   
 32  15  40  1   
 33  16  18  1   
 34  16  19  1   
 35  16  41  1   
 36  17  18  1   
 37  17  20  1   
 38  17  42  1   
 39  19  21  1   
 40  19  22  1   
 41  19  43  1   
 42  20  23  1   
 43  20  44  1   
 44  20  45  1   
 45  21  22  1   
 46  21  46  1   
 47  21  47  1   
 48  22  48  1   
 49  22  49  1   
 50  23  24  1   
 51  23  50  1   
 52  23  51  1   
 53  24  25  1   
 54  24  52  1   
 55  24  53  1   
 56  25  54  1   
 57  25  55  1   
 58  25  56  1   
@<TRIPOS>SUBSTRUCTURE
  1 ****  10 GROUP 4 **** **** 0

# MOE 2024.06 (io_trps.svl 2023.06)
