@<TRIPOS>MOLECULE
NONAME
48 51 1 0 0 
SMALL
USER_CHARGES


@<TRIPOS>ATOM
  1 S       -0.8260    -0.2570    -0.5450 S.3   1 <1>  -0.2860 
  2 C       -0.5900     1.4020     0.0740 C.2   1 <1>   0.5340 
  3 C       -0.8810    -1.2650     1.0120 C.3   1 <1>   0.1310 
  4 O       -0.4410     2.3710    -0.7630 O.3   1 <1>  -0.2800 
  5 N       -0.5570     1.7540     1.3010 N.2   1 <1>  -0.3380 
  6 C       -1.0680    -2.7420     0.6940 C.2   1 <1>   0.5690 
  7 C       -0.3030     3.3920     0.0220 C.2   1 <1>   0.2980 
  8 N       -0.3660     3.0770     1.2640 N.2   1 <1>  -0.3380 
  9 O       -0.1320    -3.4710     0.9240 O.2   1 <1>  -0.5700 
 10 N       -2.2510    -3.2290     0.1910 N.am  1 <1>  -0.6600 
 11 C       -0.0940     4.7670    -0.5670 C.3   1 <1>  -0.0600 
 12 C       -3.4780    -2.4230    -0.1030 C.3   1 <1>   0.1400 
 13 C       -2.4130    -4.6750    -0.1550 C.3   1 <1>   0.1400 
 14 C       -4.7280    -3.0610     0.5380 C.3   1 <1>   0.1900 
 15 C       -3.6890    -5.2580     0.4740 C.3   1 <1>   0.1100 
 16 N       -4.8850    -4.4710     0.1010 N.3   1 <1>  -0.8100 
 17 C       -5.9880    -2.2450     0.1890 C.3   1 <1>   0.1200 
 18 C       -6.1270    -5.0440     0.6760 C.3   1 <1>   0.3330 
 19 O       -7.1200    -2.8210     0.7740 O.3   1 <1>  -0.5600 
 20 C       -6.3860    -6.4500     0.1350 C.ar  1 <1>  -0.1430 
 21 C       -7.3410    -4.1450     0.3620 C.3   1 <1>   0.1200 
 22 C       -6.7240    -7.4780     1.0030 C.ar  1 <1>  -0.1500 
 23 C       -6.2960    -6.7180    -1.2250 C.ar  1 <1>  -0.1500 
 24 C       -6.9670    -8.7530     0.5210 C.ar  1 <1>  -0.1500 
 25 C       -6.5390    -7.9910    -1.7090 C.ar  1 <1>  -0.1500 
 26 C       -6.8750    -9.0100    -0.8360 C.ar  1 <1>  -0.1500 
 27 H        0.0560    -1.1110     1.5170 H     1 <1>   0.0800 
 28 H       -1.6830    -0.8930     1.6200 H     1 <1>   0.0800 
 29 H        0.0010     5.4920     0.2200 H     1 <1>   0.0800 
 30 H       -0.9320     5.0270    -1.1860 H     1 <1>   0.0800 
 31 H        0.8010     4.7730    -1.1610 H     1 <1>   0.0800 
 32 H       -3.3750    -1.4190     0.2610 H     1 <1>   0.0800 
 33 H       -3.6150    -2.3770    -1.1700 H     1 <1>   0.0800 
 34 H       -2.4710    -4.7760    -1.2250 H     1 <1>   0.0800 
 35 H       -1.5640    -5.2440     0.1820 H     1 <1>   0.0800 
 36 H       -4.6030    -3.0300     1.6070 H     1 <1>   0.0800 
 37 H       -3.5770    -5.2780     1.5440 H     1 <1>   0.0800 
 38 H       -3.7990    -6.2730     0.1320 H     1 <1>   0.0800 
 39 H       -6.1330    -2.2050    -0.8770 H     1 <1>   0.0800 
 40 H       -5.9030    -1.2420     0.5670 H     1 <1>   0.0800 
 41 H       -6.0240    -5.0970     1.7460 H     1 <1>   0.0800 
 42 H       -8.2110    -4.5100     0.8780 H     1 <1>   0.0800 
 43 H       -7.5440    -4.1460    -0.6940 H     1 <1>   0.0800 
 44 H       -6.8000    -7.2940     2.0600 H     1 <1>   0.1500 
 45 H       -6.0280    -5.9290    -1.9070 H     1 <1>   0.1500 
 46 H       -7.2280    -9.5450     1.2000 H     1 <1>   0.1500 
 47 H       -6.4650    -8.1880    -2.7640 H     1 <1>   0.1500 
 48 H       -7.0640   -10.0010    -1.2110 H     1 <1>   0.1500 
@<TRIPOS>BOND
  1   1   2  1   
  2   1   3  1   
  3   2   4  1   
  4   2   5  2   
  5   3   6  1   
  6   3  27  1   
  7   3  28  1   
  8   4   7  1   
  9   5   8  1   
 10   6   9  2   
 11   6  10  am  
 12   7   8  2   
 13   7  11  1   
 14  10  12  1   
 15  10  13  1   
 16  11  29  1   
 17  11  30  1   
 18  11  31  1   
 19  12  14  1   
 20  12  32  1   
 21  12  33  1   
 22  13  15  1   
 23  13  34  1   
 24  13  35  1   
 25  14  16  1   
 26  14  17  1   
 27  14  36  1   
 28  15  16  1   
 29  15  37  1   
 30  15  38  1   
 31  16  18  1   
 32  17  19  1   
 33  17  39  1   
 34  17  40  1   
 35  18  20  1   
 36  18  21  1   
 37  18  41  1   
 38  19  21  1   
 39  20  22  ar  
 40  20  23  ar  
 41  21  42  1   
 42  21  43  1   
 43  22  24  ar  
 44  22  44  1   
 45  23  25  ar  
 46  23  45  1   
 47  24  26  ar  
 48  24  46  1   
 49  25  26  ar  
 50  25  47  1   
 51  26  48  1   
@<TRIPOS>SUBSTRUCTURE
  1 ****  12 GROUP 4 **** **** 0

# MOE 2024.06 (io_trps.svl 2023.06)
