@<TRIPOS>MOLECULE
NONAME
68 70 1 0 0 
SMALL
USER_CHARGES


@<TRIPOS>ATOM
  1 O        0.9710    -1.0860    -2.0630 O.2   1 <1>  -0.5700 
  2 C        2.0860    -1.5550    -1.9220 C.2   1 <1>   0.5440 
  3 N        2.4080    -2.7100    -2.6050 N.am  1 <1>  -0.6600 
  4 C        3.0240    -0.9030    -1.0290 C.ar  1 <1>   0.0860 
  5 C        3.3540    -3.7290    -2.0780 C.3   1 <1>   0.1400 
  6 C        1.6010    -3.1770    -3.7630 C.3   1 <1>   0.1400 
  7 C        2.6190    -0.4470     0.2240 C.ar  1 <1>  -0.1500 
  8 C        4.3550    -0.7000    -1.3870 C.ar  1 <1>  -0.1500 
  9 C        2.5590    -4.9470    -1.6000 C.3   1 <1>  -0.1600 
 10 C        0.7430    -4.3640    -3.3240 C.3   1 <1>  -0.1600 
 11 C        3.4940     0.1740     1.1090 C.ar  1 <1>   0.0820 
 12 C        5.2420    -0.0900    -0.5220 C.ar  1 <1>  -0.1500 
 13 C        1.6060    -5.4790    -2.6930 C.3   1 <1>  -0.0190 
 14 O        3.0590     0.6090     2.3290 O.3   1 <1>  -0.3630 
 15 C        4.8390     0.3480     0.7290 C.ar  1 <1>   0.0820 
 16 C        0.8270    -6.7230    -2.2420 C.2   1 <1>   0.5690 
 17 C        1.6880     0.6730     2.6610 C.3   1 <1>   0.0400 
 18 O        5.8350     0.9190     1.4620 O.3   1 <1>  -0.3620 
 19 O        1.0930    -7.7450    -2.8300 O.2   1 <1>  -0.5700 
 20 N       -0.0970    -6.7250    -1.2160 N.am  1 <1>  -0.6600 
 21 C        5.6570     1.4620     2.7500 C.3   1 <1>   0.0400 
 22 C       -0.6020    -8.0290    -0.6750 C.3   1 <1>   0.1400 
 23 C       -0.7810    -5.5080    -0.6740 C.3   1 <1>   0.1400 
 24 C       -0.4770    -8.1370     0.8710 C.3   1 <1>   0.0000 
 25 C       -1.4380    -5.7630     0.6870 C.3   1 <1>  -0.1600 
 26 C       -0.5650    -6.7130     1.5040 C.3   1 <1>   0.2000 
 27 C       -1.6550    -9.0160     1.3740 C.3   1 <1>   0.1200 
 28 C        0.8580    -8.8170     1.2980 C.3   1 <1>  -0.1600 
 29 O       -1.0470    -6.7340     2.8040 O.3   1 <1>  -0.6800 
 30 O       -1.6820   -10.2640     0.7590 O.3   1 <1>  -0.6800 
 31 C        2.1510    -8.2260     0.7020 C.3   1 <1>  -0.1600 
 32 C        3.3850    -8.9180     1.2870 C.3   1 <1>  -0.2400 
 33 H        4.0360    -4.0150    -2.8610 H     1 <1>   0.0800 
 34 H        3.9290    -3.3360    -1.2570 H     1 <1>   0.0800 
 35 H        0.9720    -2.3830    -4.1280 H     1 <1>   0.0800 
 36 H        2.2620    -3.4710    -4.5600 H     1 <1>   0.0800 
 37 H        1.5870    -0.6000     0.4760 H     1 <1>   0.1500 
 38 H        4.6920    -1.0220    -2.3570 H     1 <1>   0.1500 
 39 H        3.2460    -5.7260    -1.3210 H     1 <1>   0.0800 
 40 H        2.0180    -4.6710    -0.7150 H     1 <1>   0.0800 
 41 H        0.0110    -3.9870    -2.6380 H     1 <1>   0.0800 
 42 H        0.2170    -4.7560    -4.1760 H     1 <1>   0.0800 
 43 H        6.2670     0.0550    -0.8140 H     1 <1>   0.1500 
 44 H        2.2480    -5.8200    -3.4880 H     1 <1>   0.0800 
 45 H        1.5990     1.1480     3.6200 H     1 <1>   0.0800 
 46 H        1.2930    -0.3260     2.7120 H     1 <1>   0.0800 
 47 H        1.1740     1.2540     1.9160 H     1 <1>   0.0800 
 48 H        6.6020     1.8510     3.0820 H     1 <1>   0.0800 
 49 H        5.3280     0.6830     3.4140 H     1 <1>   0.0800 
 50 H        4.9330     2.2550     2.6960 H     1 <1>   0.0800 
 51 H       -1.6360    -8.1070    -0.9630 H     1 <1>   0.0800 
 52 H       -0.0890    -8.8600    -1.1280 H     1 <1>   0.0800 
 53 H       -0.0690    -4.7150    -0.5540 H     1 <1>   0.0800 
 54 H       -1.5300    -5.1800    -1.3750 H     1 <1>   0.0800 
 55 H       -2.4170    -6.1820     0.5380 H     1 <1>   0.0800 
 56 H       -1.5440    -4.8230     1.1980 H     1 <1>   0.0800 
 57 H        0.4180    -6.2800     1.5610 H     1 <1>   0.0800 
 58 H       -2.6000    -8.5380     1.1800 H     1 <1>   0.0800 
 59 H       -1.5680    -9.1910     2.4330 H     1 <1>   0.0800 
 60 H        0.9240    -8.7820     2.3730 H     1 <1>   0.0800 
 61 H        0.8290    -9.8580     1.0250 H     1 <1>   0.0800 
 62 H       -1.9940    -6.9660     2.8200 H     1 <1>   0.4000 
 63 H       -1.7380   -10.1890    -0.2120 H     1 <1>   0.4000 
 64 H        2.1580    -8.3670    -0.3640 H     1 <1>   0.0800 
 65 H        2.2220    -7.1730     0.9000 H     1 <1>   0.0800 
 66 H        3.3580    -9.9730     1.0770 H     1 <1>   0.0800 
 67 H        3.4260    -8.7780     2.3530 H     1 <1>   0.0800 
 68 H        4.2780    -8.5060     0.8520 H     1 <1>   0.0800 
@<TRIPOS>BOND
  1   1   2  2   
  2   2   3  am  
  3   2   4  1   
  4   3   5  1   
  5   3   6  1   
  6   4   7  ar  
  7   4   8  ar  
  8   5   9  1   
  9   5  33  1   
 10   5  34  1   
 11   6  10  1   
 12   6  35  1   
 13   6  36  1   
 14   7  11  ar  
 15   7  37  1   
 16   8  12  ar  
 17   8  38  1   
 18   9  13  1   
 19   9  39  1   
 20   9  40  1   
 21  10  13  1   
 22  10  41  1   
 23  10  42  1   
 24  11  14  1   
 25  11  15  ar  
 26  12  15  ar  
 27  12  43  1   
 28  13  16  1   
 29  13  44  1   
 30  14  17  1   
 31  15  18  1   
 32  16  19  2   
 33  16  20  am  
 34  17  45  1   
 35  17  46  1   
 36  17  47  1   
 37  18  21  1   
 38  20  22  1   
 39  20  23  1   
 40  21  48  1   
 41  21  49  1   
 42  21  50  1   
 43  22  24  1   
 44  22  51  1   
 45  22  52  1   
 46  23  25  1   
 47  23  53  1   
 48  23  54  1   
 49  24  26  1   
 50  24  27  1   
 51  24  28  1   
 52  25  26  1   
 53  25  55  1   
 54  25  56  1   
 55  26  29  1   
 56  26  57  1   
 57  27  30  1   
 58  27  58  1   
 59  27  59  1   
 60  28  31  1   
 61  28  60  1   
 62  28  61  1   
 63  29  62  1   
 64  30  63  1   
 65  31  32  1   
 66  31  64  1   
 67  31  65  1   
 68  32  66  1   
 69  32  67  1   
 70  32  68  1   
@<TRIPOS>SUBSTRUCTURE
  1 ****   9 GROUP 4 **** **** 0

# MOE 2024.06 (io_trps.svl 2023.06)
