@<TRIPOS>MOLECULE
NONAME
54 57 1 0 0 
SMALL
USER_CHARGES


@<TRIPOS>ATOM
  1 O        1.9480     1.6230    -1.3530 O.3   1 <1>  -0.0190 
  2 N        2.7400     0.6570    -0.9970 N.2   1 <1>  -0.4100 
  3 C        0.9750     1.7930    -0.4980 C.2   1 <1>  -0.0400 
  4 C        2.2570     0.1790     0.0940 C.2   1 <1>   0.1080 
  5 C        1.1130     0.8770     0.4720 C.2   1 <1>  -0.1500 
  6 C       -0.0340     2.9050    -0.7130 C.3   1 <1>   0.0200 
  7 C        2.8590    -0.9830     0.8530 C.3   1 <1>  -0.0590 
  8 C        0.6840     4.2180    -1.0830 C.3   1 <1>  -0.0800 
  9 C       -0.1670     5.4880    -1.0740 C.3   1 <1>   0.2000 
 10 C        1.8650     4.5620    -0.1750 C.3   1 <1>   0.3430 
 11 O       -0.9560     5.5290     0.0720 O.3   1 <1>  -0.6800 
 12 C        0.8710     6.6130    -1.0110 C.3   1 <1>   0.3430 
 13 N        2.0810     6.0230    -0.3490 N.4   1 <1>  -0.9590 
 14 C        2.5680     6.7310     0.8660 C.3   1 <1>   0.4860 
 15 C        2.7070     8.2210     0.5720 C.ar  1 <1>  -0.1430 
 16 C        3.7630     8.7000    -0.2180 C.ar  1 <1>  -0.0230 
 17 C        1.7720     9.1130     1.0960 C.ar  1 <1>  -0.1430 
 18 N        4.7910     7.8620    -0.7460 N.pl3 1 <1>   0.5930 
 19 C        3.8290    10.0610    -0.4970 C.ar  1 <1>  -0.1500 
 20 C        1.8730    10.4620     0.8010 C.ar  1 <1>  -0.1500 
 21 C        0.6290     8.6720     2.0070 C.3   1 <1>  -0.0970 
 22 N        4.5540     6.7330    -1.4720 N.2   1 <1>  -0.7070 
 23 C        6.1260     8.0490    -0.6190 C.2   1 <1>  -0.3020 
 24 C        2.8920    10.9420     0.0020 C.ar  1 <1>  -0.1430 
 25 C        5.7260     6.2690    -1.7860 C.2   1 <1>   0.1390 
 26 C        6.7520     7.0510    -1.2740 C.2   1 <1>  -0.1500 
 27 C        2.9780    12.4260    -0.3100 C.3   1 <1>  -0.0970 
 28 H        0.5140     0.6890     1.3450 H     1 <1>   0.1500 
 29 H       -0.7030     2.6260    -1.5090 H     1 <1>   0.0800 
 30 H       -0.6180     3.0120     0.1840 H     1 <1>   0.0800 
 31 H        3.0620    -0.6950     1.8680 H     1 <1>   0.0800 
 32 H        3.7790    -1.2890     0.3880 H     1 <1>   0.0800 
 33 H        2.1760    -1.8130     0.8490 H     1 <1>   0.0800 
 34 H        1.0840     4.0980    -2.0760 H     1 <1>   0.0800 
 35 H       -0.8140     5.5750    -1.9320 H     1 <1>   0.0800 
 36 H        2.7440     3.9950    -0.4440 H     1 <1>   0.0800 
 37 H        1.6050     4.3440     0.8480 H     1 <1>   0.0800 
 38 H       -0.4400     5.3970     0.8880 H     1 <1>   0.4000 
 39 H        0.4840     7.4670    -0.4840 H     1 <1>   0.0800 
 40 H        1.1320     6.9140    -2.0130 H     1 <1>   0.0800 
 41 H        2.8670     6.1390    -1.0270 H     1 <1>   0.4500 
 42 H        1.8820     6.5760     1.6800 H     1 <1>   0.0800 
 43 H        3.5280     6.3340     1.1560 H     1 <1>   0.0800 
 44 H        4.6280    10.4400    -1.1140 H     1 <1>   0.1500 
 45 H        1.1540    11.1590     1.1990 H     1 <1>   0.1500 
 46 H        0.0300     9.5150     2.3050 H     1 <1>   0.0800 
 47 H        1.0180     8.2210     2.9020 H     1 <1>   0.0800 
 48 H       -0.0200     7.9750     1.5090 H     1 <1>   0.0800 
 49 H        6.5420     8.8780    -0.0760 H     1 <1>   0.1500 
 50 H        5.8860     5.3780    -2.3750 H     1 <1>   0.1500 
 51 H        7.8080     6.8720    -1.3940 H     1 <1>   0.1500 
 52 H        1.9970    12.8270    -0.4930 H     1 <1>   0.0800 
 53 H        3.5810    12.6000    -1.1830 H     1 <1>   0.0800 
 54 H        3.4150    12.9490     0.5220 H     1 <1>   0.0800 
@<TRIPOS>BOND
  1   1   2  1   
  2   1   3  1   
  3   2   4  2   
  4   3   5  2   
  5   3   6  1   
  6   4   5  1   
  7   4   7  1   
  8   5  28  1   
  9   6   8  1   
 10   6  29  1   
 11   6  30  1   
 12   7  31  1   
 13   7  32  1   
 14   7  33  1   
 15   8   9  1   
 16   8  10  1   
 17   8  34  1   
 18   9  11  1   
 19   9  12  1   
 20   9  35  1   
 21  10  13  1   
 22  10  36  1   
 23  10  37  1   
 24  11  38  1   
 25  12  13  1   
 26  12  39  1   
 27  12  40  1   
 28  13  14  1   
 29  13  41  1   
 30  14  15  1   
 31  14  42  1   
 32  14  43  1   
 33  15  16  ar  
 34  15  17  ar  
 35  16  18  1   
 36  16  19  ar  
 37  17  20  ar  
 38  17  21  1   
 39  18  22  1   
 40  18  23  1   
 41  19  24  ar  
 42  19  44  1   
 43  20  24  ar  
 44  20  45  1   
 45  21  46  1   
 46  21  47  1   
 47  21  48  1   
 48  22  25  2   
 49  23  26  2   
 50  23  49  1   
 51  24  27  1   
 52  25  26  1   
 53  25  50  1   
 54  26  51  1   
 55  27  52  1   
 56  27  53  1   
 57  27  54  1   
@<TRIPOS>SUBSTRUCTURE
  1 ****  13 GROUP 4 **** **** 0

# MOE 2024.06 (io_trps.svl 2023.06)
