@<TRIPOS>MOLECULE
NONAME
42 44 1 0 0 
SMALL
USER_CHARGES


@<TRIPOS>ATOM
  1 O       -0.6680     0.2240     0.5690 O.2   1 <1>  -0.5700 
  2 C       -1.6790     0.8270     0.2400 C.2   1 <1>   0.7160 
  3 N       -2.8350     0.0760     0.1220 N.am  1 <1>  -0.6600 
  4 C       -1.6180     2.2700     0.0010 C.2   1 <1>   0.2030 
  5 C       -4.2020     0.6000    -0.1280 C.3   1 <1>   0.1400 
  6 C       -2.8520    -1.4050     0.1850 C.3   1 <1>   0.1400 
  7 N       -2.5740     3.0610    -0.4640 N.2   1 <1>  -0.7070 
  8 C       -0.4660     3.0290     0.2460 C.2   1 <1>  -0.1500 
  9 C       -5.1250    -0.5720     0.2040 C.3   1 <1>   0.2000 
 10 C       -4.2910    -1.8040    -0.1640 C.3   1 <1>  -0.0800 
 11 N       -2.0460     4.2880    -0.5120 N.pl3 1 <1>   0.3140 
 12 C       -0.7670     4.2980    -0.0860 C.2   1 <1>  -0.3320 
 13 O       -5.3580    -0.5630     1.5710 O.3   1 <1>  -0.6800 
 14 C       -4.7440    -3.1260     0.4800 C.3   1 <1>  -0.0170 
 15 C       -2.8250     5.4390    -0.9850 C.3   1 <1>   0.0160 
 16 C        0.1220     5.5280    -0.0150 C.3   1 <1>  -0.0600 
 17 C       -3.8900    -4.2860    -0.0080 C.ar  1 <1>  -0.1430 
 18 C       -4.1350    -4.9120    -1.2130 C.ar  1 <1>  -0.1500 
 19 C       -2.8240    -4.7690     0.7240 C.ar  1 <1>  -0.1500 
 20 C       -3.3230    -5.9580    -1.6190 C.ar  1 <1>   0.1600 
 21 C       -2.0730    -5.8220     0.2270 C.ar  1 <1>   0.1600 
 22 N       -2.2960    -6.4270    -0.9280 N.ar  1 <1>  -0.6200 
 23 H       -4.4200     1.4620     0.4780 H     1 <1>   0.0800 
 24 H       -4.2890     0.8620    -1.1690 H     1 <1>   0.0800 
 25 H       -2.1450    -1.8270    -0.5100 H     1 <1>   0.0800 
 26 H       -2.5970    -1.7150     1.1840 H     1 <1>   0.0800 
 27 H        0.4580     2.6300     0.6260 H     1 <1>   0.1500 
 28 H       -6.0710    -0.5240    -0.3070 H     1 <1>   0.0800 
 29 H       -4.3370    -1.9170    -1.2330 H     1 <1>   0.0800 
 30 H       -4.5110    -0.3860     2.0290 H     1 <1>   0.4000 
 31 H       -5.7740    -3.3110     0.2290 H     1 <1>   0.0800 
 32 H       -4.6820    -3.0630     1.5520 H     1 <1>   0.0800 
 33 H       -2.3390     5.8660    -1.8410 H     1 <1>   0.0800 
 34 H       -2.8920     6.1660    -0.1980 H     1 <1>   0.0800 
 35 H       -3.8110     5.1100    -1.2570 H     1 <1>   0.0800 
 36 H        1.0940     5.2600     0.3590 H     1 <1>   0.0800 
 37 H       -0.3080     6.2610     0.6450 H     1 <1>   0.0800 
 38 H        0.2400     5.9600    -0.9930 H     1 <1>   0.0800 
 39 H       -4.9480    -4.5970    -1.8400 H     1 <1>   0.1500 
 40 H       -2.5680    -4.3390     1.6750 H     1 <1>   0.1500 
 41 H       -3.5290    -6.4350    -2.5620 H     1 <1>   0.1500 
 42 H       -1.2450    -6.1850     0.8110 H     1 <1>   0.1500 
@<TRIPOS>BOND
  1   1   2  2   
  2   2   3  am  
  3   2   4  1   
  4   3   5  1   
  5   3   6  1   
  6   4   7  2   
  7   4   8  1   
  8   5   9  1   
  9   5  23  1   
 10   5  24  1   
 11   6  10  1   
 12   6  25  1   
 13   6  26  1   
 14   7  11  1   
 15   8  12  2   
 16   8  27  1   
 17   9  10  1   
 18   9  13  1   
 19   9  28  1   
 20  10  14  1   
 21  10  29  1   
 22  11  12  1   
 23  11  15  1   
 24  12  16  1   
 25  13  30  1   
 26  14  17  1   
 27  14  31  1   
 28  14  32  1   
 29  15  33  1   
 30  15  34  1   
 31  15  35  1   
 32  16  36  1   
 33  16  37  1   
 34  16  38  1   
 35  17  18  ar  
 36  17  19  ar  
 37  18  20  ar  
 38  18  39  1   
 39  19  21  ar  
 40  19  40  1   
 41  20  22  ar  
 42  20  41  1   
 43  21  22  ar  
 44  21  42  1   
@<TRIPOS>SUBSTRUCTURE
  1 ****   3 GROUP 4 **** **** 0

# MOE 2024.06 (io_trps.svl 2023.06)
