@<TRIPOS>MOLECULE
NONAME
38 40 1 0 0 
SMALL
USER_CHARGES


@<TRIPOS>ATOM
  1 F        1.4470     0.4570     2.5840 F     1 <1>  -0.1900 
  2 C        2.1860     1.1710     1.7620 C.ar  1 <1>   0.1900 
  3 C        1.9340     2.5110     1.5420 C.ar  1 <1>   0.3920 
  4 C        3.2310     0.5840     1.1030 C.ar  1 <1>   0.1600 
  5 O        0.9060     3.1120     2.1840 O.3   1 <1>  -0.3630 
  6 N        2.6810     3.2190     0.7160 N.ar  1 <1>  -0.6200 
  7 N        3.9900     1.2730     0.2750 N.ar  1 <1>  -0.6200 
  8 C        0.6140     4.4800     1.9760 C.3   1 <1>   0.0400 
  9 C        3.6770     2.5630     0.1200 C.ar  1 <1>   0.7200 
 10 N        4.4490     3.2840    -0.7550 N.3   1 <1>  -0.5900 
 11 C        4.7720     4.7280    -0.4880 C.3   1 <1>   0.2450 
 12 C        5.9190     2.9980    -0.9060 C.3   1 <1>   0.2450 
 13 C        6.1360     4.5010    -1.1790 C.3   1 <1>   0.2580 
 14 O        7.2200     5.0150    -0.4260 O.3   1 <1>  -0.3400 
 15 C        7.4840     6.3450    -0.3920 C.ar  1 <1>   0.0830 
 16 C        8.4490     6.7660     0.5070 C.ar  1 <1>  -0.1500 
 17 C        6.8440     7.2830    -1.1990 C.ar  1 <1>  -0.1500 
 18 C        8.7820     8.1050     0.6160 C.ar  1 <1>   0.0830 
 19 C        7.1720     8.6240    -1.0930 C.ar  1 <1>  -0.1500 
 20 O        9.7370     8.4250     1.5250 O.3   1 <1>  -0.3630 
 21 C        8.1360     9.0390    -0.1900 C.ar  1 <1>  -0.1500 
 22 C       10.1580     9.7580     1.7080 C.3   1 <1>   0.0400 
 23 H        3.4470    -0.4590     1.2570 H     1 <1>   0.1500 
 24 H       -0.2360     4.7400     2.5800 H     1 <1>   0.0800 
 25 H        0.3900     4.6350     0.9350 H     1 <1>   0.0800 
 26 H        1.4680     5.0670     2.2680 H     1 <1>   0.0800 
 27 H        4.8440     4.9320     0.5670 H     1 <1>   0.0000 
 28 H        4.1150     5.3850    -1.0300 H     1 <1>   0.0000 
 29 H        6.1120     2.3700    -1.7570 H     1 <1>   0.0000 
 30 H        6.3550     2.6540     0.0170 H     1 <1>   0.0000 
 31 H        6.1940     4.7620    -2.2210 H     1 <1>   0.0000 
 32 H        8.9470     6.0460     1.1290 H     1 <1>   0.1500 
 33 H        6.0960     6.9950    -1.9130 H     1 <1>   0.1500 
 34 H        6.6760     9.3480    -1.7170 H     1 <1>   0.1500 
 35 H        8.3700    10.0850    -0.1300 H     1 <1>   0.1500 
 36 H       10.9180     9.7670     2.4680 H     1 <1>   0.0800 
 37 H        9.3170    10.3490     2.0250 H     1 <1>   0.0800 
 38 H       10.5630    10.1270     0.7820 H     1 <1>   0.0800 
@<TRIPOS>BOND
  1   1   2  1   
  2   2   3  ar  
  3   2   4  ar  
  4   3   5  1   
  5   3   6  ar  
  6   4   7  ar  
  7   4  23  1   
  8   5   8  1   
  9   6   9  ar  
 10   7   9  ar  
 11   8  24  1   
 12   8  25  1   
 13   8  26  1   
 14   9  10  1   
 15  10  11  1   
 16  10  12  1   
 17  11  13  1   
 18  11  27  1   
 19  11  28  1   
 20  12  13  1   
 21  12  29  1   
 22  12  30  1   
 23  13  14  1   
 24  13  31  1   
 25  14  15  1   
 26  15  16  ar  
 27  15  17  ar  
 28  16  18  ar  
 29  16  32  1   
 30  17  19  ar  
 31  17  33  1   
 32  18  20  1   
 33  18  21  ar  
 34  19  21  ar  
 35  19  34  1   
 36  20  22  1   
 37  21  35  1   
 38  22  36  1   
 39  22  37  1   
 40  22  38  1   
@<TRIPOS>SUBSTRUCTURE
  1 ****  11 GROUP 4 **** **** 0

# MOE 2024.06 (io_trps.svl 2023.06)
