@<TRIPOS>MOLECULE
NONAME
54 56 1 0 0 
SMALL
USER_CHARGES


@<TRIPOS>ATOM
  1 CL      -0.2240    -0.2100    -0.5390 Cl    1 <1>  -0.1770 
  2 C       -1.9010     0.2440    -0.3920 C.ar  1 <1>   0.1770 
  3 C       -2.5330     0.8640    -1.4520 C.ar  1 <1>  -0.1500 
  4 C       -2.5780    -0.0190     0.7830 C.ar  1 <1>  -0.1500 
  5 C       -3.8650     1.2200    -1.3300 C.ar  1 <1>  -0.1500 
  6 C       -3.9090     0.3430     0.8940 C.ar  1 <1>  -0.1500 
  7 C       -4.5840     0.9630    -0.1600 C.ar  1 <1>   0.0530 
  8 C       -5.9720     1.3360    -0.0600 C.2   1 <1>   0.0870 
  9 O       -6.4090     2.4210    -0.6470 O.3   1 <1>  -0.0190 
 10 C       -7.0480     0.7580     0.5350 C.2   1 <1>  -0.0860 
 11 N       -7.6910     2.6140    -0.4770 N.2   1 <1>  -0.4100 
 12 C       -8.0970     1.6340     0.2480 C.2   1 <1>   0.3720 
 13 C       -7.1980    -0.4670     1.2480 C.2   1 <1>   0.7160 
 14 N       -9.4160     1.4640     0.6890 N.pl3 1 <1>  -0.8520 
 15 O       -6.7330    -0.5950     2.3640 O.2   1 <1>  -0.5700 
 16 N       -7.9150    -1.5220     0.7260 N.am  1 <1>  -0.6600 
 17 C      -10.4000     2.4630     0.1580 C.3   1 <1>   0.2090 
 18 C       -8.5710    -1.5100    -0.6090 C.3   1 <1>   0.1400 
 19 C       -8.6600    -2.4250     1.6470 C.3   1 <1>   0.1400 
 20 C      -11.8170     2.1570     0.6470 C.3   1 <1>   0.1200 
 21 C       -9.9770    -2.0520    -0.3510 C.3   1 <1>   0.2000 
 22 C       -9.8290    -3.0230     0.8410 C.3   1 <1>   0.4230 
 23 O      -12.6580     3.1830     0.2280 O.3   1 <1>  -0.5600 
 24 O      -10.7960    -1.0000     0.0500 O.3   1 <1>  -0.6800 
 25 N       -9.5900    -4.4770     0.4610 N.4   1 <1>  -0.9590 
 26 C      -13.9930     3.0010     0.5750 C.3   1 <1>   0.0400 
 27 C       -8.3510    -4.7240    -0.3490 C.3   1 <1>   0.2630 
 28 C      -10.7930    -5.0660    -0.2110 C.3   1 <1>   0.2630 
 29 H       -1.9860     1.0650    -2.3550 H     1 <1>   0.1500 
 30 H       -2.0660    -0.4980     1.5980 H     1 <1>   0.1500 
 31 H       -4.3580     1.7050    -2.1560 H     1 <1>   0.1500 
 32 H       -4.4220     0.1490     1.8190 H     1 <1>   0.1500 
 33 H       -9.4190     1.5420     1.7150 H     1 <1>   0.4000 
 34 H      -10.1200     3.4490     0.4880 H     1 <1>   0.0800 
 35 H      -10.3880     2.4440    -0.9190 H     1 <1>   0.0800 
 36 H       -8.6070    -0.5360    -1.0660 H     1 <1>   0.0800 
 37 H       -8.0300    -2.1650    -1.2680 H     1 <1>   0.0800 
 38 H       -8.0070    -3.1790     2.0510 H     1 <1>   0.0800 
 39 H       -9.0560    -1.8390     2.4590 H     1 <1>   0.0800 
 40 H      -11.8450     2.1150     1.7220 H     1 <1>   0.0800 
 41 H      -12.1700     1.2330     0.2230 H     1 <1>   0.0800 
 42 H      -10.4230    -2.4970    -1.2220 H     1 <1>   0.0800 
 43 H      -10.7260    -2.9750     1.4360 H     1 <1>   0.0800 
 44 H      -10.2630    -0.1760     0.2200 H     1 <1>   0.4000 
 45 H       -9.4700    -4.9870     1.3510 H     1 <1>   0.4500 
 46 H      -14.5510     3.8460     0.2120 H     1 <1>   0.0800 
 47 H      -14.0780     2.9430     1.6460 H     1 <1>   0.0800 
 48 H      -14.3600     2.1000     0.1150 H     1 <1>   0.0800 
 49 H       -8.4470    -4.2840    -1.3280 H     1 <1>   0.0800 
 50 H       -8.1860    -5.7840    -0.4660 H     1 <1>   0.0800 
 51 H       -7.4890    -4.2970     0.1380 H     1 <1>   0.0800 
 52 H      -10.9640    -4.5940    -1.1650 H     1 <1>   0.0800 
 53 H      -11.6710    -4.9280     0.4010 H     1 <1>   0.0800 
 54 H      -10.6530    -6.1230    -0.3730 H     1 <1>   0.0800 
@<TRIPOS>BOND
  1   1   2  1   
  2   2   3  ar  
  3   2   4  ar  
  4   3   5  ar  
  5   3  29  1   
  6   4   6  ar  
  7   4  30  1   
  8   5   7  ar  
  9   5  31  1   
 10   6   7  ar  
 11   6  32  1   
 12   7   8  1   
 13   8   9  1   
 14   8  10  2   
 15   9  11  1   
 16  10  12  1   
 17  10  13  1   
 18  11  12  2   
 19  12  14  1   
 20  13  15  2   
 21  13  16  am  
 22  14  17  1   
 23  14  33  1   
 24  16  18  1   
 25  16  19  1   
 26  17  20  1   
 27  17  34  1   
 28  17  35  1   
 29  18  21  1   
 30  18  36  1   
 31  18  37  1   
 32  19  22  1   
 33  19  38  1   
 34  19  39  1   
 35  20  23  1   
 36  20  40  1   
 37  20  41  1   
 38  21  22  1   
 39  21  24  1   
 40  21  42  1   
 41  22  25  1   
 42  22  43  1   
 43  23  26  1   
 44  24  44  1   
 45  25  27  1   
 46  25  28  1   
 47  25  45  1   
 48  26  46  1   
 49  26  47  1   
 50  26  48  1   
 51  27  49  1   
 52  27  50  1   
 53  27  51  1   
 54  28  52  1   
 55  28  53  1   
 56  28  54  1   
@<TRIPOS>SUBSTRUCTURE
  1 ****  10 GROUP 4 **** **** 0

# MOE 2024.06 (io_trps.svl 2023.06)
