@<TRIPOS>MOLECULE
NONAME
46 47 1 0 0 
SMALL
USER_CHARGES


@<TRIPOS>ATOM
  1 O       -0.4160    -0.4350     0.5150 O.2   1 <1>  -0.5700 
  2 C        0.0000    -1.5520     0.7480 C.2   1 <1>   0.7800 
  3 O        1.2800    -1.8720     0.5230 O.3   1 <1>  -0.4300 
  4 N       -0.8020    -2.5430     1.2450 N.am  1 <1>  -0.6600 
  5 C        2.2870    -1.0310     0.0030 C.3   1 <1>   0.2800 
  6 C       -2.2720    -2.3710     1.2620 C.3   1 <1>   0.3200 
  7 C       -0.2740    -3.8530     1.6900 C.3   1 <1>   0.1400 
  8 C        1.9250    -0.5830    -1.4180 C.3   1 <1>  -0.2400 
  9 C        3.5440    -1.9010    -0.0500 C.3   1 <1>  -0.2400 
 10 C        2.5340     0.1520     0.9470 C.3   1 <1>  -0.2400 
 11 C       -2.8600    -3.0280     0.0280 C.2   1 <1>  -0.3320 
 12 C       -0.4120    -4.8960     0.5650 C.3   1 <1>  -0.0800 
 13 N       -2.6850    -4.3390    -0.2960 N.pl3 1 <1>   0.0480 
 14 C       -3.6230    -2.4300    -0.9260 C.2   1 <1>  -0.1500 
 15 C       -1.8840    -5.3470     0.4240 C.3   1 <1>   0.0960 
 16 C        0.5360    -6.0870     0.8170 C.3   1 <1>  -0.1600 
 17 C       -3.3530    -4.5590    -1.4600 C.2   1 <1>  -0.3020 
 18 C       -3.9400    -3.4070    -1.8730 C.2   1 <1>  -0.1500 
 19 C        0.6910    -6.9560    -0.4350 C.3   1 <1>   0.3430 
 20 N        1.7090    -8.0030    -0.1870 N.4   1 <1>  -0.8530 
 21 H       -2.5290    -1.3240     1.2700 H     1 <1>   0.0800 
 22 H       -2.6840    -2.8150     2.1510 H     1 <1>   0.0800 
 23 H       -0.7980    -4.1720     2.5750 H     1 <1>   0.0800 
 24 H        0.7610    -3.7350     1.9610 H     1 <1>   0.0800 
 25 H        1.6840    -1.4320    -2.0310 H     1 <1>   0.0800 
 26 H        2.7540    -0.0640    -1.8620 H     1 <1>   0.0800 
 27 H        1.0900     0.0930    -1.4110 H     1 <1>   0.0800 
 28 H        3.3850    -2.7470    -0.6930 H     1 <1>   0.0800 
 29 H        3.8010    -2.2450     0.9350 H     1 <1>   0.0800 
 30 H        4.3720    -1.3340    -0.4360 H     1 <1>   0.0800 
 31 H        1.6980     0.8270     0.9510 H     1 <1>   0.0800 
 32 H        3.3940     0.7080     0.6210 H     1 <1>   0.0800 
 33 H        2.7120    -0.1960     1.9480 H     1 <1>   0.0800 
 34 H       -0.1010    -4.4260    -0.3550 H     1 <1>   0.0800 
 35 H       -3.9370    -1.4010    -0.9730 H     1 <1>   0.1500 
 36 H       -2.3280    -5.5090     1.3890 H     1 <1>   0.0800 
 37 H       -1.9510    -6.2630    -0.1310 H     1 <1>   0.0800 
 38 H        0.1670    -6.6730     1.6410 H     1 <1>   0.0800 
 39 H        1.5050    -5.6960     1.0800 H     1 <1>   0.0800 
 40 H       -3.3860    -5.5180    -1.9430 H     1 <1>   0.1500 
 41 H       -4.5380    -3.2420    -2.7530 H     1 <1>   0.1500 
 42 H        0.9970    -6.3380    -1.2660 H     1 <1>   0.0800 
 43 H       -0.2540    -7.4120    -0.6860 H     1 <1>   0.0800 
 44 H        2.6210    -7.5830     0.0280 H     1 <1>   0.4500 
 45 H        1.8300    -8.6010    -1.0140 H     1 <1>   0.4500 
 46 H        1.4430    -8.6040     0.6000 H     1 <1>   0.4500 
@<TRIPOS>BOND
  1   1   2  2   
  2   2   3  1   
  3   2   4  am  
  4   3   5  1   
  5   4   6  1   
  6   4   7  1   
  7   5   8  1   
  8   5   9  1   
  9   5  10  1   
 10   6  11  1   
 11   6  21  1   
 12   6  22  1   
 13   7  12  1   
 14   7  23  1   
 15   7  24  1   
 16   8  25  1   
 17   8  26  1   
 18   8  27  1   
 19   9  28  1   
 20   9  29  1   
 21   9  30  1   
 22  10  31  1   
 23  10  32  1   
 24  10  33  1   
 25  11  13  1   
 26  11  14  2   
 27  12  15  1   
 28  12  16  1   
 29  12  34  1   
 30  13  15  1   
 31  13  17  1   
 32  14  18  1   
 33  14  35  1   
 34  15  36  1   
 35  15  37  1   
 36  16  19  1   
 37  16  38  1   
 38  16  39  1   
 39  17  18  2   
 40  17  40  1   
 41  18  41  1   
 42  19  20  1   
 43  19  42  1   
 44  19  43  1   
 45  20  44  1   
 46  20  45  1   
 47  20  46  1   
@<TRIPOS>SUBSTRUCTURE
  1 ****   4 GROUP 4 **** **** 0

# MOE 2024.06 (io_trps.svl 2023.06)
