@<TRIPOS>MOLECULE
NONAME
47 50 1 0 0 
SMALL
USER_CHARGES


@<TRIPOS>ATOM
  1 S       -0.6210     0.3260     0.1610 S.o2  1 <1>   1.0900 
  2 O        0.7550    -0.0250    -0.1050 O.2   1 <1>  -0.6500 
  3 O       -0.9810     1.5570     0.8230 O.2   1 <1>  -0.6500 
  4 C       -1.3780    -1.0600     0.9580 C.3   1 <1>  -0.0550 
  5 C       -1.5390     0.1370    -1.3600 C.3   1 <1>  -0.0550 
  6 C       -1.6140    -2.0560    -0.1750 C.3   1 <1>   0.1760 
  7 C       -2.1830    -1.2620    -1.3700 C.3   1 <1>  -0.1600 
  8 N       -2.5280    -3.1500     0.2360 N.pl3 1 <1>   0.3140 
  9 N       -3.6820    -2.8850     0.8750 N.2   1 <1>  -0.7070 
 10 C       -2.3850    -4.4790    -0.0010 C.2   1 <1>  -0.3320 
 11 C       -4.2550    -4.0380     1.0260 C.2   1 <1>   0.1080 
 12 C       -3.4890    -5.0810     0.4940 C.2   1 <1>   0.0630 
 13 C       -1.1930    -5.1040    -0.7140 C.3   1 <1>  -0.0600 
 14 C       -5.5930    -4.1700     1.7180 C.3   1 <1>  -0.0590 
 15 N       -3.7550    -6.4730     0.4730 N.am  1 <1>  -0.4930 
 16 C       -4.8990    -7.1280     0.1000 C.2   1 <1>   0.5440 
 17 O       -5.8870    -6.4950    -0.2190 O.2   1 <1>  -0.5700 
 18 C       -4.9320    -8.5780     0.0940 C.ar  1 <1>   0.0860 
 19 C       -6.0910    -9.2670     0.4500 C.ar  1 <1>  -0.1500 
 20 C       -3.8220    -9.3470    -0.2660 C.ar  1 <1>  -0.1500 
 21 C       -6.1400   -10.6480     0.4620 C.ar  1 <1>  -0.1500 
 22 C       -3.8650   -10.7290    -0.2570 C.ar  1 <1>  -0.1500 
 23 C       -5.0280   -11.4040     0.1070 C.ar  1 <1>  -0.0230 
 24 N       -5.0840   -12.8270     0.1150 N.pl3 1 <1>   0.5930 
 25 N       -5.7380   -13.5560     1.0070 N.2   1 <1>  -0.4180 
 26 C       -4.5270   -13.6890    -0.7240 C.2   1 <1>   0.0360 
 27 N       -5.5580   -14.7880     0.6930 N.2   1 <1>   0.0000 
 28 N       -4.8000   -14.8900    -0.3920 N.2   1 <1>  -0.3380 
 29 H       -2.3170    -0.7580     1.3840 H     1 <1>   0.0800 
 30 H       -0.7460    -1.4700     1.7210 H     1 <1>   0.0800 
 31 H       -0.8820     0.2560    -2.2010 H     1 <1>   0.0800 
 32 H       -2.3080     0.8840    -1.4230 H     1 <1>   0.0800 
 33 H       -0.6660    -2.4790    -0.4540 H     1 <1>   0.0800 
 34 H       -1.9870    -1.7720    -2.2960 H     1 <1>   0.0800 
 35 H       -3.2490    -1.1510    -1.2530 H     1 <1>   0.0800 
 36 H       -1.0840    -4.6770    -1.6960 H     1 <1>   0.0800 
 37 H       -1.3300    -6.1640    -0.8250 H     1 <1>   0.0800 
 38 H       -0.2910    -4.9330    -0.1540 H     1 <1>   0.0800 
 39 H       -5.7130    -3.3810     2.4370 H     1 <1>   0.0800 
 40 H       -5.6620    -5.1160     2.2210 H     1 <1>   0.0800 
 41 H       -6.3790    -4.1020     0.9880 H     1 <1>   0.0800 
 42 H       -2.9650    -7.0500     0.7440 H     1 <1>   0.3700 
 43 H       -6.9670    -8.7000     0.7220 H     1 <1>   0.1500 
 44 H       -2.9140    -8.8560    -0.5670 H     1 <1>   0.1500 
 45 H       -7.0550   -11.1410     0.7490 H     1 <1>   0.1500 
 46 H       -2.9820   -11.2810    -0.5340 H     1 <1>   0.1500 
 47 H       -3.9340   -13.3910    -1.5660 H     1 <1>   0.1500 
@<TRIPOS>BOND
  1   1   2  2   
  2   1   3  2   
  3   1   4  1   
  4   1   5  1   
  5   4   6  1   
  6   4  29  1   
  7   4  30  1   
  8   5   7  1   
  9   5  31  1   
 10   5  32  1   
 11   6   7  1   
 12   6   8  1   
 13   6  33  1   
 14   7  34  1   
 15   7  35  1   
 16   8   9  1   
 17   8  10  1   
 18   9  11  2   
 19  10  12  2   
 20  10  13  1   
 21  11  12  1   
 22  11  14  1   
 23  12  15  1   
 24  13  36  1   
 25  13  37  1   
 26  13  38  1   
 27  14  39  1   
 28  14  40  1   
 29  14  41  1   
 30  15  16  am  
 31  15  42  1   
 32  16  17  2   
 33  16  18  1   
 34  18  19  ar  
 35  18  20  ar  
 36  19  21  ar  
 37  19  43  1   
 38  20  22  ar  
 39  20  44  1   
 40  21  23  ar  
 41  21  45  1   
 42  22  23  ar  
 43  22  46  1   
 44  23  24  1   
 45  24  25  1   
 46  24  26  1   
 47  25  27  2   
 48  26  28  2   
 49  26  47  1   
 50  27  28  1   
@<TRIPOS>SUBSTRUCTURE
  1 ****  15 GROUP 4 **** **** 0

# MOE 2024.06 (io_trps.svl 2023.06)
