@<TRIPOS>MOLECULE
NONAME
52 55 1 0 0 
SMALL
USER_CHARGES


@<TRIPOS>ATOM
  1 O       -0.5240     0.4040    -2.0350 O.2   1 <1>  -0.5700 
  2 C       -1.4740     0.9890    -1.5500 C.2   1 <1>   0.5440 
  3 N       -2.6670     0.3140    -1.3850 N.am  1 <1>  -0.6600 
  4 C       -1.3440     2.3840    -1.1710 C.ar  1 <1>   0.0860 
  5 C       -3.8690     0.8850    -0.7010 C.3   1 <1>   0.1400 
  6 C       -2.8600    -1.0940    -1.8500 C.3   1 <1>   0.1400 
  7 C       -0.5960     2.8110    -0.0650 C.ar  1 <1>  -0.1440 
  8 C       -2.0090     3.3520    -1.9240 C.ar  1 <1>  -0.1500 
  9 C       -4.3950    -0.0610     0.3960 C.3   1 <1>   0.1900 
 10 C       -3.4170    -1.9800    -0.7240 C.3   1 <1>   0.1100 
 11 C       -0.5520     4.1560     0.2670 C.ar  1 <1>  -0.1500 
 12 C        0.1880     1.8250     0.7970 C.3   1 <1>  -0.0160 
 13 C       -1.9590     4.6920    -1.5910 C.ar  1 <1>  -0.1500 
 14 N       -4.6590    -1.4150    -0.1510 N.3   1 <1>  -0.8100 
 15 C       -5.6670     0.5220     1.0410 C.3   1 <1>   0.1200 
 16 C       -1.2310     5.0950    -0.4880 C.ar  1 <1>  -0.1500 
 17 C       -0.7190     1.1370     1.8190 C.3   1 <1>  -0.2400 
 18 C       -5.2240    -2.2850     0.9080 C.3   1 <1>   0.3330 
 19 O       -6.1450    -0.3320     2.0410 O.3   1 <1>  -0.5600 
 20 C       -5.6320    -3.6450     0.3450 C.ar  1 <1>  -0.1430 
 21 C       -6.4510    -1.6170     1.5670 C.3   1 <1>   0.1200 
 22 C       -6.3680    -3.7380    -0.8290 C.ar  1 <1>  -0.1500 
 23 C       -5.2730    -4.8100     1.0090 C.ar  1 <1>  -0.1500 
 24 C       -6.7410    -4.9730    -1.3310 C.ar  1 <1>  -0.1500 
 25 C       -5.6440    -6.0460     0.5090 C.ar  1 <1>  -0.1500 
 26 C       -6.3790    -6.1280    -0.6610 C.ar  1 <1>  -0.1500 
 27 H       -3.6360     1.8340    -0.2530 H     1 <1>   0.0800 
 28 H       -4.6420     1.0410    -1.4320 H     1 <1>   0.0800 
 29 H       -3.5510    -1.0990    -2.6740 H     1 <1>   0.0800 
 30 H       -1.9310    -1.5110    -2.1970 H     1 <1>   0.0800 
 31 H       -2.5730     3.0390    -2.7850 H     1 <1>   0.1500 
 32 H       -3.6440    -0.1280     1.1640 H     1 <1>   0.0800 
 33 H       -2.6690    -2.0840     0.0440 H     1 <1>   0.0800 
 34 H       -3.6130    -2.9570    -1.1310 H     1 <1>   0.0800 
 35 H        0.0170     4.4850     1.1200 H     1 <1>   0.1500 
 36 H        0.6650     1.0850     0.1770 H     1 <1>   0.0800 
 37 H        0.9730     2.3450     1.3180 H     1 <1>   0.0800 
 38 H       -2.4820     5.4200    -2.1870 H     1 <1>   0.1500 
 39 H       -6.4400     0.6560     0.3040 H     1 <1>   0.0800 
 40 H       -5.4540     1.4700     1.5000 H     1 <1>   0.0800 
 41 H       -1.1880     6.1370    -0.2200 H     1 <1>   0.1500 
 42 H       -1.4480     0.5300     1.3170 H     1 <1>   0.0800 
 43 H       -1.2260     1.8700     2.4220 H     1 <1>   0.0800 
 44 H       -0.1340     0.5040     2.4620 H     1 <1>   0.0800 
 45 H       -4.4800    -2.4320     1.6720 H     1 <1>   0.0800 
 46 H       -6.7830    -2.2060     2.4030 H     1 <1>   0.0800 
 47 H       -7.2570    -1.5390     0.8600 H     1 <1>   0.0800 
 48 H       -6.6470    -2.8410    -1.3560 H     1 <1>   0.1500 
 49 H       -4.7030    -4.7620     1.9200 H     1 <1>   0.1500 
 50 H       -7.3100    -5.0340    -2.2410 H     1 <1>   0.1500 
 51 H       -5.3620    -6.9440     1.0290 H     1 <1>   0.1500 
 52 H       -6.6670    -7.0890    -1.0500 H     1 <1>   0.1500 
@<TRIPOS>BOND
  1   1   2  2   
  2   2   3  am  
  3   2   4  1   
  4   3   5  1   
  5   3   6  1   
  6   4   7  ar  
  7   4   8  ar  
  8   5   9  1   
  9   5  27  1   
 10   5  28  1   
 11   6  10  1   
 12   6  29  1   
 13   6  30  1   
 14   7  11  ar  
 15   7  12  1   
 16   8  13  ar  
 17   8  31  1   
 18   9  14  1   
 19   9  15  1   
 20   9  32  1   
 21  10  14  1   
 22  10  33  1   
 23  10  34  1   
 24  11  16  ar  
 25  11  35  1   
 26  12  17  1   
 27  12  36  1   
 28  12  37  1   
 29  13  16  ar  
 30  13  38  1   
 31  14  18  1   
 32  15  19  1   
 33  15  39  1   
 34  15  40  1   
 35  16  41  1   
 36  17  42  1   
 37  17  43  1   
 38  17  44  1   
 39  18  20  1   
 40  18  21  1   
 41  18  45  1   
 42  19  21  1   
 43  20  22  ar  
 44  20  23  ar  
 45  21  46  1   
 46  21  47  1   
 47  22  24  ar  
 48  22  48  1   
 49  23  25  ar  
 50  23  49  1   
 51  24  26  ar  
 52  24  50  1   
 53  25  26  ar  
 54  25  51  1   
 55  26  52  1   
@<TRIPOS>SUBSTRUCTURE
  1 ****   9 GROUP 4 **** **** 0

# MOE 2024.06 (io_trps.svl 2023.06)
