@<TRIPOS>MOLECULE
NONAME
47 50 1 0 0 
SMALL
USER_CHARGES


@<TRIPOS>ATOM
  1 S       -0.4340     0.9220     2.3710 S.3   1 <1>  -0.0800 
  2 C       -0.1970     2.1140     1.1110 C.2   1 <1>  -0.1400 
  3 C        1.2170     1.1570     2.9290 C.2   1 <1>  -0.1100 
  4 C        1.0420     2.6210     1.1280 C.2   1 <1>  -0.1810 
  5 C       -1.2830     2.5010     0.1450 C.3   1 <1>   0.0200 
  6 C        1.8550     2.0760     2.1780 C.2   1 <1>  -0.1500 
  7 C        1.4790     3.6710     0.1030 C.3   1 <1>   0.4610 
  8 C       -0.8740     3.8430    -0.4840 C.3   1 <1>   0.1200 
  9 O        0.4770     3.8280    -0.8860 O.3   1 <1>  -0.5600 
 10 C        1.7340     5.0280     0.7750 C.3   1 <1>  -0.1600 
 11 C        2.7350     3.2010    -0.6390 C.3   1 <1>  -0.1600 
 12 C        2.2430     6.0680    -0.2250 C.3   1 <1>   0.1400 
 13 C        3.2390     4.2580    -1.6220 C.3   1 <1>   0.1400 
 14 N        3.4620     5.5380    -0.8950 N.am  1 <1>  -0.6600 
 15 C        4.7300     6.0160    -0.6760 C.2   1 <1>   0.6900 
 16 O        5.6930     5.2870    -0.8190 O.2   1 <1>  -0.5700 
 17 N        4.8800     7.3250    -0.3190 N.am  1 <1>  -0.5470 
 18 C        6.0000     8.0610     0.0940 C.ar  1 <1>   0.1170 
 19 C        5.9710     9.4430    -0.0310 C.ar  1 <1>  -0.1500 
 20 C        7.1340     7.4710     0.6440 C.ar  1 <1>  -0.1500 
 21 C        7.0380    10.2260     0.3740 C.ar  1 <1>   0.0820 
 22 C        8.2080     8.2420     1.0510 C.ar  1 <1>  -0.1500 
 23 O        6.9090    11.5670     0.2070 O.3   1 <1>  -0.3630 
 24 C        8.1670     9.6190     0.9180 C.ar  1 <1>  -0.1500 
 25 C        7.9500    12.4500     0.5590 C.3   1 <1>   0.0400 
 26 H        1.5390     0.5730     3.7720 H     1 <1>   0.1500 
 27 H       -2.2220     2.6090     0.6570 H     1 <1>   0.0800 
 28 H       -1.3840     1.7480    -0.6150 H     1 <1>   0.0800 
 29 H        2.8730     2.3930     2.3200 H     1 <1>   0.1500 
 30 H       -1.0110     4.6430     0.2210 H     1 <1>   0.0800 
 31 H       -1.4740     4.0430    -1.3540 H     1 <1>   0.0800 
 32 H        2.4750     4.9050     1.5430 H     1 <1>   0.0800 
 33 H        0.8390     5.3780     1.2530 H     1 <1>   0.0800 
 34 H        2.5170     2.2880    -1.1620 H     1 <1>   0.0800 
 35 H        3.5210     2.9940     0.0630 H     1 <1>   0.0800 
 36 H        2.4520     6.9850     0.2960 H     1 <1>   0.0800 
 37 H        1.4890     6.2640    -0.9700 H     1 <1>   0.0800 
 38 H        2.5110     4.4160    -2.3990 H     1 <1>   0.0800 
 39 H        4.1510     3.9210    -2.0860 H     1 <1>   0.0800 
 40 H        4.0510     7.8720    -0.5170 H     1 <1>   0.3700 
 41 H        5.1120     9.9290    -0.4510 H     1 <1>   0.1500 
 42 H        7.1800     6.4040     0.7580 H     1 <1>   0.1500 
 43 H        9.0780     7.7670     1.4710 H     1 <1>   0.1500 
 44 H        9.0130    10.1940     1.2410 H     1 <1>   0.1500 
 45 H        7.6310    13.4500     0.3300 H     1 <1>   0.0800 
 46 H        8.8250    12.2040    -0.0170 H     1 <1>   0.0800 
 47 H        8.1430    12.3590     1.6130 H     1 <1>   0.0800 
@<TRIPOS>BOND
  1   1   2  1   
  2   1   3  1   
  3   2   4  2   
  4   2   5  1   
  5   3   6  2   
  6   3  26  1   
  7   4   6  1   
  8   4   7  1   
  9   5   8  1   
 10   5  27  1   
 11   5  28  1   
 12   6  29  1   
 13   7   9  1   
 14   7  10  1   
 15   7  11  1   
 16   8   9  1   
 17   8  30  1   
 18   8  31  1   
 19  10  12  1   
 20  10  32  1   
 21  10  33  1   
 22  11  13  1   
 23  11  34  1   
 24  11  35  1   
 25  12  14  1   
 26  12  36  1   
 27  12  37  1   
 28  13  14  1   
 29  13  38  1   
 30  13  39  1   
 31  14  15  am  
 32  15  16  2   
 33  15  17  am  
 34  17  18  1   
 35  17  40  1   
 36  18  19  ar  
 37  18  20  ar  
 38  19  21  ar  
 39  19  41  1   
 40  20  22  ar  
 41  20  42  1   
 42  21  23  1   
 43  21  24  ar  
 44  22  24  ar  
 45  22  43  1   
 46  23  25  1   
 47  24  44  1   
 48  25  45  1   
 49  25  46  1   
 50  25  47  1   
@<TRIPOS>SUBSTRUCTURE
  1 ****  14 GROUP 4 **** **** 0

# MOE 2024.06 (io_trps.svl 2023.06)
