@<TRIPOS>MOLECULE
NONAME
60 63 1 0 0 
SMALL
USER_CHARGES


@<TRIPOS>ATOM
  1 O       -2.5700     1.6430     2.2670 O.2   1 <1>  -0.5700 
  2 C       -2.6740     1.5480     1.0570 C.2   1 <1>   0.7150 
  3 N       -3.1480     0.3740     0.5370 N.am  1 <1>  -0.6600 
  4 C       -2.2780     2.6240     0.1810 C.2   1 <1>   0.0550 
  5 C       -2.1280    -0.6900     0.2520 C.3   1 <1>   0.3640 
  6 C       -4.4330    -0.1430     1.0770 C.3   1 <1>   0.1400 
  7 O       -1.1630     3.3020     0.4150 O.3   1 <1>  -0.2800 
  8 C       -2.8300     3.0970    -0.9710 C.2   1 <1>  -0.1500 
  9 C       -1.0450    -0.1150    -0.6740 C.ar  1 <1>  -0.1440 
 10 C       -2.7440    -1.9920    -0.3540 C.3   1 <1>   0.2000 
 11 C       -4.9350    -1.3130     0.2300 C.3   1 <1>   0.1200 
 12 C       -0.9590     4.1520    -0.5640 C.2   1 <1>  -0.0400 
 13 C       -1.9720     4.0860    -1.4560 C.2   1 <1>  -0.1500 
 14 C       -1.3610     0.3690    -1.9370 C.ar  1 <1>  -0.1500 
 15 C        0.2800    -0.0860    -0.2610 C.ar  1 <1>  -0.1500 
 16 O       -3.9790    -2.3260     0.2300 O.3   1 <1>  -0.5600 
 17 C       -1.8590    -3.2380    -0.1590 C.3   1 <1>   0.1200 
 18 C        0.3120     4.9770    -0.5480 C.3   1 <1>   0.5230 
 19 C       -0.3750     0.8710    -2.7690 C.ar  1 <1>  -0.1500 
 20 C        1.2700     0.4020    -1.0960 C.ar  1 <1>  -0.1500 
 21 O       -0.5580    -3.0520    -0.6120 O.3   1 <1>  -0.6800 
 22 N        1.4540     4.0580    -0.2860 N.4   1 <1>  -0.9590 
 23 C        0.9440     0.8840    -2.3510 C.ar  1 <1>  -0.1500 
 24 C        1.6760     3.8950     1.1820 C.3   1 <1>   0.3430 
 25 C        2.6870     4.4560    -1.0120 C.3   1 <1>   0.3430 
 26 C        2.7470     2.8340     1.4300 C.3   1 <1>  -0.1600 
 27 C        3.7710     3.3980    -0.8050 C.3   1 <1>  -0.1600 
 28 C        4.0520     3.1510     0.6840 C.3   1 <1>  -0.0800 
 29 C        5.0630     2.0140     0.8610 C.3   1 <1>  -0.2400 
 30 H       -1.6710    -0.9590     1.1890 H     1 <1>   0.0800 
 31 H       -4.2940    -0.4690     2.0940 H     1 <1>   0.0800 
 32 H       -5.1650     0.6460     1.0750 H     1 <1>   0.0800 
 33 H       -3.7400     2.7700    -1.4420 H     1 <1>   0.1500 
 34 H       -2.9220    -1.8530    -1.4040 H     1 <1>   0.0800 
 35 H       -5.1270    -1.0070    -0.7840 H     1 <1>   0.0800 
 36 H       -5.8390    -1.7150     0.6520 H     1 <1>   0.0800 
 37 H       -2.1220     4.6410    -2.3660 H     1 <1>   0.1500 
 38 H       -2.3820     0.3610    -2.2770 H     1 <1>   0.1500 
 39 H        0.5490    -0.4680     0.7100 H     1 <1>   0.1500 
 40 H       -2.2780    -4.0740    -0.6910 H     1 <1>   0.0800 
 41 H       -1.7990    -3.4820     0.8880 H     1 <1>   0.0800 
 42 H        0.2530     5.7330     0.2170 H     1 <1>   0.0800 
 43 H        0.4260     5.4580    -1.5050 H     1 <1>   0.0800 
 44 H       -0.6350     1.2390    -3.7460 H     1 <1>   0.1500 
 45 H        2.2960     0.3830    -0.7720 H     1 <1>   0.1500 
 46 H       -0.5380    -2.8170    -1.5620 H     1 <1>   0.4000 
 47 H        1.1400     3.1350    -0.6310 H     1 <1>   0.4500 
 48 H        1.7120     1.2510    -3.0090 H     1 <1>   0.1500 
 49 H        1.9940     4.8310     1.6100 H     1 <1>   0.0800 
 50 H        0.7610     3.5940     1.6680 H     1 <1>   0.0800 
 51 H        2.4820     4.5560    -2.0660 H     1 <1>   0.0800 
 52 H        3.0400     5.4050    -0.6400 H     1 <1>   0.0800 
 53 H        2.9420     2.7820     2.4870 H     1 <1>   0.0800 
 54 H        2.3640     1.8750     1.1310 H     1 <1>   0.0800 
 55 H        3.4680     2.4840    -1.2840 H     1 <1>   0.0800 
 56 H        4.6740     3.7280    -1.2880 H     1 <1>   0.0800 
 57 H        4.4790     4.0470     1.1070 H     1 <1>   0.0800 
 58 H        4.6850     1.0920     0.4550 H     1 <1>   0.0800 
 59 H        5.2770     1.8610     1.9050 H     1 <1>   0.0800 
 60 H        5.9880     2.2510     0.3640 H     1 <1>   0.0800 
@<TRIPOS>BOND
  1   1   2  2   
  2   2   3  am  
  3   2   4  1   
  4   3   5  1   
  5   3   6  1   
  6   4   7  1   
  7   4   8  2   
  8   5   9  1   
  9   5  10  1   
 10   5  30  1   
 11   6  11  1   
 12   6  31  1   
 13   6  32  1   
 14   7  12  1   
 15   8  13  1   
 16   8  33  1   
 17   9  14  ar  
 18   9  15  ar  
 19  10  16  1   
 20  10  17  1   
 21  10  34  1   
 22  11  16  1   
 23  11  35  1   
 24  11  36  1   
 25  12  13  2   
 26  12  18  1   
 27  13  37  1   
 28  14  19  ar  
 29  14  38  1   
 30  15  20  ar  
 31  15  39  1   
 32  17  21  1   
 33  17  40  1   
 34  17  41  1   
 35  18  22  1   
 36  18  42  1   
 37  18  43  1   
 38  19  23  ar  
 39  19  44  1   
 40  20  23  ar  
 41  20  45  1   
 42  21  46  1   
 43  22  24  1   
 44  22  25  1   
 45  22  47  1   
 46  23  48  1   
 47  24  26  1   
 48  24  49  1   
 49  24  50  1   
 50  25  27  1   
 51  25  51  1   
 52  25  52  1   
 53  26  28  1   
 54  26  53  1   
 55  26  54  1   
 56  27  28  1   
 57  27  55  1   
 58  27  56  1   
 59  28  29  1   
 60  28  57  1   
 61  29  58  1   
 62  29  59  1   
 63  29  60  1   
@<TRIPOS>SUBSTRUCTURE
  1 ****   9 GROUP 4 **** **** 0

# MOE 2024.06 (io_trps.svl 2023.06)
