@<TRIPOS>MOLECULE
NONAME
41 42 1 0 0 
SMALL
USER_CHARGES


@<TRIPOS>ATOM
  1 S        0.4380     0.1030    -0.5470 S.o2  1 <1>   1.3330 
  2 O        0.3240    -0.7550    -1.7050 O.2   1 <1>  -0.6500 
  3 O        0.4820    -0.4890     0.7720 O.2   1 <1>  -0.6500 
  4 N       -0.8500     1.2080    -0.5750 N.am  1 <1>  -0.8490 
  5 C        1.8810     1.1390    -0.7710 C.3   1 <1>  -0.0550 
  6 C       -1.0370     1.9210     0.6920 C.3   1 <1>   0.1160 
  7 C       -2.1080     0.5780    -0.9870 C.3   1 <1>   0.1160 
  8 C        3.1850     0.3320    -0.9330 C.3   1 <1>  -0.0800 
  9 C        4.4280     1.1650    -1.2050 C.3   1 <1>   0.2200 
 10 C        3.5890    -0.4960     0.2940 C.3   1 <1>   0.1200 
 11 N        4.4660     2.3600    -0.3280 N.am  1 <1>  -0.7300 
 12 C        5.5090     0.1960    -0.7480 C.3   1 <1>   0.1200 
 13 O        4.9830    -0.4100     0.3940 O.3   1 <1>  -0.5600 
 14 C        4.1210     3.6280    -0.6970 C.2   1 <1>   0.5440 
 15 O        3.6810     3.7890    -1.8190 O.2   1 <1>  -0.5700 
 16 C        4.2620     4.7450     0.2240 C.ar  1 <1>   0.0860 
 17 C        4.3600     4.5630     1.6070 C.ar  1 <1>  -0.1500 
 18 C        4.3040     6.0580    -0.2490 C.ar  1 <1>  -0.1500 
 19 C        4.5020     5.6360     2.4690 C.ar  1 <1>  -0.1500 
 20 C        4.4440     7.1340     0.6080 C.ar  1 <1>  -0.1500 
 21 C        4.5450     6.9240     1.9700 C.ar  1 <1>  -0.1500 
 22 H        1.7420     1.7410    -1.6490 H     1 <1>   0.0800 
 23 H        1.9670     1.8030     0.0660 H     1 <1>   0.0800 
 24 H       -1.8130     2.6600     0.5880 H     1 <1>   0.0800 
 25 H       -0.1280     2.4230     0.9740 H     1 <1>   0.0800 
 26 H       -1.3110     1.2320     1.4750 H     1 <1>   0.0800 
 27 H       -2.8980     1.3080    -1.0160 H     1 <1>   0.0800 
 28 H       -2.3740    -0.2090    -0.3010 H     1 <1>   0.0800 
 29 H       -2.0030     0.1570    -1.9730 H     1 <1>   0.0800 
 30 H        3.0560    -0.3500    -1.7560 H     1 <1>   0.0800 
 31 H        4.5320     1.4430    -2.2410 H     1 <1>   0.0800 
 32 H        3.3080    -1.5300     0.1900 H     1 <1>   0.0800 
 33 H        3.1730    -0.0970     1.2040 H     1 <1>   0.0800 
 34 H        4.8520     2.1730     0.5990 H     1 <1>   0.3700 
 35 H        6.4370     0.6850    -0.5080 H     1 <1>   0.0800 
 36 H        5.6750    -0.5700    -1.4850 H     1 <1>   0.0800 
 37 H        4.3210     3.5730     2.0220 H     1 <1>   0.1500 
 38 H        4.2240     6.2320    -1.3090 H     1 <1>   0.1500 
 39 H        4.5770     5.4710     3.5300 H     1 <1>   0.1500 
 40 H        4.4740     8.1360     0.2130 H     1 <1>   0.1500 
 41 H        4.6560     7.7610     2.6390 H     1 <1>   0.1500 
@<TRIPOS>BOND
  1   1   2  2   
  2   1   3  2   
  3   1   4  am  
  4   1   5  1   
  5   4   6  1   
  6   4   7  1   
  7   5   8  1   
  8   5  22  1   
  9   5  23  1   
 10   6  24  1   
 11   6  25  1   
 12   6  26  1   
 13   7  27  1   
 14   7  28  1   
 15   7  29  1   
 16   8   9  1   
 17   8  10  1   
 18   8  30  1   
 19   9  11  1   
 20   9  12  1   
 21   9  31  1   
 22  10  13  1   
 23  10  32  1   
 24  10  33  1   
 25  11  14  am  
 26  11  34  1   
 27  12  13  1   
 28  12  35  1   
 29  12  36  1   
 30  14  15  2   
 31  14  16  1   
 32  16  17  ar  
 33  16  18  ar  
 34  17  19  ar  
 35  17  37  1   
 36  18  20  ar  
 37  18  38  1   
 38  19  21  ar  
 39  19  39  1   
 40  20  21  ar  
 41  20  40  1   
 42  21  41  1   
@<TRIPOS>SUBSTRUCTURE
  1 ****  11 GROUP 4 **** **** 0

# MOE 2024.06 (io_trps.svl 2023.06)
