@<TRIPOS>MOLECULE
NONAME
48 49 1 0 0 
SMALL
USER_CHARGES


@<TRIPOS>ATOM
  1 CL      -0.7260    -1.9670     1.8250 Cl    1 <1>  -0.1770 
  2 C       -2.0770    -2.3090     0.7760 C.ar  1 <1>   0.1770 
  3 C       -2.5300    -1.3330    -0.0880 C.ar  1 <1>  -0.1500 
  4 C       -2.6740    -3.5530     0.8230 C.ar  1 <1>  -0.1500 
  5 C       -3.6060    -1.6080    -0.9160 C.ar  1 <1>  -0.1500 
  6 C       -3.7490    -3.8220    -0.0070 C.ar  1 <1>  -0.1500 
  7 C       -4.2360    -2.8500    -0.8780 C.ar  1 <1>  -0.1430 
  8 C       -5.4290    -3.0970    -1.8110 C.3   1 <1>   0.4050 
  9 O       -6.4240    -2.1690    -1.4710 O.3   1 <1>  -0.6800 
 10 C       -5.9760    -4.5500    -1.8580 C.2   1 <1>   0.5690 
 11 O       -5.7460    -5.1810    -2.8640 O.2   1 <1>  -0.5700 
 12 N       -6.7110    -5.1380    -0.8460 N.am  1 <1>  -0.6600 
 13 C       -7.0050    -6.6110    -0.9790 C.3   1 <1>   0.3210 
 14 C       -7.1690    -4.4040     0.3890 C.3   1 <1>   0.1400 
 15 C       -7.7460    -7.2470     0.1990 C.2   1 <1>   0.0460 
 16 C       -8.5030    -3.6370     0.2170 C.3   1 <1>   0.3430 
 17 N       -9.0760    -7.0750     0.3740 N.2   1 <1>  -0.5650 
 18 C       -7.2350    -8.0400     1.1720 C.2   1 <1>  -0.3320 
 19 N       -9.5500    -4.3900    -0.5450 N.4   1 <1>  -0.9590 
 20 C       -9.3440    -7.7760     1.4280 C.2   1 <1>   0.0360 
 21 N       -8.2670    -8.3860     1.9630 N.pl3 1 <1>   0.0330 
 22 C       -5.8180    -8.5290     1.4290 C.3   1 <1>  -0.0600 
 23 C       -9.4410    -4.1690    -2.0180 C.3   1 <1>   0.2630 
 24 C      -10.9220    -4.0860    -0.0550 C.3   1 <1>   0.2630 
 25 H       -2.0420    -0.3750    -0.1110 H     1 <1>   0.1500 
 26 H       -2.2950    -4.2990     1.4990 H     1 <1>   0.1500 
 27 H       -3.9390    -0.8410    -1.5940 H     1 <1>   0.1500 
 28 H       -4.1870    -4.8040     0.0420 H     1 <1>   0.1500 
 29 H       -5.1160    -2.8530    -2.8110 H     1 <1>   0.0800 
 30 H       -6.0010    -1.2920    -1.3800 H     1 <1>   0.4000 
 31 H       -6.0730    -7.1300    -1.1190 H     1 <1>   0.0800 
 32 H       -7.5870    -6.7730    -1.8690 H     1 <1>   0.0800 
 33 H       -6.4180    -3.6930     0.6820 H     1 <1>   0.0800 
 34 H       -7.2590    -5.0810     1.2180 H     1 <1>   0.0800 
 35 H       -8.3140    -2.6980    -0.2730 H     1 <1>   0.0800 
 36 H       -8.8730    -3.4080     1.2020 H     1 <1>   0.0800 
 37 H       -9.3670    -5.4020    -0.3550 H     1 <1>   0.4500 
 38 H      -10.3260    -7.8850     1.8580 H     1 <1>   0.1500 
 39 H       -8.2470    -8.9950     2.7870 H     1 <1>   0.2700 
 40 H       -5.1310    -8.1140     0.7140 H     1 <1>   0.0800 
 41 H       -5.7780    -9.6020     1.3540 H     1 <1>   0.0800 
 42 H       -5.4970    -8.2380     2.4130 H     1 <1>   0.0800 
 43 H       -9.5810    -3.1270    -2.2530 H     1 <1>   0.0800 
 44 H      -10.1880    -4.7480    -2.5360 H     1 <1>   0.0800 
 45 H       -8.4720    -4.4730    -2.3760 H     1 <1>   0.0800 
 46 H      -11.1550    -3.0450    -0.2110 H     1 <1>   0.0800 
 47 H      -10.9980    -4.3080     0.9970 H     1 <1>   0.0800 
 48 H      -11.6440    -4.6870    -0.5830 H     1 <1>   0.0800 
@<TRIPOS>BOND
  1   1   2  1   
  2   2   3  ar  
  3   2   4  ar  
  4   3   5  ar  
  5   3  25  1   
  6   4   6  ar  
  7   4  26  1   
  8   5   7  ar  
  9   5  27  1   
 10   6   7  ar  
 11   6  28  1   
 12   7   8  1   
 13   8   9  1   
 14   8  10  1   
 15   8  29  1   
 16   9  30  1   
 17  10  11  2   
 18  10  12  am  
 19  12  13  1   
 20  12  14  1   
 21  13  15  1   
 22  13  31  1   
 23  13  32  1   
 24  14  16  1   
 25  14  33  1   
 26  14  34  1   
 27  15  17  1   
 28  15  18  2   
 29  16  19  1   
 30  16  35  1   
 31  16  36  1   
 32  17  20  2   
 33  18  21  1   
 34  18  22  1   
 35  19  23  1   
 36  19  24  1   
 37  19  37  1   
 38  20  21  1   
 39  20  38  1   
 40  21  39  1   
 41  22  40  1   
 42  22  41  1   
 43  22  42  1   
 44  23  43  1   
 45  23  44  1   
 46  23  45  1   
 47  24  46  1   
 48  24  47  1   
 49  24  48  1   
@<TRIPOS>SUBSTRUCTURE
  1 ****  12 GROUP 4 **** **** 0

# MOE 2024.06 (io_trps.svl 2023.06)
