@<TRIPOS>MOLECULE
NONAME
57 59 1 0 0 
SMALL
USER_CHARGES


@<TRIPOS>ATOM
  1 CL      -2.0220     0.9420     2.7750 Cl    1 <1>  -0.1770 
  2 C       -2.7390     1.3750     1.2450 C.ar  1 <1>   0.1770 
  3 C       -3.8240     0.6560     0.7780 C.ar  1 <1>  -0.1500 
  4 C       -2.2120     2.4310     0.5250 C.ar  1 <1>  -0.1500 
  5 C       -4.3990     0.9980    -0.4370 C.ar  1 <1>  -0.1440 
  6 C       -2.7850     2.7720    -0.6880 C.ar  1 <1>  -0.1500 
  7 C       -3.8730     2.0570    -1.1640 C.ar  1 <1>  -0.1500 
  8 C       -5.5970     0.2230    -0.9640 C.3   1 <1>  -0.0160 
  9 C       -6.9050     0.8680    -0.4800 C.3   1 <1>  -0.0990 
 10 C       -8.1590     0.1760    -0.9960 C.2   1 <1>   0.5690 
 11 O       -8.0460    -0.9150    -1.5060 O.2   1 <1>  -0.5700 
 12 N       -9.3830     0.7840    -0.8770 N.am  1 <1>  -0.6600 
 13 C      -10.5830     0.1490    -1.5010 C.3   1 <1>   0.1400 
 14 C       -9.6090     2.0700    -0.1480 C.3   1 <1>   0.1400 
 15 C      -11.6320     1.2090    -1.8460 C.3   1 <1>  -0.1600 
 16 C      -11.0060     2.0640     0.4730 C.3   1 <1>  -0.1600 
 17 C      -12.1110     2.0050    -0.6090 C.3   1 <1>   0.2800 
 18 O      -12.3040     3.3020    -1.0990 O.3   1 <1>  -0.5600 
 19 C      -13.4380     1.4130    -0.0530 C.3   1 <1>  -0.1600 
 20 C      -12.9810     4.2840    -0.3470 C.3   1 <1>   0.1200 
 21 C      -14.6460     2.3650    -0.1090 C.3   1 <1>   0.3000 
 22 C      -14.1900     3.7410     0.4390 C.3   1 <1>   0.2000 
 23 N      -15.0320     2.4840    -1.5350 N.am  1 <1>  -0.7300 
 24 C      -15.8010     1.7500     0.7000 C.3   1 <1>  -0.2400 
 25 O      -13.8310     3.6420     1.7870 O.3   1 <1>  -0.6800 
 26 C      -16.0940     2.9990    -2.1950 C.2   1 <1>   0.5690 
 27 O      -16.0370     3.1090    -3.3910 O.2   1 <1>  -0.5700 
 28 C      -17.3490     3.4680    -1.5000 C.3   1 <1>  -0.1790 
 29 H       -4.2080    -0.1590     1.3630 H     1 <1>   0.1500 
 30 H       -1.3680     2.9730     0.9110 H     1 <1>   0.1500 
 31 H       -2.3860     3.5900    -1.2620 H     1 <1>   0.1500 
 32 H       -4.3110     2.3300    -2.1090 H     1 <1>   0.1500 
 33 H       -5.5770     0.2080    -2.0400 H     1 <1>   0.0800 
 34 H       -5.5480    -0.7980    -0.6260 H     1 <1>   0.0800 
 35 H       -6.9180     1.8920    -0.8050 H     1 <1>   0.0800 
 36 H       -6.9250     0.8500     0.5930 H     1 <1>   0.0800 
 37 H      -10.2920    -0.3690    -2.4000 H     1 <1>   0.0800 
 38 H      -10.9940    -0.5740    -0.8180 H     1 <1>   0.0800 
 39 H       -8.8780     2.1930     0.6320 H     1 <1>   0.0800 
 40 H       -9.5180     2.8930    -0.8380 H     1 <1>   0.0800 
 41 H      -12.4570     0.7400    -2.3490 H     1 <1>   0.0800 
 42 H      -11.1780     1.8770    -2.5580 H     1 <1>   0.0800 
 43 H      -11.1250     2.9270     1.0990 H     1 <1>   0.0800 
 44 H      -11.0590     1.1990     1.1100 H     1 <1>   0.0800 
 45 H      -13.6930     0.4950    -0.5510 H     1 <1>   0.0800 
 46 H      -13.2810     1.1280     0.9700 H     1 <1>   0.0800 
 47 H      -12.2780     4.7720     0.3040 H     1 <1>   0.0800 
 48 H      -13.3320     5.0090    -1.0590 H     1 <1>   0.0800 
 49 H      -14.9990     4.4470     0.3950 H     1 <1>   0.0800 
 50 H      -14.2150     2.3770    -2.1440 H     1 <1>   0.3700 
 51 H      -15.4590     1.4520     1.6740 H     1 <1>   0.0800 
 52 H      -16.1920     0.8820     0.2000 H     1 <1>   0.0800 
 53 H      -16.5870     2.4620     0.8580 H     1 <1>   0.0800 
 54 H      -13.0720     3.0370     1.8880 H     1 <1>   0.4000 
 55 H      -17.1050     4.1420    -0.7030 H     1 <1>   0.0800 
 56 H      -17.8900     2.6220    -1.1210 H     1 <1>   0.0800 
 57 H      -17.9750     3.9850    -2.2040 H     1 <1>   0.0800 
@<TRIPOS>BOND
  1   1   2  1   
  2   2   3  ar  
  3   2   4  ar  
  4   3   5  ar  
  5   3  29  1   
  6   4   6  ar  
  7   4  30  1   
  8   5   7  ar  
  9   5   8  1   
 10   6   7  ar  
 11   6  31  1   
 12   7  32  1   
 13   8   9  1   
 14   8  33  1   
 15   8  34  1   
 16   9  10  1   
 17   9  35  1   
 18   9  36  1   
 19  10  11  2   
 20  10  12  am  
 21  12  13  1   
 22  12  14  1   
 23  13  15  1   
 24  13  37  1   
 25  13  38  1   
 26  14  16  1   
 27  14  39  1   
 28  14  40  1   
 29  15  17  1   
 30  15  41  1   
 31  15  42  1   
 32  16  17  1   
 33  16  43  1   
 34  16  44  1   
 35  17  18  1   
 36  17  19  1   
 37  18  20  1   
 38  19  21  1   
 39  19  45  1   
 40  19  46  1   
 41  20  22  1   
 42  20  47  1   
 43  20  48  1   
 44  21  22  1   
 45  21  23  1   
 46  21  24  1   
 47  22  25  1   
 48  22  49  1   
 49  23  26  am  
 50  23  50  1   
 51  24  51  1   
 52  24  52  1   
 53  24  53  1   
 54  25  54  1   
 55  26  27  2   
 56  26  28  1   
 57  28  55  1   
 58  28  56  1   
 59  28  57  1   
@<TRIPOS>SUBSTRUCTURE
  1 ****  14 GROUP 4 **** **** 0

# MOE 2024.06 (io_trps.svl 2023.06)
