@<TRIPOS>MOLECULE
NONAME
52 55 1 0 0 
SMALL
USER_CHARGES


@<TRIPOS>ATOM
  1 O        0.1480    -1.9290    -0.8260 O.3   1 <1>  -0.5600 
  2 C        0.4200    -1.5790     0.5140 C.3   1 <1>   0.4180 
  3 C       -0.6300    -1.0340    -1.5800 C.3   1 <1>   0.1200 
  4 C       -0.7970    -0.9380     1.1680 C.2   1 <1>  -0.2880 
  5 C        1.6400    -0.6530     0.5410 C.3   1 <1>  -0.1600 
  6 C        0.7660    -2.8900     1.2310 C.3   1 <1>  -0.1600 
  7 C       -2.0310    -0.8860    -0.9740 C.3   1 <1>  -0.0220 
  8 C       -1.9220    -0.6330     0.5180 C.2   1 <1>  -0.2760 
  9 C        2.8780    -1.2840    -0.1070 C.3   1 <1>   0.3430 
 10 C        2.1700    -3.4150     0.9120 C.3   1 <1>   0.3430 
 11 C       -3.1570    -0.0350     1.1680 C.3   1 <1>  -0.1020 
 12 N        2.6980    -2.7590    -0.3150 N.4   1 <1>  -0.9590 
 13 C        3.9130    -3.4230    -0.9120 C.3   1 <1>   0.3430 
 14 C        5.0610    -3.7690     0.0740 C.3   1 <1>   0.2000 
 15 O        5.1470    -2.7610     1.0690 O.3   1 <1>  -0.3630 
 16 C        6.4450    -3.7750    -0.6160 C.3   1 <1>  -0.0170 
 17 C        6.1870    -1.9710     0.8230 C.ar  1 <1>   0.3930 
 18 C        7.0060    -2.4610    -0.1470 C.ar  1 <1>  -0.1430 
 19 N        6.3460    -0.8280     1.4330 N.ar  1 <1>  -0.6200 
 20 C        8.0980    -1.7030    -0.4840 C.ar  1 <1>   0.1670 
 21 C        7.4320    -0.1810     1.0400 C.ar  1 <1>   0.4770 
 22 N        8.3110    -0.5480     0.1160 N.ar  1 <1>  -0.6200 
 23 C        9.1020    -2.1270    -1.5350 C.3   1 <1>  -0.0970 
 24 C        7.7070     1.1420     1.7140 C.3   1 <1>  -0.0970 
 25 H       -0.7000    -1.4160    -2.5840 H     1 <1>   0.0800 
 26 H       -0.1320    -0.0810    -1.6050 H     1 <1>   0.0800 
 27 H       -0.6710    -0.7600     2.2220 H     1 <1>   0.1500 
 28 H        1.8760    -0.4230     1.5640 H     1 <1>   0.0800 
 29 H        1.4120     0.2830     0.0650 H     1 <1>   0.0800 
 30 H        0.0280    -3.6310     0.9810 H     1 <1>   0.0800 
 31 H        0.7090    -2.7440     2.2940 H     1 <1>   0.0800 
 32 H       -2.6080    -1.7750    -1.1540 H     1 <1>   0.0800 
 33 H       -2.5260    -0.0620    -1.4560 H     1 <1>   0.0800 
 34 H        3.7360    -1.0870     0.5160 H     1 <1>   0.0800 
 35 H        3.0500    -0.8130    -1.0610 H     1 <1>   0.0800 
 36 H        2.1280    -4.4840     0.7790 H     1 <1>   0.0800 
 37 H        2.8290    -3.2020     1.7400 H     1 <1>   0.0800 
 38 H       -4.0020    -0.6860     1.0270 H     1 <1>   0.0800 
 39 H       -3.3820     0.9230     0.7340 H     1 <1>   0.0800 
 40 H       -3.0030     0.0980     2.2240 H     1 <1>   0.0800 
 41 H        1.9070    -2.8110    -0.9890 H     1 <1>   0.4500 
 42 H        4.3110    -2.7780    -1.6790 H     1 <1>   0.0800 
 43 H        3.6120    -4.3340    -1.4010 H     1 <1>   0.0800 
 44 H        4.8710    -4.7080     0.5630 H     1 <1>   0.0800 
 45 H        6.3780    -3.8320    -1.6880 H     1 <1>   0.0800 
 46 H        7.0470    -4.5880    -0.2480 H     1 <1>   0.0800 
 47 H        8.8640    -3.0910    -1.9400 H     1 <1>   0.0800 
 48 H       10.0820    -2.1690    -1.0950 H     1 <1>   0.0800 
 49 H        9.1160    -1.4050    -2.3310 H     1 <1>   0.0800 
 50 H        7.0970     1.2530     2.5910 H     1 <1>   0.0800 
 51 H        7.4930     1.9420     1.0310 H     1 <1>   0.0800 
 52 H        8.7400     1.1920     2.0020 H     1 <1>   0.0800 
@<TRIPOS>BOND
  1   1   2  1   
  2   1   3  1   
  3   2   4  1   
  4   2   5  1   
  5   2   6  1   
  6   3   7  1   
  7   3  25  1   
  8   3  26  1   
  9   4   8  2   
 10   4  27  1   
 11   5   9  1   
 12   5  28  1   
 13   5  29  1   
 14   6  10  1   
 15   6  30  1   
 16   6  31  1   
 17   7   8  1   
 18   7  32  1   
 19   7  33  1   
 20   8  11  1   
 21   9  12  1   
 22   9  34  1   
 23   9  35  1   
 24  10  12  1   
 25  10  36  1   
 26  10  37  1   
 27  11  38  1   
 28  11  39  1   
 29  11  40  1   
 30  12  13  1   
 31  12  41  1   
 32  13  14  1   
 33  13  42  1   
 34  13  43  1   
 35  14  15  1   
 36  14  16  1   
 37  14  44  1   
 38  15  17  1   
 39  16  18  1   
 40  16  45  1   
 41  16  46  1   
 42  17  18  ar  
 43  17  19  ar  
 44  18  20  ar  
 45  19  21  ar  
 46  20  22  ar  
 47  20  23  1   
 48  21  22  ar  
 49  21  24  1   
 50  23  47  1   
 51  23  48  1   
 52  23  49  1   
 53  24  50  1   
 54  24  51  1   
 55  24  52  1   
@<TRIPOS>SUBSTRUCTURE
  1 ****   9 GROUP 4 **** **** 0

# MOE 2024.06 (io_trps.svl 2023.06)
