@<TRIPOS>MOLECULE
NONAME
41 43 1 0 0 
SMALL
USER_CHARGES


@<TRIPOS>ATOM
  1 O       -2.1180    -0.5940     2.5940 O.co2 1 <1>  -0.9000 
  2 C       -3.3190    -0.2880     2.4370 C.2   1 <1>   0.9790 
  3 O       -3.9660     0.0140     3.4610 O.co2 1 <1>  -0.9000 
  4 C       -3.9150    -0.3190     1.0940 C.ar  1 <1>   0.1310 
  5 N       -5.0930     0.2760     0.8050 N.ar  1 <1>  -0.6200 
  6 C       -3.2000    -1.0050     0.1060 C.ar  1 <1>   0.1600 
  7 C       -5.4830     0.1300    -0.4480 C.ar  1 <1>   0.4100 
  8 N       -3.5690    -1.1600    -1.1610 N.ar  1 <1>  -0.6200 
  9 N       -6.6830     0.7280    -0.7980 N.pl3 1 <1>  -0.8380 
 10 C       -4.7270    -0.5750    -1.3930 C.ar  1 <1>   0.1600 
 11 C       -7.7890     0.5420     0.1880 C.3   1 <1>   0.2090 
 12 C       -6.5470     2.1260    -1.2960 C.3   1 <1>   0.2090 
 13 C       -9.1830     0.8780    -0.4090 C.3   1 <1>   0.0000 
 14 C       -7.8570     2.9230    -1.1770 C.3   1 <1>  -0.1600 
 15 C      -10.1360     1.1620     0.7730 C.3   1 <1>   0.2000 
 16 C       -9.0720     2.0280    -1.4520 C.3   1 <1>  -0.1600 
 17 C       -9.8000    -0.3820    -1.0400 C.3   1 <1>  -0.1600 
 18 O      -11.3150     1.7660     0.3200 O.3   1 <1>  -0.5600 
 19 C      -10.4990    -0.2270     1.3120 C.3   1 <1>  -0.1600 
 20 C      -10.4320    -1.1800     0.1100 C.3   1 <1>  -0.1600 
 21 C      -11.9850     2.5330     1.2680 C.3   1 <1>   0.0400 
 22 H       -2.2620    -1.4540     0.3880 H     1 <1>   0.1500 
 23 H       -5.1310    -0.6400    -2.3840 H     1 <1>   0.1500 
 24 H       -7.7690    -0.4700     0.5570 H     1 <1>   0.0800 
 25 H       -7.5890     1.1860     1.0280 H     1 <1>   0.0800 
 26 H       -5.7650     2.6310    -0.7520 H     1 <1>   0.0800 
 27 H       -6.2570     2.0820    -2.3320 H     1 <1>   0.0800 
 28 H       -7.9300     3.3420    -0.1890 H     1 <1>   0.0800 
 29 H       -7.8340     3.7410    -1.8750 H     1 <1>   0.0800 
 30 H       -9.6760     1.7930     1.5150 H     1 <1>   0.0800 
 31 H       -8.9420     1.5980    -2.4300 H     1 <1>   0.0800 
 32 H       -9.9670     2.6220    -1.4880 H     1 <1>   0.0800 
 33 H      -10.5820    -0.0900    -1.7200 H     1 <1>   0.0800 
 34 H       -9.0690    -0.9580    -1.5800 H     1 <1>   0.0800 
 35 H       -9.7610    -0.5240     2.0360 H     1 <1>   0.0800 
 36 H      -11.4650    -0.2430     1.7830 H     1 <1>   0.0800 
 37 H       -9.8310    -2.0400     0.3510 H     1 <1>   0.0800 
 38 H      -11.4180    -1.5080    -0.1690 H     1 <1>   0.0800 
 39 H      -12.8850     2.9110     0.8150 H     1 <1>   0.0800 
 40 H      -11.3570     3.3550     1.5650 H     1 <1>   0.0800 
 41 H      -12.2360     1.9210     2.1160 H     1 <1>   0.0800 
@<TRIPOS>BOND
  1   1   2  ar  
  2   2   3  ar  
  3   2   4  1   
  4   4   5  ar  
  5   4   6  ar  
  6   5   7  ar  
  7   6   8  ar  
  8   6  22  1   
  9   7   9  1   
 10   7  10  ar  
 11   8  10  ar  
 12   9  11  1   
 13   9  12  1   
 14  10  23  1   
 15  11  13  1   
 16  11  24  1   
 17  11  25  1   
 18  12  14  1   
 19  12  26  1   
 20  12  27  1   
 21  13  15  1   
 22  13  16  1   
 23  13  17  1   
 24  14  16  1   
 25  14  28  1   
 26  14  29  1   
 27  15  18  1   
 28  15  19  1   
 29  15  30  1   
 30  16  31  1   
 31  16  32  1   
 32  17  20  1   
 33  17  33  1   
 34  17  34  1   
 35  18  21  1   
 36  19  20  1   
 37  19  35  1   
 38  19  36  1   
 39  20  37  1   
 40  20  38  1   
 41  21  39  1   
 42  21  40  1   
 43  21  41  1   
@<TRIPOS>SUBSTRUCTURE
  1 ****  11 GROUP 4 **** **** 0

# MOE 2024.06 (io_trps.svl 2023.06)
