@<TRIPOS>MOLECULE
NONAME
56 59 1 0 0 
SMALL
USER_CHARGES


@<TRIPOS>ATOM
  1 O       -0.8790    -0.2810     0.2810 O.3   1 <1>  -0.3630 
  2 C       -0.8300    -1.6010    -0.0440 C.ar  1 <1>   0.0830 
  3 C       -0.8990     0.6510    -0.7770 C.3   1 <1>   0.1200 
  4 C       -1.4860    -2.1520    -1.1540 C.ar  1 <1>   0.0830 
  5 C       -0.0610    -2.4130     0.7690 C.ar  1 <1>  -0.1500 
  6 C       -2.3340     0.8580    -1.2660 C.3   1 <1>  -0.1600 
  7 O       -2.3220    -1.4500    -1.9670 O.3   1 <1>  -0.3630 
  8 C       -1.3120    -3.4920    -1.4490 C.ar  1 <1>  -0.1500 
  9 C        0.0960    -3.7660     0.4780 C.ar  1 <1>   0.0830 
 10 C       -3.1230    -0.4490    -1.3770 C.3   1 <1>   0.1200 
 11 C       -0.5260    -4.3050    -0.6450 C.ar  1 <1>  -0.1430 
 12 O        0.8440    -4.6010     1.2530 O.3   1 <1>  -0.3630 
 13 C       -0.3730    -5.7740    -1.0120 C.3   1 <1>   0.2530 
 14 C        1.6390    -4.1010     2.3070 C.3   1 <1>   0.0400 
 15 N       -1.6150    -6.4870    -0.6810 N.3   1 <1>  -0.6890 
 16 C       -1.8080    -6.5970     0.7940 C.3   1 <1>   0.2100 
 17 C       -1.4620    -7.9650    -0.6850 C.3   1 <1>   0.2100 
 18 C       -2.5010    -7.9590     0.4860 C.3   1 <1>   0.4720 
 19 N       -3.9580    -7.8010     0.0980 N.4   1 <1>  -0.9280 
 20 C       -4.9140    -7.9020     1.2440 C.3   1 <1>   0.4230 
 21 C       -4.3350    -8.7290    -1.0100 C.3   1 <1>   0.3430 
 22 C       -6.3340    -7.5740     0.7610 C.3   1 <1>  -0.1600 
 23 C       -4.5510    -6.9630     2.3950 C.3   1 <1>  -0.2400 
 24 C       -5.7380    -8.4100    -1.5240 C.3   1 <1>  -0.1600 
 25 C       -6.7750    -8.4700    -0.4000 C.3   1 <1>  -0.1600 
 26 H       -0.2690     0.2800    -1.5690 H     1 <1>   0.0800 
 27 H       -0.4880     1.5750    -0.4120 H     1 <1>   0.0800 
 28 H        0.4090    -1.9580     1.6190 H     1 <1>   0.1500 
 29 H       -2.3090     1.3400    -2.2270 H     1 <1>   0.0800 
 30 H       -2.8470     1.5180    -0.5910 H     1 <1>   0.0800 
 31 H       -1.8080    -3.8980    -2.3120 H     1 <1>   0.1500 
 32 H       -3.9920    -0.3140    -1.9950 H     1 <1>   0.0800 
 33 H       -3.4370    -0.7950    -0.4060 H     1 <1>   0.0800 
 34 H        0.4700    -6.2100    -0.5020 H     1 <1>   0.0800 
 35 H       -0.1920    -5.8550    -2.0700 H     1 <1>   0.0800 
 36 H        2.1890    -4.9210     2.7310 H     1 <1>   0.0800 
 37 H        0.9990    -3.6660     3.0540 H     1 <1>   0.0800 
 38 H        2.3230    -3.3690     1.9130 H     1 <1>   0.0800 
 39 H       -2.4420    -5.8180     1.1730 H     1 <1>   0.0000 
 40 H       -0.8790    -6.7040     1.3300 H     1 <1>   0.0000 
 41 H       -0.4780    -8.2780    -0.3770 H     1 <1>   0.0000 
 42 H       -1.7780    -8.4100    -1.6100 H     1 <1>   0.0000 
 43 H       -2.3450    -8.7280     1.2210 H     1 <1>   0.0000 
 44 H       -4.0040    -6.8450    -0.2840 H     1 <1>   0.4500 
 45 H       -4.9070    -8.9150     1.6140 H     1 <1>   0.0800 
 46 H       -4.3030    -9.7480    -0.6580 H     1 <1>   0.0800 
 47 H       -3.6480    -8.6310    -1.8320 H     1 <1>   0.0800 
 48 H       -6.3840    -6.5410     0.4590 H     1 <1>   0.0800 
 49 H       -7.0260    -7.7020     1.5760 H     1 <1>   0.0800 
 50 H       -4.5140    -5.9400     2.0650 H     1 <1>   0.0800 
 51 H       -3.6180    -7.2390     2.8510 H     1 <1>   0.0800 
 52 H       -5.3020    -7.0310     3.1620 H     1 <1>   0.0800 
 53 H       -6.0020    -9.1170    -2.2910 H     1 <1>   0.0800 
 54 H       -5.7390    -7.4320    -1.9750 H     1 <1>   0.0800 
 55 H       -7.7350    -8.1490    -0.7690 H     1 <1>   0.0800 
 56 H       -6.8780    -9.4860    -0.0550 H     1 <1>   0.0800 
@<TRIPOS>BOND
  1   1   2  1   
  2   1   3  1   
  3   2   4  ar  
  4   2   5  ar  
  5   3   6  1   
  6   3  26  1   
  7   3  27  1   
  8   4   7  1   
  9   4   8  ar  
 10   5   9  ar  
 11   5  28  1   
 12   6  10  1   
 13   6  29  1   
 14   6  30  1   
 15   7  10  1   
 16   8  11  ar  
 17   8  31  1   
 18   9  11  ar  
 19   9  12  1   
 20  10  32  1   
 21  10  33  1   
 22  11  13  1   
 23  12  14  1   
 24  13  15  1   
 25  13  34  1   
 26  13  35  1   
 27  14  36  1   
 28  14  37  1   
 29  14  38  1   
 30  15  16  1   
 31  15  17  1   
 32  16  18  1   
 33  16  39  1   
 34  16  40  1   
 35  17  18  1   
 36  17  41  1   
 37  17  42  1   
 38  18  19  1   
 39  18  43  1   
 40  19  20  1   
 41  19  21  1   
 42  19  44  1   
 43  20  22  1   
 44  20  23  1   
 45  20  45  1   
 46  21  24  1   
 47  21  46  1   
 48  21  47  1   
 49  22  25  1   
 50  22  48  1   
 51  22  49  1   
 52  23  50  1   
 53  23  51  1   
 54  23  52  1   
 55  24  25  1   
 56  24  53  1   
 57  24  54  1   
 58  25  55  1   
 59  25  56  1   
@<TRIPOS>SUBSTRUCTURE
  1 ****  11 GROUP 4 **** **** 0

# MOE 2024.06 (io_trps.svl 2023.06)
