@<TRIPOS>MOLECULE
NONAME
49 51 1 0 0 
SMALL
USER_CHARGES


@<TRIPOS>ATOM
  1 O       -1.6120    -0.3800    -2.5860 O.2   1 <1>  -0.5700 
  2 C       -1.8980    -0.8090    -1.5020 C.2   1 <1>   0.5690 
  3 N       -1.9110     0.0040    -0.4320 N.am  1 <1>  -0.7300 
  4 C       -2.2810    -2.2560    -1.3500 C.3   1 <1>  -0.0190 
  5 C       -2.2540    -0.3950     0.9520 C.3   1 <1>   0.2200 
  6 C       -1.3170    -3.0050    -0.4030 C.3   1 <1>   0.1200 
  7 C       -3.7770    -2.3310    -1.0140 C.3   1 <1>   0.3430 
  8 C       -1.2770    -1.4880     1.4550 C.3   1 <1>   0.1200 
  9 C       -3.7510    -0.8050     1.0460 C.3   1 <1>   0.3430 
 10 O       -1.5780    -2.7680     0.9560 O.3   1 <1>  -0.5600 
 11 N       -4.0870    -2.1470     0.4460 N.4   1 <1>  -0.9590 
 12 C       -5.4540    -2.6110     0.8020 C.3   1 <1>   0.4860 
 13 C       -5.5740    -4.0780     0.4420 C.ar  1 <1>  -0.1440 
 14 C       -6.4250    -4.4770    -0.5790 C.ar  1 <1>  -0.1500 
 15 C       -4.8270    -5.0330     1.1170 C.ar  1 <1>  -0.1500 
 16 C       -6.5180    -5.8130    -0.9250 C.ar  1 <1>  -0.1500 
 17 C       -4.9240    -6.3680     0.7670 C.ar  1 <1>  -0.1500 
 18 C       -5.7670    -6.7650    -0.2570 C.ar  1 <1>  -0.1440 
 19 C       -5.8750    -8.2350    -0.6360 C.3   1 <1>  -0.0170 
 20 C       -6.9780    -8.9200     0.1790 C.3   1 <1>  -0.1600 
 21 C       -7.1100   -10.4040    -0.1870 C.3   1 <1>  -0.1600 
 22 C       -8.2140   -11.0760     0.6330 C.3   1 <1>  -0.2400 
 23 H       -1.5880     0.9650    -0.5940 H     1 <1>   0.3700 
 24 H       -2.1600    -2.6940    -2.3250 H     1 <1>   0.0800 
 25 H       -2.1130     0.4750     1.5710 H     1 <1>   0.0800 
 26 H       -0.2920    -2.7430    -0.6110 H     1 <1>   0.0800 
 27 H       -1.4230    -4.0660    -0.5560 H     1 <1>   0.0800 
 28 H       -4.1230    -3.3050    -1.3220 H     1 <1>   0.0800 
 29 H       -4.3110    -1.5990    -1.6000 H     1 <1>   0.0800 
 30 H       -1.3440    -1.5550     2.5270 H     1 <1>   0.0800 
 31 H       -0.2590    -1.2420     1.2030 H     1 <1>   0.0800 
 32 H       -4.3470    -0.0380     0.5800 H     1 <1>   0.0800 
 33 H       -4.0130    -0.8280     2.0910 H     1 <1>   0.0800 
 34 H       -3.4260    -2.8070     0.9010 H     1 <1>   0.4500 
 35 H       -5.6240    -2.4930     1.8590 H     1 <1>   0.0800 
 36 H       -6.1940    -2.0370     0.2680 H     1 <1>   0.0800 
 37 H       -7.0250    -3.7610    -1.1150 H     1 <1>   0.1500 
 38 H       -4.1650    -4.7580     1.9210 H     1 <1>   0.1500 
 39 H       -7.1830    -6.1150    -1.7170 H     1 <1>   0.1500 
 40 H       -4.3430    -7.1030     1.2980 H     1 <1>   0.1500 
 41 H       -6.0930    -8.3220    -1.6860 H     1 <1>   0.0800 
 42 H       -4.9340    -8.7250    -0.4560 H     1 <1>   0.0800 
 43 H       -6.7520    -8.8270     1.2270 H     1 <1>   0.0800 
 44 H       -7.9140    -8.4200    -0.0030 H     1 <1>   0.0800 
 45 H       -7.3410   -10.5000    -1.2350 H     1 <1>   0.0800 
 46 H       -6.1770   -10.9080    -0.0030 H     1 <1>   0.0800 
 47 H       -9.1630   -10.6020     0.4480 H     1 <1>   0.0800 
 48 H       -7.9940   -11.0120     1.6840 H     1 <1>   0.0800 
 49 H       -8.2930   -12.1140     0.3640 H     1 <1>   0.0800 
@<TRIPOS>BOND
  1   1   2  2   
  2   2   3  am  
  3   2   4  1   
  4   3   5  1   
  5   3  23  1   
  6   4   6  1   
  7   4   7  1   
  8   4  24  1   
  9   5   8  1   
 10   5   9  1   
 11   5  25  1   
 12   6  10  1   
 13   6  26  1   
 14   6  27  1   
 15   7  11  1   
 16   7  28  1   
 17   7  29  1   
 18   8  10  1   
 19   8  30  1   
 20   8  31  1   
 21   9  11  1   
 22   9  32  1   
 23   9  33  1   
 24  11  12  1   
 25  11  34  1   
 26  12  13  1   
 27  12  35  1   
 28  12  36  1   
 29  13  14  ar  
 30  13  15  ar  
 31  14  16  ar  
 32  14  37  1   
 33  15  17  ar  
 34  15  38  1   
 35  16  18  ar  
 36  16  39  1   
 37  17  18  ar  
 38  17  40  1   
 39  18  19  1   
 40  19  20  1   
 41  19  41  1   
 42  19  42  1   
 43  20  21  1   
 44  20  43  1   
 45  20  44  1   
 46  21  22  1   
 47  21  45  1   
 48  21  46  1   
 49  22  47  1   
 50  22  48  1   
 51  22  49  1   
@<TRIPOS>SUBSTRUCTURE
  1 ****  13 GROUP 4 **** **** 0

# MOE 2024.06 (io_trps.svl 2023.06)
