@<TRIPOS>MOLECULE
NONAME
46 49 1 0 0 
SMALL
USER_CHARGES


@<TRIPOS>ATOM
  1 O        0.5320    -0.6730     1.7870 O.2   1 <1>  -0.5700 
  2 C        0.1770    -1.6680     1.1820 C.2   1 <1>   0.4690 
  3 C        0.9710    -2.2700     0.1460 C.ar  1 <1>   0.0860 
  4 C       -1.0660    -2.2810     1.4720 C.2   1 <1>  -0.1360 
  5 C        0.4620    -3.3980    -0.5080 C.ar  1 <1>   0.0830 
  6 C        2.2220    -1.7910    -0.2480 C.ar  1 <1>  -0.1500 
  7 C       -1.5150    -3.3710     0.7970 C.2   1 <1>   0.0910 
  8 O       -0.7440    -3.9030    -0.1720 O.3   1 <1>  -0.1590 
  9 C        1.1840    -4.0210    -1.5160 C.ar  1 <1>  -0.1500 
 10 C        2.9390    -2.4120    -1.2520 C.ar  1 <1>  -0.1500 
 11 C       -2.7790    -4.0380     1.0310 C.2   1 <1>   0.6160 
 12 C        2.4200    -3.5300    -1.8890 C.ar  1 <1>  -0.1500 
 13 O       -2.8060    -5.2510     1.1220 O.2   1 <1>  -0.5700 
 14 N       -3.9580    -3.3320     1.1670 N.am  1 <1>  -0.6600 
 15 C       -5.1890    -3.9640     1.7240 C.3   1 <1>   0.1400 
 16 C       -4.1840    -1.9650     0.6190 C.3   1 <1>   0.1400 
 17 C       -6.2630    -4.0370     0.6370 C.3   1 <1>  -0.1600 
 18 C       -5.2460    -2.0330    -0.4800 C.3   1 <1>  -0.1600 
 19 C       -6.5490    -2.6610     0.0300 C.3   1 <1>   0.4180 
 20 O       -7.0700    -1.8710     1.0710 O.3   1 <1>  -0.5600 
 21 C       -7.5690    -2.7990    -1.0970 C.2   1 <1>  -0.2880 
 22 C       -7.8070    -0.7340     0.7140 C.3   1 <1>   0.1200 
 23 C       -8.7210    -2.1270    -1.1530 C.2   1 <1>  -0.2760 
 24 C       -9.0690    -1.1290    -0.0630 C.3   1 <1>  -0.0220 
 25 C       -9.7600    -2.2870    -2.2480 C.3   1 <1>  -0.1020 
 26 H       -1.6390    -1.8340     2.2630 H     1 <1>   0.1500 
 27 H        2.6270    -0.9230     0.2460 H     1 <1>   0.1500 
 28 H        0.7730    -4.8890    -2.0020 H     1 <1>   0.1500 
 29 H        3.9030    -2.0300    -1.5440 H     1 <1>   0.1500 
 30 H        2.9820    -4.0120    -2.6710 H     1 <1>   0.1500 
 31 H       -5.5460    -3.3700     2.5490 H     1 <1>   0.0800 
 32 H       -4.9790    -4.9520     2.0950 H     1 <1>   0.0800 
 33 H       -3.2790    -1.5570     0.2060 H     1 <1>   0.0800 
 34 H       -4.5170    -1.3170     1.4130 H     1 <1>   0.0800 
 35 H       -7.1720    -4.4370     1.0480 H     1 <1>   0.0800 
 36 H       -5.9270    -4.7110    -0.1290 H     1 <1>   0.0800 
 37 H       -4.8630    -2.6270    -1.2890 H     1 <1>   0.0800 
 38 H       -5.4360    -1.0520    -0.8720 H     1 <1>   0.0800 
 39 H       -7.2670    -3.5080    -1.8470 H     1 <1>   0.1500 
 40 H       -7.1830    -0.0920     0.1180 H     1 <1>   0.0800 
 41 H       -8.0720    -0.2170     1.6190 H     1 <1>   0.0800 
 42 H       -9.4980    -0.2420    -0.4930 H     1 <1>   0.0800 
 43 H       -9.7900    -1.5600     0.6080 H     1 <1>   0.0800 
 44 H       -9.9100    -1.3520    -2.7590 H     1 <1>   0.0800 
 45 H      -10.6950    -2.6080    -1.8260 H     1 <1>   0.0800 
 46 H       -9.4400    -3.0210    -2.9660 H     1 <1>   0.0800 
@<TRIPOS>BOND
  1   1   2  2   
  2   2   3  1   
  3   2   4  1   
  4   3   5  ar  
  5   3   6  ar  
  6   4   7  2   
  7   4  26  1   
  8   5   8  1   
  9   5   9  ar  
 10   6  10  ar  
 11   6  27  1   
 12   7   8  1   
 13   7  11  1   
 14   9  12  ar  
 15   9  28  1   
 16  10  12  ar  
 17  10  29  1   
 18  11  13  2   
 19  11  14  am  
 20  12  30  1   
 21  14  15  1   
 22  14  16  1   
 23  15  17  1   
 24  15  31  1   
 25  15  32  1   
 26  16  18  1   
 27  16  33  1   
 28  16  34  1   
 29  17  19  1   
 30  17  35  1   
 31  17  36  1   
 32  18  19  1   
 33  18  37  1   
 34  18  38  1   
 35  19  20  1   
 36  19  21  1   
 37  20  22  1   
 38  21  23  2   
 39  21  39  1   
 40  22  24  1   
 41  22  40  1   
 42  22  41  1   
 43  23  24  1   
 44  23  25  1   
 45  24  42  1   
 46  24  43  1   
 47  25  44  1   
 48  25  45  1   
 49  25  46  1   
@<TRIPOS>SUBSTRUCTURE
  1 ****  16 GROUP 4 **** **** 0

# MOE 2024.06 (io_trps.svl 2023.06)
