@<TRIPOS>MOLECULE
NONAME
42 45 1 0 0 
SMALL
USER_CHARGES


@<TRIPOS>ATOM
  1 F       -2.3280     3.4860    -1.9180 F     1 <1>  -0.1900 
  2 C       -2.0810     3.7930    -0.6730 C.ar  1 <1>   0.1900 
  3 C       -2.3990     2.8970     0.3330 C.ar  1 <1>   0.0860 
  4 C       -1.5170     5.0240    -0.3950 C.ar  1 <1>   0.1600 
  5 C       -2.9810     1.6020     0.0810 C.2   1 <1>   0.5440 
  6 C       -2.1020     3.3490     1.6130 C.ar  1 <1>  -0.1500 
  7 N       -1.2420     5.4500     0.8300 N.ar  1 <1>  -0.6200 
  8 O       -2.2650     0.7100    -0.3310 O.2   1 <1>  -0.5700 
  9 N       -4.3160     1.3480     0.3200 N.am  1 <1>  -0.6600 
 10 C       -1.5400     4.6000     1.8030 C.ar  1 <1>   0.1600 
 11 C       -5.3140     2.3790     0.7450 C.3   1 <1>   0.1400 
 12 C       -4.9150     0.0010     0.0980 C.3   1 <1>   0.1400 
 13 C       -6.4200     2.5410    -0.3170 C.3   1 <1>   0.1430 
 14 C       -6.0100     0.0930    -0.9700 C.3   1 <1>  -0.1600 
 15 C       -7.4900     3.5050     0.1600 C.ar  1 <1>   0.1670 
 16 C       -7.0600     1.1700    -0.6330 C.3   1 <1>  -0.1600 
 17 C       -5.8970     3.2430    -1.6000 C.3   1 <1>  -0.1600 
 18 N       -8.0660     3.4800     1.3400 N.ar  1 <1>  -0.6200 
 19 C       -7.8020     4.4250    -0.7980 C.ar  1 <1>  -0.1440 
 20 C       -6.9930     4.2210    -2.0550 C.3   1 <1>  -0.0170 
 21 C       -8.9720     4.4310     1.5170 C.ar  1 <1>   0.7200 
 22 C       -8.7640     5.3590    -0.5010 C.ar  1 <1>   0.1600 
 23 N       -9.3660     5.3690     0.6680 N.ar  1 <1>  -0.6200 
 24 N       -9.5900     4.4280     2.6990 N.pl3 1 <1>  -0.9000 
 25 H       -1.2860     5.6820    -1.2150 H     1 <1>   0.1500 
 26 H       -2.3090     2.7160     2.4570 H     1 <1>   0.1500 
 27 H       -1.3220     4.9210     2.8090 H     1 <1>   0.1500 
 28 H       -4.8470     3.3300     0.9250 H     1 <1>   0.0800 
 29 H       -5.7620     2.0600     1.6710 H     1 <1>   0.0800 
 30 H       -5.3360    -0.3500     1.0240 H     1 <1>   0.0800 
 31 H       -4.1660    -0.7070    -0.2140 H     1 <1>   0.0800 
 32 H       -6.4950    -0.8630    -1.0570 H     1 <1>   0.0800 
 33 H       -5.5470     0.3020    -1.9180 H     1 <1>   0.0800 
 34 H       -7.7590     1.2670    -1.4450 H     1 <1>   0.0800 
 35 H       -7.6140     0.8460     0.2310 H     1 <1>   0.0800 
 36 H       -5.6320     2.5520    -2.3800 H     1 <1>   0.0800 
 37 H       -5.0220     3.8190    -1.3580 H     1 <1>   0.0800 
 38 H       -7.6110     3.7740    -2.8140 H     1 <1>   0.0800 
 39 H       -6.5760     5.1450    -2.4170 H     1 <1>   0.0800 
 40 H       -9.0440     6.1040    -1.2260 H     1 <1>   0.1500 
 41 H      -10.4690     4.9370     2.7240 H     1 <1>   0.4000 
 42 H       -9.5540     3.5480     3.2040 H     1 <1>   0.4000 
@<TRIPOS>BOND
  1   1   2  1   
  2   2   3  ar  
  3   2   4  ar  
  4   3   5  1   
  5   3   6  ar  
  6   4   7  ar  
  7   4  25  1   
  8   5   8  2   
  9   5   9  am  
 10   6  10  ar  
 11   6  26  1   
 12   7  10  ar  
 13   9  11  1   
 14   9  12  1   
 15  10  27  1   
 16  11  13  1   
 17  11  28  1   
 18  11  29  1   
 19  12  14  1   
 20  12  30  1   
 21  12  31  1   
 22  13  15  1   
 23  13  16  1   
 24  13  17  1   
 25  14  16  1   
 26  14  32  1   
 27  14  33  1   
 28  15  18  ar  
 29  15  19  ar  
 30  16  34  1   
 31  16  35  1   
 32  17  20  1   
 33  17  36  1   
 34  17  37  1   
 35  18  21  ar  
 36  19  20  1   
 37  19  22  ar  
 38  20  38  1   
 39  20  39  1   
 40  21  23  ar  
 41  21  24  1   
 42  22  23  ar  
 43  22  40  1   
 44  24  41  1   
 45  24  42  1   
@<TRIPOS>SUBSTRUCTURE
  1 ****  11 GROUP 4 **** **** 0

# MOE 2024.06 (io_trps.svl 2023.06)
