@<TRIPOS>MOLECULE
NONAME
46 48 1 0 0 
SMALL
USER_CHARGES


@<TRIPOS>ATOM
  1 O       -0.4130    -1.9120    -0.4270 O.2   1 <1>  -0.5700 
  2 C        0.7620    -2.1010    -0.1820 C.2   1 <1>   0.6900 
  3 N        1.4190    -3.2280    -0.6320 N.am  1 <1>  -0.4200 
  4 N        1.4280    -1.2060     0.6060 N.am  1 <1>  -0.5390 
  5 C        2.6980    -3.4990    -0.1740 C.2   1 <1>   0.6160 
  6 C        0.7990    -4.1210    -1.6640 C.3   1 <1>   0.1400 
  7 C        2.7220    -1.4090     1.0370 C.2   1 <1>  -0.0290 
  8 O        3.2410    -4.5450    -0.4750 O.2   1 <1>  -0.5700 
  9 C        3.3500    -2.5420     0.6590 C.2   1 <1>  -0.1360 
 10 C       -0.1270    -5.1710    -1.0330 C.3   1 <1>   0.3430 
 11 C        3.3370    -0.3340     1.9110 C.3   1 <1>  -0.1020 
 12 N       -1.3680    -4.5540    -0.4490 N.4   1 <1>  -0.9590 
 13 C       -2.0190    -5.5250     0.4910 C.3   1 <1>   0.3430 
 14 C       -2.3640    -4.2630    -1.5280 C.3   1 <1>   0.3430 
 15 C       -3.1570    -6.1600    -0.2890 C.3   1 <1>   0.0370 
 16 C       -3.6520    -4.9590    -1.1090 C.3   1 <1>  -0.1600 
 17 C       -4.2550    -6.7210     0.6360 C.ar  1 <1>  -0.1440 
 18 C       -2.4240    -7.1880    -1.1620 C.2   1 <1>   0.9060 
 19 C       -4.6780    -8.0410     0.5270 C.ar  1 <1>  -0.1500 
 20 C       -4.8510    -5.9160     1.6010 C.ar  1 <1>  -0.1500 
 21 O       -1.6350    -7.9690    -0.6210 O.co2 1 <1>  -0.9000 
 22 O       -2.4590    -7.0780    -2.3940 O.co2 1 <1>  -0.9000 
 23 C       -5.6650    -8.5410     1.3580 C.ar  1 <1>  -0.1500 
 24 C       -5.8380    -6.4150     2.4340 C.ar  1 <1>  -0.1500 
 25 C       -6.2470    -7.7290     2.3130 C.ar  1 <1>  -0.1500 
 26 H        0.8980    -0.3730     0.8700 H     1 <1>   0.3700 
 27 H        1.5720    -4.6340    -2.2090 H     1 <1>   0.0800 
 28 H        0.2520    -3.5300    -2.3770 H     1 <1>   0.0800 
 29 H        4.3530    -2.7820     0.9560 H     1 <1>   0.1500 
 30 H        0.4190    -5.7010    -0.2690 H     1 <1>   0.0800 
 31 H       -0.4060    -5.8960    -1.7830 H     1 <1>   0.0800 
 32 H        2.7600    -0.2120     2.8110 H     1 <1>   0.0800 
 33 H        3.3630     0.6020     1.3840 H     1 <1>   0.0800 
 34 H        4.3430    -0.5990     2.1860 H     1 <1>   0.0800 
 35 H       -1.1240    -3.6640     0.0180 H     1 <1>   0.4500 
 36 H       -2.4210    -4.9950     1.3370 H     1 <1>   0.0800 
 37 H       -1.3270    -6.2730     0.8440 H     1 <1>   0.0800 
 38 H       -2.0310    -4.6930    -2.4600 H     1 <1>   0.0800 
 39 H       -2.5100    -3.2020    -1.6550 H     1 <1>   0.0800 
 40 H       -4.2280    -5.2670    -1.9640 H     1 <1>   0.0800 
 41 H       -4.2440    -4.2860    -0.5180 H     1 <1>   0.0800 
 42 H       -4.2430    -8.7030    -0.2040 H     1 <1>   0.1500 
 43 H       -4.5590    -4.8880     1.7200 H     1 <1>   0.1500 
 44 H       -5.9750    -9.5670     1.2570 H     1 <1>   0.1500 
 45 H       -6.2900    -5.7800     3.1760 H     1 <1>   0.1500 
 46 H       -7.0140    -8.1210     2.9580 H     1 <1>   0.1500 
@<TRIPOS>BOND
  1   1   2  2   
  2   2   3  am  
  3   2   4  am  
  4   3   5  am  
  5   3   6  1   
  6   4   7  1   
  7   4  26  1   
  8   5   8  2   
  9   5   9  1   
 10   6  10  1   
 11   6  27  1   
 12   6  28  1   
 13   7   9  2   
 14   7  11  1   
 15   9  29  1   
 16  10  12  1   
 17  10  30  1   
 18  10  31  1   
 19  11  32  1   
 20  11  33  1   
 21  11  34  1   
 22  12  13  1   
 23  12  14  1   
 24  12  35  1   
 25  13  15  1   
 26  13  36  1   
 27  13  37  1   
 28  14  16  1   
 29  14  38  1   
 30  14  39  1   
 31  15  16  1   
 32  15  17  1   
 33  15  18  1   
 34  16  40  1   
 35  16  41  1   
 36  17  19  ar  
 37  17  20  ar  
 38  18  21  ar  
 39  18  22  ar  
 40  19  23  ar  
 41  19  42  1   
 42  20  24  ar  
 43  20  43  1   
 44  23  25  ar  
 45  23  44  1   
 46  24  25  ar  
 47  24  45  1   
 48  25  46  1   
@<TRIPOS>SUBSTRUCTURE
  1 ****  12 GROUP 4 **** **** 0

# MOE 2024.06 (io_trps.svl 2023.06)
