@<TRIPOS>MOLECULE
NONAME
49 51 1 0 0 
SMALL
USER_CHARGES


@<TRIPOS>ATOM
  1 CL       1.3790     1.0190     1.5320 Cl    1 <1>  -0.1770 
  2 C        1.9100    -0.5020     0.8500 C.ar  1 <1>   0.1770 
  3 C        2.4690    -0.5850    -0.4210 C.ar  1 <1>   0.0820 
  4 C        1.7290    -1.6390     1.6170 C.ar  1 <1>  -0.1500 
  5 O        2.6660     0.4840    -1.2230 O.3   1 <1>  -0.3630 
  6 C        2.8310    -1.8260    -0.9180 C.ar  1 <1>  -0.1500 
  7 C        2.0930    -2.8820     1.1140 C.ar  1 <1>  -0.1430 
  8 C        3.6460     1.4740    -0.8820 C.3   1 <1>   0.0940 
  9 C        2.6490    -2.9670    -0.1560 C.ar  1 <1>  -0.1500 
 10 C        1.8700    -4.1340     1.9400 C.3   1 <1>   0.4870 
 11 C        3.7470     2.5590    -1.9720 C.2   1 <1>   0.9060 
 12 C        5.0050     0.7950    -0.6140 C.3   1 <1>  -0.2400 
 13 N        0.7510    -4.9060     1.3440 N.4   1 <1>  -0.9590 
 14 O        4.2250     2.2810    -3.0830 O.co2 1 <1>  -0.9000 
 15 O        3.4010     3.7150    -1.6890 O.co2 1 <1>  -0.9000 
 16 C       -0.5370    -4.1420     1.2170 C.3   1 <1>   0.3430 
 17 C        0.5170    -6.2390     1.9830 C.3   1 <1>   0.3430 
 18 C       -1.6330    -4.9980     0.5330 C.3   1 <1>   0.1100 
 19 C       -0.4980    -7.0680     1.1610 C.3   1 <1>   0.1100 
 20 N       -1.1080    -6.2950     0.0460 N.3   1 <1>  -0.8100 
 21 C       -2.1570    -7.0660    -0.6640 C.3   1 <1>   0.2900 
 22 C       -1.6240    -8.3680    -1.2440 C.2   1 <1>  -0.0400 
 23 O       -1.5500    -9.4390    -0.4730 O.3   1 <1>  -0.2800 
 24 C       -1.1990    -8.6580    -2.4930 C.2   1 <1>  -0.1500 
 25 C       -1.0790   -10.4270    -1.2080 C.2   1 <1>  -0.0100 
 26 C       -0.8390   -10.0110    -2.4690 C.2   1 <1>  -0.1500 
 27 H        1.3000    -1.5290     2.5970 H     1 <1>   0.1500 
 28 H        3.2580    -1.8760    -1.9060 H     1 <1>   0.1500 
 29 H        3.3140     1.9690     0.0080 H     1 <1>   0.0800 
 30 H        2.9500    -3.9150    -0.5720 H     1 <1>   0.1500 
 31 H        1.6360    -3.8660     2.9570 H     1 <1>   0.0800 
 32 H        2.7700    -4.7270     1.9400 H     1 <1>   0.0800 
 33 H        5.3140     0.2490    -1.4880 H     1 <1>   0.0800 
 34 H        4.9580     0.1440     0.2370 H     1 <1>   0.0800 
 35 H        5.7410     1.5540    -0.4200 H     1 <1>   0.0800 
 36 H        0.9830    -5.1320     0.3650 H     1 <1>   0.4500 
 37 H       -0.3760    -3.2540     0.6280 H     1 <1>   0.0800 
 38 H       -0.8840    -3.8310     2.1890 H     1 <1>   0.0800 
 39 H        0.1370    -6.1070     2.9830 H     1 <1>   0.0800 
 40 H        1.4410    -6.7890     2.0500 H     1 <1>   0.0800 
 41 H       -2.0380    -4.4390    -0.2940 H     1 <1>   0.0800 
 42 H       -2.4350    -5.1680     1.2320 H     1 <1>   0.0800 
 43 H       -1.2660    -7.4460     1.8150 H     1 <1>   0.0800 
 44 H        0.0250    -7.9190     0.7570 H     1 <1>   0.0800 
 45 H       -2.5360    -6.4700    -1.4760 H     1 <1>   0.0800 
 46 H       -2.9770    -7.2870    -0.0010 H     1 <1>   0.0800 
 47 H       -1.1380    -8.0140    -3.3530 H     1 <1>   0.1500 
 48 H       -0.9460   -11.3950    -0.7560 H     1 <1>   0.1500 
 49 H       -0.4560   -10.5720    -3.3030 H     1 <1>   0.1500 
@<TRIPOS>BOND
  1   1   2  1   
  2   2   3  ar  
  3   2   4  ar  
  4   3   5  1   
  5   3   6  ar  
  6   4   7  ar  
  7   4  27  1   
  8   5   8  1   
  9   6   9  ar  
 10   6  28  1   
 11   7   9  ar  
 12   7  10  1   
 13   8  11  1   
 14   8  12  1   
 15   8  29  1   
 16   9  30  1   
 17  10  13  1   
 18  10  31  1   
 19  10  32  1   
 20  11  14  ar  
 21  11  15  ar  
 22  12  33  1   
 23  12  34  1   
 24  12  35  1   
 25  13  16  1   
 26  13  17  1   
 27  13  36  1   
 28  16  18  1   
 29  16  37  1   
 30  16  38  1   
 31  17  19  1   
 32  17  39  1   
 33  17  40  1   
 34  18  20  1   
 35  18  41  1   
 36  18  42  1   
 37  19  20  1   
 38  19  43  1   
 39  19  44  1   
 40  20  21  1   
 41  21  22  1   
 42  21  45  1   
 43  21  46  1   
 44  22  23  1   
 45  22  24  2   
 46  23  25  1   
 47  24  26  1   
 48  24  47  1   
 49  25  26  2   
 50  25  48  1   
 51  26  49  1   
@<TRIPOS>SUBSTRUCTURE
  1 ****   9 GROUP 4 **** **** 0

# MOE 2024.06 (io_trps.svl 2023.06)
