@<TRIPOS>MOLECULE
NONAME
47 49 1 0 0 
SMALL
USER_CHARGES


@<TRIPOS>ATOM
  1 O        0.1670    -0.8890    -1.7890 O.2   1 <1>  -0.5700 
  2 C       -0.0330    -1.9610    -1.2670 C.2   1 <1>   0.5690 
  3 N        0.5490    -2.3050    -0.0690 N.am  1 <1>  -0.6600 
  4 C       -0.9560    -2.9410    -2.0040 C.3   1 <1>   0.2010 
  5 C        0.3040    -3.6250     0.5790 C.3   1 <1>   0.1400 
  6 C        1.4020    -1.3500     0.6850 C.3   1 <1>   0.1400 
  7 N       -1.2080    -4.2550    -1.3010 N.am  1 <1>  -0.6600 
  8 C       -0.0820    -4.7110    -0.4360 C.3   1 <1>   0.1400 
  9 C        0.5990    -0.7390     1.8300 C.3   1 <1>  -0.2400 
 10 C       -2.4560    -4.8390    -1.3120 C.2   1 <1>   0.7160 
 11 O       -3.4130    -4.1620    -1.6340 O.2   1 <1>  -0.5700 
 12 C       -2.6610    -6.2210    -0.9340 C.2   1 <1>  -0.0860 
 13 C       -3.7090    -6.7820    -0.2660 C.2   1 <1>  -0.0400 
 14 C       -1.8010    -7.3100    -1.2000 C.2   1 <1>  -0.1500 
 15 O       -3.5190    -8.0700    -0.0890 O.3   1 <1>  -0.2800 
 16 C       -4.9820    -6.1430     0.2700 C.3   1 <1>   0.3000 
 17 C       -2.3800    -8.3980    -0.6560 C.2   1 <1>  -0.0100 
 18 O       -6.1070    -6.7670    -0.3130 O.3   1 <1>  -0.3630 
 19 C       -7.3660    -6.4070     0.0390 C.ar  1 <1>   0.0820 
 20 C       -8.3980    -7.1860    -0.4560 C.ar  1 <1>  -0.1500 
 21 C       -7.6640    -5.3190     0.8550 C.ar  1 <1>  -0.1500 
 22 C       -9.7130    -6.8940    -0.1410 C.ar  1 <1>  -0.1500 
 23 C       -8.9820    -5.0290     1.1680 C.ar  1 <1>  -0.1500 
 24 C      -10.0120    -5.8150     0.6750 C.ar  1 <1>  -0.1440 
 25 C      -11.4540    -5.4910     1.0200 C.3   1 <1>  -0.0970 
 26 H       -0.5140    -3.1470    -2.9610 H     1 <1>   0.0800 
 27 H       -1.8840    -2.4290    -2.1840 H     1 <1>   0.0800 
 28 H       -0.4870    -3.5180     1.3010 H     1 <1>   0.0800 
 29 H        1.1910    -3.9380     1.1010 H     1 <1>   0.0800 
 30 H        1.7430    -0.5650     0.0300 H     1 <1>   0.0800 
 31 H        2.2700    -1.8600     1.0660 H     1 <1>   0.0800 
 32 H       -0.3510    -5.5980     0.1080 H     1 <1>   0.0800 
 33 H        0.7690    -4.9420    -1.0530 H     1 <1>   0.0800 
 34 H       -0.2700    -0.2380     1.4420 H     1 <1>   0.0800 
 35 H        1.2040    -0.0160     2.3470 H     1 <1>   0.0800 
 36 H        0.2970    -1.4930     2.5330 H     1 <1>   0.0800 
 37 H       -0.8760    -7.2500    -1.7440 H     1 <1>   0.1500 
 38 H       -5.0160    -5.0970     0.0290 H     1 <1>   0.0800 
 39 H       -5.0390    -6.2790     1.3350 H     1 <1>   0.0800 
 40 H       -2.0660    -9.4270    -0.6290 H     1 <1>   0.1500 
 41 H       -8.1620    -8.0230    -1.0890 H     1 <1>   0.1500 
 42 H       -6.8950    -4.6850     1.2520 H     1 <1>   0.1500 
 43 H      -10.5020    -7.5100    -0.5350 H     1 <1>   0.1500 
 44 H       -9.2030    -4.1860     1.7980 H     1 <1>   0.1500 
 45 H      -12.0500    -6.3860     1.0230 H     1 <1>   0.0800 
 46 H      -11.8560    -4.8080     0.2940 H     1 <1>   0.0800 
 47 H      -11.5150    -5.0400     1.9940 H     1 <1>   0.0800 
@<TRIPOS>BOND
  1   1   2  2   
  2   2   3  am  
  3   2   4  1   
  4   3   5  1   
  5   3   6  1   
  6   4   7  1   
  7   4  26  1   
  8   4  27  1   
  9   5   8  1   
 10   5  28  1   
 11   5  29  1   
 12   6   9  1   
 13   6  30  1   
 14   6  31  1   
 15   7   8  1   
 16   7  10  am  
 17   8  32  1   
 18   8  33  1   
 19   9  34  1   
 20   9  35  1   
 21   9  36  1   
 22  10  11  2   
 23  10  12  1   
 24  12  13  2   
 25  12  14  1   
 26  13  15  1   
 27  13  16  1   
 28  14  17  2   
 29  14  37  1   
 30  15  17  1   
 31  16  18  1   
 32  16  38  1   
 33  16  39  1   
 34  17  40  1   
 35  18  19  1   
 36  19  20  ar  
 37  19  21  ar  
 38  20  22  ar  
 39  20  41  1   
 40  21  23  ar  
 41  21  42  1   
 42  22  24  ar  
 43  22  43  1   
 44  23  24  ar  
 45  23  44  1   
 46  24  25  1   
 47  25  45  1   
 48  25  46  1   
 49  25  47  1   
@<TRIPOS>SUBSTRUCTURE
  1 ****  11 GROUP 4 **** **** 0

# MOE 2024.06 (io_trps.svl 2023.06)
