@<TRIPOS>MOLECULE
NONAME
51 53 1 0 0 
SMALL
USER_CHARGES


@<TRIPOS>ATOM
  1 O        0.4980    -0.2630    -1.2220 O.3   1 <1>  -0.5600 
  2 C        1.7830    -0.8170    -1.0640 C.3   1 <1>   0.2000 
  3 C        0.4580     1.1190    -1.4230 C.3   1 <1>   0.1200 
  4 C        2.5570    -0.1250     0.0910 C.3   1 <1>   0.5660 
  5 C        1.6340    -2.3220    -0.7820 C.3   1 <1>   0.1200 
  6 C        1.0800     1.8470    -0.2190 C.3   1 <1>   0.3430 
  7 N        2.4770     1.3690     0.0460 N.4   1 <1>  -0.9590 
  8 C        4.0300    -0.5120     0.0780 C.ar  1 <1>  -0.1430 
  9 O        1.2050    -2.5250     0.5280 O.3   1 <1>  -0.6800 
 10 C        3.0570     1.9800     1.2690 C.3   1 <1>   0.4870 
 11 C        4.8800    -0.1220    -0.9510 C.ar  1 <1>  -0.1500 
 12 C        4.5370    -1.2650     1.1280 C.ar  1 <1>  -0.1500 
 13 C        3.3020     3.4410     0.9630 C.ar  1 <1>  -0.1430 
 14 C        6.2190    -0.4700    -0.9190 C.ar  1 <1>  -0.1500 
 15 C        5.8750    -1.6130     1.1570 C.ar  1 <1>  -0.1500 
 16 C        4.4000     3.8120     0.2040 C.ar  1 <1>  -0.1500 
 17 C        2.4320     4.4180     1.4210 C.ar  1 <1>  -0.1500 
 18 C        6.7170    -1.2130     0.1350 C.ar  1 <1>  -0.1500 
 19 C        4.6220     5.1420    -0.1130 C.ar  1 <1>   0.0820 
 20 C        2.6430     5.7510     1.1120 C.ar  1 <1>   0.0820 
 21 O        5.7160     5.4000    -0.8700 O.3   1 <1>  -0.3630 
 22 C        3.7410     6.1180     0.3410 C.ar  1 <1>  -0.1500 
 23 O        1.7300     6.6280     1.5960 O.3   1 <1>  -0.3630 
 24 C        6.1170     6.7220    -1.1600 C.3   1 <1>   0.0400 
 25 C        1.8870     8.0210     1.4360 C.3   1 <1>   0.0400 
 26 H        2.3050    -0.6900    -1.9960 H     1 <1>   0.0800 
 27 H        0.9770     1.3570    -2.3360 H     1 <1>   0.0800 
 28 H       -0.5750     1.4020    -1.5320 H     1 <1>   0.0800 
 29 H        2.1210    -0.4660     1.0160 H     1 <1>   0.0800 
 30 H        2.5790    -2.8250    -0.9010 H     1 <1>   0.0800 
 31 H        0.9160    -2.7560    -1.4570 H     1 <1>   0.0800 
 32 H        0.4600     1.6660     0.6440 H     1 <1>   0.0800 
 33 H        1.0840     2.9090    -0.4070 H     1 <1>   0.0800 
 34 H        3.0750     1.6760    -0.7250 H     1 <1>   0.4500 
 35 H        0.8760    -3.4420     0.6430 H     1 <1>   0.4000 
 36 H        2.3850     1.8740     2.1040 H     1 <1>   0.0800 
 37 H        3.9960     1.5120     1.5170 H     1 <1>   0.0800 
 38 H        4.5260     0.4510    -1.7910 H     1 <1>   0.1500 
 39 H        3.8970    -1.5940     1.9310 H     1 <1>   0.1500 
 40 H        6.8790    -0.1670    -1.7150 H     1 <1>   0.1500 
 41 H        6.2660    -2.1970     1.9740 H     1 <1>   0.1500 
 42 H        5.1070     3.0840    -0.1530 H     1 <1>   0.1500 
 43 H        1.5770     4.1700     2.0250 H     1 <1>   0.1500 
 44 H        7.7590    -1.4840     0.1590 H     1 <1>   0.1500 
 45 H        3.9070     7.1470     0.0960 H     1 <1>   0.1500 
 46 H        7.0290     6.6770    -1.7280 H     1 <1>   0.0800 
 47 H        6.2880     7.2470    -0.2370 H     1 <1>   0.0800 
 48 H        5.3500     7.2010    -1.7420 H     1 <1>   0.0800 
 49 H        1.0690     8.5090     1.9340 H     1 <1>   0.0800 
 50 H        1.8670     8.2590     0.3870 H     1 <1>   0.0800 
 51 H        2.8170     8.3230     1.8830 H     1 <1>   0.0800 
@<TRIPOS>BOND
  1   1   2  1   
  2   1   3  1   
  3   2   4  1   
  4   2   5  1   
  5   2  26  1   
  6   3   6  1   
  7   3  27  1   
  8   3  28  1   
  9   4   7  1   
 10   4   8  1   
 11   4  29  1   
 12   5   9  1   
 13   5  30  1   
 14   5  31  1   
 15   6   7  1   
 16   6  32  1   
 17   6  33  1   
 18   7  10  1   
 19   7  34  1   
 20   8  11  ar  
 21   8  12  ar  
 22   9  35  1   
 23  10  13  1   
 24  10  36  1   
 25  10  37  1   
 26  11  14  ar  
 27  11  38  1   
 28  12  15  ar  
 29  12  39  1   
 30  13  16  ar  
 31  13  17  ar  
 32  14  18  ar  
 33  14  40  1   
 34  15  18  ar  
 35  15  41  1   
 36  16  19  ar  
 37  16  42  1   
 38  17  20  ar  
 39  17  43  1   
 40  18  44  1   
 41  19  21  1   
 42  19  22  ar  
 43  20  22  ar  
 44  20  23  1   
 45  21  24  1   
 46  22  45  1   
 47  23  25  1   
 48  24  46  1   
 49  24  47  1   
 50  24  48  1   
 51  25  49  1   
 52  25  50  1   
 53  25  51  1   
@<TRIPOS>SUBSTRUCTURE
  1 ****   7 GROUP 4 **** **** 0

# MOE 2024.06 (io_trps.svl 2023.06)
