@<TRIPOS>MOLECULE
NONAME
39 41 1 0 0 
SMALL
USER_CHARGES


@<TRIPOS>ATOM
  1 O        0.3480     0.5560     1.5450 O.3   1 <1>  -0.0190 
  2 N       -0.2090     1.6590     1.1470 N.2   1 <1>  -0.4100 
  3 C        1.3470     0.3800     0.7140 C.2   1 <1>   0.2980 
  4 C        0.4520     2.0730     0.1400 C.2   1 <1>   0.3350 
  5 N        1.4750     1.2900    -0.1750 N.2   1 <1>  -0.5650 
  6 C        2.2300    -0.8610     0.9250 C.3   1 <1>   0.4690 
  7 C        0.1610     3.3380    -0.6680 C.3   1 <1>   0.1010 
  8 N        1.9580    -1.9790    -0.0240 N.pl3 1 <1>  -0.8380 
  9 C        3.7270    -0.5770     0.7450 C.3   1 <1>  -0.1600 
 10 C        0.9270     4.5360    -0.0910 C.3   1 <1>  -0.2400 
 11 C       -1.3420     3.6530    -0.7350 C.3   1 <1>  -0.2400 
 12 C        0.7970    -2.7030    -0.0020 C.ar  1 <1>   0.7200 
 13 C        3.2020    -2.4600    -0.6620 C.3   1 <1>   0.2090 
 14 C        4.3180    -1.8720     0.1920 C.3   1 <1>  -0.1600 
 15 N       -0.0950    -2.3790     0.9210 N.ar  1 <1>  -0.6200 
 16 N        0.6710    -3.6640    -0.9140 N.ar  1 <1>  -0.6200 
 17 C       -1.2200    -3.0430     0.9030 C.ar  1 <1>   0.4100 
 18 C       -0.4640    -4.3240    -0.9020 C.ar  1 <1>   0.1600 
 19 N       -2.1070    -2.6340     1.8520 N.pl3 1 <1>  -0.9000 
 20 C       -1.4730    -4.0570    -0.0100 C.ar  1 <1>   0.0730 
 21 C       -2.7000    -4.7780    -0.0280 C.1   1 <1>   0.4840 
 22 N       -3.6870    -5.3490    -0.0570 N.1   1 <1>  -0.5570 
 23 H        2.0730    -1.2270     1.9250 H     1 <1>   0.0800 
 24 H        0.5070     3.1660    -1.6720 H     1 <1>   0.0800 
 25 H        3.8640     0.2080     0.0220 H     1 <1>   0.0800 
 26 H        4.1840    -0.2770     1.6700 H     1 <1>   0.0800 
 27 H        0.6090     4.7290     0.9190 H     1 <1>   0.0800 
 28 H        0.7570     5.4150    -0.6860 H     1 <1>   0.0800 
 29 H        1.9810     4.3240    -0.0830 H     1 <1>   0.0800 
 30 H       -1.7280     3.8600     0.2480 H     1 <1>   0.0800 
 31 H       -1.8740     2.8100    -1.1400 H     1 <1>   0.0800 
 32 H       -1.5190     4.5060    -1.3650 H     1 <1>   0.0800 
 33 H        3.2500    -3.5360    -0.6840 H     1 <1>   0.0800 
 34 H        3.2480    -2.0750    -1.6670 H     1 <1>   0.0800 
 35 H        4.5370    -2.5520     0.9960 H     1 <1>   0.0800 
 36 H        5.2120    -1.7040    -0.3820 H     1 <1>   0.0800 
 37 H       -0.5920    -5.1030    -1.6350 H     1 <1>   0.1500 
 38 H       -1.8590    -1.7630     2.3310 H     1 <1>   0.4000 
 39 H       -3.1130    -2.7890     1.7550 H     1 <1>   0.4000 
@<TRIPOS>BOND
  1   1   2  1   
  2   1   3  1   
  3   2   4  2   
  4   3   5  2   
  5   3   6  1   
  6   4   5  1   
  7   4   7  1   
  8   6   8  1   
  9   6   9  1   
 10   6  23  1   
 11   7  10  1   
 12   7  11  1   
 13   7  24  1   
 14   8  12  1   
 15   8  13  1   
 16   9  14  1   
 17   9  25  1   
 18   9  26  1   
 19  10  27  1   
 20  10  28  1   
 21  10  29  1   
 22  11  30  1   
 23  11  31  1   
 24  11  32  1   
 25  12  15  ar  
 26  12  16  ar  
 27  13  14  1   
 28  13  33  1   
 29  13  34  1   
 30  14  35  1   
 31  14  36  1   
 32  15  17  ar  
 33  16  18  ar  
 34  17  19  1   
 35  17  20  ar  
 36  18  20  ar  
 37  18  37  1   
 38  19  38  1   
 39  19  39  1   
 40  20  21  1   
 41  21  22  3   
@<TRIPOS>SUBSTRUCTURE
  1 ****  15 GROUP 4 **** **** 0

# MOE 2024.06 (io_trps.svl 2023.06)
