@<TRIPOS>MOLECULE
NONAME
57 59 1 0 0 
SMALL
USER_CHARGES


@<TRIPOS>ATOM
  1 S        0.4210    -0.1470    -0.0160 S.3   1 <1>  -0.0800 
  2 C        2.1720    -0.3030    -0.0660 C.2   1 <1>  -0.1400 
  3 C        0.2200    -1.6000    -0.9780 C.2   1 <1>  -0.1100 
  4 C        2.5260    -1.3940    -0.7700 C.2   1 <1>  -0.1500 
  5 C        2.9940     0.7470     0.6570 C.3   1 <1>   0.0200 
  6 C        1.4150    -2.1320    -1.2900 C.2   1 <1>  -0.1500 
  7 C        2.9340     2.0990    -0.0650 C.3   1 <1>  -0.1600 
  8 C        3.7900     3.1670     0.6470 C.3   1 <1>  -0.0990 
  9 C        3.7900     4.5370    -0.0300 C.2   1 <1>   0.5690 
 10 O        3.0140     4.7260    -0.9370 O.2   1 <1>  -0.5700 
 11 N        4.6520     5.5220     0.3920 N.am  1 <1>  -0.6600 
 12 C        5.5870     5.3800     1.5490 C.3   1 <1>   0.1400 
 13 C        4.6190     6.8620    -0.2650 C.3   1 <1>   0.1400 
 14 C        6.9890     4.9500     1.0830 C.3   1 <1>   0.1100 
 15 C        5.9950     7.5320    -0.3740 C.3   1 <1>  -0.1600 
 16 N        7.7780     6.0340     0.4490 N.3   1 <1>  -0.8100 
 17 C        7.1260     6.5760    -0.7620 C.3   1 <1>   0.1100 
 18 C        9.1620     5.5630     0.1450 C.3   1 <1>   0.2540 
 19 C       10.1810     6.7130     0.0380 C.cat 1 <1>   0.6560 
 20 N        9.9170     7.9310     0.4730 N.pl3 1 <1>  -0.7000 
 21 N       11.4150     6.6750    -0.4690 N.pl3 1 <1>  -0.7640 
 22 C       11.0030     8.7210     0.2490 C.2   1 <1>   0.1820 
 23 C       11.9420     7.9430    -0.3390 C.2   1 <1>   0.1820 
 24 C       12.1320     5.5110    -1.0640 C.3   1 <1>   0.2740 
 25 C       10.9970    10.1840     0.6470 C.3   1 <1>  -0.0720 
 26 C       13.3430     8.2930    -0.8090 C.3   1 <1>  -0.0720 
 27 H       -0.7850    -1.9040    -1.2100 H     1 <1>   0.1500 
 28 H        3.5350    -1.7200    -0.9520 H     1 <1>   0.1500 
 29 H        4.0150     0.4110     0.7070 H     1 <1>   0.0800 
 30 H        2.6260     0.8470     1.6630 H     1 <1>   0.0800 
 31 H        1.5700    -3.0240    -1.8720 H     1 <1>   0.1500 
 32 H        1.9120     2.4360    -0.1090 H     1 <1>   0.0800 
 33 H        3.2800     1.9770    -1.0770 H     1 <1>   0.0800 
 34 H        4.8020     2.8140     0.6980 H     1 <1>   0.0800 
 35 H        3.4190     3.2940     1.6470 H     1 <1>   0.0800 
 36 H        5.2070     4.6440     2.2330 H     1 <1>   0.0800 
 37 H        5.6500     6.3070     2.0920 H     1 <1>   0.0800 
 38 H        3.9470     7.5010     0.2810 H     1 <1>   0.0800 
 39 H        4.2220     6.7550    -1.2610 H     1 <1>   0.0800 
 40 H        6.8970     4.1150     0.4090 H     1 <1>   0.0800 
 41 H        7.5210     4.6100     1.9550 H     1 <1>   0.0800 
 42 H        6.2340     8.0410     0.5420 H     1 <1>   0.0800 
 43 H        5.9130     8.2870    -1.1350 H     1 <1>   0.0800 
 44 H        7.8430     7.1380    -1.3350 H     1 <1>   0.0800 
 45 H        6.7550     5.7800    -1.3890 H     1 <1>   0.0800 
 46 H        9.1590     4.9950    -0.7680 H     1 <1>   0.0800 
 47 H        9.5020     4.9190     0.9370 H     1 <1>   0.0800 
 48 H        9.0110     8.1620     0.8950 H     1 <1>   0.4500 
 49 H       11.5160     4.6290    -1.0430 H     1 <1>   0.0800 
 50 H       13.0330     5.3150    -0.5080 H     1 <1>   0.0800 
 51 H       12.3920     5.7270    -2.0860 H     1 <1>   0.0800 
 52 H       10.2080    10.7010     0.1310 H     1 <1>   0.0800 
 53 H       11.9310    10.6540     0.4010 H     1 <1>   0.0800 
 54 H       10.8370    10.2740     1.7060 H     1 <1>   0.0800 
 55 H       14.0670     7.6940    -0.2870 H     1 <1>   0.0800 
 56 H       13.5630     9.3280    -0.6200 H     1 <1>   0.0800 
 57 H       13.4330     8.1150    -1.8650 H     1 <1>   0.0800 
@<TRIPOS>BOND
  1   1   2  1   
  2   1   3  1   
  3   2   4  2   
  4   2   5  1   
  5   3   6  2   
  6   3  27  1   
  7   4   6  1   
  8   4  28  1   
  9   5   7  1   
 10   5  29  1   
 11   5  30  1   
 12   6  31  1   
 13   7   8  1   
 14   7  32  1   
 15   7  33  1   
 16   8   9  1   
 17   8  34  1   
 18   8  35  1   
 19   9  10  2   
 20   9  11  am  
 21  11  12  1   
 22  11  13  1   
 23  12  14  1   
 24  12  36  1   
 25  12  37  1   
 26  13  15  1   
 27  13  38  1   
 28  13  39  1   
 29  14  16  1   
 30  14  40  1   
 31  14  41  1   
 32  15  17  1   
 33  15  42  1   
 34  15  43  1   
 35  16  17  1   
 36  16  18  1   
 37  17  44  1   
 38  17  45  1   
 39  18  19  1   
 40  18  46  1   
 41  18  47  1   
 42  19  20  ar  
 43  19  21  ar  
 44  20  22  1   
 45  20  48  1   
 46  21  23  1   
 47  21  24  1   
 48  22  23  2   
 49  22  25  1   
 50  23  26  1   
 51  24  49  1   
 52  24  50  1   
 53  24  51  1   
 54  25  52  1   
 55  25  53  1   
 56  25  54  1   
 57  26  55  1   
 58  26  56  1   
 59  26  57  1   
@<TRIPOS>SUBSTRUCTURE
  1 ****  14 GROUP 4 **** **** 0

# MOE 2024.06 (io_trps.svl 2023.06)
