@<TRIPOS>MOLECULE
NONAME
30 30 1 0 0 
SMALL
USER_CHARGES


@<TRIPOS>ATOM
  1 BR       0.0220    -0.6060     0.6450 Br    1 <1>  -0.1110 
  2 C        1.4720     0.6670     0.5770 C.ar  1 <1>   0.1110 
  3 C        2.7790     0.2380     0.7650 C.ar  1 <1>   0.0830 
  4 C        1.1630     1.9910     0.3390 C.ar  1 <1>  -0.1500 
  5 O        3.0660    -1.0590     0.9980 O.3   1 <1>  -0.5330 
  6 C        3.8000     1.1720     0.7080 C.ar  1 <1>  -0.1500 
  7 C        2.1870     2.9340     0.2840 C.ar  1 <1>   0.1170 
  8 C        3.5000     2.5040     0.4690 C.ar  1 <1>  -0.1500 
  9 N        1.9570     4.2960     0.0380 N.am  1 <1>  -0.5470 
 10 C        0.8410     5.0650     0.1500 C.2   1 <1>   0.7800 
 11 O       -0.2330     4.6500     0.5330 O.2   1 <1>  -0.5700 
 12 O        1.0200     6.3400    -0.1890 O.3   1 <1>  -0.4300 
 13 C        0.0540     7.3710    -0.1710 C.3   1 <1>   0.2800 
 14 C       -0.4460     7.6040     1.2590 C.3   1 <1>  -0.2400 
 15 C       -1.0850     7.0490    -1.1450 C.3   1 <1>  -0.2400 
 16 C        0.7930     8.6190    -0.6550 C.3   1 <1>  -0.2400 
 17 H        0.1370     2.2720     0.1950 H     1 <1>   0.1500 
 18 H        4.0170    -1.2260     1.1190 H     1 <1>   0.4500 
 19 H        4.8230     0.8710     0.8490 H     1 <1>   0.1500 
 20 H        4.2990     3.2210     0.4300 H     1 <1>   0.1500 
 21 H        2.7650     4.8450    -0.2400 H     1 <1>   0.3700 
 22 H       -1.0310     6.7720     1.6070 H     1 <1>   0.0800 
 23 H       -1.0740     8.4750     1.2900 H     1 <1>   0.0800 
 24 H        0.3820     7.7570     1.9270 H     1 <1>   0.0800 
 25 H       -1.6700     6.2170    -0.7980 H     1 <1>   0.0800 
 26 H       -0.6930     6.8230    -2.1200 H     1 <1>   0.0800 
 27 H       -1.7440     7.8940    -1.2300 H     1 <1>   0.0800 
 28 H        1.6120     8.8480     0.0030 H     1 <1>   0.0800 
 29 H        0.1280     9.4630    -0.6740 H     1 <1>   0.0800 
 30 H        1.1740     8.4670    -1.6490 H     1 <1>   0.0800 
@<TRIPOS>BOND
  1   1   2  1   
  2   2   3  ar  
  3   2   4  ar  
  4   3   5  1   
  5   3   6  ar  
  6   4   7  ar  
  7   4  17  1   
  8   5  18  1   
  9   6   8  ar  
 10   6  19  1   
 11   7   8  ar  
 12   7   9  1   
 13   8  20  1   
 14   9  10  am  
 15   9  21  1   
 16  10  11  2   
 17  10  12  1   
 18  12  13  1   
 19  13  14  1   
 20  13  15  1   
 21  13  16  1   
 22  14  22  1   
 23  14  23  1   
 24  14  24  1   
 25  15  25  1   
 26  15  26  1   
 27  15  27  1   
 28  16  28  1   
 29  16  29  1   
 30  16  30  1   
@<TRIPOS>SUBSTRUCTURE
  1 ****   9 GROUP 4 **** **** 0

# MOE 2024.06 (io_trps.svl 2023.06)
