@<TRIPOS>MOLECULE
NONAME
57 59 1 0 0 
SMALL
USER_CHARGES


@<TRIPOS>ATOM
  1 O       -1.9330     0.2540    -1.1410 O.3   1 <1>  -0.3630 
  2 C       -2.4090     1.1050    -0.1830 C.ar  1 <1>   0.0830 
  3 C       -0.6590    -0.3360    -0.9740 C.3   1 <1>   0.0400 
  4 C       -3.7050     0.9080     0.3180 C.ar  1 <1>   0.0830 
  5 C       -1.6530     2.1980     0.2680 C.ar  1 <1>   0.0820 
  6 O       -4.5280    -0.1240    -0.0500 O.3   1 <1>  -0.3630 
  7 C       -4.2390     1.8060     1.2380 C.ar  1 <1>  -0.1430 
  8 O       -0.4070     2.4080    -0.2480 O.3   1 <1>  -0.3630 
  9 C       -2.1960     3.0630     1.2140 C.ar  1 <1>  -0.1500 
 10 C       -4.0120    -1.4210    -0.2810 C.3   1 <1>   0.0400 
 11 C       -3.4780     2.8710     1.6900 C.ar  1 <1>  -0.1500 
 12 C       -5.6590     1.6310     1.7430 C.3   1 <1>   0.4860 
 13 C        0.3490     3.5650     0.0390 C.3   1 <1>   0.0400 
 14 N       -6.5700     1.6810     0.5770 N.4   1 <1>  -0.9590 
 15 C       -7.9320     1.1660     0.9000 C.3   1 <1>   0.3430 
 16 C       -6.6020     3.0150    -0.0820 C.3   1 <1>   0.3430 
 17 C       -8.7890     1.0240    -0.3750 C.3   1 <1>   0.0000 
 18 C       -7.4220     2.9300    -1.3710 C.3   1 <1>  -0.1600 
 19 C      -10.1940     0.5360     0.0120 C.3   1 <1>   0.2000 
 20 C       -8.8350     2.3740    -1.1220 C.3   1 <1>  -0.1600 
 21 C       -8.2700    -0.1230    -1.2580 C.3   1 <1>  -0.1600 
 22 O      -10.5710     1.0930     1.2340 O.3   1 <1>  -0.5600 
 23 C      -10.1000    -0.9920     0.1100 C.3   1 <1>  -0.1600 
 24 C       -8.8060    -1.3990    -0.6070 C.3   1 <1>  -0.1600 
 25 C      -11.9340     1.0060     1.5190 C.3   1 <1>   0.0400 
 26 H       -0.6570    -1.2810    -1.4850 H     1 <1>   0.0800 
 27 H       -0.4670    -0.4800     0.0740 H     1 <1>   0.0800 
 28 H        0.0830     0.3090    -1.4100 H     1 <1>   0.0800 
 29 H       -1.6360     3.8990     1.5900 H     1 <1>   0.1500 
 30 H       -4.8040    -2.1330    -0.1370 H     1 <1>   0.0800 
 31 H       -3.2130    -1.6140     0.4130 H     1 <1>   0.0800 
 32 H       -3.6560    -1.4790    -1.2940 H     1 <1>   0.0800 
 33 H       -3.8720     3.5650     2.4150 H     1 <1>   0.1500 
 34 H       -5.9110     2.4030     2.4510 H     1 <1>   0.0800 
 35 H       -5.7390     0.6720     2.2290 H     1 <1>   0.0800 
 36 H        1.2580     3.5190    -0.5340 H     1 <1>   0.0800 
 37 H        0.5840     3.5790     1.0890 H     1 <1>   0.0800 
 38 H       -0.2170     4.4340    -0.2450 H     1 <1>   0.0800 
 39 H       -6.1360     1.0240    -0.0930 H     1 <1>   0.4500 
 40 H       -7.8620     0.2060     1.3840 H     1 <1>   0.0800 
 41 H       -8.4220     1.8460     1.5780 H     1 <1>   0.0800 
 42 H       -7.0490     3.7370     0.5820 H     1 <1>   0.0800 
 43 H       -5.6000     3.3370    -0.3150 H     1 <1>   0.0800 
 44 H       -7.4990     3.9140    -1.8000 H     1 <1>   0.0800 
 45 H       -6.9000     2.3130    -2.0830 H     1 <1>   0.0800 
 46 H      -10.9030     0.8200    -0.7490 H     1 <1>   0.0800 
 47 H       -9.3530     2.2650    -2.0600 H     1 <1>   0.0800 
 48 H       -9.3890     3.0820    -0.5290 H     1 <1>   0.0800 
 49 H       -8.6960    -0.0400    -2.2440 H     1 <1>   0.0800 
 50 H       -7.1990    -0.1480    -1.3570 H     1 <1>   0.0800 
 51 H      -10.0680    -1.3150     1.1360 H     1 <1>   0.0800 
 52 H      -10.9500    -1.4390    -0.3750 H     1 <1>   0.0800 
 53 H       -8.0960    -1.7730     0.1110 H     1 <1>   0.0800 
 54 H       -8.9850    -2.1670    -1.3420 H     1 <1>   0.0800 
 55 H      -12.1080     1.4660     2.4760 H     1 <1>   0.0800 
 56 H      -12.2310    -0.0280     1.5580 H     1 <1>   0.0800 
 57 H      -12.4910     1.5300     0.7610 H     1 <1>   0.0800 
@<TRIPOS>BOND
  1   1   2  1   
  2   1   3  1   
  3   2   4  ar  
  4   2   5  ar  
  5   3  26  1   
  6   3  27  1   
  7   3  28  1   
  8   4   6  1   
  9   4   7  ar  
 10   5   8  1   
 11   5   9  ar  
 12   6  10  1   
 13   7  11  ar  
 14   7  12  1   
 15   8  13  1   
 16   9  11  ar  
 17   9  29  1   
 18  10  30  1   
 19  10  31  1   
 20  10  32  1   
 21  11  33  1   
 22  12  14  1   
 23  12  34  1   
 24  12  35  1   
 25  13  36  1   
 26  13  37  1   
 27  13  38  1   
 28  14  15  1   
 29  14  16  1   
 30  14  39  1   
 31  15  17  1   
 32  15  40  1   
 33  15  41  1   
 34  16  18  1   
 35  16  42  1   
 36  16  43  1   
 37  17  19  1   
 38  17  20  1   
 39  17  21  1   
 40  18  20  1   
 41  18  44  1   
 42  18  45  1   
 43  19  22  1   
 44  19  23  1   
 45  19  46  1   
 46  20  47  1   
 47  20  48  1   
 48  21  24  1   
 49  21  49  1   
 50  21  50  1   
 51  22  25  1   
 52  23  24  1   
 53  23  51  1   
 54  23  52  1   
 55  24  53  1   
 56  24  54  1   
 57  25  55  1   
 58  25  56  1   
 59  25  57  1   
@<TRIPOS>SUBSTRUCTURE
  1 ****  14 GROUP 4 **** **** 0

# MOE 2024.06 (io_trps.svl 2023.06)
