@<TRIPOS>MOLECULE
NONAME
49 50 1 0 0 
SMALL
USER_CHARGES


@<TRIPOS>ATOM
  1 O       -0.5350     0.2860     0.2170 O.2   1 <1>  -0.5700 
  2 C       -1.5940     0.8730     0.2500 C.2   1 <1>   0.5690 
  3 N       -2.7750     0.1980     0.4390 N.am  1 <1>  -0.6600 
  4 C       -1.5840     2.3980     0.0660 C.3   1 <1>   0.2010 
  5 C       -2.7980    -1.2770     0.7060 C.3   1 <1>   0.1400 
  6 C       -4.1480     0.7860     0.3480 C.3   1 <1>   0.1400 
  7 N       -0.2180     2.9940     0.1230 N.am  1 <1>  -0.7300 
  8 C       -3.7680    -2.0040    -0.2420 C.3   1 <1>   0.3440 
  9 C       -5.0400    -0.0420    -0.6070 C.3   1 <1>   0.2000 
 10 C        0.1450     4.2900     0.2210 C.2   1 <1>   0.5690 
 11 O       -5.0270    -1.3870    -0.2050 O.3   1 <1>  -0.5600 
 12 C       -3.9080    -3.4710     0.1540 C.ar  1 <1>  -0.1430 
 13 C       -6.5170     0.4470    -0.7070 C.3   1 <1>   0.0000 
 14 O        1.3050     4.5960     0.3000 O.2   1 <1>  -0.5700 
 15 C       -0.9040     5.3740     0.2310 C.3   1 <1>  -0.1790 
 16 C       -3.0810    -4.4220    -0.4280 C.ar  1 <1>  -0.1500 
 17 C       -4.8390    -3.8780     1.1000 C.ar  1 <1>  -0.1500 
 18 C       -6.5830     1.9070    -1.1930 C.3   1 <1>  -0.2400 
 19 C       -7.2740    -0.4160    -1.7330 C.3   1 <1>  -0.2400 
 20 C       -7.2550     0.3490     0.6410 C.3   1 <1>  -0.2400 
 21 C       -3.1820    -5.7550    -0.0710 C.ar  1 <1>  -0.1500 
 22 C       -4.9420    -5.2110     1.4590 C.ar  1 <1>  -0.1500 
 23 C       -4.1120    -6.1510     0.8740 C.ar  1 <1>  -0.1500 
 24 H       -2.1870     2.8400     0.8380 H     1 <1>   0.0800 
 25 H       -2.0200     2.6270    -0.8890 H     1 <1>   0.0800 
 26 H       -1.8170    -1.7040     0.5920 H     1 <1>   0.0800 
 27 H       -3.1090    -1.4480     1.7220 H     1 <1>   0.0800 
 28 H       -4.5850     0.7930     1.3310 H     1 <1>   0.0800 
 29 H       -4.1010     1.7980    -0.0030 H     1 <1>   0.0800 
 30 H        0.5350     2.2950     0.1370 H     1 <1>   0.3700 
 31 H       -3.4000    -1.9440    -1.2510 H     1 <1>   0.0800 
 32 H       -4.6120     0.0010    -1.5940 H     1 <1>   0.0800 
 33 H       -1.5150     5.3020    -0.6480 H     1 <1>   0.0800 
 34 H       -0.4240     6.3360     0.2410 H     1 <1>   0.0800 
 35 H       -1.5120     5.2820     1.1100 H     1 <1>   0.0800 
 36 H       -2.3520    -4.1310    -1.1640 H     1 <1>   0.1500 
 37 H       -5.4910    -3.1550     1.5590 H     1 <1>   0.1500 
 38 H       -7.6060     2.2000    -1.3580 H     1 <1>   0.0800 
 39 H       -6.0500     2.0220    -2.1200 H     1 <1>   0.0800 
 40 H       -6.1670     2.5820    -0.4670 H     1 <1>   0.0800 
 41 H       -8.2900    -0.0800    -1.8440 H     1 <1>   0.0800 
 42 H       -7.2990    -1.4450    -1.4170 H     1 <1>   0.0800 
 43 H       -6.7950    -0.3730    -2.6950 H     1 <1>   0.0800 
 44 H       -8.2870     0.6300     0.5270 H     1 <1>   0.0800 
 45 H       -6.8170     0.9960     1.3790 H     1 <1>   0.0800 
 46 H       -7.2250    -0.6600     1.0130 H     1 <1>   0.0800 
 47 H       -2.5370    -6.4850    -0.5280 H     1 <1>   0.1500 
 48 H       -5.6680    -5.5150     2.1920 H     1 <1>   0.1500 
 49 H       -4.1920    -7.1870     1.1520 H     1 <1>   0.1500 
@<TRIPOS>BOND
  1   1   2  2   
  2   2   3  am  
  3   2   4  1   
  4   3   5  1   
  5   3   6  1   
  6   4   7  1   
  7   4  24  1   
  8   4  25  1   
  9   5   8  1   
 10   5  26  1   
 11   5  27  1   
 12   6   9  1   
 13   6  28  1   
 14   6  29  1   
 15   7  10  am  
 16   7  30  1   
 17   8  11  1   
 18   8  12  1   
 19   8  31  1   
 20   9  11  1   
 21   9  13  1   
 22   9  32  1   
 23  10  14  2   
 24  10  15  1   
 25  12  16  ar  
 26  12  17  ar  
 27  13  18  1   
 28  13  19  1   
 29  13  20  1   
 30  15  33  1   
 31  15  34  1   
 32  15  35  1   
 33  16  21  ar  
 34  16  36  1   
 35  17  22  ar  
 36  17  37  1   
 37  18  38  1   
 38  18  39  1   
 39  18  40  1   
 40  19  41  1   
 41  19  42  1   
 42  19  43  1   
 43  20  44  1   
 44  20  45  1   
 45  20  46  1   
 46  21  23  ar  
 47  21  47  1   
 48  22  23  ar  
 49  22  48  1   
 50  23  49  1   
@<TRIPOS>SUBSTRUCTURE
  1 ****   3 GROUP 4 **** **** 0

# MOE 2024.06 (io_trps.svl 2023.06)
