@<TRIPOS>MOLECULE
NONAME
41 42 1 0 0 
SMALL
USER_CHARGES


@<TRIPOS>ATOM
  1 O        0.4410     0.2500     0.4140 O.2   1 <1>  -0.5700 
  2 C        0.9700     1.1990    -0.1300 C.2   1 <1>   0.7800 
  3 O        0.2650     2.2890    -0.4540 O.3   1 <1>  -0.4300 
  4 N        2.2950     1.2190    -0.4470 N.am  1 <1>  -0.6600 
  5 C       -1.1100     2.5130    -0.2340 C.3   1 <1>   0.2800 
  6 C        3.2440     0.1160    -0.1450 C.3   1 <1>   0.1400 
  7 C        2.9990     2.3620    -1.0660 C.3   1 <1>   0.1400 
  8 C       -1.4160     2.5040     1.2680 C.3   1 <1>  -0.2400 
  9 C       -1.3800     3.9100    -0.7950 C.3   1 <1>  -0.2400 
 10 C       -1.9450     1.4880    -1.0110 C.3   1 <1>  -0.2400 
 11 C        4.5500     0.5550    -0.8170 C.3   1 <1>  -0.0800 
 12 C        4.4810     2.0880    -0.8100 C.3   1 <1>  -0.0800 
 13 C        5.8460    -0.0270    -0.2110 C.3   1 <1>  -0.1860 
 14 C        4.9120     2.6950     0.5420 C.3   1 <1>  -0.1600 
 15 C        5.7790    -1.5490    -0.1430 C.2   1 <1>   0.9060 
 16 C        6.2150     0.6270     1.1360 C.3   1 <1>  -0.1600 
 17 C        6.2660     2.1540     1.0100 C.3   1 <1>  -0.1600 
 18 O        6.2250    -2.1940    -1.0970 O.co2 1 <1>  -0.9000 
 19 O        5.2660    -2.0940     0.8420 O.co2 1 <1>  -0.9000 
 20 H        3.3690     0.0290     0.9210 H     1 <1>   0.0800 
 21 H        2.8940    -0.8240    -0.5370 H     1 <1>   0.0800 
 22 H        2.7960     2.3610    -2.1230 H     1 <1>   0.0800 
 23 H        2.6780     3.2960    -0.6360 H     1 <1>   0.0800 
 24 H       -2.4320     2.8110     1.4370 H     1 <1>   0.0800 
 25 H       -0.7630     3.1810     1.7870 H     1 <1>   0.0800 
 26 H       -1.3030     1.5180     1.6810 H     1 <1>   0.0800 
 27 H       -2.4160     4.1690    -0.6700 H     1 <1>   0.0800 
 28 H       -1.1460     3.9420    -1.8430 H     1 <1>   0.0800 
 29 H       -0.7830     4.6400    -0.2790 H     1 <1>   0.0800 
 30 H       -2.9870     1.7460    -0.9580 H     1 <1>   0.0800 
 31 H       -1.8340     0.5030    -0.5960 H     1 <1>   0.0800 
 32 H       -1.6480     1.4700    -2.0440 H     1 <1>   0.0800 
 33 H        4.4960     0.2150    -1.8380 H     1 <1>   0.0800 
 34 H        5.0910     2.4970    -1.5960 H     1 <1>   0.0800 
 35 H        6.6420     0.1960    -0.8960 H     1 <1>   0.0800 
 36 H        4.9620     3.7660     0.4570 H     1 <1>   0.0800 
 37 H        4.1760     2.4620     1.2940 H     1 <1>   0.0800 
 38 H        5.4910     0.3450     1.8820 H     1 <1>   0.0800 
 39 H        7.1710     0.2520     1.4570 H     1 <1>   0.0800 
 40 H        6.5160     2.5810     1.9650 H     1 <1>   0.0800 
 41 H        7.0320     2.4310     0.3070 H     1 <1>   0.0800 
@<TRIPOS>BOND
  1   1   2  2   
  2   2   3  1   
  3   2   4  am  
  4   3   5  1   
  5   4   6  1   
  6   4   7  1   
  7   5   8  1   
  8   5   9  1   
  9   5  10  1   
 10   6  11  1   
 11   6  20  1   
 12   6  21  1   
 13   7  12  1   
 14   7  22  1   
 15   7  23  1   
 16   8  24  1   
 17   8  25  1   
 18   8  26  1   
 19   9  27  1   
 20   9  28  1   
 21   9  29  1   
 22  10  30  1   
 23  10  31  1   
 24  10  32  1   
 25  11  12  1   
 26  11  13  1   
 27  11  33  1   
 28  12  14  1   
 29  12  34  1   
 30  13  15  1   
 31  13  16  1   
 32  13  35  1   
 33  14  17  1   
 34  14  36  1   
 35  14  37  1   
 36  15  18  ar  
 37  15  19  ar  
 38  16  17  1   
 39  16  38  1   
 40  16  39  1   
 41  17  40  1   
 42  17  41  1   
@<TRIPOS>SUBSTRUCTURE
  1 ****   4 GROUP 4 **** **** 0

# MOE 2024.06 (io_trps.svl 2023.06)
