@<TRIPOS>MOLECULE
NONAME
37 38 1 0 0 
SMALL
USER_CHARGES


@<TRIPOS>ATOM
  1 O        0.3800    -0.4950    -1.1510 O.2   1 <1>  -0.5700 
  2 C       -0.0310    -1.5880    -0.8260 C.2   1 <1>   0.5440 
  3 N       -1.3760    -1.7500    -0.8700 N.am  1 <1>  -0.8000 
  4 C        0.8650    -2.6290    -0.3810 C.ar  1 <1>   0.0860 
  5 C        0.7000    -3.9770    -0.7490 C.ar  1 <1>   0.4100 
  6 C        1.9330    -2.3200     0.4480 C.ar  1 <1>  -0.1500 
  7 N        1.4720    -4.9610    -0.3000 N.ar  1 <1>  -0.6200 
  8 N       -0.2980    -4.3700    -1.6160 N.pl3 1 <1>  -0.8690 
  9 C        2.7490    -3.3340     0.8990 C.ar  1 <1>  -0.1430 
 10 C        2.4700    -4.6360     0.4970 C.ar  1 <1>   0.1670 
 11 C       -0.3850    -5.7210    -2.2820 C.3   1 <1>   0.2700 
 12 C        3.9160    -2.9950     1.8170 C.3   1 <1>  -0.0970 
 13 C        3.3230    -5.8000     0.9700 C.3   1 <1>  -0.0970 
 14 C       -1.0660    -6.8010    -1.4320 C.2   1 <1>   0.5690 
 15 O       -1.9400    -7.4780    -1.9240 O.2   1 <1>  -0.5700 
 16 N       -0.6490    -6.9580    -0.1490 N.am  1 <1>  -0.5790 
 17 C       -1.1490    -7.9160     0.8420 C.3   1 <1>   0.0490 
 18 C       -1.1700    -7.4890     2.2710 C.3   1 <1>  -0.2000 
 19 C       -0.1680    -8.5010     1.8020 C.3   1 <1>  -0.2000 
 20 H       -1.9590    -0.9410    -1.0880 H     1 <1>   0.3700 
 21 H       -1.8450    -2.5640    -0.4650 H     1 <1>   0.3700 
 22 H        2.1040    -1.2940     0.7280 H     1 <1>   0.1500 
 23 H       -0.7910    -3.6210    -2.1160 H     1 <1>   0.4000 
 24 H        0.6050    -6.0620    -2.5270 H     1 <1>   0.0800 
 25 H       -0.9320    -5.6230    -3.2020 H     1 <1>   0.0800 
 26 H        3.9080    -1.9520     2.0820 H     1 <1>   0.0800 
 27 H        4.8480    -3.2090     1.3240 H     1 <1>   0.0800 
 28 H        3.8580    -3.5700     2.7240 H     1 <1>   0.0800 
 29 H        3.0730    -6.6950     0.4290 H     1 <1>   0.0800 
 30 H        3.1520    -5.9740     2.0160 H     1 <1>   0.0800 
 31 H        4.3630    -5.5910     0.8080 H     1 <1>   0.0800 
 32 H        0.0910    -6.3110     0.1630 H     1 <1>   0.3700 
 33 H       -1.9490    -8.5370     0.4690 H     1 <1>   0.1000 
 34 H       -1.9790    -7.8240     2.8960 H     1 <1>   0.1000 
 35 H       -0.8370    -6.4970     2.5180 H     1 <1>   0.1000 
 36 H        0.8660    -8.2180     1.7180 H     1 <1>   0.1000 
 37 H       -0.2960    -9.5250     2.1060 H     1 <1>   0.1000 
@<TRIPOS>BOND
  1   1   2  2   
  2   2   3  am  
  3   2   4  1   
  4   3  20  1   
  5   3  21  1   
  6   4   5  ar  
  7   4   6  ar  
  8   5   7  ar  
  9   5   8  1   
 10   6   9  ar  
 11   6  22  1   
 12   7  10  ar  
 13   8  11  1   
 14   8  23  1   
 15   9  10  ar  
 16   9  12  1   
 17  10  13  1   
 18  11  14  1   
 19  11  24  1   
 20  11  25  1   
 21  12  26  1   
 22  12  27  1   
 23  12  28  1   
 24  13  29  1   
 25  13  30  1   
 26  13  31  1   
 27  14  15  2   
 28  14  16  am  
 29  16  17  1   
 30  16  32  1   
 31  17  18  1   
 32  17  19  1   
 33  17  33  1   
 34  18  19  1   
 35  18  34  1   
 36  18  35  1   
 37  19  36  1   
 38  19  37  1   
@<TRIPOS>SUBSTRUCTURE
  1 ****   5 GROUP 4 **** **** 0

# MOE 2024.06 (io_trps.svl 2023.06)
