@<TRIPOS>MOLECULE
NONAME
43 46 1 0 0 
SMALL
USER_CHARGES


@<TRIPOS>ATOM
  1 S        0.0030     0.5820    -2.0070 S.3   1 <1>  -0.0800 
  2 C       -1.0110     1.1660    -0.6960 C.2   1 <1>  -0.1400 
  3 C       -1.2040    -0.6190    -2.4480 C.2   1 <1>  -0.1100 
  4 C       -2.1620     0.4830    -0.6480 C.2   1 <1>  -0.1810 
  5 C       -0.5900     2.3000     0.2310 C.3   1 <1>   0.4600 
  6 C       -2.2780    -0.5420    -1.6390 C.2   1 <1>  -0.1500 
  7 C       -3.1930     0.8340     0.4000 C.3   1 <1>   0.0210 
  8 O       -1.5520     2.4200     1.2630 O.3   1 <1>  -0.5600 
  9 C        0.7420     1.9830     0.9170 C.3   1 <1>  -0.1600 
 10 C       -0.4960     3.6360    -0.5200 C.3   1 <1>  -0.1600 
 11 C       -2.9100     2.2550     0.9270 C.3   1 <1>   0.1200 
 12 C        1.1950     3.1280     1.8230 C.3   1 <1>   0.1400 
 13 C       -0.0370     4.7700     0.4000 C.3   1 <1>   0.1400 
 14 N        1.2580     4.3930     1.0350 N.am  1 <1>  -0.6600 
 15 C        2.4530     5.0430     0.8050 C.2   1 <1>   0.5440 
 16 O        3.4970     4.4690     1.0460 O.2   1 <1>  -0.5700 
 17 C        2.5070     6.3890     0.2790 C.ar  1 <1>   0.0860 
 18 C        1.7900     7.4210     0.8750 C.ar  1 <1>   0.1600 
 19 C        3.2770     6.7180    -0.8240 C.ar  1 <1>  -0.1500 
 20 N        1.7600     8.6790     0.4650 N.ar  1 <1>  -0.6200 
 21 C        3.2680     8.0250    -1.2630 C.ar  1 <1>  -0.1500 
 22 C        2.5030     8.9880    -0.6070 C.ar  1 <1>   0.1670 
 23 C        2.5060    10.4590    -1.1220 C.3   1 <1>   1.1630 
 24 F        2.9130    11.3310    -0.2050 F     1 <1>  -0.3400 
 25 F        3.3060    10.6450    -2.1710 F     1 <1>  -0.3400 
 26 F        1.3020    10.8660    -1.5170 F     1 <1>  -0.3400 
 27 H       -0.9760    -1.2650    -3.2770 H     1 <1>   0.1500 
 28 H       -3.1530    -1.1660    -1.6980 H     1 <1>   0.1500 
 29 H       -3.1460     0.1270     1.2090 H     1 <1>   0.0800 
 30 H       -4.1800     0.8020    -0.0250 H     1 <1>   0.0800 
 31 H        1.5040     1.8150     0.1780 H     1 <1>   0.0800 
 32 H        0.6400     1.0800     1.4890 H     1 <1>   0.0800 
 33 H       -1.4430     3.8780    -0.9640 H     1 <1>   0.0800 
 34 H        0.2140     3.5380    -1.3210 H     1 <1>   0.0800 
 35 H       -3.4910     2.4440     1.8130 H     1 <1>   0.0800 
 36 H       -3.1690     2.9870     0.1840 H     1 <1>   0.0800 
 37 H        2.1550     2.8940     2.2510 H     1 <1>   0.0800 
 38 H        0.4960     3.2530     2.6330 H     1 <1>   0.0800 
 39 H       -0.7710     4.9380     1.1700 H     1 <1>   0.0800 
 40 H        0.0600     5.6710    -0.1780 H     1 <1>   0.0800 
 41 H        1.2050     7.1810     1.7470 H     1 <1>   0.1500 
 42 H        3.8660     5.9610    -1.3140 H     1 <1>   0.1500 
 43 H        3.8660     8.2820    -2.1210 H     1 <1>   0.1500 
@<TRIPOS>BOND
  1   1   2  1   
  2   1   3  1   
  3   2   4  2   
  4   2   5  1   
  5   3   6  2   
  6   3  27  1   
  7   4   6  1   
  8   4   7  1   
  9   5   8  1   
 10   5   9  1   
 11   5  10  1   
 12   6  28  1   
 13   7  11  1   
 14   7  29  1   
 15   7  30  1   
 16   8  11  1   
 17   9  12  1   
 18   9  31  1   
 19   9  32  1   
 20  10  13  1   
 21  10  33  1   
 22  10  34  1   
 23  11  35  1   
 24  11  36  1   
 25  12  14  1   
 26  12  37  1   
 27  12  38  1   
 28  13  14  1   
 29  13  39  1   
 30  13  40  1   
 31  14  15  am  
 32  15  16  2   
 33  15  17  1   
 34  17  18  ar  
 35  17  19  ar  
 36  18  20  ar  
 37  18  41  1   
 38  19  21  ar  
 39  19  42  1   
 40  20  22  ar  
 41  21  22  ar  
 42  21  43  1   
 43  22  23  1   
 44  23  24  1   
 45  23  25  1   
 46  23  26  1   
@<TRIPOS>SUBSTRUCTURE
  1 ****  13 GROUP 4 **** **** 0

# MOE 2024.06 (io_trps.svl 2023.06)
