@<TRIPOS>MOLECULE
NONAME
54 57 1 0 0 
SMALL
USER_CHARGES


@<TRIPOS>ATOM
  1 O        1.1540     0.0880     0.4670 O.3   1 <1>  -0.6800 
  2 C        1.6330    -0.0360    -0.8340 C.3   1 <1>   0.2000 
  3 C        2.4320    -1.3350    -0.9960 C.3   1 <1>  -0.0800 
  4 C        2.6650     1.0690    -1.0920 C.3   1 <1>   0.2090 
  5 C        3.8270    -0.9710    -0.4800 C.3   1 <1>   0.2090 
  6 C        1.8250    -2.5770    -0.3090 C.3   1 <1>  -0.0170 
  7 N        3.9980     0.4780    -0.7740 N.pl3 1 <1>  -0.8380 
  8 C        2.5240    -3.9180    -0.5740 C.ar  1 <1>  -0.1440 
  9 C        5.1610     1.1410    -0.6280 C.ar  1 <1>   0.4100 
 10 C        2.1880    -5.0530     0.2070 C.ar  1 <1>   0.0000 
 11 C        3.4660    -4.0980    -1.5490 C.ar  1 <1>  -0.1500 
 12 N        6.2370     0.4260    -0.2710 N.ar  1 <1>  -0.6200 
 13 C        5.2720     2.5230    -0.8310 C.ar  1 <1>  -0.1500 
 14 C        2.8660    -6.2690    -0.0580 C.ar  1 <1>   0.3100 
 15 C        1.2130    -5.0590     1.2330 C.ar  1 <1>  -0.1500 
 16 C        4.0720    -5.3460    -1.7320 C.ar  1 <1>   0.1600 
 17 C        7.3660     1.0420    -0.1060 C.ar  1 <1>   0.5280 
 18 C        6.4750     3.1390    -0.6510 C.ar  1 <1>   0.2180 
 19 N        3.8050    -6.3980    -1.0280 N.ar  1 <1>  -0.6200 
 20 C        2.5580    -7.4060     0.7060 C.ar  1 <1>  -0.1500 
 21 C        0.9340    -6.1850     1.9590 C.ar  1 <1>  -0.1500 
 22 N        7.5200     2.3700    -0.2830 N.ar  1 <1>  -0.1790 
 23 C        8.5730     0.2260     0.3070 C.3   1 <1>  -0.0970 
 24 C        6.6770     4.6360    -0.8460 C.3   1 <1>  -0.0170 
 25 C        1.6150    -7.3750     1.6960 C.ar  1 <1>  -0.1500 
 26 C        6.9720     5.3510     0.4820 C.3   1 <1>  -0.1600 
 27 C        7.1520     6.8570     0.2710 C.3   1 <1>  -0.2400 
 28 H        0.4460    -0.5600     0.6420 H     1 <1>   0.4000 
 29 H        0.7970     0.0320    -1.5090 H     1 <1>   0.0800 
 30 H        2.5070    -1.5180    -2.0520 H     1 <1>   0.0800 
 31 H        2.4580     1.9330    -0.4830 H     1 <1>   0.0800 
 32 H        2.6470     1.3420    -2.1320 H     1 <1>   0.0800 
 33 H        4.5960    -1.5540    -0.9570 H     1 <1>   0.0800 
 34 H        3.8820    -1.1160     0.5860 H     1 <1>   0.0800 
 35 H        0.7990    -2.6750    -0.6170 H     1 <1>   0.0800 
 36 H        1.8370    -2.4010     0.7520 H     1 <1>   0.0800 
 37 H        3.7800    -3.3160    -2.2110 H     1 <1>   0.1500 
 38 H        4.4030     3.0790    -1.1230 H     1 <1>   0.1500 
 39 H        0.6680    -4.1610     1.4560 H     1 <1>   0.1500 
 40 H        4.8110    -5.4370    -2.5100 H     1 <1>   0.1500 
 41 H        3.0940    -8.3100     0.4830 H     1 <1>   0.1500 
 42 H        0.1900    -6.1710     2.7380 H     1 <1>   0.1500 
 43 H        8.4370     2.7880    -0.1320 H     1 <1>   0.4570 
 44 H        8.2940    -0.8070     0.4290 H     1 <1>   0.0800 
 45 H        8.9640     0.5800     1.2440 H     1 <1>   0.0800 
 46 H        9.3380     0.2800    -0.4460 H     1 <1>   0.0800 
 47 H        7.4810     4.8050    -1.5410 H     1 <1>   0.0800 
 48 H        5.7870     5.0620    -1.2790 H     1 <1>   0.0800 
 49 H        1.3890    -8.2550     2.2740 H     1 <1>   0.1500 
 50 H        6.1550     5.1920     1.1670 H     1 <1>   0.0800 
 51 H        7.8660     4.9580     0.9350 H     1 <1>   0.0800 
 52 H        6.2600     7.2940    -0.1450 H     1 <1>   0.0800 
 53 H        7.9760     7.0580    -0.3920 H     1 <1>   0.0800 
 54 H        7.3520     7.3400     1.2130 H     1 <1>   0.0800 
@<TRIPOS>BOND
  1   1   2  1   
  2   1  28  1   
  3   2   3  1   
  4   2   4  1   
  5   2  29  1   
  6   3   5  1   
  7   3   6  1   
  8   3  30  1   
  9   4   7  1   
 10   4  31  1   
 11   4  32  1   
 12   5   7  1   
 13   5  33  1   
 14   5  34  1   
 15   6   8  1   
 16   6  35  1   
 17   6  36  1   
 18   7   9  1   
 19   8  10  ar  
 20   8  11  ar  
 21   9  12  ar  
 22   9  13  ar  
 23  10  14  ar  
 24  10  15  ar  
 25  11  16  ar  
 26  11  37  1   
 27  12  17  ar  
 28  13  18  ar  
 29  13  38  1   
 30  14  19  ar  
 31  14  20  ar  
 32  15  21  ar  
 33  15  39  1   
 34  16  19  ar  
 35  16  40  1   
 36  17  22  ar  
 37  17  23  1   
 38  18  22  ar  
 39  18  24  1   
 40  20  25  ar  
 41  20  41  1   
 42  21  25  ar  
 43  21  42  1   
 44  22  43  1   
 45  23  44  1   
 46  23  45  1   
 47  23  46  1   
 48  24  26  1   
 49  24  47  1   
 50  24  48  1   
 51  25  49  1   
 52  26  27  1   
 53  26  50  1   
 54  26  51  1   
 55  27  52  1   
 56  27  53  1   
 57  27  54  1   
@<TRIPOS>SUBSTRUCTURE
  1 ****   5 GROUP 4 **** **** 0

# MOE 2024.06 (io_trps.svl 2023.06)
