@<TRIPOS>MOLECULE
NONAME
50 52 1 0 0 
SMALL
USER_CHARGES


@<TRIPOS>ATOM
  1 O       -1.8040     0.3400     2.2310 O.2   1 <1>  -0.5700 
  2 C       -1.9830     0.7860     1.1140 C.2   1 <1>   0.5440 
  3 N       -2.4260    -0.0450     0.1100 N.am  1 <1>  -0.6600 
  4 C       -1.7350     2.1910     0.8520 C.ar  1 <1>   0.0860 
  5 C       -2.4960    -1.5280     0.3400 C.3   1 <1>   0.3640 
  6 C       -2.9660     0.5150    -1.1670 C.3   1 <1>   0.1400 
  7 C       -0.5290     2.6430     0.3100 C.ar  1 <1>  -0.1440 
  8 C       -2.7260     3.1310     1.1220 C.ar  1 <1>  -0.1500 
  9 C       -1.1140    -2.1520     0.1170 C.ar  1 <1>  -0.1440 
 10 C       -3.5610    -2.2810    -0.5170 C.3   1 <1>   0.2000 
 11 C       -3.5800    -0.5450    -2.0890 C.3   1 <1>   0.1200 
 12 C       -0.3540     3.9890     0.0370 C.ar  1 <1>  -0.1500 
 13 C        0.6020     1.6630     0.0240 C.3   1 <1>  -0.0960 
 14 C       -2.5530     4.4770     0.8510 C.ar  1 <1>  -0.1440 
 15 C       -0.3540    -1.8840    -1.0150 C.ar  1 <1>  -0.1500 
 16 C       -0.6050    -3.0210     1.0710 C.ar  1 <1>  -0.1500 
 17 O       -4.3330    -1.4420    -1.3380 O.3   1 <1>  -0.5600 
 18 C       -4.5420    -3.0780     0.3530 C.3   1 <1>   0.1200 
 19 C       -1.3550     4.9110     0.2990 C.ar  1 <1>  -0.1430 
 20 C       -3.6810     5.4480     1.1700 C.3   1 <1>  -0.0970 
 21 C        0.8840    -2.4770    -1.1910 C.ar  1 <1>  -0.1500 
 22 C        0.6320    -3.6160     0.8980 C.ar  1 <1>  -0.1500 
 23 O       -3.8720    -4.0580     1.0830 O.3   1 <1>  -0.6800 
 24 C       -1.1110     6.3800    -0.0190 C.3   1 <1>  -0.0970 
 25 C        1.3780    -3.3460    -0.2350 C.ar  1 <1>  -0.1500 
 26 H       -2.7540    -1.6840     1.3730 H     1 <1>   0.0800 
 27 H       -3.7290     1.2350    -0.9290 H     1 <1>   0.0800 
 28 H       -2.1820     1.0320    -1.6920 H     1 <1>   0.0800 
 29 H       -3.6450     2.7810     1.5560 H     1 <1>   0.1500 
 30 H       -3.0610    -2.9720    -1.1720 H     1 <1>   0.0800 
 31 H       -2.8220    -1.0870    -2.6260 H     1 <1>   0.0800 
 32 H       -4.2360    -0.0770    -2.8020 H     1 <1>   0.0800 
 33 H        0.5780     4.3250    -0.3820 H     1 <1>   0.1500 
 34 H        1.5110     2.1810    -0.2230 H     1 <1>   0.0800 
 35 H        0.3370     1.0230    -0.7980 H     1 <1>   0.0800 
 36 H        0.7890     1.0500     0.8880 H     1 <1>   0.0800 
 37 H       -0.7170    -1.2070    -1.7640 H     1 <1>   0.1500 
 38 H       -1.1740    -3.2370     1.9610 H     1 <1>   0.1500 
 39 H       -5.2790    -3.5650    -0.2610 H     1 <1>   0.0800 
 40 H       -5.0320    -2.4230     1.0520 H     1 <1>   0.0800 
 41 H       -4.5260     4.9340     1.5910 H     1 <1>   0.0800 
 42 H       -4.0020     5.9490     0.2750 H     1 <1>   0.0800 
 43 H       -3.3450     6.1800     1.8820 H     1 <1>   0.0800 
 44 H        1.4640    -2.2620    -2.0710 H     1 <1>   0.1500 
 45 H        1.0140    -4.2870     1.6480 H     1 <1>   0.1500 
 46 H       -3.4940    -4.7390     0.4920 H     1 <1>   0.4000 
 47 H       -0.1340     6.5270    -0.4430 H     1 <1>   0.0800 
 48 H       -1.1790     6.9670     0.8790 H     1 <1>   0.0800 
 49 H       -1.8410     6.7310    -0.7260 H     1 <1>   0.0800 
 50 H        2.3400    -3.8080    -0.3690 H     1 <1>   0.1500 
@<TRIPOS>BOND
  1   1   2  2   
  2   2   3  am  
  3   2   4  1   
  4   3   5  1   
  5   3   6  1   
  6   4   7  ar  
  7   4   8  ar  
  8   5   9  1   
  9   5  10  1   
 10   5  26  1   
 11   6  11  1   
 12   6  27  1   
 13   6  28  1   
 14   7  12  ar  
 15   7  13  1   
 16   8  14  ar  
 17   8  29  1   
 18   9  15  ar  
 19   9  16  ar  
 20  10  17  1   
 21  10  18  1   
 22  10  30  1   
 23  11  17  1   
 24  11  31  1   
 25  11  32  1   
 26  12  19  ar  
 27  12  33  1   
 28  13  34  1   
 29  13  35  1   
 30  13  36  1   
 31  14  19  ar  
 32  14  20  1   
 33  15  21  ar  
 34  15  37  1   
 35  16  22  ar  
 36  16  38  1   
 37  18  23  1   
 38  18  39  1   
 39  18  40  1   
 40  19  24  1   
 41  20  41  1   
 42  20  42  1   
 43  20  43  1   
 44  21  25  ar  
 45  21  44  1   
 46  22  25  ar  
 47  22  45  1   
 48  23  46  1   
 49  24  47  1   
 50  24  48  1   
 51  24  49  1   
 52  25  50  1   
@<TRIPOS>SUBSTRUCTURE
  1 ****   3 GROUP 4 **** **** 0

# MOE 2024.06 (io_trps.svl 2023.06)
