@<TRIPOS>MOLECULE
NONAME
59 62 1 0 0 
SMALL
USER_CHARGES


@<TRIPOS>ATOM
  1 O       -0.2460     0.3040    -0.4100 O.2   1 <1>  -0.5700 
  2 C        0.9210     0.6520    -0.5000 C.2   1 <1>   0.5440 
  3 N        1.2200     1.9870    -0.3430 N.am  1 <1>  -0.6600 
  4 C        1.9470    -0.3300    -0.7570 C.ar  1 <1>   0.0860 
  5 C        2.5590     2.5130     0.0080 C.3   1 <1>   0.1400 
  6 C        0.1740     3.0080    -0.1040 C.3   1 <1>   0.1400 
  7 C        2.0200    -1.5090     0.0090 C.ar  1 <1>   0.4100 
  8 C        2.8770    -0.1600    -1.7730 C.ar  1 <1>  -0.1500 
  9 C        2.2800     3.8060     0.7640 C.3   1 <1>  -0.1600 
 10 C        0.9380     4.2870     0.2190 C.3   1 <1>  -0.1600 
 11 N        2.9160    -2.4730    -0.1930 N.ar  1 <1>  -0.6200 
 12 N        1.1220    -1.7230     1.0320 N.pl3 1 <1>  -0.8690 
 13 C        3.8160    -1.1470    -1.9680 C.ar  1 <1>  -0.1500 
 14 C        3.7910    -2.2680    -1.1590 C.ar  1 <1>   0.1600 
 15 C        0.7240    -3.0500     1.5400 C.3   1 <1>   0.2090 
 16 C       -0.6640    -3.4010     0.9880 C.3   1 <1>  -0.0800 
 17 C       -1.0530    -4.8390     1.3260 C.3   1 <1>   0.3430 
 18 C       -0.7670    -3.3050    -0.5410 C.3   1 <1>  -0.1600 
 19 N       -1.1730    -5.5540     0.0220 N.4   1 <1>  -0.9590 
 20 C       -1.5760    -4.5140    -0.9580 C.3   1 <1>   0.3430 
 21 C       -2.0560    -6.7550     0.0510 C.3   1 <1>   0.4230 
 22 C       -1.5370    -7.7570     1.0980 C.3   1 <1>  -0.1600 
 23 C       -2.1010    -7.4090    -1.3410 C.3   1 <1>  -0.1600 
 24 C       -2.3620    -9.0530     1.1030 C.3   1 <1>  -0.1600 
 25 C       -2.9250    -8.7040    -1.3360 C.3   1 <1>  -0.1600 
 26 C       -2.4010    -9.6920    -0.2890 C.3   1 <1>  -0.1600 
 27 H        3.1050     2.7220    -0.8950 H     1 <1>   0.0800 
 28 H        3.1090     1.8140     0.6160 H     1 <1>   0.0800 
 29 H       -0.4290     2.7050     0.7350 H     1 <1>   0.0800 
 30 H       -0.4500     3.1230    -0.9740 H     1 <1>   0.0800 
 31 H        2.8560     0.7210    -2.3920 H     1 <1>   0.1500 
 32 H        3.0640     4.5300     0.6240 H     1 <1>   0.0800 
 33 H        2.1900     3.5850     1.8130 H     1 <1>   0.0800 
 34 H        0.4050     4.9020     0.9220 H     1 <1>   0.0800 
 35 H        1.0880     4.8430    -0.6900 H     1 <1>   0.0800 
 36 H        0.3690    -1.0190     1.0650 H     1 <1>   0.4000 
 37 H        4.5600    -1.0550    -2.7400 H     1 <1>   0.1500 
 38 H        4.5300    -3.0350    -1.3190 H     1 <1>   0.1500 
 39 H        0.7040    -3.0170     2.6160 H     1 <1>   0.0800 
 40 H        1.4440    -3.7960     1.2460 H     1 <1>   0.0800 
 41 H       -1.3850    -2.7440     1.4440 H     1 <1>   0.0800 
 42 H       -2.0050    -4.8390     1.8330 H     1 <1>   0.0800 
 43 H       -0.3170    -5.3090     1.9580 H     1 <1>   0.0800 
 44 H        0.2050    -3.3720    -1.0000 H     1 <1>   0.0800 
 45 H       -1.2290    -2.3850    -0.8590 H     1 <1>   0.0800 
 46 H       -0.2320    -5.8650    -0.2480 H     1 <1>   0.4500 
 47 H       -1.3570    -4.8080    -1.9720 H     1 <1>   0.0800 
 48 H       -2.6290    -4.3010    -0.8600 H     1 <1>   0.0800 
 49 H       -3.0570    -6.4600     0.3240 H     1 <1>   0.0800 
 50 H       -1.5890    -7.3350     2.0840 H     1 <1>   0.0800 
 51 H       -0.5120    -8.0070     0.8840 H     1 <1>   0.0800 
 52 H       -1.1010    -7.6410    -1.6650 H     1 <1>   0.0800 
 53 H       -2.5470    -6.7420    -2.0570 H     1 <1>   0.0800 
 54 H       -3.3680    -8.8420     1.4260 H     1 <1>   0.0800 
 55 H       -1.9360    -9.7510     1.8040 H     1 <1>   0.0800 
 56 H       -2.8850    -9.1630    -2.3100 H     1 <1>   0.0800 
 57 H       -3.9580    -8.4770    -1.1260 H     1 <1>   0.0800 
 58 H       -3.0350   -10.5630    -0.2670 H     1 <1>   0.0800 
 59 H       -1.4120   -10.0180    -0.5640 H     1 <1>   0.0800 
@<TRIPOS>BOND
  1   1   2  2   
  2   2   3  am  
  3   2   4  1   
  4   3   5  1   
  5   3   6  1   
  6   4   7  ar  
  7   4   8  ar  
  8   5   9  1   
  9   5  27  1   
 10   5  28  1   
 11   6  10  1   
 12   6  29  1   
 13   6  30  1   
 14   7  11  ar  
 15   7  12  1   
 16   8  13  ar  
 17   8  31  1   
 18   9  10  1   
 19   9  32  1   
 20   9  33  1   
 21  10  34  1   
 22  10  35  1   
 23  11  14  ar  
 24  12  15  1   
 25  12  36  1   
 26  13  14  ar  
 27  13  37  1   
 28  14  38  1   
 29  15  16  1   
 30  15  39  1   
 31  15  40  1   
 32  16  17  1   
 33  16  18  1   
 34  16  41  1   
 35  17  19  1   
 36  17  42  1   
 37  17  43  1   
 38  18  20  1   
 39  18  44  1   
 40  18  45  1   
 41  19  20  1   
 42  19  21  1   
 43  19  46  1   
 44  20  47  1   
 45  20  48  1   
 46  21  22  1   
 47  21  23  1   
 48  21  49  1   
 49  22  24  1   
 50  22  50  1   
 51  22  51  1   
 52  23  25  1   
 53  23  52  1   
 54  23  53  1   
 55  24  26  1   
 56  24  54  1   
 57  24  55  1   
 58  25  26  1   
 59  25  56  1   
 60  25  57  1   
 61  26  58  1   
 62  26  59  1   
@<TRIPOS>SUBSTRUCTURE
  1 ****  18 GROUP 4 **** **** 0

# MOE 2024.06 (io_trps.svl 2023.06)
