@<TRIPOS>MOLECULE
NONAME
56 59 1 0 0 
SMALL
USER_CHARGES


@<TRIPOS>ATOM
  1 CL      -0.9050     0.4400     0.6280 Cl    1 <1>  -0.1770 
  2 C       -0.5770     2.0970     0.1990 C.ar  1 <1>   0.1770 
  3 C       -1.3570     3.1040     0.7260 C.ar  1 <1>  -0.1500 
  4 C        0.4600     2.3790    -0.6700 C.ar  1 <1>  -0.1500 
  5 C       -1.1080     4.4250     0.3860 C.ar  1 <1>   0.0830 
  6 C        0.7220     3.6960    -0.9980 C.ar  1 <1>  -0.1500 
  7 O       -1.9570     5.3320     0.9310 O.3   1 <1>  -0.3630 
  8 C       -0.0370     4.7440    -0.4710 C.ar  1 <1>   0.0860 
  9 C       -2.3830     6.4800     0.2250 C.3   1 <1>   0.1200 
 10 C        0.3200     6.0990    -0.8020 C.2   1 <1>   0.5440 
 11 C       -3.7680     6.8770     0.7270 C.3   1 <1>  -0.1600 
 12 O        0.0430     6.5640    -1.8900 O.2   1 <1>  -0.5700 
 13 N        0.9250     6.8890     0.1290 N.am  1 <1>  -0.7300 
 14 C       -4.3290     8.0730    -0.0580 C.3   1 <1>   0.0960 
 15 C        0.9460     8.3640     0.0770 C.3   1 <1>   0.2200 
 16 N       -3.5460     9.3140     0.1420 N.pl3 1 <1>   0.3140 
 17 C        2.2030     8.9250    -0.6290 C.3   1 <1>  -0.0800 
 18 C        0.8110     8.9120     1.4990 C.3   1 <1>  -0.1600 
 19 N       -3.5120     9.9620     1.3110 N.2   1 <1>  -0.4180 
 20 C       -2.9370    10.0530    -0.7880 C.2   1 <1>  -0.3020 
 21 C        2.4600    10.3890    -0.2150 C.3   1 <1>   0.1400 
 22 C        3.4860     8.0990    -0.4060 C.3   1 <1>  -0.2400 
 23 C        0.6030    10.4330     1.4740 C.3   1 <1>   0.1400 
 24 N       -2.9180    11.0900     1.1360 N.2   1 <1>  -0.2270 
 25 C       -2.5610    11.1720    -0.1510 C.2   1 <1>   0.0460 
 26 N        1.2010    11.0450     0.2490 N.am  1 <1>  -0.6600 
 27 C       -1.8950    12.4140    -0.7200 C.3   1 <1>   0.0210 
 28 C        0.6070    12.0270    -0.5030 C.2   1 <1>   0.5690 
 29 C       -0.5930    12.8150    -0.0080 C.3   1 <1>  -0.0990 
 30 O        1.0310    12.3340    -1.5930 O.2   1 <1>  -0.5700 
 31 H       -2.1630     2.8640     1.3950 H     1 <1>   0.1500 
 32 H        1.0500     1.5760    -1.0760 H     1 <1>   0.1500 
 33 H        1.5280     3.9300    -1.6730 H     1 <1>   0.1500 
 34 H       -1.6820     7.2740     0.4090 H     1 <1>   0.0800 
 35 H       -2.4150     6.2490    -0.8270 H     1 <1>   0.0800 
 36 H       -4.4330     6.0420     0.6010 H     1 <1>   0.0800 
 37 H       -3.7220     7.1230     1.7740 H     1 <1>   0.0800 
 38 H        1.1880     6.4840     1.0270 H     1 <1>   0.3700 
 39 H       -5.3350     8.2700     0.2670 H     1 <1>   0.0800 
 40 H       -4.3530     7.8480    -1.1080 H     1 <1>   0.0800 
 41 H        0.0840     8.6940    -0.4830 H     1 <1>   0.0800 
 42 H        1.9930     8.9250    -1.6850 H     1 <1>   0.0800 
 43 H       -0.0300     8.4620     1.9970 H     1 <1>   0.0800 
 44 H        1.6980     8.6880     2.0630 H     1 <1>   0.0800 
 45 H       -2.8310     9.7640    -1.8170 H     1 <1>   0.1500 
 46 H        2.8960    10.9270    -1.0400 H     1 <1>   0.0800 
 47 H        3.1660    10.4210     0.5970 H     1 <1>   0.0800 
 48 H        3.7040     8.0040     0.6430 H     1 <1>   0.0800 
 49 H        4.3210     8.5720    -0.8920 H     1 <1>   0.0800 
 50 H        3.3760     7.1150    -0.8270 H     1 <1>   0.0800 
 51 H        1.0370    10.8810     2.3510 H     1 <1>   0.0800 
 52 H       -0.4530    10.6200     1.4940 H     1 <1>   0.0800 
 53 H       -1.7070    12.2750    -1.7700 H     1 <1>   0.0800 
 54 H       -2.5960    13.2230    -0.6240 H     1 <1>   0.0800 
 55 H       -0.7010    12.7510     1.0570 H     1 <1>   0.0800 
 56 H       -0.3970    13.8460    -0.2350 H     1 <1>   0.0800 
@<TRIPOS>BOND
  1   1   2  1   
  2   2   3  ar  
  3   2   4  ar  
  4   3   5  ar  
  5   3  31  1   
  6   4   6  ar  
  7   4  32  1   
  8   5   7  1   
  9   5   8  ar  
 10   6   8  ar  
 11   6  33  1   
 12   7   9  1   
 13   8  10  1   
 14   9  11  1   
 15   9  34  1   
 16   9  35  1   
 17  10  12  2   
 18  10  13  am  
 19  11  14  1   
 20  11  36  1   
 21  11  37  1   
 22  13  15  1   
 23  13  38  1   
 24  14  16  1   
 25  14  39  1   
 26  14  40  1   
 27  15  17  1   
 28  15  18  1   
 29  15  41  1   
 30  16  19  1   
 31  16  20  1   
 32  17  21  1   
 33  17  22  1   
 34  17  42  1   
 35  18  23  1   
 36  18  43  1   
 37  18  44  1   
 38  19  24  2   
 39  20  25  2   
 40  20  45  1   
 41  21  26  1   
 42  21  46  1   
 43  21  47  1   
 44  22  48  1   
 45  22  49  1   
 46  22  50  1   
 47  23  26  1   
 48  23  51  1   
 49  23  52  1   
 50  24  25  1   
 51  25  27  1   
 52  26  28  am  
 53  27  29  1   
 54  27  53  1   
 55  27  54  1   
 56  28  29  1   
 57  28  30  2   
 58  29  55  1   
 59  29  56  1   
@<TRIPOS>SUBSTRUCTURE
  1 ****  15 GROUP 4 **** **** 0

# MOE 2024.06 (io_trps.svl 2023.06)
