@<TRIPOS>MOLECULE
NONAME
50 52 1 0 0 
SMALL
USER_CHARGES


@<TRIPOS>ATOM
  1 CL      -0.3770    -0.5230     1.3460 Cl    1 <1>  -0.1770 
  2 C       -1.5480    -1.5100     0.5160 C.ar  1 <1>   0.1770 
  3 C       -1.1190    -2.5780    -0.2490 C.ar  1 <1>  -0.1500 
  4 C       -2.8930    -1.2120     0.6320 C.ar  1 <1>  -0.1500 
  5 C       -2.0550    -3.3600    -0.9040 C.ar  1 <1>  -0.1500 
  6 C       -3.8200    -2.0010    -0.0270 C.ar  1 <1>  -0.1500 
  7 C       -3.4220    -3.0950    -0.8010 C.ar  1 <1>   0.0860 
  8 C       -4.3900    -3.9280    -1.4890 C.2   1 <1>   0.5440 
  9 O       -4.2800    -4.0810    -2.6910 O.2   1 <1>  -0.5700 
 10 N       -5.4270    -4.5520    -0.8210 N.am  1 <1>  -0.6600 
 11 C       -6.5310    -5.2290    -1.5590 C.3   1 <1>   0.1400 
 12 C       -5.4540    -4.7580     0.6540 C.3   1 <1>   0.1400 
 13 C       -6.5010    -6.7310    -1.2650 C.3   1 <1>  -0.1600 
 14 C       -5.4320    -6.2570     0.9670 C.3   1 <1>  -0.1600 
 15 C       -6.5670    -7.0110     0.2490 C.3   1 <1>  -0.0190 
 16 C       -6.5010    -8.5170     0.5410 C.2   1 <1>   0.5690 
 17 O       -5.5250    -9.1180     0.1490 O.2   1 <1>  -0.5700 
 18 N       -7.5080    -9.1880     1.1920 N.am  1 <1>  -0.6600 
 19 C       -7.3730   -10.6570     1.4290 C.3   1 <1>   0.3200 
 20 C       -8.8610    -8.6400     1.5130 C.3   1 <1>   0.1400 
 21 C       -7.7910   -11.4180     0.1840 C.2   1 <1>   0.0060 
 22 C       -9.7500    -8.6230     0.2650 C.3   1 <1>   0.1200 
 23 N       -8.8420   -12.1690     0.0820 N.2   1 <1>  -0.5650 
 24 N       -7.0640   -11.3450    -0.9500 N.pl3 1 <1>   0.0330 
 25 O      -10.9610    -8.0240     0.5810 O.3   1 <1>  -0.6800 
 26 C       -8.7930   -12.6130    -1.1900 C.2   1 <1>   0.0770 
 27 C       -7.7150   -12.1180    -1.8370 C.2   1 <1>  -0.3020 
 28 H       -0.0680    -2.7880    -0.3310 H     1 <1>   0.1500 
 29 H       -3.2030    -0.3710     1.2270 H     1 <1>   0.1500 
 30 H       -1.7340    -4.1900    -1.5100 H     1 <1>   0.1500 
 31 H       -4.8690    -1.7730     0.0490 H     1 <1>   0.1500 
 32 H       -6.4390    -5.0670    -2.6200 H     1 <1>   0.0800 
 33 H       -7.4710    -4.8100    -1.2440 H     1 <1>   0.0800 
 34 H       -6.3500    -4.3120     1.0520 H     1 <1>   0.0800 
 35 H       -4.6080    -4.2910     1.1250 H     1 <1>   0.0800 
 36 H       -5.5960    -7.1410    -1.6780 H     1 <1>   0.0800 
 37 H       -7.3300    -7.2040    -1.7610 H     1 <1>   0.0800 
 38 H       -5.5200    -6.3990     2.0290 H     1 <1>   0.0800 
 39 H       -4.4800    -6.6590     0.6620 H     1 <1>   0.0800 
 40 H       -7.4920    -6.6060     0.6040 H     1 <1>   0.0800 
 41 H       -7.9850   -10.9620     2.2590 H     1 <1>   0.0800 
 42 H       -6.3520   -10.8990     1.6700 H     1 <1>   0.0800 
 43 H       -8.7700    -7.6460     1.9130 H     1 <1>   0.0800 
 44 H       -9.3270    -9.2500     2.2670 H     1 <1>   0.0800 
 45 H       -9.9450    -9.6200    -0.0930 H     1 <1>   0.0800 
 46 H       -9.2960    -8.0410    -0.5160 H     1 <1>   0.0800 
 47 H       -6.2120   -10.7780    -1.0660 H     1 <1>   0.2700 
 48 H      -11.5530    -8.6620     1.0290 H     1 <1>   0.4000 
 49 H       -9.5480   -13.2760    -1.5800 H     1 <1>   0.1500 
 50 H       -7.3840   -12.2670    -2.8480 H     1 <1>   0.1500 
@<TRIPOS>BOND
  1   1   2  1   
  2   2   3  ar  
  3   2   4  ar  
  4   3   5  ar  
  5   3  28  1   
  6   4   6  ar  
  7   4  29  1   
  8   5   7  ar  
  9   5  30  1   
 10   6   7  ar  
 11   6  31  1   
 12   7   8  1   
 13   8   9  2   
 14   8  10  am  
 15  10  11  1   
 16  10  12  1   
 17  11  13  1   
 18  11  32  1   
 19  11  33  1   
 20  12  14  1   
 21  12  34  1   
 22  12  35  1   
 23  13  15  1   
 24  13  36  1   
 25  13  37  1   
 26  14  15  1   
 27  14  38  1   
 28  14  39  1   
 29  15  16  1   
 30  15  40  1   
 31  16  17  2   
 32  16  18  am  
 33  18  19  1   
 34  18  20  1   
 35  19  21  1   
 36  19  41  1   
 37  19  42  1   
 38  20  22  1   
 39  20  43  1   
 40  20  44  1   
 41  21  23  2   
 42  21  24  1   
 43  22  25  1   
 44  22  45  1   
 45  22  46  1   
 46  23  26  1   
 47  24  27  1   
 48  24  47  1   
 49  25  48  1   
 50  26  27  2   
 51  26  49  1   
 52  27  50  1   
@<TRIPOS>SUBSTRUCTURE
  1 ****  15 GROUP 4 **** **** 0

# MOE 2024.06 (io_trps.svl 2023.06)
