@<TRIPOS>MOLECULE
NONAME
48 50 1 0 0 
SMALL
USER_CHARGES


@<TRIPOS>ATOM
  1 O       -1.6220     0.7280    -1.8130 O.2   1 <1>  -0.5700 
  2 C       -1.5240     0.8690    -0.6050 C.2   1 <1>   0.7160 
  3 N       -1.7370    -0.2150     0.1950 N.am  1 <1>  -0.7300 
  4 C       -1.2030     2.1490     0.0060 C.2   1 <1>   0.2030 
  5 C       -2.1370    -1.5680    -0.2460 C.3   1 <1>   0.2200 
  6 N       -1.1280     2.3790     1.3070 N.2   1 <1>  -0.7070 
  7 C       -0.9310     3.3240    -0.7070 C.2   1 <1>  -0.1500 
  8 C       -3.6190    -1.7600     0.0220 C.3   1 <1>  -0.0800 
  9 C       -1.5020    -2.6240     0.6600 C.3   1 <1>   0.1200 
 10 N       -0.8110     3.6780     1.4170 N.pl3 1 <1>   0.3000 
 11 C       -0.6890     4.2750     0.2160 C.2   1 <1>  -0.3320 
 12 C       -3.6120    -2.1930     1.4880 C.3   1 <1>   0.1200 
 13 C       -4.2260    -2.8340    -0.9010 C.3   1 <1>  -0.0160 
 14 O       -2.4130    -2.8790     1.6920 O.3   1 <1>  -0.5600 
 15 C       -0.3310     5.7400     0.0160 C.3   1 <1>   0.0200 
 16 C       -5.7150    -3.0040    -0.6460 C.ar  1 <1>  -0.1430 
 17 C       -1.5470     6.6760     0.1380 C.3   1 <1>  -0.0800 
 18 C       -6.6370    -2.0790    -1.0940 C.ar  1 <1>  -0.1500 
 19 C       -6.2230    -4.0860     0.0440 C.ar  1 <1>  -0.1500 
 20 C       -1.1430     8.1130    -0.2190 C.3   1 <1>  -0.2400 
 21 C       -2.1750     6.6580     1.5400 C.3   1 <1>  -0.2400 
 22 C       -7.9830    -2.2720    -0.8320 C.ar  1 <1>   0.1600 
 23 C       -7.5890    -4.1850     0.2520 C.ar  1 <1>   0.1600 
 24 N       -8.4810    -3.3030    -0.1690 N.ar  1 <1>  -0.6200 
 25 H       -1.6770    -0.0490     1.2040 H     1 <1>   0.3700 
 26 H       -1.8710    -1.7130    -1.2790 H     1 <1>   0.0800 
 27 H       -0.9280     3.4020    -1.7800 H     1 <1>   0.1500 
 28 H       -4.1630    -0.8410    -0.1090 H     1 <1>   0.0800 
 29 H       -0.5660    -2.2980     1.0790 H     1 <1>   0.0800 
 30 H       -1.3590    -3.5440     0.1230 H     1 <1>   0.0800 
 31 H       -0.6870     4.1410     2.3260 H     1 <1>   0.2700 
 32 H       -4.4360    -2.8310     1.7510 H     1 <1>   0.0800 
 33 H       -3.6060    -1.3330     2.1350 H     1 <1>   0.0800 
 34 H       -3.7250    -3.7760    -0.7570 H     1 <1>   0.0800 
 35 H       -4.0840    -2.5440    -1.9270 H     1 <1>   0.0800 
 36 H        0.4320     6.0270     0.7190 H     1 <1>   0.0800 
 37 H        0.0870     5.8470    -0.9700 H     1 <1>   0.0800 
 38 H       -2.2920     6.3520    -0.5700 H     1 <1>   0.0800 
 39 H       -6.3210    -1.2110    -1.6420 H     1 <1>   0.1500 
 40 H       -5.5710    -4.8510     0.4250 H     1 <1>   0.1500 
 41 H       -0.4010     8.4820     0.4680 H     1 <1>   0.0800 
 42 H       -1.9990     8.7630    -0.1800 H     1 <1>   0.0800 
 43 H       -0.7390     8.1520    -1.2150 H     1 <1>   0.0800 
 44 H       -1.4420     6.8990     2.2900 H     1 <1>   0.0800 
 45 H       -2.5970     5.6930     1.7550 H     1 <1>   0.0800 
 46 H       -2.9710     7.3790     1.5980 H     1 <1>   0.0800 
 47 H       -8.6870    -1.5400    -1.1880 H     1 <1>   0.1500 
 48 H       -7.9680    -5.0350     0.7930 H     1 <1>   0.1500 
@<TRIPOS>BOND
  1   1   2  2   
  2   2   3  am  
  3   2   4  1   
  4   3   5  1   
  5   3  25  1   
  6   4   6  2   
  7   4   7  1   
  8   5   8  1   
  9   5   9  1   
 10   5  26  1   
 11   6  10  1   
 12   7  11  2   
 13   7  27  1   
 14   8  12  1   
 15   8  13  1   
 16   8  28  1   
 17   9  14  1   
 18   9  29  1   
 19   9  30  1   
 20  10  11  1   
 21  10  31  1   
 22  11  15  1   
 23  12  14  1   
 24  12  32  1   
 25  12  33  1   
 26  13  16  1   
 27  13  34  1   
 28  13  35  1   
 29  15  17  1   
 30  15  36  1   
 31  15  37  1   
 32  16  18  ar  
 33  16  19  ar  
 34  17  20  1   
 35  17  21  1   
 36  17  38  1   
 37  18  22  ar  
 38  18  39  1   
 39  19  23  ar  
 40  19  40  1   
 41  20  41  1   
 42  20  42  1   
 43  20  43  1   
 44  21  44  1   
 45  21  45  1   
 46  21  46  1   
 47  22  24  ar  
 48  22  47  1   
 49  23  24  ar  
 50  23  48  1   
@<TRIPOS>SUBSTRUCTURE
  1 ****   3 GROUP 4 **** **** 0

# MOE 2024.06 (io_trps.svl 2023.06)
