@<TRIPOS>MOLECULE
NONAME
51 53 1 0 0 
SMALL
USER_CHARGES


@<TRIPOS>ATOM
  1 O       -0.4010     0.3850    -0.1430 O.2   1 <1>  -0.5700 
  2 C       -1.4800     0.8940     0.0450 C.2   1 <1>   0.5690 
  3 N       -2.6320     0.1620    -0.0280 N.am  1 <1>  -0.6600 
  4 C       -1.5620     2.3800     0.3760 C.3   1 <1>  -0.0990 
  5 C       -4.0080     0.6470     0.2420 C.3   1 <1>   0.1400 
  6 C       -2.6390    -1.2890    -0.3330 C.3   1 <1>   0.1400 
  7 C       -0.2160     3.1270     0.3090 C.3   1 <1>  -0.1600 
  8 C       -4.9030    -0.5840     0.0850 C.3   1 <1>   0.2000 
  9 C       -3.9790    -1.7950     0.2030 C.3   1 <1>  -0.0800 
 10 C       -0.3760     4.6160     0.6370 C.3   1 <1>  -0.0160 
 11 O       -5.8750    -0.6360     1.0730 O.3   1 <1>  -0.6800 
 12 C       -4.5280    -3.0300    -0.5320 C.3   1 <1>  -0.0170 
 13 C        0.9630     5.3310     0.5570 C.ar  1 <1>  -0.1440 
 14 C       -3.6130    -4.2340    -0.3790 C.ar  1 <1>   0.1670 
 15 C        1.4010     5.8650    -0.6460 C.ar  1 <1>  -0.1500 
 16 C        1.7600     5.4540     1.6840 C.ar  1 <1>  -0.1500 
 17 N       -2.5890    -4.3080    -1.2140 N.ar  1 <1>  -0.6200 
 18 C       -3.8720    -5.1870     0.6060 C.ar  1 <1>   0.1600 
 19 C        2.6180     6.5190    -0.7240 C.ar  1 <1>  -0.1500 
 20 C        2.9780     6.1080     1.6100 C.ar  1 <1>  -0.1500 
 21 C       -1.8470    -5.3810    -0.9980 C.ar  1 <1>   0.1600 
 22 N       -3.1320    -6.2620     0.8230 N.ar  1 <1>  -0.6200 
 23 C        3.4160     6.6450     0.4100 C.ar  1 <1>   0.0820 
 24 C       -2.1100    -6.3260    -0.0130 C.ar  1 <1>   0.1600 
 25 O        4.6200     7.2700     0.4230 O.3   1 <1>  -0.3630 
 26 C        5.1610     7.8360    -0.7490 C.3   1 <1>   0.0400 
 27 H       -2.2460     2.8380    -0.3140 H     1 <1>   0.0800 
 28 H       -1.9660     2.4770     1.3670 H     1 <1>   0.0800 
 29 H       -4.0610     1.0380     1.2430 H     1 <1>   0.0800 
 30 H       -4.2820     1.4040    -0.4710 H     1 <1>   0.0800 
 31 H       -2.5730    -1.4230    -1.3990 H     1 <1>   0.0800 
 32 H       -1.8080    -1.7900     0.1370 H     1 <1>   0.0800 
 33 H        0.4760     2.6810     1.0030 H     1 <1>   0.0800 
 34 H        0.2010     3.0210    -0.6790 H     1 <1>   0.0800 
 35 H       -5.3940    -0.5560    -0.8730 H     1 <1>   0.0800 
 36 H       -3.8310    -2.0350     1.2420 H     1 <1>   0.0800 
 37 H       -0.7830     4.7300     1.6270 H     1 <1>   0.0800 
 38 H       -1.0640     5.0710    -0.0540 H     1 <1>   0.0800 
 39 H       -5.4610    -0.6930     1.9560 H     1 <1>   0.4000 
 40 H       -4.6470    -2.8130    -1.5790 H     1 <1>   0.0800 
 41 H       -5.5020    -3.2690    -0.1410 H     1 <1>   0.0800 
 42 H        0.7930     5.7710    -1.5280 H     1 <1>   0.1500 
 43 H        1.4390     5.0410     2.6240 H     1 <1>   0.1500 
 44 H       -4.7280    -5.0530     1.2430 H     1 <1>   0.1500 
 45 H        2.9260     6.9200    -1.6690 H     1 <1>   0.1500 
 46 H        3.5970     6.2050     2.4820 H     1 <1>   0.1500 
 47 H       -0.9890    -5.5210    -1.6320 H     1 <1>   0.1500 
 48 H       -1.4470    -7.1670     0.0850 H     1 <1>   0.1500 
 49 H        6.1150     8.2670    -0.5020 H     1 <1>   0.0800 
 50 H        4.4950     8.6020    -1.1060 H     1 <1>   0.0800 
 51 H        5.2880     7.0610    -1.4840 H     1 <1>   0.0800 
@<TRIPOS>BOND
  1   1   2  2   
  2   2   3  am  
  3   2   4  1   
  4   3   5  1   
  5   3   6  1   
  6   4   7  1   
  7   4  27  1   
  8   4  28  1   
  9   5   8  1   
 10   5  29  1   
 11   5  30  1   
 12   6   9  1   
 13   6  31  1   
 14   6  32  1   
 15   7  10  1   
 16   7  33  1   
 17   7  34  1   
 18   8   9  1   
 19   8  11  1   
 20   8  35  1   
 21   9  12  1   
 22   9  36  1   
 23  10  13  1   
 24  10  37  1   
 25  10  38  1   
 26  11  39  1   
 27  12  14  1   
 28  12  40  1   
 29  12  41  1   
 30  13  15  ar  
 31  13  16  ar  
 32  14  17  ar  
 33  14  18  ar  
 34  15  19  ar  
 35  15  42  1   
 36  16  20  ar  
 37  16  43  1   
 38  17  21  ar  
 39  18  22  ar  
 40  18  44  1   
 41  19  23  ar  
 42  19  45  1   
 43  20  23  ar  
 44  20  46  1   
 45  21  24  ar  
 46  21  47  1   
 47  22  24  ar  
 48  23  25  1   
 49  24  48  1   
 50  25  26  1   
 51  26  49  1   
 52  26  50  1   
 53  26  51  1   
@<TRIPOS>SUBSTRUCTURE
  1 ****   2 GROUP 4 **** **** 0

# MOE 2024.06 (io_trps.svl 2023.06)
