@<TRIPOS>MOLECULE
NONAME
47 49 1 0 0 
SMALL
USER_CHARGES


@<TRIPOS>ATOM
  1 O        1.2230     0.5020     0.9790 O.co2 1 <1>  -0.9000 
  2 C        1.5760     0.7410    -0.1870 C.2   1 <1>   0.9060 
  3 O        1.0950     1.6750    -0.8270 O.co2 1 <1>  -0.9000 
  4 C        2.6190    -0.1820    -0.8450 C.3   1 <1>  -0.1060 
  5 C        3.6560    -0.5890     0.2300 C.3   1 <1>   0.4230 
  6 C        3.3830     0.5680    -1.9760 C.3   1 <1>  -0.1600 
  7 C        1.9060    -1.4360    -1.4330 C.3   1 <1>  -0.1600 
  8 N        2.9850    -1.4160     1.2940 N.4   1 <1>  -0.9590 
  9 C        4.4280     0.6460     0.7450 C.3   1 <1>   0.2090 
 10 C        4.1770     1.7720    -1.4460 C.3   1 <1>   0.2090 
 11 C        2.3350    -2.7450    -0.7490 C.3   1 <1>  -0.1600 
 12 C        2.3090    -2.6450     0.7830 C.3   1 <1>   0.3430 
 13 C        3.7750    -1.6490     2.5310 C.3   1 <1>   0.2630 
 14 N        5.1280     1.2940    -0.4040 N.pl3 1 <1>  -0.8380 
 15 C        6.3050     1.9940    -0.1810 C.ar  1 <1>   0.4100 
 16 N        6.5550     2.3790     1.0660 N.ar  1 <1>  -0.6200 
 17 C        7.1740     2.2530    -1.2390 C.ar  1 <1>  -0.1500 
 18 C        7.6730     3.0540     1.2600 C.ar  1 <1>   0.1670 
 19 C        8.3410     2.9520    -1.0330 C.ar  1 <1>  -0.1430 
 20 C        8.5830     3.3620     0.2620 C.ar  1 <1>  -0.1500 
 21 C        7.9290     3.5000     2.6830 C.3   1 <1>  -0.0970 
 22 C        9.3160     3.2600    -2.1540 C.3   1 <1>  -0.0970 
 23 H        4.3920    -1.2110    -0.2490 H     1 <1>   0.0800 
 24 H        2.6800     0.9220    -2.7110 H     1 <1>   0.0800 
 25 H        4.0660    -0.0970    -2.4740 H     1 <1>   0.0800 
 26 H        0.8400    -1.3190    -1.3140 H     1 <1>   0.0800 
 27 H        2.0860    -1.5170    -2.4910 H     1 <1>   0.0800 
 28 H        2.1870    -0.7660     1.5350 H     1 <1>   0.4500 
 29 H        5.1610     0.3360     1.4650 H     1 <1>   0.0800 
 30 H        3.7620     1.3570     1.2060 H     1 <1>   0.0800 
 31 H        3.5100     2.5030    -1.0160 H     1 <1>   0.0800 
 32 H        4.7030     2.2460    -2.2550 H     1 <1>   0.0800 
 33 H        3.3280    -3.0120    -1.0670 H     1 <1>   0.0800 
 34 H        1.6800    -3.5400    -1.0590 H     1 <1>   0.0800 
 35 H        2.7780    -3.5210     1.1980 H     1 <1>   0.0800 
 36 H        1.2820    -2.6290     1.1110 H     1 <1>   0.0800 
 37 H        4.6580    -2.2250     2.3060 H     1 <1>   0.0800 
 38 H        3.1810    -2.1830     3.2540 H     1 <1>   0.0800 
 39 H        4.0720    -0.7090     2.9650 H     1 <1>   0.0800 
 40 H        6.9210     1.8900    -2.2150 H     1 <1>   0.1500 
 41 H        9.4740     3.9150     0.4920 H     1 <1>   0.1500 
 42 H        8.8490     4.0500     2.7600 H     1 <1>   0.0800 
 43 H        7.9830     2.6390     3.3240 H     1 <1>   0.0800 
 44 H        7.1200     4.1260     3.0120 H     1 <1>   0.0800 
 45 H       10.2740     2.8220    -1.9370 H     1 <1>   0.0800 
 46 H        9.4340     4.3240    -2.2550 H     1 <1>   0.0800 
 47 H        8.9610     2.8640    -3.0880 H     1 <1>   0.0800 
@<TRIPOS>BOND
  1   1   2  ar  
  2   2   3  ar  
  3   2   4  1   
  4   4   5  1   
  5   4   6  1   
  6   4   7  1   
  7   5   8  1   
  8   5   9  1   
  9   5  23  1   
 10   6  10  1   
 11   6  24  1   
 12   6  25  1   
 13   7  11  1   
 14   7  26  1   
 15   7  27  1   
 16   8  12  1   
 17   8  13  1   
 18   8  28  1   
 19   9  14  1   
 20   9  29  1   
 21   9  30  1   
 22  10  14  1   
 23  10  31  1   
 24  10  32  1   
 25  11  12  1   
 26  11  33  1   
 27  11  34  1   
 28  12  35  1   
 29  12  36  1   
 30  13  37  1   
 31  13  38  1   
 32  13  39  1   
 33  14  15  1   
 34  15  16  ar  
 35  15  17  ar  
 36  16  18  ar  
 37  17  19  ar  
 38  17  40  1   
 39  18  20  ar  
 40  18  21  1   
 41  19  20  ar  
 42  19  22  1   
 43  20  41  1   
 44  21  42  1   
 45  21  43  1   
 46  21  44  1   
 47  22  45  1   
 48  22  46  1   
 49  22  47  1   
@<TRIPOS>SUBSTRUCTURE
  1 ****  14 GROUP 4 **** **** 0

# MOE 2024.06 (io_trps.svl 2023.06)
