@<TRIPOS>MOLECULE
NONAME
46 48 1 0 0 
SMALL
USER_CHARGES


@<TRIPOS>ATOM
  1 CL      -0.0190     0.7470     1.8440 Cl    1 <1>  -0.1770 
  2 C        0.1270     2.3110     1.0960 C.ar  1 <1>   0.1770 
  3 C        1.3630     2.8880     0.9690 C.ar  1 <1>  -0.1500 
  4 C       -1.0190     2.9490     0.6380 C.ar  1 <1>  -0.1500 
  5 C        1.4820     4.1440     0.3680 C.ar  1 <1>   0.3610 
  6 C       -0.9130     4.1850     0.0460 C.ar  1 <1>  -0.1500 
  7 N        2.7180     4.7490     0.2250 N.ar  1 <1>  -0.1790 
  8 C        0.3370     4.8150    -0.1040 C.ar  1 <1>   0.0000 
  9 C        2.9320     5.9400    -0.3380 C.ar  1 <1>   0.4610 
 10 C        0.5220     6.0960    -0.7050 C.ar  1 <1>  -0.1430 
 11 N        4.1960     6.4220    -0.4240 N.pl3 1 <1>  -0.8380 
 12 C        1.7750     6.6210    -0.8060 C.ar  1 <1>  -0.1500 
 13 C       -0.6770     6.8800    -1.2270 C.3   1 <1>  -0.0970 
 14 C        4.5710     7.6650    -1.2000 C.3   1 <1>   0.2090 
 15 C        5.4100     5.8730     0.2620 C.3   1 <1>   0.2090 
 16 C        5.0470     8.8060    -0.2680 C.3   1 <1>   0.0610 
 17 C        5.9430     6.9170     1.2490 C.3   1 <1>  -0.1600 
 18 C        5.4750     9.9780    -1.1730 C.2   1 <1>   0.5690 
 19 C        6.2480     8.2590     0.5570 C.3   1 <1>  -0.1600 
 20 C        3.8650     9.2570     0.6400 C.3   1 <1>  -0.1600 
 21 O        4.8870    10.1810    -2.2050 O.2   1 <1>  -0.5700 
 22 N        6.4970    10.7920    -0.8380 N.am  1 <1>  -0.8000 
 23 C        4.1750    10.4000     1.6210 C.3   1 <1>  -0.2400 
 24 H        2.2240     2.3600     1.3360 H     1 <1>   0.1500 
 25 H       -1.9740     2.4630     0.7560 H     1 <1>   0.1500 
 26 H       -1.8070     4.6710    -0.3050 H     1 <1>   0.1500 
 27 H        3.5390     4.2480     0.5420 H     1 <1>   0.4570 
 28 H        1.8940     7.5910    -1.2450 H     1 <1>   0.1500 
 29 H       -1.1830     6.3220    -1.9950 H     1 <1>   0.0800 
 30 H       -0.3750     7.8230    -1.6480 H     1 <1>   0.0800 
 31 H       -1.3690     7.0810    -0.4280 H     1 <1>   0.0800 
 32 H        3.7640     8.0080    -1.8180 H     1 <1>   0.0800 
 33 H        5.3720     7.4170    -1.8770 H     1 <1>   0.0800 
 34 H        6.1670     5.6530    -0.4740 H     1 <1>   0.0800 
 35 H        5.1990     4.9650     0.7970 H     1 <1>   0.0800 
 36 H        6.8450     6.5430     1.7020 H     1 <1>   0.0800 
 37 H        5.2270     7.0630     2.0380 H     1 <1>   0.0800 
 38 H        6.5660     8.9740     1.2940 H     1 <1>   0.0800 
 39 H        7.0790     8.1060    -0.1110 H     1 <1>   0.0800 
 40 H        3.4960     8.4240     1.2110 H     1 <1>   0.0800 
 41 H        3.0580     9.5830     0.0050 H     1 <1>   0.0800 
 42 H        6.7330    11.5700    -1.4560 H     1 <1>   0.3700 
 43 H        7.0150    10.7340     0.0370 H     1 <1>   0.3700 
 44 H        4.9170    10.1110     2.3420 H     1 <1>   0.0800 
 45 H        3.2810    10.6630     2.1590 H     1 <1>   0.0800 
 46 H        4.5120    11.2780     1.0990 H     1 <1>   0.0800 
@<TRIPOS>BOND
  1   1   2  1   
  2   2   3  ar  
  3   2   4  ar  
  4   3   5  ar  
  5   3  24  1   
  6   4   6  ar  
  7   4  25  1   
  8   5   7  ar  
  9   5   8  ar  
 10   6   8  ar  
 11   6  26  1   
 12   7   9  ar  
 13   7  27  1   
 14   8  10  ar  
 15   9  11  1   
 16   9  12  ar  
 17  10  12  ar  
 18  10  13  1   
 19  11  14  1   
 20  11  15  1   
 21  12  28  1   
 22  13  29  1   
 23  13  30  1   
 24  13  31  1   
 25  14  16  1   
 26  14  32  1   
 27  14  33  1   
 28  15  17  1   
 29  15  34  1   
 30  15  35  1   
 31  16  18  1   
 32  16  19  1   
 33  16  20  1   
 34  17  19  1   
 35  17  36  1   
 36  17  37  1   
 37  18  21  2   
 38  18  22  am  
 39  19  38  1   
 40  19  39  1   
 41  20  23  1   
 42  20  40  1   
 43  20  41  1   
 44  22  42  1   
 45  22  43  1   
 46  23  44  1   
 47  23  45  1   
 48  23  46  1   
@<TRIPOS>SUBSTRUCTURE
  1 ****   9 GROUP 4 **** **** 0

# MOE 2024.06 (io_trps.svl 2023.06)
