@<TRIPOS>MOLECULE
NONAME
46 48 1 0 0 
SMALL
USER_CHARGES


@<TRIPOS>ATOM
  1 S        0.4940     0.0150    -1.2110 S.o2  1 <1>   1.3330 
  2 O        1.7730    -0.6550    -1.1250 O.2   1 <1>  -0.6500 
  3 O       -0.1680     0.1250    -2.4910 O.2   1 <1>  -0.6500 
  4 N       -0.5840    -0.7860    -0.1680 N.am  1 <1>  -0.8490 
  5 C        0.6290     1.6540    -0.4820 C.3   1 <1>  -0.0550 
  6 C       -1.9950    -0.5140    -0.4650 C.3   1 <1>   0.1160 
  7 C       -0.3570    -2.2350    -0.1420 C.3   1 <1>   0.1160 
  8 C        1.5770     1.8220     0.7270 C.3   1 <1>  -0.0800 
  9 C        3.0550     1.6490     0.3670 C.3   1 <1>   0.2200 
 10 C        1.3750     0.8740     1.9160 C.3   1 <1>   0.1200 
 11 N        3.7620     2.9260     0.6140 N.am  1 <1>  -0.7300 
 12 C        3.5270     0.5730     1.3420 C.3   1 <1>   0.1200 
 13 O        2.6520     0.6580     2.4200 O.3   1 <1>  -0.5600 
 14 C        3.8090     3.9620    -0.2750 C.2   1 <1>   0.5440 
 15 O        3.2750     3.8130    -1.3560 O.2   1 <1>  -0.5700 
 16 C        4.4640     5.2090     0.0530 C.ar  1 <1>   0.0860 
 17 C        4.5210     5.6600     1.3890 C.ar  1 <1>   0.1600 
 18 C        5.0440     6.0080    -0.8990 C.ar  1 <1>  -0.1500 
 19 N        5.0920     6.7530     1.7940 N.ar  1 <1>  -0.6200 
 20 C        5.6720     7.2020    -0.5170 C.ar  1 <1>   0.0000 
 21 C        5.6770     7.5390     0.8540 C.ar  1 <1>   0.3100 
 22 C        6.2950     8.0710    -1.4360 C.ar  1 <1>  -0.1500 
 23 C        6.3080     8.7270     1.2510 C.ar  1 <1>  -0.1500 
 24 C        6.9010     9.2250    -1.0160 C.ar  1 <1>  -0.1500 
 25 C        6.9090     9.5580     0.3420 C.ar  1 <1>  -0.1500 
 26 H        0.9710     2.3270    -1.2450 H     1 <1>   0.0800 
 27 H       -0.3490     1.9850    -0.1970 H     1 <1>   0.0800 
 28 H       -2.6240    -0.9660     0.2820 H     1 <1>   0.0800 
 29 H       -2.2600    -0.9100    -1.4320 H     1 <1>   0.0800 
 30 H       -2.1790     0.5470    -0.4670 H     1 <1>   0.0800 
 31 H       -1.0500    -2.7100     0.5310 H     1 <1>   0.0800 
 32 H        0.6420    -2.4470     0.2000 H     1 <1>   0.0800 
 33 H       -0.4790    -2.6500    -1.1290 H     1 <1>   0.0800 
 34 H        1.4210     2.8190     1.1000 H     1 <1>   0.0800 
 35 H        3.2170     1.3380    -0.6520 H     1 <1>   0.0800 
 36 H        0.9830    -0.0840     1.6290 H     1 <1>   0.0800 
 37 H        0.7610     1.3040     2.6870 H     1 <1>   0.0800 
 38 H        4.1810     2.9990     1.5430 H     1 <1>   0.3700 
 39 H        4.5380     0.7180     1.6780 H     1 <1>   0.0800 
 40 H        3.4220    -0.4060     0.9060 H     1 <1>   0.0800 
 41 H        4.0460     5.0520     2.1380 H     1 <1>   0.1500 
 42 H        5.0210     5.7260    -1.9380 H     1 <1>   0.1500 
 43 H        6.2850     7.8110    -2.4800 H     1 <1>   0.1500 
 44 H        6.3020     8.9660     2.2990 H     1 <1>   0.1500 
 45 H        7.3760     9.8860    -1.7210 H     1 <1>   0.1500 
 46 H        7.3900    10.4670     0.6590 H     1 <1>   0.1500 
@<TRIPOS>BOND
  1   1   2  2   
  2   1   3  2   
  3   1   4  am  
  4   1   5  1   
  5   4   6  1   
  6   4   7  1   
  7   5   8  1   
  8   5  26  1   
  9   5  27  1   
 10   6  28  1   
 11   6  29  1   
 12   6  30  1   
 13   7  31  1   
 14   7  32  1   
 15   7  33  1   
 16   8   9  1   
 17   8  10  1   
 18   8  34  1   
 19   9  11  1   
 20   9  12  1   
 21   9  35  1   
 22  10  13  1   
 23  10  36  1   
 24  10  37  1   
 25  11  14  am  
 26  11  38  1   
 27  12  13  1   
 28  12  39  1   
 29  12  40  1   
 30  14  15  2   
 31  14  16  1   
 32  16  17  ar  
 33  16  18  ar  
 34  17  19  ar  
 35  17  41  1   
 36  18  20  ar  
 37  18  42  1   
 38  19  21  ar  
 39  20  21  ar  
 40  20  22  ar  
 41  21  23  ar  
 42  22  24  ar  
 43  22  43  1   
 44  23  25  ar  
 45  23  44  1   
 46  24  25  ar  
 47  24  45  1   
 48  25  46  1   
@<TRIPOS>SUBSTRUCTURE
  1 ****  14 GROUP 4 **** **** 0

# MOE 2024.06 (io_trps.svl 2023.06)
