@<TRIPOS>MOLECULE
NONAME
53 56 1 0 0 
SMALL
USER_CHARGES


@<TRIPOS>ATOM
  1 F       -0.4880    -0.7100     1.0100 F     1 <1>  -0.1900 
  2 C       -1.0060    -1.7180     0.3540 C.ar  1 <1>   0.1900 
  3 C       -0.7660    -2.9950     0.7950 C.ar  1 <1>  -0.1500 
  4 C       -1.7840    -1.4320    -0.7730 C.ar  1 <1>  -0.1500 
  5 C       -1.3320    -4.0560     0.0770 C.ar  1 <1>   0.0000 
  6 C       -2.3410    -2.4730    -1.4800 C.ar  1 <1>  -0.1500 
  7 C       -2.1110    -3.7830    -1.0440 C.ar  1 <1>  -0.1520 
  8 C       -1.3060    -5.4570     0.2160 C.2   1 <1>  -0.1810 
  9 N       -2.5390    -4.9750    -1.5570 N.pl3 1 <1>   0.0330 
 10 C       -2.0770    -6.0060    -0.7750 C.2   1 <1>  -0.2370 
 11 C       -0.4850    -6.1460     1.2920 C.3   1 <1>  -0.0590 
 12 C       -2.4430    -7.3590    -1.1020 C.2   1 <1>   0.7150 
 13 O       -2.7920    -7.6380    -2.2330 O.2   1 <1>  -0.5700 
 14 N       -2.5460    -8.3400    -0.1450 N.am  1 <1>  -0.6600 
 15 C       -3.2800    -8.0720     1.1260 C.3   1 <1>   0.1400 
 16 C       -2.5680    -9.7730    -0.5550 C.3   1 <1>   0.1400 
 17 C       -4.7390    -8.5830     1.0480 C.3   1 <1>   0.4230 
 18 C       -4.0230   -10.2570    -0.6840 C.3   1 <1>   0.3430 
 19 N       -4.8180   -10.0310     0.5870 N.4   1 <1>  -0.9590 
 20 C       -5.5940    -7.6670     0.1400 C.3   1 <1>   0.1200 
 21 C       -6.2650   -10.4330     0.4640 C.3   1 <1>   0.4230 
 22 O       -6.9120    -8.1300     0.0910 O.3   1 <1>  -0.5600 
 23 C       -7.0610    -9.4300    -0.4070 C.3   1 <1>   0.1200 
 24 C       -6.3860   -11.8840    -0.0320 C.3   1 <1>  -0.1600 
 25 C       -7.7920   -12.4630     0.1900 C.3   1 <1>  -0.1600 
 26 C       -7.8490   -13.9320    -0.2380 C.3   1 <1>  -0.2400 
 27 H       -0.1620    -3.1810     1.6620 H     1 <1>   0.1500 
 28 H       -1.9300    -0.4080    -1.0640 H     1 <1>   0.1500 
 29 H       -2.9440    -2.2910    -2.3530 H     1 <1>   0.1500 
 30 H       -3.0680    -5.0960    -2.4290 H     1 <1>   0.2700 
 31 H        0.5140    -5.7480     1.2920 H     1 <1>   0.0800 
 32 H       -0.4200    -7.2030     1.1130 H     1 <1>   0.0800 
 33 H       -0.9230    -5.9740     2.2580 H     1 <1>   0.0800 
 34 H       -2.7690    -8.5590     1.9380 H     1 <1>   0.0800 
 35 H       -3.2860    -7.0160     1.3400 H     1 <1>   0.0800 
 36 H       -2.0660    -9.8930    -1.5010 H     1 <1>   0.0800 
 37 H       -2.0400   -10.3670     0.1700 H     1 <1>   0.0800 
 38 H       -5.1590    -8.5100     2.0380 H     1 <1>   0.0800 
 39 H       -4.0180   -11.3050    -0.9360 H     1 <1>   0.0800 
 40 H       -4.4810    -9.7250    -1.5020 H     1 <1>   0.0800 
 41 H       -4.4010   -10.6120     1.3220 H     1 <1>   0.4500 
 42 H       -5.2070    -7.6240    -0.8630 H     1 <1>   0.0800 
 43 H       -5.6180    -6.6660     0.5370 H     1 <1>   0.0800 
 44 H       -6.7040   -10.3990     1.4490 H     1 <1>   0.0800 
 45 H       -8.1110    -9.6610    -0.3790 H     1 <1>   0.0800 
 46 H       -6.7360    -9.4500    -1.4320 H     1 <1>   0.0800 
 47 H       -6.1560   -11.9400    -1.0820 H     1 <1>   0.0800 
 48 H       -5.6870   -12.5000     0.5080 H     1 <1>   0.0800 
 49 H       -8.0610   -12.3950     1.2320 H     1 <1>   0.0800 
 50 H       -8.5230   -11.9140    -0.3790 H     1 <1>   0.0800 
 51 H       -7.1580   -14.5260     0.3340 H     1 <1>   0.0800 
 52 H       -7.6140   -14.0360    -1.2830 H     1 <1>   0.0800 
 53 H       -8.8400   -14.3220    -0.0770 H     1 <1>   0.0800 
@<TRIPOS>BOND
  1   1   2  1   
  2   2   3  ar  
  3   2   4  ar  
  4   3   5  ar  
  5   3  27  1   
  6   4   6  ar  
  7   4  28  1   
  8   5   7  ar  
  9   5   8  1   
 10   6   7  ar  
 11   6  29  1   
 12   7   9  1   
 13   8  10  2   
 14   8  11  1   
 15   9  10  1   
 16   9  30  1   
 17  10  12  1   
 18  11  31  1   
 19  11  32  1   
 20  11  33  1   
 21  12  13  2   
 22  12  14  am  
 23  14  15  1   
 24  14  16  1   
 25  15  17  1   
 26  15  34  1   
 27  15  35  1   
 28  16  18  1   
 29  16  36  1   
 30  16  37  1   
 31  17  19  1   
 32  17  20  1   
 33  17  38  1   
 34  18  19  1   
 35  18  39  1   
 36  18  40  1   
 37  19  21  1   
 38  19  41  1   
 39  20  22  1   
 40  20  42  1   
 41  20  43  1   
 42  21  23  1   
 43  21  24  1   
 44  21  44  1   
 45  22  23  1   
 46  23  45  1   
 47  23  46  1   
 48  24  25  1   
 49  24  47  1   
 50  24  48  1   
 51  25  26  1   
 52  25  49  1   
 53  25  50  1   
 54  26  51  1   
 55  26  52  1   
 56  26  53  1   
@<TRIPOS>SUBSTRUCTURE
  1 ****  12 GROUP 4 **** **** 0

# MOE 2024.06 (io_trps.svl 2023.06)
