@<TRIPOS>MOLECULE
NONAME
36 38 1 0 0 
SMALL
USER_CHARGES


@<TRIPOS>ATOM
  1 O        0.0060     0.3510    -0.1860 O.2   1 <1>  -0.5760 
  2 C       -0.6590     1.3700    -0.0660 C.2   1 <1>   0.6100 
  3 N       -2.0390     1.3700     0.0030 N.am  1 <1>  -0.4280 
  4 C       -0.0380     2.6300     0.0120 C.2   1 <1>  -0.1340 
  5 C       -2.7070     2.5800     0.1400 C.2   1 <1>   0.4420 
  6 C       -2.7790     0.0750    -0.0720 C.3   1 <1>   0.0490 
  7 C       -0.7650     3.7380     0.1430 C.2   1 <1>   0.0210 
  8 C        1.4290     2.9160    -0.0360 C.3   1 <1>   0.2970 
  9 N       -2.1210     3.7330     0.2100 N.2   1 <1>  -0.6270 
 10 C       -4.2220     2.5720     0.2150 C.3   1 <1>  -0.1890 
 11 C        0.0980     4.9670     0.2060 C.3   1 <1>   0.2970 
 12 N        1.4850     4.4090     0.0910 N.pl3 1 <1>  -0.5980 
 13 C        2.6320     5.1230     0.1050 C.cat 1 <1>   1.0680 
 14 N        3.8310     4.5850     0.0080 N.pl3 1 <1>  -0.7050 
 15 N        2.8180     6.4460     0.2120 N.pl3 1 <1>  -0.4640 
 16 C        4.7290     5.6040     0.0600 C.2   1 <1>   0.4780 
 17 N        4.1540     6.7380     0.1820 N.2   1 <1>  -0.2690 
 18 C        1.8440     7.5570     0.3480 C.3   1 <1>   0.2650 
 19 C        6.2200     5.3650    -0.0230 C.3   1 <1>  -0.0830 
 20 H       -2.1040    -0.7560    -0.1780 H     1 <1>   0.0690 
 21 H       -3.4400     0.0830    -0.9200 H     1 <1>   0.0690 
 22 H       -3.3520    -0.0680     0.8270 H     1 <1>   0.0690 
 23 H        1.8430     2.5900    -0.9760 H     1 <1>   0.0690 
 24 H        1.9310     2.4360     0.7870 H     1 <1>   0.0690 
 25 H       -4.5490     2.0020     1.0640 H     1 <1>   0.0690 
 26 H       -4.6350     2.1530    -0.6830 H     1 <1>   0.0690 
 27 H       -4.5940     3.5760     0.3200 H     1 <1>   0.0690 
 28 H       -0.0440     5.4690     1.1480 H     1 <1>   0.0690 
 29 H       -0.1300     5.6190    -0.6180 H     1 <1>   0.0690 
 30 H        4.0510     3.5990    -0.0870 H     1 <1>   0.4430 
 31 H        1.2680     7.4360     1.2490 H     1 <1>   0.0690 
 32 H        1.1880     7.5810    -0.5050 H     1 <1>   0.0690 
 33 H        2.3680     8.4960     0.4020 H     1 <1>   0.0690 
 34 H        6.4670     4.8900    -0.9550 H     1 <1>   0.0690 
 35 H        6.5400     4.7380     0.7900 H     1 <1>   0.0690 
 36 H        6.7480     6.3000     0.0360 H     1 <1>   0.0690 
@<TRIPOS>BOND
  1   1   2  2   
  2   2   3  am  
  3   2   4  1   
  4   3   5  1   
  5   3   6  1   
  6   4   7  2   
  7   4   8  1   
  8   5   9  2   
  9   5  10  1   
 10   6  20  1   
 11   6  21  1   
 12   6  22  1   
 13   7   9  1   
 14   7  11  1   
 15   8  12  1   
 16   8  23  1   
 17   8  24  1   
 18  10  25  1   
 19  10  26  1   
 20  10  27  1   
 21  11  12  1   
 22  11  28  1   
 23  11  29  1   
 24  12  13  ar  
 25  13  14  ar  
 26  13  15  ar  
 27  14  16  1   
 28  14  30  1   
 29  15  17  1   
 30  15  18  1   
 31  16  17  2   
 32  16  19  1   
 33  18  31  1   
 34  18  32  1   
 35  18  33  1   
 36  19  34  1   
 37  19  35  1   
 38  19  36  1   
@<TRIPOS>SUBSTRUCTURE
  1 ****  12 GROUP 4 **** **** 0

# MOE 2024.06 (io_trps.svl 2023.06)
