@<TRIPOS>MOLECULE
NONAME
54 56 1 0 0 
SMALL
USER_CHARGES


@<TRIPOS>ATOM
  1 O        4.1770     0.2430     1.1200 O.2   1 <1>  -0.5700 
  2 C        3.3110    -0.3260     0.4810 C.2   1 <1>   0.5440 
  3 N        3.1270     0.1060    -0.8100 N.am  1 <1>  -0.6600 
  4 C        2.6530    -1.5110     1.0010 C.ar  1 <1>   0.0860 
  5 C        3.6150    -0.7490    -1.9350 C.3   1 <1>   0.1400 
  6 C        2.9620     1.5560    -1.1270 C.3   1 <1>   0.1400 
  7 C        1.2990    -1.8100     0.7930 C.ar  1 <1>   0.1660 
  8 C        3.3950    -2.4310     1.7320 C.ar  1 <1>  -0.1500 
  9 C        5.1600    -0.8210    -1.9500 C.3   1 <1>   0.3430 
 10 C        4.2940     2.3250    -1.1620 C.3   1 <1>  -0.1600 
 11 N        0.7060    -2.9220     1.1920 N.ar  1 <1>  -0.6200 
 12 C        0.3630    -0.8450     0.0830 C.3   1 <1>  -0.0960 
 13 C        2.7760    -3.5810     2.1660 C.ar  1 <1>  -0.1500 
 14 N        5.7760     0.3720    -1.2860 N.4   1 <1>  -0.9590 
 15 C        5.4280     1.6590    -1.9440 C.3   1 <1>   0.3430 
 16 C        1.4420    -3.7860     1.8660 C.ar  1 <1>   0.1670 
 17 C        7.2170     0.2230    -0.9980 C.3   1 <1>   0.4810 
 18 C        0.7360    -5.0460     2.3200 C.3   1 <1>  -0.0970 
 19 C        7.5830     1.3070    -0.0160 C.2   1 <1>  -0.2880 
 20 C        8.4300     2.3220    -0.2600 C.2   1 <1>  -0.1780 
 21 C        8.7990     3.4020     0.6290 C.ar  1 <1>   0.0280 
 22 C        8.1430     3.6360     1.8370 C.ar  1 <1>  -0.1500 
 23 C        9.8400     4.2620     0.2840 C.ar  1 <1>  -0.1500 
 24 C        8.5110     4.6820     2.6640 C.ar  1 <1>  -0.1500 
 25 C       10.2120     5.3100     1.1060 C.ar  1 <1>  -0.1500 
 26 C        9.5470     5.5220     2.3000 C.ar  1 <1>  -0.1500 
 27 H        3.2110    -1.7430    -1.8400 H     1 <1>   0.0800 
 28 H        3.2640    -0.3500    -2.8700 H     1 <1>   0.0800 
 29 H        2.4610     1.6520    -2.0760 H     1 <1>   0.0800 
 30 H        2.3230     2.0030    -0.3830 H     1 <1>   0.0800 
 31 H        4.4310    -2.2480     1.9580 H     1 <1>   0.1500 
 32 H        5.5120    -0.9150    -2.9650 H     1 <1>   0.0800 
 33 H        5.4560    -1.7090    -1.4170 H     1 <1>   0.0800 
 34 H        4.6230     2.5130    -0.1550 H     1 <1>   0.0800 
 35 H        4.1060     3.2890    -1.5980 H     1 <1>   0.0800 
 36 H        0.5830     0.1710     0.3520 H     1 <1>   0.0800 
 37 H       -0.6560    -1.0450     0.3620 H     1 <1>   0.0800 
 38 H        0.4520    -0.9650    -0.9810 H     1 <1>   0.0800 
 39 H        3.3240    -4.3120     2.7320 H     1 <1>   0.1500 
 40 H        5.3020     0.4320    -0.3580 H     1 <1>   0.4500 
 41 H        6.2820     2.3180    -1.9400 H     1 <1>   0.0800 
 42 H        5.1330     1.4950    -2.9680 H     1 <1>   0.0800 
 43 H        7.4160    -0.7420    -0.5600 H     1 <1>   0.0800 
 44 H        7.7930     0.3230    -1.9030 H     1 <1>   0.0800 
 45 H        1.4030    -5.6930     2.8580 H     1 <1>   0.0800 
 46 H        0.3550    -5.5710     1.4630 H     1 <1>   0.0800 
 47 H       -0.0870    -4.7840     2.9590 H     1 <1>   0.0800 
 48 H        7.0790     1.1820     0.9270 H     1 <1>   0.1500 
 49 H        8.9200     2.3850    -1.2180 H     1 <1>   0.1500 
 50 H        7.3330     3.0040     2.1450 H     1 <1>   0.1500 
 51 H       10.3720     4.1130    -0.6380 H     1 <1>   0.1500 
 52 H        7.9910     4.8440     3.5920 H     1 <1>   0.1500 
 53 H       11.0190     5.9610     0.8200 H     1 <1>   0.1500 
 54 H        9.8340     6.3370     2.9420 H     1 <1>   0.1500 
@<TRIPOS>BOND
  1   1   2  2   
  2   2   3  am  
  3   2   4  1   
  4   3   5  1   
  5   3   6  1   
  6   4   7  ar  
  7   4   8  ar  
  8   5   9  1   
  9   5  27  1   
 10   5  28  1   
 11   6  10  1   
 12   6  29  1   
 13   6  30  1   
 14   7  11  ar  
 15   7  12  1   
 16   8  13  ar  
 17   8  31  1   
 18   9  14  1   
 19   9  32  1   
 20   9  33  1   
 21  10  15  1   
 22  10  34  1   
 23  10  35  1   
 24  11  16  ar  
 25  12  36  1   
 26  12  37  1   
 27  12  38  1   
 28  13  16  ar  
 29  13  39  1   
 30  14  15  1   
 31  14  17  1   
 32  14  40  1   
 33  15  41  1   
 34  15  42  1   
 35  16  18  1   
 36  17  19  1   
 37  17  43  1   
 38  17  44  1   
 39  18  45  1   
 40  18  46  1   
 41  18  47  1   
 42  19  20  2   
 43  19  48  1   
 44  20  21  1   
 45  20  49  1   
 46  21  22  ar  
 47  21  23  ar  
 48  22  24  ar  
 49  22  50  1   
 50  23  25  ar  
 51  23  51  1   
 52  24  26  ar  
 53  24  52  1   
 54  25  26  ar  
 55  25  53  1   
 56  26  54  1   
@<TRIPOS>SUBSTRUCTURE
  1 ****   1 GROUP 4 **** **** 0

# MOE 2024.06 (io_trps.svl 2023.06)
