@<TRIPOS>MOLECULE
NONAME
48 51 1 0 0 
SMALL
USER_CHARGES


@<TRIPOS>ATOM
  1 F        0.7070    -0.8790    -0.5380 F     1 <1>  -0.3400 
  2 C        0.9520    -2.1150    -0.9480 C.3   1 <1>   0.7800 
  3 F        0.8630    -2.0520    -2.2680 F     1 <1>  -0.3400 
  4 C       -0.1290    -3.0330    -0.4250 C.2   1 <1>  -0.3320 
  5 N       -1.4280    -2.7930    -0.6580 N.pl3 1 <1>   0.3000 
  6 C       -0.0730    -4.1640     0.3080 C.2   1 <1>  -0.1500 
  7 N       -2.2160    -3.7260    -0.1050 N.2   1 <1>  -0.7070 
  8 C       -1.4000    -4.5820     0.4940 C.2   1 <1>   0.2030 
  9 C       -1.7400    -5.7780     1.2680 C.2   1 <1>   0.7160 
 10 O       -0.9160    -6.2010     2.0670 O.2   1 <1>  -0.5700 
 11 N       -2.9350    -6.4740     1.1520 N.am  1 <1>  -0.6600 
 12 C       -3.3950    -7.4290     2.2000 C.3   1 <1>   0.1400 
 13 C       -3.8670    -6.3590    -0.0040 C.3   1 <1>   0.1400 
 14 C       -3.5920    -8.8180     1.5880 C.3   1 <1>  -0.1600 
 15 C       -4.0770    -7.7380    -0.6370 C.3   1 <1>  -0.1600 
 16 C       -4.5520    -8.7880     0.3860 C.3   1 <1>   0.4240 
 17 O       -5.7620    -8.3080     0.9330 O.3   1 <1>  -0.5600 
 18 C       -4.7310   -10.2000    -0.2450 C.ar  1 <1>  -0.1430 
 19 C       -6.9360    -8.5550     0.2320 C.3   1 <1>   0.1200 
 20 C       -3.6570   -10.9150    -0.7940 C.ar  1 <1>   0.0830 
 21 C       -5.9950   -10.7890    -0.2790 C.ar  1 <1>  -0.1430 
 22 C       -7.1990   -10.0520     0.2720 C.3   1 <1>  -0.0170 
 23 O       -2.4220   -10.3480    -0.7970 O.3   1 <1>  -0.3630 
 24 C       -3.8610   -12.1830    -1.3350 C.ar  1 <1>  -0.1500 
 25 C       -6.1850   -12.0510    -0.8160 C.ar  1 <1>  -0.1500 
 26 C       -1.2630   -11.0370    -1.2120 C.3   1 <1>   0.0400 
 27 C       -5.1190   -12.7500    -1.3420 C.ar  1 <1>  -0.1500 
 28 H        1.9580    -2.3820    -0.6760 H     1 <1>   0.0800 
 29 H       -1.8000    -1.9930    -1.1890 H     1 <1>   0.2700 
 30 H        0.7840    -4.6830     0.7010 H     1 <1>   0.1500 
 31 H       -4.3250    -7.0740     2.6100 H     1 <1>   0.0800 
 32 H       -2.6840    -7.4890     3.0060 H     1 <1>   0.0800 
 33 H       -3.4770    -5.7020    -0.7570 H     1 <1>   0.0800 
 34 H       -4.8060    -5.9590     0.3390 H     1 <1>   0.0800 
 35 H       -3.9810    -9.4910     2.3290 H     1 <1>   0.0800 
 36 H       -2.6260    -9.1830     1.3020 H     1 <1>   0.0800 
 37 H       -3.1420    -8.0380    -1.0660 H     1 <1>   0.0800 
 38 H       -4.7780    -7.6680    -1.4460 H     1 <1>   0.0800 
 39 H       -6.8330    -8.2010    -0.7780 H     1 <1>   0.0800 
 40 H       -7.7310    -8.0180     0.7190 H     1 <1>   0.0800 
 41 H       -8.0730   -10.2720    -0.3140 H     1 <1>   0.0800 
 42 H       -7.3820   -10.3580     1.2860 H     1 <1>   0.0800 
 43 H       -3.0550   -12.7490    -1.7580 H     1 <1>   0.1500 
 44 H       -7.1650   -12.4960    -0.8270 H     1 <1>   0.1500 
 45 H       -0.4190   -10.3890    -1.0590 H     1 <1>   0.0800 
 46 H       -1.3540   -11.2760    -2.2560 H     1 <1>   0.0800 
 47 H       -1.1540   -11.9260    -0.6170 H     1 <1>   0.0800 
 48 H       -5.2690   -13.7310    -1.7590 H     1 <1>   0.1500 
@<TRIPOS>BOND
  1   1   2  1   
  2   2   3  1   
  3   2   4  1   
  4   2  28  1   
  5   4   5  1   
  6   4   6  2   
  7   5   7  1   
  8   5  29  1   
  9   6   8  1   
 10   6  30  1   
 11   7   8  2   
 12   8   9  1   
 13   9  10  2   
 14   9  11  am  
 15  11  12  1   
 16  11  13  1   
 17  12  14  1   
 18  12  31  1   
 19  12  32  1   
 20  13  15  1   
 21  13  33  1   
 22  13  34  1   
 23  14  16  1   
 24  14  35  1   
 25  14  36  1   
 26  15  16  1   
 27  15  37  1   
 28  15  38  1   
 29  16  17  1   
 30  16  18  1   
 31  17  19  1   
 32  18  20  ar  
 33  18  21  ar  
 34  19  22  1   
 35  19  39  1   
 36  19  40  1   
 37  20  23  1   
 38  20  24  ar  
 39  21  22  1   
 40  21  25  ar  
 41  22  41  1   
 42  22  42  1   
 43  23  26  1   
 44  24  27  ar  
 45  24  43  1   
 46  25  27  ar  
 47  25  44  1   
 48  26  45  1   
 49  26  46  1   
 50  26  47  1   
 51  27  48  1   
@<TRIPOS>SUBSTRUCTURE
  1 ****  15 GROUP 4 **** **** 0

# MOE 2024.06 (io_trps.svl 2023.06)
