@<TRIPOS>MOLECULE
NONAME
53 56 1 0 0 
SMALL
USER_CHARGES


@<TRIPOS>ATOM
  1 O        3.3530    -1.8010    -2.0120 O.2   1 <1>  -0.5700 
  2 C        3.0630    -1.5230    -0.8680 C.2   1 <1>   0.5690 
  3 N        4.0790    -1.2410     0.0220 N.am  1 <1>  -0.6600 
  4 C        1.5610    -1.4530    -0.4920 C.3   1 <1>   0.2610 
  5 C        5.4630    -1.6950    -0.2910 C.3   1 <1>   0.1400 
  6 C        3.9010    -0.4650     1.2770 C.3   1 <1>   0.1400 
  7 O        1.3010    -1.7630     0.8580 O.3   1 <1>  -0.5600 
  8 C        0.6680    -2.4050    -1.2860 C.3   1 <1>  -0.1600 
  9 C        6.1530    -0.6910    -1.2250 C.3   1 <1>   0.3430 
 10 C        4.9480     0.6500     1.4020 C.3   1 <1>  -0.1600 
 11 C        0.1000    -2.4580     1.0170 C.3   1 <1>   0.1200 
 12 C       -0.5200    -2.5890    -0.3660 C.3   1 <1>  -0.1600 
 13 N        6.4600     0.6270    -0.5750 N.4   1 <1>  -0.9590 
 14 C        5.2980     1.3150     0.0680 C.3   1 <1>   0.3430 
 15 C        7.2060     1.5010    -1.5160 C.3   1 <1>   0.4860 
 16 C        7.6800     2.7600    -0.8010 C.ar  1 <1>  -0.1440 
 17 C        8.7360     2.7520     0.1220 C.ar  1 <1>  -0.0230 
 18 C        7.0270     3.9490    -1.0910 C.ar  1 <1>  -0.1500 
 19 N        9.4780     1.5770     0.4540 N.pl3 1 <1>   0.5930 
 20 C        9.0850     3.9500     0.7430 C.ar  1 <1>  -0.1500 
 21 C        7.3930     5.1270    -0.4680 C.ar  1 <1>  -0.1500 
 22 N        8.9030     0.3900     0.8010 N.2   1 <1>  -0.7070 
 23 C       10.8250     1.4600     0.5000 C.2   1 <1>  -0.3020 
 24 C        8.4210     5.1260     0.4530 C.ar  1 <1>  -0.1500 
 25 C        9.8920    -0.4090     1.0680 C.2   1 <1>   0.1390 
 26 C       11.1240     0.2060     0.8920 C.2   1 <1>  -0.1500 
 27 H        1.2190    -0.4460    -0.6470 H     1 <1>   0.0800 
 28 H        6.0330    -1.8360     0.6100 H     1 <1>   0.0800 
 29 H        5.4080    -2.6480    -0.7910 H     1 <1>   0.0800 
 30 H        2.9260    -0.0080     1.2820 H     1 <1>   0.0800 
 31 H        3.9540    -1.1300     2.1230 H     1 <1>   0.0800 
 32 H        0.3990    -2.0000    -2.2450 H     1 <1>   0.0800 
 33 H        1.1780    -3.3420    -1.4290 H     1 <1>   0.0800 
 34 H        5.5170    -0.5400    -2.0830 H     1 <1>   0.0800 
 35 H        7.0720    -1.1330    -1.5710 H     1 <1>   0.0800 
 36 H        5.8350     0.2810     1.8860 H     1 <1>   0.0800 
 37 H        4.5350     1.3990     2.0540 H     1 <1>   0.0800 
 38 H        0.3360    -3.4250     1.4280 H     1 <1>   0.0800 
 39 H       -0.5340    -1.9150     1.6980 H     1 <1>   0.0800 
 40 H       -1.0060    -3.5400    -0.5020 H     1 <1>   0.0800 
 41 H       -1.2380    -1.8010    -0.5130 H     1 <1>   0.0800 
 42 H        7.1480     0.4370     0.1820 H     1 <1>   0.4500 
 43 H        5.5580     2.3400     0.2720 H     1 <1>   0.0800 
 44 H        4.4430     1.3090    -0.5900 H     1 <1>   0.0800 
 45 H        8.0620     0.9720    -1.9030 H     1 <1>   0.0800 
 46 H        6.5720     1.7700    -2.3460 H     1 <1>   0.0800 
 47 H        6.2220     3.9790    -1.8080 H     1 <1>   0.1500 
 48 H        9.8850     3.9710     1.4650 H     1 <1>   0.1500 
 49 H        6.8810     6.0480    -0.6980 H     1 <1>   0.1500 
 50 H       11.4830     2.2740     0.2560 H     1 <1>   0.1500 
 51 H        8.7060     6.0430     0.9420 H     1 <1>   0.1500 
 52 H        9.7730    -1.4320     1.3900 H     1 <1>   0.1500 
 53 H       12.0890    -0.2470     1.0460 H     1 <1>   0.1500 
@<TRIPOS>BOND
  1   1   2  2   
  2   2   3  am  
  3   2   4  1   
  4   3   5  1   
  5   3   6  1   
  6   4   7  1   
  7   4   8  1   
  8   4  27  1   
  9   5   9  1   
 10   5  28  1   
 11   5  29  1   
 12   6  10  1   
 13   6  30  1   
 14   6  31  1   
 15   7  11  1   
 16   8  12  1   
 17   8  32  1   
 18   8  33  1   
 19   9  13  1   
 20   9  34  1   
 21   9  35  1   
 22  10  14  1   
 23  10  36  1   
 24  10  37  1   
 25  11  12  1   
 26  11  38  1   
 27  11  39  1   
 28  12  40  1   
 29  12  41  1   
 30  13  14  1   
 31  13  15  1   
 32  13  42  1   
 33  14  43  1   
 34  14  44  1   
 35  15  16  1   
 36  15  45  1   
 37  15  46  1   
 38  16  17  ar  
 39  16  18  ar  
 40  17  19  1   
 41  17  20  ar  
 42  18  21  ar  
 43  18  47  1   
 44  19  22  1   
 45  19  23  1   
 46  20  24  ar  
 47  20  48  1   
 48  21  24  ar  
 49  21  49  1   
 50  22  25  2   
 51  23  26  2   
 52  23  50  1   
 53  24  51  1   
 54  25  26  1   
 55  25  52  1   
 56  26  53  1   
@<TRIPOS>SUBSTRUCTURE
  1 ****  13 GROUP 4 **** **** 0

# MOE 2024.06 (io_trps.svl 2023.06)
