@<TRIPOS>MOLECULE
NONAME
40 41 1 0 0 
SMALL
USER_CHARGES


@<TRIPOS>ATOM
  1 O        0.1040    -0.0550     0.1660 O.2   1 <1>  -0.5700 
  2 C        1.1630    -0.6160     0.3770 C.2   1 <1>   0.7150 
  3 N        2.2860     0.1430     0.4670 N.am  1 <1>  -0.7300 
  4 C        1.2730    -2.0450     0.5290 C.2   1 <1>  -0.2370 
  5 C        2.3640     1.6030     0.2340 C.3   1 <1>   0.1400 
  6 N        0.2240    -2.9320     0.4300 N.pl3 1 <1>   0.0480 
  7 C        2.4030    -2.7830     0.7910 C.2   1 <1>  -0.1500 
  8 C        3.8100     2.0710    -0.0520 C.3   1 <1>   0.0000 
  9 C        0.7070    -4.1820     0.6270 C.2   1 <1>  -0.3020 
 10 C       -1.1950    -2.6280     0.1590 C.3   1 <1>   0.0160 
 11 C        2.0450    -4.1250     0.8520 C.2   1 <1>  -0.1500 
 12 C        4.7670     1.6600     1.0960 C.3   1 <1>  -0.1600 
 13 C        4.3770     1.3920    -1.3240 C.3   1 <1>  -0.1600 
 14 C        3.7610     3.6080    -0.2130 C.3   1 <1>   0.1200 
 15 C        5.6300     0.5220     0.5520 C.3   1 <1>  -0.1600 
 16 C        5.7390     0.8180    -0.9370 C.3   1 <1>  -0.1600 
 17 O        5.0200     4.1200    -0.5350 O.3   1 <1>  -0.5600 
 18 C        5.0460     5.4990    -0.7020 C.3   1 <1>   0.0400 
 19 H        3.1810    -0.3280     0.5800 H     1 <1>   0.3700 
 20 H        1.9850     2.1060     1.1070 H     1 <1>   0.0800 
 21 H        1.7280     1.8580    -0.5970 H     1 <1>   0.0800 
 22 H        3.4050    -2.4220     0.9310 H     1 <1>   0.1500 
 23 H        0.0810    -5.0560     0.6000 H     1 <1>   0.1500 
 24 H       -1.2760    -2.1290    -0.7900 H     1 <1>   0.0800 
 25 H       -1.5730    -1.9840     0.9320 H     1 <1>   0.0800 
 26 H       -1.7660    -3.5370     0.1370 H     1 <1>   0.0800 
 27 H        2.7150    -4.9460     1.0420 H     1 <1>   0.1500 
 28 H        4.2470     1.3690     1.9920 H     1 <1>   0.0800 
 29 H        5.4180     2.4790     1.3460 H     1 <1>   0.0800 
 30 H        4.4800     2.0840    -2.1430 H     1 <1>   0.0800 
 31 H        3.7410     0.5900    -1.6540 H     1 <1>   0.0800 
 32 H        3.4360     4.0660     0.7050 H     1 <1>   0.0800 
 33 H        3.0810     3.8740    -1.0050 H     1 <1>   0.0800 
 34 H        5.1380    -0.4220     0.7000 H     1 <1>   0.0800 
 35 H        6.5970     0.4930     1.0250 H     1 <1>   0.0800 
 36 H        6.4930     1.5720    -1.0920 H     1 <1>   0.0800 
 37 H        5.9900    -0.0570    -1.5110 H     1 <1>   0.0800 
 38 H        6.0540     5.7860    -0.9450 H     1 <1>   0.0800 
 39 H        4.7440     5.9750     0.2150 H     1 <1>   0.0800 
 40 H        4.3880     5.7720    -1.5080 H     1 <1>   0.0800 
@<TRIPOS>BOND
  1   1   2  2   
  2   2   3  am  
  3   2   4  1   
  4   3   5  1   
  5   3  19  1   
  6   4   6  1   
  7   4   7  2   
  8   5   8  1   
  9   5  20  1   
 10   5  21  1   
 11   6   9  1   
 12   6  10  1   
 13   7  11  1   
 14   7  22  1   
 15   8  12  1   
 16   8  13  1   
 17   8  14  1   
 18   9  11  2   
 19   9  23  1   
 20  10  24  1   
 21  10  25  1   
 22  10  26  1   
 23  11  27  1   
 24  12  15  1   
 25  12  28  1   
 26  12  29  1   
 27  13  16  1   
 28  13  30  1   
 29  13  31  1   
 30  14  17  1   
 31  14  32  1   
 32  14  33  1   
 33  15  16  1   
 34  15  34  1   
 35  15  35  1   
 36  16  36  1   
 37  16  37  1   
 38  17  18  1   
 39  18  38  1   
 40  18  39  1   
 41  18  40  1   
@<TRIPOS>SUBSTRUCTURE
  1 ****   3 GROUP 4 **** **** 0

# MOE 2024.06 (io_trps.svl 2023.06)
