@<TRIPOS>MOLECULE
NONAME
56 58 1 0 0 
SMALL
USER_CHARGES


@<TRIPOS>ATOM
  1 O       -0.2190    -0.9840    -1.7970 O.2   1 <1>  -0.5700 
  2 C        0.6060    -1.7230    -1.3300 C.2   1 <1>   0.5690 
  3 N        0.3300    -3.0160    -1.0600 N.am  1 <1>  -0.7300 
  4 C        1.9990    -1.2280    -1.0090 C.3   1 <1>  -0.0990 
  5 C        1.3100    -3.9570    -0.4850 C.3   1 <1>   0.1400 
  6 C        3.0590    -2.2590    -1.4470 C.3   1 <1>  -0.0800 
  7 C        2.6850    -3.7350    -1.1500 C.3   1 <1>  -0.0800 
  8 C        4.4310    -2.0250    -0.8020 C.3   1 <1>  -0.1600 
  9 C        3.8540    -4.3110    -0.3350 C.3   1 <1>  -0.1600 
 10 C        5.0380    -3.4180    -0.7000 C.3   1 <1>   0.4230 
 11 N        6.1950    -3.5130     0.2390 N.4   1 <1>  -0.9590 
 12 C        5.9690    -3.1170     1.6720 C.3   1 <1>   0.3430 
 13 C        6.8550    -4.8510     0.1540 C.3   1 <1>   0.2630 
 14 C        6.4490    -1.6780     1.9300 C.3   1 <1>   0.1200 
 15 O        7.5080    -1.3770     1.0370 O.3   1 <1>  -0.3630 
 16 C        7.9560    -0.1030     0.8930 C.ar  1 <1>   0.0820 
 17 C        7.5390     0.9590     1.6930 C.ar  1 <1>  -0.1500 
 18 C        8.8730     0.1240    -0.1210 C.ar  1 <1>  -0.1500 
 19 C        8.0330     2.2300     1.4590 C.ar  1 <1>  -0.1500 
 20 C        9.3660     1.3960    -0.3520 C.ar  1 <1>  -0.1500 
 21 C        8.9420     2.4600     0.4400 C.ar  1 <1>   0.0820 
 22 O        9.3680     3.7390     0.2820 O.3   1 <1>  -0.3630 
 23 C       10.3090     4.0770    -0.7110 C.3   1 <1>   0.1200 
 24 C       10.5840     5.5780    -0.6180 C.3   1 <1>  -0.1600 
 25 C       11.6030     6.0260    -1.6710 C.3   1 <1>  -0.2400 
 26 H       -0.6240    -3.3390    -1.2420 H     1 <1>   0.3700 
 27 H        2.1660    -0.2890    -1.5060 H     1 <1>   0.0800 
 28 H        2.0400    -1.0590     0.0500 H     1 <1>   0.0800 
 29 H        1.3660    -3.7790     0.5750 H     1 <1>   0.0800 
 30 H        0.9790    -4.9690    -0.6450 H     1 <1>   0.0800 
 31 H        3.1660    -2.1710    -2.5170 H     1 <1>   0.0800 
 32 H        2.6580    -4.2500    -2.0970 H     1 <1>   0.0800 
 33 H        4.2820    -1.6010     0.1710 H     1 <1>   0.0800 
 34 H        5.0370    -1.3650    -1.3980 H     1 <1>   0.0800 
 35 H        4.0320    -5.3390    -0.5970 H     1 <1>   0.0800 
 36 H        3.6310    -4.2360     0.7130 H     1 <1>   0.0800 
 37 H        5.3680    -3.6980    -1.6890 H     1 <1>   0.0800 
 38 H        6.8880    -2.8130    -0.0880 H     1 <1>   0.4500 
 39 H        4.9330    -3.2140     1.9460 H     1 <1>   0.0800 
 40 H        6.5360    -3.7690     2.3160 H     1 <1>   0.0800 
 41 H        6.1960    -5.6190     0.5250 H     1 <1>   0.0800 
 42 H        7.7600    -4.8580     0.7400 H     1 <1>   0.0800 
 43 H        7.1100    -5.0780    -0.8690 H     1 <1>   0.0800 
 44 H        6.8050    -1.5680     2.9400 H     1 <1>   0.0800 
 45 H        5.6490    -0.9800     1.7600 H     1 <1>   0.0800 
 46 H        6.8430     0.8280     2.4980 H     1 <1>   0.1500 
 47 H        9.2070    -0.6940    -0.7320 H     1 <1>   0.1500 
 48 H        7.7190     3.0590     2.0680 H     1 <1>   0.1500 
 49 H       10.0750     1.5400    -1.1460 H     1 <1>   0.1500 
 50 H       11.2090     3.5140    -0.5320 H     1 <1>   0.0800 
 51 H        9.8940     3.8260    -1.6720 H     1 <1>   0.0800 
 52 H        9.6630     6.1150    -0.7640 H     1 <1>   0.0800 
 53 H       10.9630     5.8070     0.3630 H     1 <1>   0.0800 
 54 H       11.2370     5.8220    -2.6620 H     1 <1>   0.0800 
 55 H       12.5390     5.5130    -1.5330 H     1 <1>   0.0800 
 56 H       11.7790     7.0840    -1.5840 H     1 <1>   0.0800 
@<TRIPOS>BOND
  1   1   2  2   
  2   2   3  am  
  3   2   4  1   
  4   3   5  1   
  5   3  26  1   
  6   4   6  1   
  7   4  27  1   
  8   4  28  1   
  9   5   7  1   
 10   5  29  1   
 11   5  30  1   
 12   6   7  1   
 13   6   8  1   
 14   6  31  1   
 15   7   9  1   
 16   7  32  1   
 17   8  10  1   
 18   8  33  1   
 19   8  34  1   
 20   9  10  1   
 21   9  35  1   
 22   9  36  1   
 23  10  11  1   
 24  10  37  1   
 25  11  12  1   
 26  11  13  1   
 27  11  38  1   
 28  12  14  1   
 29  12  39  1   
 30  12  40  1   
 31  13  41  1   
 32  13  42  1   
 33  13  43  1   
 34  14  15  1   
 35  14  44  1   
 36  14  45  1   
 37  15  16  1   
 38  16  17  ar  
 39  16  18  ar  
 40  17  19  ar  
 41  17  46  1   
 42  18  20  ar  
 43  18  47  1   
 44  19  21  ar  
 45  19  48  1   
 46  20  21  ar  
 47  20  49  1   
 48  21  22  1   
 49  22  23  1   
 50  23  24  1   
 51  23  50  1   
 52  23  51  1   
 53  24  25  1   
 54  24  52  1   
 55  24  53  1   
 56  25  54  1   
 57  25  55  1   
 58  25  56  1   
@<TRIPOS>SUBSTRUCTURE
  1 ****  15 GROUP 4 **** **** 0

# MOE 2024.06 (io_trps.svl 2023.06)
