@<TRIPOS>MOLECULE
NONAME
53 57 1 0 0 
SMALL
USER_CHARGES


@<TRIPOS>ATOM
  1 CL      -2.9780     1.1760    -2.7540 Cl    1 <1>  -0.1230 
  2 C       -4.0440     0.2800    -1.6960 C.2   1 <1>   0.4120 
  3 N       -4.7230     0.8130    -0.7470 N.2   1 <1>  -0.4100 
  4 C       -4.2490    -1.0890    -1.7960 C.2   1 <1>  -0.1500 
  5 O       -5.3760    -0.1800    -0.2070 O.3   1 <1>  -0.0190 
  6 C       -5.1240    -1.3210    -0.8040 C.2   1 <1>  -0.0400 
  7 C       -5.7950    -2.5940    -0.3240 C.3   1 <1>   0.0200 
  8 C       -7.3230    -2.4760    -0.4260 C.3   1 <1>  -0.0990 
  9 C       -8.0660    -3.7130     0.0560 C.2   1 <1>   0.5690 
 10 O       -7.4200    -4.7000     0.3220 O.2   1 <1>  -0.5700 
 11 N       -9.4310    -3.6990     0.1780 N.am  1 <1>  -0.6600 
 12 C      -10.3220    -2.5440    -0.1560 C.3   1 <1>   0.1400 
 13 C      -10.1440    -4.9200     0.6690 C.3   1 <1>   0.1400 
 14 C      -11.1350    -2.0900     1.0790 C.3   1 <1>   0.1430 
 15 C      -11.5760    -4.6130     1.1430 C.3   1 <1>  -0.1600 
 16 C      -12.2760    -1.2250     0.5680 C.ar  1 <1>   0.1670 
 17 C      -11.6260    -3.2930     1.9290 C.3   1 <1>  -0.1600 
 18 C      -10.3360    -1.0830     1.9480 C.3   1 <1>  -0.1600 
 19 N      -13.3600    -1.6660    -0.0220 N.ar  1 <1>  -0.6200 
 20 C      -12.0340     0.0980     0.7760 C.ar  1 <1>  -0.1440 
 21 C      -10.7080     0.3270     1.4580 C.3   1 <1>  -0.0170 
 22 C      -14.2430    -0.7320    -0.4020 C.ar  1 <1>   0.6200 
 23 C      -12.9800     0.9940     0.3540 C.ar  1 <1>   0.1600 
 24 N      -14.0840     0.5900    -0.2330 N.ar  1 <1>  -0.6200 
 25 C      -15.4660    -1.1880    -1.0500 C.ar  1 <1>   0.0000 
 26 C      -15.5170    -2.3920    -1.7600 C.ar  1 <1>  -0.1500 
 27 C      -16.6490    -0.4440    -0.9910 C.ar  1 <1>  -0.1500 
 28 C      -16.6770    -2.8280    -2.3750 C.ar  1 <1>  -0.1500 
 29 C      -17.8120    -0.8730    -1.6040 C.ar  1 <1>  -0.1500 
 30 C      -17.8290    -2.0680    -2.2980 C.ar  1 <1>  -0.1500 
 31 H       -3.7960    -1.7510    -2.5090 H     1 <1>   0.1500 
 32 H       -5.5130    -2.7780     0.6990 H     1 <1>   0.0800 
 33 H       -5.4540    -3.4240    -0.9170 H     1 <1>   0.0800 
 34 H       -7.5940    -2.2950    -1.4500 H     1 <1>   0.0800 
 35 H       -7.6370    -1.6360     0.1640 H     1 <1>   0.0800 
 36 H      -11.0050    -2.8660    -0.9240 H     1 <1>   0.0800 
 37 H       -9.7720    -1.7130    -0.5580 H     1 <1>   0.0800 
 38 H       -9.5860    -5.3340     1.4920 H     1 <1>   0.0800 
 39 H      -10.1670    -5.6570    -0.1160 H     1 <1>   0.0800 
 40 H      -11.9240    -5.4220     1.7600 H     1 <1>   0.0800 
 41 H      -12.2330    -4.5540     0.2920 H     1 <1>   0.0800 
 42 H      -12.6270    -3.1130     2.2820 H     1 <1>   0.0800 
 43 H      -10.9940    -3.4110     2.7910 H     1 <1>   0.0800 
 44 H       -9.2760    -1.2610     1.9140 H     1 <1>   0.0800 
 45 H      -10.6570    -1.1630     2.9720 H     1 <1>   0.0800 
 46 H       -9.9880     0.6870     0.7430 H     1 <1>   0.0800 
 47 H      -10.7930     1.0210     2.2760 H     1 <1>   0.0800 
 48 H      -12.8340     2.0510     0.4960 H     1 <1>   0.1500 
 49 H      -14.6310    -2.9980    -1.8320 H     1 <1>   0.1500 
 50 H      -16.6560     0.4890    -0.4550 H     1 <1>   0.1500 
 51 H      -16.6830    -3.7590    -2.9130 H     1 <1>   0.1500 
 52 H      -18.7050    -0.2760    -1.5400 H     1 <1>   0.1500 
 53 H      -18.7330    -2.4050    -2.7750 H     1 <1>   0.1500 
@<TRIPOS>BOND
  1   1   2  1   
  2   2   3  2   
  3   2   4  1   
  4   3   5  1   
  5   4   6  2   
  6   4  31  1   
  7   5   6  1   
  8   6   7  1   
  9   7   8  1   
 10   7  32  1   
 11   7  33  1   
 12   8   9  1   
 13   8  34  1   
 14   8  35  1   
 15   9  10  2   
 16   9  11  am  
 17  11  12  1   
 18  11  13  1   
 19  12  14  1   
 20  12  36  1   
 21  12  37  1   
 22  13  15  1   
 23  13  38  1   
 24  13  39  1   
 25  14  16  1   
 26  14  17  1   
 27  14  18  1   
 28  15  17  1   
 29  15  40  1   
 30  15  41  1   
 31  16  19  ar  
 32  16  20  ar  
 33  17  42  1   
 34  17  43  1   
 35  18  21  1   
 36  18  44  1   
 37  18  45  1   
 38  19  22  ar  
 39  20  21  1   
 40  20  23  ar  
 41  21  46  1   
 42  21  47  1   
 43  22  24  ar  
 44  22  25  1   
 45  23  24  ar  
 46  23  48  1   
 47  25  26  ar  
 48  25  27  ar  
 49  26  28  ar  
 50  26  49  1   
 51  27  29  ar  
 52  27  50  1   
 53  28  30  ar  
 54  28  51  1   
 55  29  30  ar  
 56  29  52  1   
 57  30  53  1   
@<TRIPOS>SUBSTRUCTURE
  1 ****  12 GROUP 4 **** **** 0

# MOE 2024.06 (io_trps.svl 2023.06)
