@<TRIPOS>MOLECULE
NONAME
44 47 1 0 0 
SMALL
USER_CHARGES


@<TRIPOS>ATOM
  1 O       -2.7410    -0.4250    -2.9590 O.2   1 <1>  -0.5700 
  2 C       -2.6480    -0.8620    -1.8460 C.2   1 <1>   0.5690 
  3 N       -2.3730    -0.0430    -0.8160 N.am  1 <1>  -0.7300 
  4 C       -2.8810    -2.3270    -1.5980 C.3   1 <1>  -0.0190 
  5 C       -2.2370    -0.4520     0.6010 C.3   1 <1>   0.2200 
  6 C       -1.6280    -3.0140    -1.0100 C.3   1 <1>   0.1200 
  7 C       -4.1890    -2.4840    -0.8100 C.3   1 <1>   0.3430 
  8 C       -1.0900    -1.4820     0.7570 C.3   1 <1>   0.1200 
  9 C       -3.6020    -0.9490     1.1580 C.3   1 <1>   0.3430 
 10 O       -1.4600    -2.7810     0.3640 O.3   1 <1>  -0.5600 
 11 N       -4.0330    -2.3100     0.6760 N.4   1 <1>  -0.9590 
 12 C       -5.1870    -2.8550     1.4400 C.3   1 <1>   0.4860 
 13 C       -5.3410    -4.3210     1.0900 C.ar  1 <1>  -0.1440 
 14 C       -6.4430    -4.7550     0.3830 C.ar  1 <1>  -0.1500 
 15 C       -4.3420    -5.2330     1.4670 C.ar  1 <1>  -0.1500 
 16 C       -6.5430    -6.1040     0.0330 C.ar  1 <1>  -0.1520 
 17 C       -4.4390    -6.5600     1.1240 C.ar  1 <1>  -0.1500 
 18 N       -7.5130    -6.7910    -0.6610 N.pl3 1 <1>   0.0480 
 19 C       -5.5450    -7.0030     0.3950 C.ar  1 <1>   0.0000 
 20 C       -7.1230    -8.0980    -0.7360 C.2   1 <1>  -0.3020 
 21 C       -8.7650    -6.2380    -1.2020 C.3   1 <1>   0.0160 
 22 C       -5.9370    -8.2600    -0.1060 C.2   1 <1>  -0.1500 
 23 H       -2.1730     0.9340    -1.0600 H     1 <1>   0.3700 
 24 H       -3.0480    -2.7640    -2.5660 H     1 <1>   0.0800 
 25 H       -1.9590     0.4290     1.1540 H     1 <1>   0.0800 
 26 H       -0.7370    -2.6970    -1.5280 H     1 <1>   0.0800 
 27 H       -1.7190    -4.0810    -1.1330 H     1 <1>   0.0800 
 28 H       -4.5590    -3.4770    -1.0070 H     1 <1>   0.0800 
 29 H       -4.9190    -1.7860    -1.1880 H     1 <1>   0.0800 
 30 H       -0.8100    -1.5450     1.7940 H     1 <1>   0.0800 
 31 H       -0.2200    -1.1790     0.1990 H     1 <1>   0.0800 
 32 H       -4.3580    -0.2200     0.9150 H     1 <1>   0.0800 
 33 H       -3.5180    -0.9820     2.2320 H     1 <1>   0.0800 
 34 H       -3.2240    -2.9280     0.8890 H     1 <1>   0.4500 
 35 H       -5.0130    -2.7620     2.5000 H     1 <1>   0.0800 
 36 H       -6.0870    -2.3190     1.1890 H     1 <1>   0.0800 
 37 H       -7.2310    -4.0850     0.0880 H     1 <1>   0.1500 
 38 H       -3.4860    -4.9030     2.0310 H     1 <1>   0.1500 
 39 H       -3.6840    -7.2730     1.4040 H     1 <1>   0.1500 
 40 H       -7.7180    -8.8430    -1.2350 H     1 <1>   0.1500 
 41 H       -9.3490    -7.0280    -1.6380 H     1 <1>   0.0800 
 42 H       -8.5350    -5.5060    -1.9540 H     1 <1>   0.0800 
 43 H       -9.3240    -5.7810    -0.4060 H     1 <1>   0.0800 
 44 H       -5.3660    -9.1650     0.0130 H     1 <1>   0.1500 
@<TRIPOS>BOND
  1   1   2  2   
  2   2   3  am  
  3   2   4  1   
  4   3   5  1   
  5   3  23  1   
  6   4   6  1   
  7   4   7  1   
  8   4  24  1   
  9   5   8  1   
 10   5   9  1   
 11   5  25  1   
 12   6  10  1   
 13   6  26  1   
 14   6  27  1   
 15   7  11  1   
 16   7  28  1   
 17   7  29  1   
 18   8  10  1   
 19   8  30  1   
 20   8  31  1   
 21   9  11  1   
 22   9  32  1   
 23   9  33  1   
 24  11  12  1   
 25  11  34  1   
 26  12  13  1   
 27  12  35  1   
 28  12  36  1   
 29  13  14  ar  
 30  13  15  ar  
 31  14  16  ar  
 32  14  37  1   
 33  15  17  ar  
 34  15  38  1   
 35  16  18  1   
 36  16  19  ar  
 37  17  19  ar  
 38  17  39  1   
 39  18  20  1   
 40  18  21  1   
 41  19  22  1   
 42  20  22  2   
 43  20  40  1   
 44  21  41  1   
 45  21  42  1   
 46  21  43  1   
 47  22  44  1   
@<TRIPOS>SUBSTRUCTURE
  1 ****   7 GROUP 4 **** **** 0

# MOE 2024.06 (io_trps.svl 2023.06)
