@<TRIPOS>MOLECULE
NONAME
40 41 1 0 0 
SMALL
USER_CHARGES


@<TRIPOS>ATOM
  1 N       -0.3700     3.2620    -0.0530 N.ar  1 <1>  -0.6200 
  2 C        0.2530     2.1480     0.3240 C.ar  1 <1>   0.4100 
  3 C       -1.6110     3.3310     0.4110 C.ar  1 <1>   0.1600 
  4 N        1.5560     1.9640    -0.1500 N.pl3 1 <1>  -0.8380 
  5 C       -0.3600     1.2000     1.1660 C.ar  1 <1>   0.1600 
  6 C       -2.2010     2.3750     1.2260 C.ar  1 <1>   0.1600 
  7 C        2.3200     3.1050    -0.7350 C.3   1 <1>   0.2090 
  8 C        1.9300     0.6290    -0.7100 C.3   1 <1>   0.1290 
  9 N       -1.5880     1.2790     1.6390 N.ar  1 <1>  -0.6200 
 10 C        2.5210     4.2170     0.3150 C.3   1 <1>   0.3430 
 11 N        2.4970     5.6110    -0.2580 N.4   1 <1>  -0.9590 
 12 C        2.9880     6.6420     0.7030 C.3   1 <1>   0.4230 
 13 C        1.1000     5.9150    -0.7070 C.3   1 <1>   0.3430 
 14 C        2.9560     8.0240     0.0350 C.3   1 <1>  -0.1600 
 15 C        4.4190     6.3270     1.1430 C.3   1 <1>  -0.2400 
 16 C        1.0450     7.2730    -1.4050 C.3   1 <1>  -0.1600 
 17 C        1.5640     8.3860    -0.4930 C.3   1 <1>  -0.1600 
 18 H       -2.1970     4.1880     0.1330 H     1 <1>   0.1500 
 19 H        0.2180     0.3430     1.4540 H     1 <1>   0.1500 
 20 H       -3.2170     2.5200     1.5520 H     1 <1>   0.1500 
 21 H        1.7820     3.4660    -1.5930 H     1 <1>   0.0800 
 22 H        3.2860     2.7610    -1.0640 H     1 <1>   0.0800 
 23 H        1.1100    -0.0660    -0.6400 H     1 <1>   0.0800 
 24 H        2.7700     0.2280    -0.1670 H     1 <1>   0.0800 
 25 H        2.1960     0.7200    -1.7490 H     1 <1>   0.0800 
 26 H        3.4580     4.0290     0.8080 H     1 <1>   0.0800 
 27 H        1.7400     4.1320     1.0520 H     1 <1>   0.0800 
 28 H        3.1100     5.6550    -1.0790 H     1 <1>   0.4500 
 29 H        2.3450     6.6600     1.5690 H     1 <1>   0.0800 
 30 H        0.4400     5.9210     0.1460 H     1 <1>   0.0800 
 31 H        0.7480     5.1550    -1.3850 H     1 <1>   0.0800 
 32 H        3.6660     8.0530    -0.7740 H     1 <1>   0.0800 
 33 H        3.2580     8.7700     0.7500 H     1 <1>   0.0800 
 34 H        5.0650     6.1830     0.2950 H     1 <1>   0.0800 
 35 H        4.4550     5.4640     1.7810 H     1 <1>   0.0800 
 36 H        4.8070     7.1500     1.7190 H     1 <1>   0.0800 
 37 H        0.0260     7.4840    -1.6810 H     1 <1>   0.0800 
 38 H        1.6230     7.2350    -2.3120 H     1 <1>   0.0800 
 39 H        1.6060     9.3160    -1.0350 H     1 <1>   0.0800 
 40 H        0.8870     8.5200     0.3360 H     1 <1>   0.0800 
@<TRIPOS>BOND
  1   1   2  ar  
  2   1   3  ar  
  3   2   4  1   
  4   2   5  ar  
  5   3   6  ar  
  6   3  18  1   
  7   4   7  1   
  8   4   8  1   
  9   5   9  ar  
 10   5  19  1   
 11   6   9  ar  
 12   6  20  1   
 13   7  10  1   
 14   7  21  1   
 15   7  22  1   
 16   8  23  1   
 17   8  24  1   
 18   8  25  1   
 19  10  11  1   
 20  10  26  1   
 21  10  27  1   
 22  11  12  1   
 23  11  13  1   
 24  11  28  1   
 25  12  14  1   
 26  12  15  1   
 27  12  29  1   
 28  13  16  1   
 29  13  30  1   
 30  13  31  1   
 31  14  17  1   
 32  14  32  1   
 33  14  33  1   
 34  15  34  1   
 35  15  35  1   
 36  15  36  1   
 37  16  17  1   
 38  16  37  1   
 39  16  38  1   
 40  17  39  1   
 41  17  40  1   
@<TRIPOS>SUBSTRUCTURE
  1 ****  10 GROUP 4 **** **** 0

# MOE 2024.06 (io_trps.svl 2023.06)
