@<TRIPOS>MOLECULE
NONAME
55 58 1 0 0 
SMALL
USER_CHARGES


@<TRIPOS>ATOM
  1 O       -0.2730    -0.1750    -0.5740 O.2   1 <1>  -0.5700 
  2 C        0.6870    -0.8250    -0.1930 C.2   1 <1>   0.7150 
  3 N        1.8180    -0.1950     0.2450 N.am  1 <1>  -0.4930 
  4 C        0.6730    -2.2730    -0.2100 C.2   1 <1>   0.0550 
  5 C        2.2050     1.1670     0.2020 C.2   1 <1>   0.0630 
  6 O        1.7650    -2.9400     0.1640 O.3   1 <1>  -0.2800 
  7 C       -0.2830    -3.1870    -0.5560 C.2   1 <1>  -0.1810 
  8 C        3.5040     1.5750    -0.1220 C.2   1 <1>   0.3720 
  9 C        1.5300     2.3140     0.4410 C.2   1 <1>  -0.3320 
 10 C        1.5400    -4.2310     0.0700 C.2   1 <1>  -0.0400 
 11 C        0.2840    -4.4490    -0.3730 C.2   1 <1>  -0.1500 
 12 C       -1.7050    -2.9860    -1.0520 C.3   1 <1>  -0.0590 
 13 N        3.6360     2.8640    -0.1210 N.2   1 <1>  -0.7070 
 14 N        4.5560     0.6870    -0.4250 N.pl3 1 <1>  -0.8210 
 15 N        2.4110     3.3220     0.2210 N.pl3 1 <1>   0.3140 
 16 C        0.0880     2.5240     0.8810 C.3   1 <1>  -0.0600 
 17 C        2.6490    -5.1980     0.4450 C.3   1 <1>   0.3000 
 18 C        5.7460     0.8890     0.4480 C.3   1 <1>   0.2090 
 19 C        4.9920     0.8310    -1.8410 C.3   1 <1>   0.2090 
 20 C        2.1520     4.7630     0.3220 C.3   1 <1>   0.0160 
 21 O        2.2040    -6.5260     0.2630 O.3   1 <1>  -0.3630 
 22 C        6.9580     0.8010    -0.4670 C.3   1 <1>  -0.1600 
 23 C        6.4380     1.3070    -1.8020 C.3   1 <1>  -0.1600 
 24 C        3.0130    -7.5810     0.5300 C.ar  1 <1>   0.0820 
 25 C        4.3190    -7.4610     1.0030 C.ar  1 <1>  -0.1500 
 26 C        2.4820    -8.8420     0.3100 C.ar  1 <1>  -0.1500 
 27 C        5.0720    -8.5960     1.2480 C.ar  1 <1>  -0.1500 
 28 C        3.2370    -9.9750     0.5560 C.ar  1 <1>  -0.1500 
 29 C        4.5340    -9.8520     1.0250 C.ar  1 <1>  -0.1500 
 30 H        2.6260    -0.8150     0.3200 H     1 <1>   0.3700 
 31 H       -0.1990    -5.3940    -0.5530 H     1 <1>   0.1500 
 32 H       -1.9640    -1.9440    -1.0870 H     1 <1>   0.0800 
 33 H       -2.3940    -3.4850    -0.3950 H     1 <1>   0.0800 
 34 H       -1.8060    -3.3960    -2.0400 H     1 <1>   0.0800 
 35 H       -0.3270     1.6050     1.2510 H     1 <1>   0.0800 
 36 H       -0.5050     2.8560     0.0480 H     1 <1>   0.0800 
 37 H        0.0350     3.2520     1.6700 H     1 <1>   0.0800 
 38 H        2.9140    -5.0670     1.4790 H     1 <1>   0.0800 
 39 H        3.5050    -5.0360    -0.1840 H     1 <1>   0.0800 
 40 H        5.7800     0.1330     1.2120 H     1 <1>   0.0800 
 41 H        5.7130     1.8590     0.9160 H     1 <1>   0.0800 
 42 H        4.3720     1.5260    -2.3820 H     1 <1>   0.0800 
 43 H        4.9320    -0.1330    -2.3160 H     1 <1>   0.0800 
 44 H        1.2800     5.0060    -0.2540 H     1 <1>   0.0800 
 45 H        2.9990     5.3010    -0.0610 H     1 <1>   0.0800 
 46 H        1.9980     5.0200     1.3530 H     1 <1>   0.0800 
 47 H        7.2600    -0.2280    -0.5530 H     1 <1>   0.0800 
 48 H        7.7800     1.3860    -0.0970 H     1 <1>   0.0800 
 49 H        6.4440     2.3830    -1.8120 H     1 <1>   0.0800 
 50 H        7.0060     0.9400    -2.6370 H     1 <1>   0.0800 
 51 H        4.7660    -6.5030     1.1860 H     1 <1>   0.1500 
 52 H        1.4750    -8.9300    -0.0550 H     1 <1>   0.1500 
 53 H        6.0810    -8.5050     1.6130 H     1 <1>   0.1500 
 54 H        2.8170   -10.9500     0.3820 H     1 <1>   0.1500 
 55 H        5.1220   -10.7320     1.2160 H     1 <1>   0.1500 
@<TRIPOS>BOND
  1   1   2  2   
  2   2   3  am  
  3   2   4  1   
  4   3   5  1   
  5   3  30  1   
  6   4   6  1   
  7   4   7  2   
  8   5   8  1   
  9   5   9  2   
 10   6  10  1   
 11   7  11  1   
 12   7  12  1   
 13   8  13  2   
 14   8  14  1   
 15   9  15  1   
 16   9  16  1   
 17  10  11  2   
 18  10  17  1   
 19  11  31  1   
 20  12  32  1   
 21  12  33  1   
 22  12  34  1   
 23  13  15  1   
 24  14  18  1   
 25  14  19  1   
 26  15  20  1   
 27  16  35  1   
 28  16  36  1   
 29  16  37  1   
 30  17  21  1   
 31  17  38  1   
 32  17  39  1   
 33  18  22  1   
 34  18  40  1   
 35  18  41  1   
 36  19  23  1   
 37  19  42  1   
 38  19  43  1   
 39  20  44  1   
 40  20  45  1   
 41  20  46  1   
 42  21  24  1   
 43  22  23  1   
 44  22  47  1   
 45  22  48  1   
 46  23  49  1   
 47  23  50  1   
 48  24  25  ar  
 49  24  26  ar  
 50  25  27  ar  
 51  25  51  1   
 52  26  28  ar  
 53  26  52  1   
 54  27  29  ar  
 55  27  53  1   
 56  28  29  ar  
 57  28  54  1   
 58  29  55  1   
@<TRIPOS>SUBSTRUCTURE
  1 ****   6 GROUP 4 **** **** 0

# MOE 2024.06 (io_trps.svl 2023.06)
