@<TRIPOS>MOLECULE
NONAME
47 49 1 0 0 
SMALL
USER_CHARGES


@<TRIPOS>ATOM
  1 O        0.9520     0.4380     0.6050 O.2   1 <1>  -0.5700 
  2 C        1.6460    -0.4070     0.0570 C.2   1 <1>   0.6300 
  3 N        2.4880     0.0340    -0.9620 N.am  1 <1>  -0.6600 
  4 C        1.5740    -1.8150     0.4870 C.2   1 <1>   0.6550 
  5 C        2.6550     1.4900    -1.2540 C.3   1 <1>   0.1400 
  6 C        3.2840    -0.8920    -1.8190 C.3   1 <1>   0.0600 
  7 O        2.5990    -2.4700     0.6160 O.2   1 <1>  -0.5700 
  8 C        0.2950    -2.4470     0.7370 C.2   1 <1>  -0.2370 
  9 C        3.6410     2.1410    -0.2730 C.3   1 <1>  -0.0800 
 10 N        0.1120    -3.7150     1.2500 N.pl3 1 <1>   0.0480 
 11 C       -0.9570    -1.9250     0.5060 C.2   1 <1>  -0.1500 
 12 C        3.8100     3.6380    -0.5390 C.3   1 <1>   0.2090 
 13 C        5.0620     1.5820    -0.3430 C.3   1 <1>  -0.1600 
 14 C       -1.2180    -3.9540     1.3240 C.2   1 <1>  -0.3020 
 15 C        1.1380    -4.6870     1.6810 C.3   1 <1>   0.0160 
 16 C       -1.9040    -2.8720     0.8740 C.2   1 <1>  -0.1500 
 17 N        5.2390     3.9470    -0.2750 N.pl3 1 <1>  -0.8380 
 18 C        5.9330     2.7160     0.1700 C.3   1 <1>   0.2090 
 19 C        5.5960     5.2190     0.1980 C.ar  1 <1>   0.1000 
 20 C        4.9750     6.3520    -0.3240 C.ar  1 <1>  -0.1500 
 21 C        6.5730     5.4130     1.1740 C.ar  1 <1>  -0.1500 
 22 C        5.2970     7.6220     0.1200 C.ar  1 <1>  -0.1500 
 23 C        6.9020     6.6800     1.6210 C.ar  1 <1>  -0.1500 
 24 C        6.2620     7.7890     1.0970 C.ar  1 <1>  -0.1500 
 25 H        1.6980     1.9790    -1.1720 H     1 <1>   0.0800 
 26 H        3.0010     1.6240    -2.2640 H     1 <1>   0.0800 
 27 H        2.7920    -1.8450    -1.9090 H     1 <1>   0.0800 
 28 H        4.2570    -1.0440    -1.3840 H     1 <1>   0.0800 
 29 H        3.4010    -0.4820    -2.8070 H     1 <1>   0.0800 
 30 H        3.2640     2.0340     0.7290 H     1 <1>   0.0800 
 31 H       -1.1990    -0.9510     0.1130 H     1 <1>   0.1500 
 32 H        3.1680     4.2170     0.1040 H     1 <1>   0.0800 
 33 H        3.5940     3.8720    -1.5670 H     1 <1>   0.0800 
 34 H        5.3370     1.3740    -1.3610 H     1 <1>   0.0800 
 35 H        5.1790     0.6910     0.2490 H     1 <1>   0.0800 
 36 H       -1.6230    -4.8790     1.6940 H     1 <1>   0.1500 
 37 H        1.7630    -4.2350     2.4290 H     1 <1>   0.0800 
 38 H        1.7370    -4.9690     0.8350 H     1 <1>   0.0800 
 39 H        0.6640    -5.5590     2.0900 H     1 <1>   0.0800 
 40 H       -2.9720    -2.7490     0.8080 H     1 <1>   0.1500 
 41 H        6.9290     2.6700    -0.2350 H     1 <1>   0.0800 
 42 H        5.9680     2.6890     1.2460 H     1 <1>   0.0800 
 43 H        4.2370     6.2390    -1.0930 H     1 <1>   0.1500 
 44 H        7.0890     4.5730     1.5950 H     1 <1>   0.1500 
 45 H        4.8000     8.4790    -0.2980 H     1 <1>   0.1500 
 46 H        7.6560     6.8040     2.3780 H     1 <1>   0.1500 
 47 H        6.5150     8.7750     1.4450 H     1 <1>   0.1500 
@<TRIPOS>BOND
  1   1   2  2   
  2   2   3  am  
  3   2   4  1   
  4   3   5  1   
  5   3   6  1   
  6   4   7  2   
  7   4   8  1   
  8   5   9  1   
  9   5  25  1   
 10   5  26  1   
 11   6  27  1   
 12   6  28  1   
 13   6  29  1   
 14   8  10  1   
 15   8  11  2   
 16   9  12  1   
 17   9  13  1   
 18   9  30  1   
 19  10  14  1   
 20  10  15  1   
 21  11  16  1   
 22  11  31  1   
 23  12  17  1   
 24  12  32  1   
 25  12  33  1   
 26  13  18  1   
 27  13  34  1   
 28  13  35  1   
 29  14  16  2   
 30  14  36  1   
 31  15  37  1   
 32  15  38  1   
 33  15  39  1   
 34  16  40  1   
 35  17  18  1   
 36  17  19  1   
 37  18  41  1   
 38  18  42  1   
 39  19  20  ar  
 40  19  21  ar  
 41  20  22  ar  
 42  20  43  1   
 43  21  23  ar  
 44  21  44  1   
 45  22  24  ar  
 46  22  45  1   
 47  23  24  ar  
 48  23  46  1   
 49  24  47  1   
@<TRIPOS>SUBSTRUCTURE
  1 ****   9 GROUP 4 **** **** 0

# MOE 2024.06 (io_trps.svl 2023.06)
