@<TRIPOS>MOLECULE
NONAME
54 57 1 0 0 
SMALL
USER_CHARGES


@<TRIPOS>ATOM
  1 F       -2.3380     0.2590     1.2520 F     1 <1>  -0.1900 
  2 C       -1.6720     1.3370     0.9320 C.ar  1 <1>   0.1900 
  3 C       -2.3300     2.5550     0.9430 C.ar  1 <1>  -0.1440 
  4 C       -0.3430     1.2130     0.5830 C.ar  1 <1>  -0.1500 
  5 C       -1.6120     3.6900     0.5930 C.ar  1 <1>  -0.1500 
  6 C       -3.7910     2.6350     1.3310 C.3   1 <1>   0.4870 
  7 C        0.3560     2.3550     0.2310 C.ar  1 <1>  -0.1500 
  8 C       -0.2750     3.5910     0.2340 C.ar  1 <1>  -0.1440 
  9 N       -4.6070     2.7360     0.0910 N.4   1 <1>  -0.9590 
 10 C        0.5140     4.8330    -0.1470 C.3   1 <1>  -0.0970 
 11 C       -6.0080     3.1760     0.4080 C.3   1 <1>   0.3430 
 12 C       -4.6010     1.4460    -0.6640 C.3   1 <1>   0.3430 
 13 C       -6.8560     3.3700    -0.8610 C.3   1 <1>   0.1440 
 14 C       -5.3870     1.6000    -1.9700 C.3   1 <1>  -0.1600 
 15 C       -8.2690     3.6800    -0.4360 C.ar  1 <1>   0.1670 
 16 C       -6.8240     2.0930    -1.7270 C.3   1 <1>  -0.1600 
 17 C       -6.4660     4.6350    -1.6730 C.3   1 <1>  -0.1600 
 18 N       -8.9230     3.0180     0.4820 N.ar  1 <1>  -0.6200 
 19 C       -8.7790     4.7490    -1.1040 C.ar  1 <1>  -0.1430 
 20 C       -7.7860     5.3150    -2.0880 C.3   1 <1>  -0.0170 
 21 C      -10.1600     3.4650     0.7220 C.ar  1 <1>   0.7200 
 22 C      -10.0560     5.1380    -0.7910 C.ar  1 <1>   0.1600 
 23 N      -10.7520     4.5030     0.1230 N.ar  1 <1>  -0.6200 
 24 N      -10.8860     2.7970     1.6850 N.pl3 1 <1>  -0.8380 
 25 C      -10.6440     1.3670     2.0180 C.3   1 <1>   0.1290 
 26 C      -12.1180     3.3870     2.2800 C.3   1 <1>   0.1290 
 27 H        0.1360     0.2490     0.5870 H     1 <1>   0.1500 
 28 H       -2.0800     4.6610     0.6020 H     1 <1>   0.1500 
 29 H       -3.9420     3.5060     1.9470 H     1 <1>   0.0800 
 30 H       -4.0760     1.7640     1.8990 H     1 <1>   0.0800 
 31 H        1.3950     2.2780    -0.0430 H     1 <1>   0.1500 
 32 H       -4.1590     3.4410    -0.5050 H     1 <1>   0.4500 
 33 H       -0.1410     5.6220    -0.4720 H     1 <1>   0.0800 
 34 H        1.1960     4.6110    -0.9480 H     1 <1>   0.0800 
 35 H        1.0790     5.1790     0.6990 H     1 <1>   0.0800 
 36 H       -5.9960     4.0990     0.9630 H     1 <1>   0.0800 
 37 H       -6.4890     2.4310     1.0220 H     1 <1>   0.0800 
 38 H       -5.0500     0.6700    -0.0640 H     1 <1>   0.0800 
 39 H       -3.5880     1.1520    -0.8900 H     1 <1>   0.0800 
 40 H       -5.4230     0.6440    -2.4640 H     1 <1>   0.0800 
 41 H       -4.8620     2.2720    -2.6240 H     1 <1>   0.0800 
 42 H       -7.3210     2.2690    -2.6660 H     1 <1>   0.0800 
 43 H       -7.3740     1.3170    -1.2190 H     1 <1>   0.0800 
 44 H       -5.8600     4.4160    -2.5340 H     1 <1>   0.0800 
 45 H       -5.9280     5.3210    -1.0420 H     1 <1>   0.0800 
 46 H       -8.0690     5.0300    -3.0880 H     1 <1>   0.0800 
 47 H       -7.7240     6.3880    -2.0200 H     1 <1>   0.0800 
 48 H      -10.5130     5.9760    -1.2900 H     1 <1>   0.1500 
 49 H      -10.0300     0.8970     1.2700 H     1 <1>   0.0800 
 50 H      -11.5800     0.8370     2.0640 H     1 <1>   0.0800 
 51 H      -10.1510     1.2980     2.9710 H     1 <1>   0.0800 
 52 H      -12.0360     4.4590     2.3270 H     1 <1>   0.0800 
 53 H      -12.2620     3.0130     3.2780 H     1 <1>   0.0800 
 54 H      -12.9700     3.1290     1.6750 H     1 <1>   0.0800 
@<TRIPOS>BOND
  1   1   2  1   
  2   2   3  ar  
  3   2   4  ar  
  4   3   5  ar  
  5   3   6  1   
  6   4   7  ar  
  7   4  27  1   
  8   5   8  ar  
  9   5  28  1   
 10   6   9  1   
 11   6  29  1   
 12   6  30  1   
 13   7   8  ar  
 14   7  31  1   
 15   8  10  1   
 16   9  11  1   
 17   9  12  1   
 18   9  32  1   
 19  10  33  1   
 20  10  34  1   
 21  10  35  1   
 22  11  13  1   
 23  11  36  1   
 24  11  37  1   
 25  12  14  1   
 26  12  38  1   
 27  12  39  1   
 28  13  15  1   
 29  13  16  1   
 30  13  17  1   
 31  14  16  1   
 32  14  40  1   
 33  14  41  1   
 34  15  18  ar  
 35  15  19  ar  
 36  16  42  1   
 37  16  43  1   
 38  17  20  1   
 39  17  44  1   
 40  17  45  1   
 41  18  21  ar  
 42  19  20  1   
 43  19  22  ar  
 44  20  46  1   
 45  20  47  1   
 46  21  23  ar  
 47  21  24  1   
 48  22  23  ar  
 49  22  48  1   
 50  24  25  1   
 51  24  26  1   
 52  25  49  1   
 53  25  50  1   
 54  25  51  1   
 55  26  52  1   
 56  26  53  1   
 57  26  54  1   
@<TRIPOS>SUBSTRUCTURE
  1 ****  11 GROUP 4 **** **** 0

# MOE 2024.06 (io_trps.svl 2023.06)
