@<TRIPOS>MOLECULE
NONAME
49 50 1 0 0 
SMALL
USER_CHARGES


@<TRIPOS>ATOM
  1 O        0.1220    -1.2670     0.9790 O.3   1 <1>  -0.5320 
  2 C       -1.1690    -1.5050     0.7090 C.ar  1 <1>   0.0820 
  3 C       -1.5220    -1.9480    -0.5520 C.ar  1 <1>  -0.1500 
  4 C       -2.1360    -1.3080     1.6800 C.ar  1 <1>  -0.1500 
  5 C       -2.8500    -2.2010    -0.8460 C.ar  1 <1>  -0.1500 
  6 C       -3.4640    -1.5620     1.3840 C.ar  1 <1>  -0.1500 
  7 C       -3.8270    -2.0130     0.1210 C.ar  1 <1>  -0.1430 
  8 C       -5.2790    -2.3110    -0.1970 C.3   1 <1>  -0.0170 
  9 C       -5.5510    -3.7850     0.1130 C.3   1 <1>   0.3430 
 10 N       -6.9310    -4.2060    -0.2840 N.4   1 <1>  -0.9590 
 11 C       -7.0270    -5.7110    -0.2400 C.3   1 <1>   0.3430 
 12 C       -7.9800    -3.5520     0.5620 C.3   1 <1>   0.3430 
 13 C       -8.4450    -6.2360    -0.5580 C.3   1 <1>   0.2000 
 14 C       -9.3630    -4.0260     0.1190 C.3   1 <1>  -0.1600 
 15 O       -8.4470    -7.6060    -0.3520 O.3   1 <1>  -0.6800 
 16 C       -9.5330    -5.5560     0.3140 C.3   1 <1>   0.0000 
 17 C       -9.3120    -5.9510     1.8050 C.3   1 <1>   0.1200 
 18 C      -10.9690    -5.9920    -0.0910 C.3   1 <1>  -0.1600 
 19 O       -9.9720    -5.0790     2.6570 O.3   1 <1>  -0.6800 
 20 C      -11.3630    -5.7890    -1.5670 C.3   1 <1>  -0.1600 
 21 C      -12.8030    -6.2510    -1.8060 C.3   1 <1>  -0.2400 
 22 H        0.2760    -0.9380     1.8820 H     1 <1>   0.4500 
 23 H       -0.7550    -2.0890    -1.2930 H     1 <1>   0.1500 
 24 H       -1.8610    -0.9580     2.6580 H     1 <1>   0.1500 
 25 H       -3.1050    -2.5400    -1.8350 H     1 <1>   0.1500 
 26 H       -4.2060    -1.4020     2.1470 H     1 <1>   0.1500 
 27 H       -5.4620    -2.1080    -1.2370 H     1 <1>   0.0800 
 28 H       -5.9070    -1.6710     0.3960 H     1 <1>   0.0800 
 29 H       -5.4000    -3.9600     1.1660 H     1 <1>   0.0800 
 30 H       -4.8260    -4.3780    -0.4230 H     1 <1>   0.0800 
 31 H       -7.0870    -3.9140    -1.2580 H     1 <1>   0.4500 
 32 H       -6.3370    -6.1400    -0.9470 H     1 <1>   0.0800 
 33 H       -6.7530    -6.0540     0.7430 H     1 <1>   0.0800 
 34 H       -7.8320    -3.7990     1.6020 H     1 <1>   0.0800 
 35 H       -7.9260    -2.4800     0.4610 H     1 <1>   0.0800 
 36 H       -8.6350    -6.0710    -1.6040 H     1 <1>   0.0800 
 37 H      -10.1060    -3.4960     0.6900 H     1 <1>   0.0800 
 38 H       -9.5080    -3.7480    -0.9090 H     1 <1>   0.0800 
 39 H       -9.2960    -8.0020    -0.6420 H     1 <1>   0.4000 
 40 H       -8.2730    -5.9140     2.0780 H     1 <1>   0.0800 
 41 H       -9.6640    -6.9510     2.0040 H     1 <1>   0.0800 
 42 H      -11.0980    -7.0350     0.1460 H     1 <1>   0.0800 
 43 H      -11.6750    -5.4520     0.5160 H     1 <1>   0.0800 
 44 H      -10.9260    -5.2970     2.7090 H     1 <1>   0.4000 
 45 H      -11.2960    -4.7510    -1.8390 H     1 <1>   0.0800 
 46 H      -10.7190    -6.3540    -2.2170 H     1 <1>   0.0800 
 47 H      -13.4890    -5.6880    -1.1970 H     1 <1>   0.0800 
 48 H      -12.9120    -7.2960    -1.5730 H     1 <1>   0.0800 
 49 H      -13.0700    -6.1060    -2.8380 H     1 <1>   0.0800 
@<TRIPOS>BOND
  1   1   2  1   
  2   1  22  1   
  3   2   3  ar  
  4   2   4  ar  
  5   3   5  ar  
  6   3  23  1   
  7   4   6  ar  
  8   4  24  1   
  9   5   7  ar  
 10   5  25  1   
 11   6   7  ar  
 12   6  26  1   
 13   7   8  1   
 14   8   9  1   
 15   8  27  1   
 16   8  28  1   
 17   9  10  1   
 18   9  29  1   
 19   9  30  1   
 20  10  11  1   
 21  10  12  1   
 22  10  31  1   
 23  11  13  1   
 24  11  32  1   
 25  11  33  1   
 26  12  14  1   
 27  12  34  1   
 28  12  35  1   
 29  13  15  1   
 30  13  16  1   
 31  13  36  1   
 32  14  16  1   
 33  14  37  1   
 34  14  38  1   
 35  15  39  1   
 36  16  17  1   
 37  16  18  1   
 38  17  19  1   
 39  17  40  1   
 40  17  41  1   
 41  18  20  1   
 42  18  42  1   
 43  18  43  1   
 44  19  44  1   
 45  20  21  1   
 46  20  45  1   
 47  20  46  1   
 48  21  47  1   
 49  21  48  1   
 50  21  49  1   
@<TRIPOS>SUBSTRUCTURE
  1 ****  10 GROUP 4 **** **** 0

# MOE 2024.06 (io_trps.svl 2023.06)
