@<TRIPOS>MOLECULE
NONAME
46 49 1 0 0 
SMALL
USER_CHARGES


@<TRIPOS>ATOM
  1 S        0.6110    -0.5340     1.5440 S.o2  1 <1>   1.4470 
  2 O        0.4940     0.0110     2.8790 O.2   1 <1>  -0.6500 
  3 O        1.0400    -1.9070     1.3780 O.2   1 <1>  -0.6500 
  4 N       -0.9190    -0.4110     0.8220 N.am  1 <1>  -0.8490 
  5 C        1.6400     0.5680     0.5350 C.ar  1 <1>  -0.0090 
  6 C       -0.9900    -1.0110    -0.5260 C.3   1 <1>   0.1960 
  7 C       -1.9860    -0.8150     1.7490 C.3   1 <1>   0.1960 
  8 C        1.1880     1.8270     0.1640 C.ar  1 <1>  -0.1500 
  9 C        2.9080     0.1830     0.1130 C.ar  1 <1>  -0.1500 
 10 C       -1.7980    -2.3060    -0.5250 C.3   1 <1>  -0.1600 
 11 C       -3.3190    -0.9520     1.0150 C.3   1 <1>  -0.1600 
 12 C        1.9590     2.6790    -0.6080 C.ar  1 <1>   0.0830 
 13 C        3.6940     1.0240    -0.6580 C.ar  1 <1>  -0.1500 
 14 C       -3.2410    -2.0200    -0.0920 C.3   1 <1>   0.4600 
 15 O        1.4140     3.8800    -0.9180 O.3   1 <1>  -0.3630 
 16 C        3.2230     2.2710    -1.0210 C.ar  1 <1>  -0.1500 
 17 O       -3.8850    -1.5020    -1.2380 O.3   1 <1>  -0.5600 
 18 C       -3.9510    -3.3080     0.3160 C.2   1 <1>  -0.1400 
 19 C        2.1150     4.8300    -1.6890 C.3   1 <1>   0.0400 
 20 C       -5.2920    -1.5560    -1.2790 C.3   1 <1>   0.1200 
 21 S       -3.3520    -4.3660     1.5850 S.3   1 <1>  -0.0800 
 22 C       -5.0890    -3.7880    -0.2030 C.2   1 <1>  -0.1810 
 23 C       -5.7940    -3.0140    -1.2940 C.3   1 <1>   0.0210 
 24 C       -4.6990    -5.4710     1.3420 C.2   1 <1>  -0.1100 
 25 C       -5.5190    -5.0260     0.3700 C.2   1 <1>  -0.1500 
 26 H       -0.0030    -1.1980    -0.9150 H     1 <1>   0.0800 
 27 H       -1.4670    -0.3060    -1.1870 H     1 <1>   0.0800 
 28 H       -2.0750    -0.0770     2.5290 H     1 <1>   0.0800 
 29 H       -1.7320    -1.7560     2.2110 H     1 <1>   0.0800 
 30 H        0.2130     2.1560     0.4810 H     1 <1>   0.1500 
 31 H        3.2850    -0.7880     0.3910 H     1 <1>   0.1500 
 32 H       -1.3240    -3.0020     0.1420 H     1 <1>   0.0800 
 33 H       -1.7990    -2.7500    -1.5040 H     1 <1>   0.0800 
 34 H       -3.5660     0.0060     0.5950 H     1 <1>   0.0800 
 35 H       -4.0830    -1.2150     1.7230 H     1 <1>   0.0800 
 36 H        4.6730     0.7040    -0.9730 H     1 <1>   0.1500 
 37 H        3.8480     2.9070    -1.6200 H     1 <1>   0.1500 
 38 H        1.4900     5.6970    -1.7990 H     1 <1>   0.0800 
 39 H        2.3270     4.4070    -2.6550 H     1 <1>   0.0800 
 40 H        3.0230     5.0950    -1.1760 H     1 <1>   0.0800 
 41 H       -5.6150    -1.0420    -2.1670 H     1 <1>   0.0800 
 42 H       -5.6760    -1.0360    -0.4180 H     1 <1>   0.0800 
 43 H       -5.5890    -3.4620    -2.2500 H     1 <1>   0.0800 
 44 H       -6.8560    -3.0270    -1.1310 H     1 <1>   0.0800 
 45 H       -4.7330    -6.3490     1.9610 H     1 <1>   0.1500 
 46 H       -6.4130    -5.5190     0.0290 H     1 <1>   0.1500 
@<TRIPOS>BOND
  1   1   2  2   
  2   1   3  2   
  3   1   4  am  
  4   1   5  1   
  5   4   6  1   
  6   4   7  1   
  7   5   8  ar  
  8   5   9  ar  
  9   6  10  1   
 10   6  26  1   
 11   6  27  1   
 12   7  11  1   
 13   7  28  1   
 14   7  29  1   
 15   8  12  ar  
 16   8  30  1   
 17   9  13  ar  
 18   9  31  1   
 19  10  14  1   
 20  10  32  1   
 21  10  33  1   
 22  11  14  1   
 23  11  34  1   
 24  11  35  1   
 25  12  15  1   
 26  12  16  ar  
 27  13  16  ar  
 28  13  36  1   
 29  14  17  1   
 30  14  18  1   
 31  15  19  1   
 32  16  37  1   
 33  17  20  1   
 34  18  21  1   
 35  18  22  2   
 36  19  38  1   
 37  19  39  1   
 38  19  40  1   
 39  20  23  1   
 40  20  41  1   
 41  20  42  1   
 42  21  24  1   
 43  22  23  1   
 44  22  25  1   
 45  23  43  1   
 46  23  44  1   
 47  24  25  2   
 48  24  45  1   
 49  25  46  1   
@<TRIPOS>SUBSTRUCTURE
  1 ****   6 GROUP 4 **** **** 0

# MOE 2024.06 (io_trps.svl 2023.06)
