@<TRIPOS>MOLECULE
NONAME
49 51 1 0 0 
SMALL
USER_CHARGES


@<TRIPOS>ATOM
  1 O       -5.1890    -1.2610     2.7390 O.co2 1 <1>  -0.9000 
  2 C       -5.5390    -2.4410     2.5960 C.2   1 <1>   0.9060 
  3 O       -5.9410    -3.1420     3.5240 O.co2 1 <1>  -0.9000 
  4 C       -5.5510    -3.0410     1.1780 C.3   1 <1>   0.2370 
  5 N       -5.6370    -2.0560     0.0160 N.4   1 <1>  -0.9590 
  6 C       -6.7960    -1.1240     0.2550 C.3   1 <1>   0.3430 
  7 C       -4.3320    -1.3430    -0.1200 C.3   1 <1>   0.3430 
  8 C       -7.2260    -0.3490    -1.0180 C.3   1 <1>   0.2200 
  9 C       -4.3430    -0.1780    -1.1220 C.3   1 <1>  -0.0800 
 10 N       -6.5300    -0.9040    -2.2440 N.am  1 <1>  -0.6600 
 11 C       -7.0990     1.1830    -0.8350 C.3   1 <1>   0.1200 
 12 C       -4.7610     1.1360    -0.4310 C.3   1 <1>   0.1200 
 13 C       -5.0960    -0.4840    -2.4390 C.3   1 <1>   0.1400 
 14 C       -7.0630    -1.9030    -3.0290 C.2   1 <1>   0.5690 
 15 O       -5.8340     1.7140    -1.0970 O.3   1 <1>  -0.5600 
 16 O       -6.3680    -2.5240    -3.7960 O.2   1 <1>  -0.5700 
 17 C       -8.5270    -2.3240    -2.9390 C.3   1 <1>   0.0440 
 18 C       -8.8590    -3.0000    -1.6100 C.ar  1 <1>  -0.1430 
 19 C       -8.1170    -4.0920    -1.1790 C.ar  1 <1>  -0.1500 
 20 C       -9.8960    -2.5250    -0.8180 C.ar  1 <1>  -0.1500 
 21 C       -8.3810    -4.6760     0.0490 C.ar  1 <1>  -0.1500 
 22 C      -10.1580    -3.1040     0.4100 C.ar  1 <1>  -0.1500 
 23 C       -9.3890    -4.1660     0.8520 C.ar  1 <1>   0.0830 
 24 O       -9.6570    -4.7010     2.0600 O.3   1 <1>  -0.3630 
 25 C       -8.6590    -4.5910     3.0550 C.3   1 <1>   0.0400 
 26 H       -6.3970    -3.7010     1.1450 H     1 <1>   0.0800 
 27 H       -4.6670    -3.6430     1.0790 H     1 <1>   0.0800 
 28 H       -5.8330    -2.5360    -0.8730 H     1 <1>   0.4500 
 29 H       -7.6420    -1.7000     0.5920 H     1 <1>   0.0800 
 30 H       -6.5530    -0.4320     1.0450 H     1 <1>   0.0800 
 31 H       -4.0240    -0.9660     0.8430 H     1 <1>   0.0800 
 32 H       -3.5890    -2.0570    -0.4350 H     1 <1>   0.0800 
 33 H       -8.2810    -0.5070    -1.1120 H     1 <1>   0.0800 
 34 H       -3.3130    -0.0310    -1.3910 H     1 <1>   0.0800 
 35 H       -7.3800     1.4690     0.1640 H     1 <1>   0.0800 
 36 H       -7.7770     1.6690    -1.5140 H     1 <1>   0.0800 
 37 H       -3.9500     1.8440    -0.4820 H     1 <1>   0.0800 
 38 H       -5.0150     1.0020     0.6080 H     1 <1>   0.0800 
 39 H       -4.5570    -1.2550    -2.9620 H     1 <1>   0.0800 
 40 H       -5.0790     0.3890    -3.0710 H     1 <1>   0.0800 
 41 H       -9.1440    -1.4600    -3.0950 H     1 <1>   0.0800 
 42 H       -8.7380    -3.0140    -3.7370 H     1 <1>   0.0800 
 43 H       -7.3350    -4.4960    -1.8010 H     1 <1>   0.1500 
 44 H      -10.5090    -1.7030    -1.1480 H     1 <1>   0.1500 
 45 H       -7.8180    -5.5290     0.3830 H     1 <1>   0.1500 
 46 H      -10.9570    -2.7440     1.0330 H     1 <1>   0.1500 
 47 H       -9.0280    -5.0450     3.9560 H     1 <1>   0.0800 
 48 H       -8.4540    -3.5500     3.2330 H     1 <1>   0.0800 
 49 H       -7.7660    -5.0960     2.7330 H     1 <1>   0.0800 
@<TRIPOS>BOND
  1   1   2  ar  
  2   2   3  ar  
  3   2   4  1   
  4   4   5  1   
  5   4  26  1   
  6   4  27  1   
  7   5   6  1   
  8   5   7  1   
  9   5  28  1   
 10   6   8  1   
 11   6  29  1   
 12   6  30  1   
 13   7   9  1   
 14   7  31  1   
 15   7  32  1   
 16   8  10  1   
 17   8  11  1   
 18   8  33  1   
 19   9  12  1   
 20   9  13  1   
 21   9  34  1   
 22  10  13  1   
 23  10  14  am  
 24  11  15  1   
 25  11  35  1   
 26  11  36  1   
 27  12  15  1   
 28  12  37  1   
 29  12  38  1   
 30  13  39  1   
 31  13  40  1   
 32  14  16  2   
 33  14  17  1   
 34  17  18  1   
 35  17  41  1   
 36  17  42  1   
 37  18  19  ar  
 38  18  20  ar  
 39  19  21  ar  
 40  19  43  1   
 41  20  22  ar  
 42  20  44  1   
 43  21  23  ar  
 44  21  45  1   
 45  22  23  ar  
 46  22  46  1   
 47  23  24  1   
 48  24  25  1   
 49  25  47  1   
 50  25  48  1   
 51  25  49  1   
@<TRIPOS>SUBSTRUCTURE
  1 ****   6 GROUP 4 **** **** 0

# MOE 2024.06 (io_trps.svl 2023.06)
