@<TRIPOS>MOLECULE
NONAME
60 63 1 0 0 
SMALL
USER_CHARGES


@<TRIPOS>ATOM
  1 O        1.9370    -2.7520    -0.2560 O.2   1 <1>  -0.5700 
  2 C        2.8910    -2.0360    -0.0130 C.2   1 <1>   0.7030 
  3 N        2.9680    -0.8120    -0.6370 N.am  1 <1>  -0.6600 
  4 C        3.9040    -2.4820     0.9350 C.2   1 <1>   0.2770 
  5 C        4.2250    -0.3260    -1.2920 C.3   1 <1>   0.1400 
  6 C        1.7350    -0.0190    -0.9080 C.3   1 <1>   0.1400 
  7 N        4.3490    -3.7880     1.1660 N.pl3 1 <1>  -0.7640 
  8 C        4.5860    -1.7070     1.8150 C.2   1 <1>   0.2000 
  9 C        4.4690     1.1780    -1.0930 C.3   1 <1>   0.1400 
 10 C        1.7550     1.3580    -0.2140 C.3   1 <1>  -0.1600 
 11 C        5.2470    -3.7520     2.1410 C.cat 1 <1>   0.6500 
 12 C        3.8240    -4.9840     0.4470 C.3   1 <1>   0.2740 
 13 N        5.4180    -2.5050     2.5500 N.pl3 1 <1>  -0.7000 
 14 N        4.2600     1.5830     0.3360 N.am  1 <1>  -0.6600 
 15 C        2.8460     1.5770     0.8520 C.3   1 <1>   0.1400 
 16 C        5.2830     1.8590     1.2260 C.2   1 <1>   0.5690 
 17 O        5.0700     1.6930     2.4100 O.2   1 <1>  -0.5700 
 18 C        6.7010     2.3440     0.7780 C.3   1 <1>   0.2040 
 19 C        7.4280     1.1780     0.0630 C.ar  1 <1>  -0.1440 
 20 C        7.6140     2.7080     1.9920 C.3   1 <1>  -0.1600 
 21 C        6.4950     3.6220    -0.1020 C.3   1 <1>  -0.1600 
 22 C        7.4500    -0.0680     0.6810 C.ar  1 <1>  -0.1500 
 23 C        8.0750     1.3080    -1.1630 C.ar  1 <1>  -0.1500 
 24 C        7.3950     4.1390     2.5030 C.3   1 <1>  -0.1600 
 25 C        7.6450     4.6360    -0.0050 C.3   1 <1>  -0.1600 
 26 C        8.0580    -1.1570     0.0830 C.ar  1 <1>  -0.1500 
 27 C        8.6830     0.2200    -1.7650 C.ar  1 <1>  -0.1500 
 28 C        7.7770     5.1740     1.4310 C.3   1 <1>  -0.1600 
 29 C        8.6710    -1.0150    -1.1470 C.ar  1 <1>  -0.1500 
 30 H        4.1680    -0.5290    -2.3480 H     1 <1>   0.0800 
 31 H        5.0750    -0.8640    -0.9100 H     1 <1>   0.0800 
 32 H        0.8740    -0.5650    -0.5580 H     1 <1>   0.0800 
 33 H        1.6180     0.1080    -1.9720 H     1 <1>   0.0800 
 34 H        4.5050    -0.6440     1.9580 H     1 <1>   0.1500 
 35 H        3.8200     1.7450    -1.7350 H     1 <1>   0.0800 
 36 H        5.4610     1.3950    -1.4240 H     1 <1>   0.0800 
 37 H        0.8010     1.4880     0.2650 H     1 <1>   0.0800 
 38 H        1.8110     2.1390    -0.9510 H     1 <1>   0.0800 
 39 H        5.7590    -4.6140     2.5490 H     1 <1>   0.1500 
 40 H        3.9360    -4.8530    -0.6160 H     1 <1>   0.0800 
 41 H        2.7770    -5.1130     0.6680 H     1 <1>   0.0800 
 42 H        4.3540    -5.8710     0.7470 H     1 <1>   0.0800 
 43 H        6.0360    -2.1830     3.3020 H     1 <1>   0.4500 
 44 H        2.7510     0.8180     1.6090 H     1 <1>   0.0800 
 45 H        2.6670     2.5240     1.3350 H     1 <1>   0.0800 
 46 H        8.6460     2.6230     1.6960 H     1 <1>   0.0800 
 47 H        7.4740     2.0110     2.7990 H     1 <1>   0.0800 
 48 H        5.6070     4.1290     0.2330 H     1 <1>   0.0800 
 49 H        6.3200     3.3710    -1.1300 H     1 <1>   0.0800 
 50 H        6.9980    -0.1900     1.6480 H     1 <1>   0.1500 
 51 H        8.1260     2.2510    -1.6740 H     1 <1>   0.1500 
 52 H        7.9800     4.3080     3.3910 H     1 <1>   0.0800 
 53 H        6.3580     4.2590     2.7710 H     1 <1>   0.0800 
 54 H        7.4750     5.4570    -0.6800 H     1 <1>   0.0800 
 55 H        8.5670     4.1620    -0.2940 H     1 <1>   0.0800 
 56 H        8.0670    -2.1130     0.5750 H     1 <1>   0.1500 
 57 H        9.1740     0.3380    -2.7160 H     1 <1>   0.1500 
 58 H        8.7950     5.4920     1.5840 H     1 <1>   0.0800 
 59 H        7.1490     6.0400     1.5520 H     1 <1>   0.0800 
 60 H        9.1490    -1.8570    -1.6180 H     1 <1>   0.1500 
@<TRIPOS>BOND
  1   1   2  2   
  2   2   3  am  
  3   2   4  1   
  4   3   5  1   
  5   3   6  1   
  6   4   7  1   
  7   4   8  2   
  8   5   9  1   
  9   5  30  1   
 10   5  31  1   
 11   6  10  1   
 12   6  32  1   
 13   6  33  1   
 14   7  11  ar  
 15   7  12  1   
 16   8  13  1   
 17   8  34  1   
 18   9  14  1   
 19   9  35  1   
 20   9  36  1   
 21  10  15  1   
 22  10  37  1   
 23  10  38  1   
 24  11  13  ar  
 25  11  39  1   
 26  12  40  1   
 27  12  41  1   
 28  12  42  1   
 29  13  43  1   
 30  14  15  1   
 31  14  16  am  
 32  15  44  1   
 33  15  45  1   
 34  16  17  2   
 35  16  18  1   
 36  18  19  1   
 37  18  20  1   
 38  18  21  1   
 39  19  22  ar  
 40  19  23  ar  
 41  20  24  1   
 42  20  46  1   
 43  20  47  1   
 44  21  25  1   
 45  21  48  1   
 46  21  49  1   
 47  22  26  ar  
 48  22  50  1   
 49  23  27  ar  
 50  23  51  1   
 51  24  28  1   
 52  24  52  1   
 53  24  53  1   
 54  25  28  1   
 55  25  54  1   
 56  25  55  1   
 57  26  29  ar  
 58  26  56  1   
 59  27  29  ar  
 60  27  57  1   
 61  28  58  1   
 62  28  59  1   
 63  29  60  1   
@<TRIPOS>SUBSTRUCTURE
  1 ****  14 GROUP 4 **** **** 0

# MOE 2024.06 (io_trps.svl 2023.06)
