@<TRIPOS>MOLECULE
NONAME
43 45 1 0 0 
SMALL
USER_CHARGES


@<TRIPOS>ATOM
  1 F       -1.3230    -0.7860    -0.8220 F     1 <1>  -0.1900 
  2 C       -2.0310     0.2250    -0.3820 C.ar  1 <1>   0.1900 
  3 C       -1.8520     1.4860    -0.9270 C.ar  1 <1>   0.1900 
  4 C       -2.9620     0.0000     0.6180 C.ar  1 <1>  -0.1440 
  5 F       -0.9660     1.6590    -1.8750 F     1 <1>  -0.1900 
  6 C       -2.6010     2.5670    -0.4850 C.ar  1 <1>  -0.1440 
  7 C       -3.7150     1.0790     1.0640 C.ar  1 <1>  -0.1500 
  8 C       -3.1500    -1.3850     1.2060 C.3   1 <1>   0.4870 
  9 C       -3.5350     2.3450     0.5180 C.ar  1 <1>  -0.1500 
 10 C       -2.4090     3.9570    -1.0770 C.3   1 <1>  -0.0970 
 11 N       -3.6960    -2.3010     0.1670 N.4   1 <1>  -0.9590 
 12 C       -5.0590    -1.8690    -0.2740 C.3   1 <1>   0.3430 
 13 C       -3.8350    -3.6880     0.7130 C.3   1 <1>   0.3430 
 14 C       -6.0390    -2.7540     0.4990 C.3   1 <1>   0.2000 
 15 C       -5.3120    -4.0940     0.5680 C.3   1 <1>  -0.0800 
 16 O       -6.1540    -2.2550     1.7940 O.3   1 <1>  -0.6800 
 17 C       -5.5740    -4.9440    -0.6960 C.3   1 <1>  -0.0170 
 18 C       -4.9190    -6.3160    -0.6160 C.ar  1 <1>   0.1670 
 19 N       -3.6080    -6.3480    -0.7900 N.ar  1 <1>  -0.6200 
 20 C       -5.6930    -7.4510    -0.3770 C.ar  1 <1>   0.1600 
 21 C       -3.1280    -7.5820    -0.7210 C.ar  1 <1>   0.1600 
 22 N       -5.2120    -8.6790    -0.2950 N.ar  1 <1>  -0.6200 
 23 C       -3.9040    -8.7090    -0.4800 C.ar  1 <1>   0.1600 
 24 H       -4.4490     0.9510     1.8450 H     1 <1>   0.1500 
 25 H       -3.8260    -1.3370     2.0450 H     1 <1>   0.0800 
 26 H       -2.1980    -1.7520     1.5560 H     1 <1>   0.0800 
 27 H       -4.1310     3.1650     0.8850 H     1 <1>   0.1500 
 28 H       -3.0700     4.6700    -0.6170 H     1 <1>   0.0800 
 29 H       -2.6080     3.9380    -2.1340 H     1 <1>   0.0800 
 30 H       -1.3960     4.2840    -0.9240 H     1 <1>   0.0800 
 31 H       -3.0400    -2.2900    -0.6280 H     1 <1>   0.4500 
 32 H       -5.2450    -0.8240    -0.0850 H     1 <1>   0.0800 
 33 H       -5.1700    -2.0590    -1.3290 H     1 <1>   0.0800 
 34 H       -3.1770    -4.3670     0.1990 H     1 <1>   0.0800 
 35 H       -3.5760    -3.6960     1.7600 H     1 <1>   0.0800 
 36 H       -7.0170    -2.7910     0.0490 H     1 <1>   0.0800 
 37 H       -5.6280    -4.6630     1.4260 H     1 <1>   0.0800 
 38 H       -6.9000    -2.6770     2.2730 H     1 <1>   0.4000 
 39 H       -5.2040    -4.4440    -1.5750 H     1 <1>   0.0800 
 40 H       -6.6340    -5.0730    -0.8240 H     1 <1>   0.0800 
 41 H       -6.7550    -7.3460    -0.2470 H     1 <1>   0.1500 
 42 H       -2.0690    -7.7110    -0.8630 H     1 <1>   0.1500 
 43 H       -3.4230    -9.6710    -0.4400 H     1 <1>   0.1500 
@<TRIPOS>BOND
  1   1   2  1   
  2   2   3  ar  
  3   2   4  ar  
  4   3   5  1   
  5   3   6  ar  
  6   4   7  ar  
  7   4   8  1   
  8   6   9  ar  
  9   6  10  1   
 10   7   9  ar  
 11   7  24  1   
 12   8  11  1   
 13   8  25  1   
 14   8  26  1   
 15   9  27  1   
 16  10  28  1   
 17  10  29  1   
 18  10  30  1   
 19  11  12  1   
 20  11  13  1   
 21  11  31  1   
 22  12  14  1   
 23  12  32  1   
 24  12  33  1   
 25  13  15  1   
 26  13  34  1   
 27  13  35  1   
 28  14  15  1   
 29  14  16  1   
 30  14  36  1   
 31  15  17  1   
 32  15  37  1   
 33  16  38  1   
 34  17  18  1   
 35  17  39  1   
 36  17  40  1   
 37  18  19  ar  
 38  18  20  ar  
 39  19  21  ar  
 40  20  22  ar  
 41  20  41  1   
 42  21  23  ar  
 43  21  42  1   
 44  22  23  ar  
 45  23  43  1   
@<TRIPOS>SUBSTRUCTURE
  1 ****  11 GROUP 4 **** **** 0

# MOE 2024.06 (io_trps.svl 2023.06)
