@<TRIPOS>MOLECULE
NONAME
41 43 1 0 0 
SMALL
USER_CHARGES


@<TRIPOS>ATOM
  1 O        0.3030    -0.1830     0.7980 O.2   1 <1>  -0.5700 
  2 C        1.2240    -0.4020     0.0350 C.2   1 <1>   0.7150 
  3 N        1.9010     0.6590    -0.4720 N.am  1 <1>  -0.7300 
  4 C        1.6200    -1.7330    -0.3480 C.2   1 <1>  -0.2370 
  5 C        1.6810     2.0780    -0.0930 C.3   1 <1>   0.3200 
  6 N        1.0840    -2.8930     0.1650 N.pl3 1 <1>   0.0480 
  7 C        2.5760    -2.1000    -1.2650 C.2   1 <1>  -0.1500 
  8 C        2.9950     2.7700     0.2310 C.2   1 <1>   0.2980 
  9 C        1.7020    -3.9430    -0.4280 C.2   1 <1>  -0.3020 
 10 C        0.0260    -3.0280     1.1860 C.3   1 <1>   0.0160 
 11 C        2.6260    -3.4890    -1.3130 C.2   1 <1>  -0.1500 
 12 O        3.6010     2.4690     1.3520 O.3   1 <1>  -0.0190 
 13 N        3.5870     3.6300    -0.4990 N.2   1 <1>  -0.5650 
 14 N        4.6700     3.2040     1.3360 N.2   1 <1>  -0.4100 
 15 C        4.6530     3.8770     0.2530 C.2   1 <1>   0.3350 
 16 C        5.7090     4.8860    -0.1980 C.3   1 <1>   0.1010 
 17 C        7.0920     4.6180     0.4300 C.3   1 <1>  -0.1600 
 18 C        5.2490     6.3230     0.1070 C.3   1 <1>  -0.1600 
 19 C        8.1310     5.6530    -0.0240 C.3   1 <1>  -0.1600 
 20 C        6.2880     7.3620    -0.3410 C.3   1 <1>  -0.1600 
 21 C        7.6610     7.0800     0.2840 C.3   1 <1>  -0.1600 
 22 H        2.7080     0.4760    -1.0660 H     1 <1>   0.3700 
 23 H        1.0300     2.1450     0.7620 H     1 <1>   0.0800 
 24 H        1.2100     2.5880    -0.9140 H     1 <1>   0.0800 
 25 H        3.1970    -1.4580    -1.8630 H     1 <1>   0.1500 
 26 H        1.4600    -4.9650    -0.1960 H     1 <1>   0.1500 
 27 H        0.3350    -2.5280     2.0850 H     1 <1>   0.0800 
 28 H       -0.1490    -4.0670     1.3950 H     1 <1>   0.0800 
 29 H       -0.8790    -2.5770     0.8200 H     1 <1>   0.0800 
 30 H        3.2790    -4.0730    -1.9400 H     1 <1>   0.1500 
 31 H        5.8080     4.7850    -1.2650 H     1 <1>   0.0800 
 32 H        7.4230     3.6310     0.1590 H     1 <1>   0.0800 
 33 H        7.0080     4.6530     1.5030 H     1 <1>   0.0800 
 34 H        5.0800     6.4210     1.1660 H     1 <1>   0.0800 
 35 H        4.3150     6.5130    -0.3930 H     1 <1>   0.0800 
 36 H        8.2980     5.5520    -1.0840 H     1 <1>   0.0800 
 37 H        9.0670     5.4660     0.4750 H     1 <1>   0.0800 
 38 H        5.9590     8.3460    -0.0560 H     1 <1>   0.0800 
 39 H        6.3740     7.3420    -1.4140 H     1 <1>   0.0800 
 40 H        8.3800     7.7860    -0.0930 H     1 <1>   0.0800 
 41 H        7.5990     7.2110     1.3510 H     1 <1>   0.0800 
@<TRIPOS>BOND
  1   1   2  2   
  2   2   3  am  
  3   2   4  1   
  4   3   5  1   
  5   3  22  1   
  6   4   6  1   
  7   4   7  2   
  8   5   8  1   
  9   5  23  1   
 10   5  24  1   
 11   6   9  1   
 12   6  10  1   
 13   7  11  1   
 14   7  25  1   
 15   8  12  1   
 16   8  13  2   
 17   9  11  2   
 18   9  26  1   
 19  10  27  1   
 20  10  28  1   
 21  10  29  1   
 22  11  30  1   
 23  12  14  1   
 24  13  15  1   
 25  14  15  2   
 26  15  16  1   
 27  16  17  1   
 28  16  18  1   
 29  16  31  1   
 30  17  19  1   
 31  17  32  1   
 32  17  33  1   
 33  18  20  1   
 34  18  34  1   
 35  18  35  1   
 36  19  21  1   
 37  19  36  1   
 38  19  37  1   
 39  20  21  1   
 40  20  38  1   
 41  20  39  1   
 42  21  40  1   
 43  21  41  1   
@<TRIPOS>SUBSTRUCTURE
  1 ****   8 GROUP 4 **** **** 0

# MOE 2024.06 (io_trps.svl 2023.06)
