@<TRIPOS>MOLECULE
NONAME
41 41 1 0 0 
SMALL
USER_CHARGES


@<TRIPOS>ATOM
  1 CL      -0.5200     0.3960    -1.4330 Cl    1 <1>  -0.2900 
  2 C       -1.6940    -0.4270    -0.4060 C.3   1 <1>   0.2350 
  3 C       -2.9770     0.4060    -0.2830 C.cat 1 <1>   0.6040 
  4 N       -3.0380     1.5710    -0.8860 N.pl3 1 <1>  -0.7540 
  5 N       -3.9850    -0.0710     0.4220 N.pl3 1 <1>  -0.7940 
  6 C       -5.3200     0.5170     0.6930 C.3   1 <1>   0.3300 
  7 C       -6.3860    -0.4130     0.1130 C.3   1 <1>  -0.1600 
  8 C       -7.8100     0.0800     0.4410 C.3   1 <1>  -0.1600 
  9 C       -8.8980    -0.9300     0.0240 C.3   1 <1>   0.2810 
 10 N      -10.2140    -0.2320     0.0840 N.am  1 <1>  -0.7300 
 11 C       -8.9030    -2.2430     0.8450 C.2   1 <1>   0.5690 
 12 C      -11.3020    -0.5980    -0.6580 C.2   1 <1>   0.5440 
 13 O       -8.1810    -2.3830     1.8030 O.2   1 <1>  -0.5700 
 14 N       -9.7310    -3.2400     0.4750 N.am  1 <1>  -0.8000 
 15 O      -11.1900    -1.5610    -1.3920 O.2   1 <1>  -0.5700 
 16 C      -12.5620     0.1170    -0.5400 C.ar  1 <1>   0.0860 
 17 C      -13.7730    -0.5140    -0.8310 C.ar  1 <1>  -0.1500 
 18 C      -12.6200     1.4530    -0.1360 C.ar  1 <1>  -0.1500 
 19 C      -14.9820     0.1460    -0.7120 C.ar  1 <1>  -0.1500 
 20 C      -13.8260     2.1200    -0.0140 C.ar  1 <1>  -0.1500 
 21 C      -15.0110     1.4660    -0.3010 C.ar  1 <1>  -0.1500 
 22 H       -1.8990    -1.3810    -0.8560 H     1 <1>   0.0800 
 23 H       -1.2360    -0.5660     0.5570 H     1 <1>   0.0800 
 24 H       -3.8360     2.2050    -0.8750 H     1 <1>   0.4500 
 25 H       -2.2450     1.9290    -1.4350 H     1 <1>   0.4500 
 26 H       -3.9010    -0.9890     0.8780 H     1 <1>   0.4500 
 27 H       -5.4570     0.6080     1.7590 H     1 <1>   0.0800 
 28 H       -5.4110     1.4960     0.2560 H     1 <1>   0.0800 
 29 H       -6.2700    -0.4740    -0.9550 H     1 <1>   0.0800 
 30 H       -6.2410    -1.3960     0.5260 H     1 <1>   0.0800 
 31 H       -7.9820     1.0080    -0.0760 H     1 <1>   0.0800 
 32 H       -7.8990     0.2570     1.5000 H     1 <1>   0.0800 
 33 H       -8.7210    -1.2050    -1.0020 H     1 <1>   0.0800 
 34 H      -10.3700     0.3330     0.9200 H     1 <1>   0.3700 
 35 H       -9.7980    -4.1030     1.0140 H     1 <1>   0.3700 
 36 H      -10.4140    -3.1000    -0.2830 H     1 <1>   0.3700 
 37 H      -13.7620    -1.5410    -1.1560 H     1 <1>   0.1500 
 38 H      -11.7120     1.9850     0.0790 H     1 <1>   0.1500 
 39 H      -15.9010    -0.3660    -0.9410 H     1 <1>   0.1500 
 40 H      -13.8470     3.1490     0.3000 H     1 <1>   0.1500 
 41 H      -15.9510     1.9830    -0.2080 H     1 <1>   0.1500 
@<TRIPOS>BOND
  1   1   2  1   
  2   2   3  1   
  3   2  22  1   
  4   2  23  1   
  5   3   4  ar  
  6   3   5  ar  
  7   4  24  1   
  8   4  25  1   
  9   5   6  1   
 10   5  26  1   
 11   6   7  1   
 12   6  27  1   
 13   6  28  1   
 14   7   8  1   
 15   7  29  1   
 16   7  30  1   
 17   8   9  1   
 18   8  31  1   
 19   8  32  1   
 20   9  10  1   
 21   9  11  1   
 22   9  33  1   
 23  10  12  am  
 24  10  34  1   
 25  11  13  2   
 26  11  14  am  
 27  12  15  2   
 28  12  16  1   
 29  14  35  1   
 30  14  36  1   
 31  16  17  ar  
 32  16  18  ar  
 33  17  19  ar  
 34  17  37  1   
 35  18  20  ar  
 36  18  38  1   
 37  19  21  ar  
 38  19  39  1   
 39  20  21  ar  
 40  20  40  1   
 41  21  41  1   
@<TRIPOS>SUBSTRUCTURE
  1 ****   9 GROUP 4 **** **** 0

# MOE 2024.06 (io_trps.svl 2023.06)
