@<TRIPOS>MOLECULE
NONAME
55 57 1 0 0 
SMALL
USER_CHARGES


@<TRIPOS>ATOM
  1 O       -1.6860     0.0130     1.6180 O.2   1 <1>  -0.5700 
  2 C       -1.8480     0.6600     0.6030 C.2   1 <1>   0.5440 
  3 N       -2.1770    -0.0070    -0.5570 N.am  1 <1>  -0.6600 
  4 C       -1.8260     2.1060     0.6520 C.ar  1 <1>   0.0860 
  5 C       -1.9870    -1.4810    -0.6470 C.3   1 <1>   0.3200 
  6 C       -3.1300     0.5760    -1.5560 C.3   1 <1>   0.1400 
  7 C       -0.9940     2.8780    -0.1960 C.ar  1 <1>   0.1660 
  8 C       -2.6610     2.7800     1.5040 C.ar  1 <1>  -0.1500 
  9 C       -3.3210    -2.1020    -0.3130 C.2   1 <1>  -0.3320 
 10 C       -4.5000     0.8490    -0.8990 C.3   1 <1>   0.3430 
 11 N       -1.0550     4.1700    -0.2870 N.ar  1 <1>  -0.6200 
 12 C        0.0610     2.2090    -1.0630 C.3   1 <1>  -0.0960 
 13 C       -2.7310     4.1790     1.4530 C.ar  1 <1>   0.0000 
 14 N       -3.8320    -2.0660     0.9300 N.pl3 1 <1>   0.0330 
 15 C       -4.2320    -2.7250    -1.0890 C.2   1 <1>   0.0770 
 16 N       -5.6290     0.9570    -1.8820 N.4   1 <1>  -0.9590 
 17 C       -1.9180     4.8520     0.5140 C.ar  1 <1>   0.3100 
 18 C       -3.5860     4.9250     2.2860 C.ar  1 <1>  -0.1500 
 19 C       -5.0550    -2.6290     0.8200 C.2   1 <1>   0.0060 
 20 N       -5.3390    -3.0150    -0.3820 N.2   1 <1>  -0.5650 
 21 C       -6.7810     1.6790    -1.2620 C.3   1 <1>   0.2630 
 22 C       -6.0760    -0.4060    -2.3230 C.3   1 <1>   0.2630 
 23 C       -2.0110     6.2580     0.4230 C.ar  1 <1>  -0.1430 
 24 C       -3.6550     6.2860     2.1790 C.ar  1 <1>  -0.1500 
 25 C       -5.9870    -2.7950     2.0020 C.3   1 <1>  -0.0600 
 26 C       -2.8660     6.9550     1.2390 C.ar  1 <1>  -0.1500 
 27 C       -1.1510     7.0110    -0.5860 C.3   1 <1>  -0.0970 
 28 H       -1.2290    -1.8160     0.0420 H     1 <1>   0.0800 
 29 H       -1.6780    -1.7500    -1.6430 H     1 <1>   0.0800 
 30 H       -3.2450    -0.1170    -2.3710 H     1 <1>   0.0800 
 31 H       -2.7280     1.4940    -1.9480 H     1 <1>   0.0800 
 32 H       -3.2720     2.2490     2.2120 H     1 <1>   0.1500 
 33 H       -4.4250     1.7650    -0.3370 H     1 <1>   0.0800 
 34 H       -4.7190     0.0500    -0.2090 H     1 <1>   0.0800 
 35 H        0.5310     1.3990    -0.5340 H     1 <1>   0.0800 
 36 H        0.8270     2.9190    -1.3230 H     1 <1>   0.0800 
 37 H       -0.3760     1.8380    -1.9700 H     1 <1>   0.0800 
 38 H       -3.3700    -1.6820     1.7660 H     1 <1>   0.2700 
 39 H       -4.1590    -2.9720    -2.1350 H     1 <1>   0.1500 
 40 H       -5.3160     1.4950    -2.7040 H     1 <1>   0.4500 
 41 H       -4.1880     4.4090     3.0130 H     1 <1>   0.1500 
 42 H       -7.1400     1.1400    -0.4000 H     1 <1>   0.0800 
 43 H       -7.5890     1.7720    -1.9700 H     1 <1>   0.0800 
 44 H       -6.4820     2.6680    -0.9520 H     1 <1>   0.0800 
 45 H       -6.3880    -0.9930    -1.4720 H     1 <1>   0.0800 
 46 H       -5.2720    -0.9270    -2.8150 H     1 <1>   0.0800 
 47 H       -6.9040    -0.3280    -3.0080 H     1 <1>   0.0800 
 48 H       -4.3090     6.8600     2.8140 H     1 <1>   0.1500 
 49 H       -6.2100    -1.8410     2.4410 H     1 <1>   0.0800 
 50 H       -5.5300    -3.4270     2.7420 H     1 <1>   0.0800 
 51 H       -6.9050    -3.2550     1.6820 H     1 <1>   0.0800 
 52 H       -2.9420     8.0270     1.1770 H     1 <1>   0.1500 
 53 H       -1.3670     6.6670    -1.5820 H     1 <1>   0.0800 
 54 H       -0.1100     6.8340    -0.3800 H     1 <1>   0.0800 
 55 H       -1.3330     8.0700    -0.5420 H     1 <1>   0.0800 
@<TRIPOS>BOND
  1   1   2  2   
  2   2   3  am  
  3   2   4  1   
  4   3   5  1   
  5   3   6  1   
  6   4   7  ar  
  7   4   8  ar  
  8   5   9  1   
  9   5  28  1   
 10   5  29  1   
 11   6  10  1   
 12   6  30  1   
 13   6  31  1   
 14   7  11  ar  
 15   7  12  1   
 16   8  13  ar  
 17   8  32  1   
 18   9  14  1   
 19   9  15  2   
 20  10  16  1   
 21  10  33  1   
 22  10  34  1   
 23  11  17  ar  
 24  12  35  1   
 25  12  36  1   
 26  12  37  1   
 27  13  17  ar  
 28  13  18  ar  
 29  14  19  1   
 30  14  38  1   
 31  15  20  1   
 32  15  39  1   
 33  16  21  1   
 34  16  22  1   
 35  16  40  1   
 36  17  23  ar  
 37  18  24  ar  
 38  18  41  1   
 39  19  20  2   
 40  19  25  1   
 41  21  42  1   
 42  21  43  1   
 43  21  44  1   
 44  22  45  1   
 45  22  46  1   
 46  22  47  1   
 47  23  26  ar  
 48  23  27  1   
 49  24  26  ar  
 50  24  48  1   
 51  25  49  1   
 52  25  50  1   
 53  25  51  1   
 54  26  52  1   
 55  27  53  1   
 56  27  54  1   
 57  27  55  1   
@<TRIPOS>SUBSTRUCTURE
  1 ****   4 GROUP 4 **** **** 0

# MOE 2024.06 (io_trps.svl 2023.06)
