@<TRIPOS>MOLECULE
NONAME
48 50 1 0 0 
SMALL
USER_CHARGES


@<TRIPOS>ATOM
  1 O       -1.4220     0.3710    -1.5380 O.2   1 <1>  -0.5700 
  2 C       -1.4510     0.6810    -0.3710 C.2   1 <1>   0.6300 
  3 N       -1.7570    -0.2160     0.5940 N.am  1 <1>  -0.7300 
  4 C       -1.1250     2.1070     0.0560 C.3   1 <1>  -0.1000 
  5 C       -2.1850    -1.6070     0.3480 C.3   1 <1>   0.2200 
  6 C       -1.9830     2.9100     1.0160 C.3   1 <1>  -0.1900 
  7 C       -1.8990     3.3130    -0.4270 C.3   1 <1>  -0.1900 
  8 C       -3.6980    -1.6440     0.2240 C.3   1 <1>  -0.0800 
  9 C       -1.9540    -2.4460     1.6000 C.3   1 <1>   0.1200 
 10 C       -3.3080     2.3630     1.5780 C.3   1 <1>  -0.1450 
 11 C       -1.2560     3.7160     2.1040 C.3   1 <1>  -0.1450 
 12 C       -1.1000     4.5580    -0.8460 C.3   1 <1>  -0.1450 
 13 C       -3.0870     3.1150    -1.3840 C.3   1 <1>  -0.1450 
 14 C       -4.1390    -1.7120     1.6900 C.3   1 <1>   0.1200 
 15 C       -4.1700    -2.8640    -0.5880 C.3   1 <1>  -0.0170 
 16 O       -3.0670    -2.2380     2.4190 O.3   1 <1>  -0.5600 
 17 C       -5.6820    -2.8630    -0.7560 C.ar  1 <1>  -0.1440 
 18 C       -6.3110    -2.0030    -1.6320 C.ar  1 <1>  -0.1500 
 19 C       -6.5020    -3.7170    -0.0460 C.ar  1 <1>  -0.1500 
 20 C       -7.6900    -2.0320    -1.7490 C.ar  1 <1>   0.1600 
 21 C       -7.8730    -3.6660    -0.2380 C.ar  1 <1>   0.1600 
 22 N       -8.4870    -2.8420    -1.0710 N.ar  1 <1>  -0.6200 
 23 H       -1.8440     0.1100     1.5580 H     1 <1>   0.3700 
 24 H       -0.0600     2.2250     0.1240 H     1 <1>   0.1000 
 25 H       -1.6750    -2.0030    -0.5140 H     1 <1>   0.0800 
 26 H       -4.0700    -0.7520    -0.2500 H     1 <1>   0.0800 
 27 H       -1.0590    -2.1680     2.1280 H     1 <1>   0.0800 
 28 H       -1.9220    -3.4920     1.3550 H     1 <1>   0.0800 
 29 H       -3.1320     1.8210     2.4900 H     1 <1>   0.0800 
 30 H       -3.8020     1.6990     0.8950 H     1 <1>   0.0800 
 31 H       -3.9740     3.1790     1.7920 H     1 <1>   0.0800 
 32 H       -1.1610     3.1290     3.0000 H     1 <1>   0.0800 
 33 H       -1.8130     4.6060     2.3340 H     1 <1>   0.0800 
 34 H       -0.2660     4.0010     1.8000 H     1 <1>   0.0800 
 35 H       -0.8560     4.5030    -1.8920 H     1 <1>   0.0800 
 36 H       -0.1780     4.6480    -0.3060 H     1 <1>   0.0800 
 37 H       -1.6860     5.4430    -0.6760 H     1 <1>   0.0800 
 38 H       -2.7400     3.1050    -2.4020 H     1 <1>   0.0800 
 39 H       -3.7910     3.9200    -1.2680 H     1 <1>   0.0800 
 40 H       -3.5990     2.1870    -1.2180 H     1 <1>   0.0800 
 41 H       -5.0050    -2.3310     1.8430 H     1 <1>   0.0800 
 42 H       -4.3360    -0.7250     2.0720 H     1 <1>   0.0800 
 43 H       -3.8580    -3.7760    -0.1100 H     1 <1>   0.0800 
 44 H       -3.7180    -2.8370    -1.5650 H     1 <1>   0.0800 
 45 H       -5.7410    -1.3100    -2.2250 H     1 <1>   0.1500 
 46 H       -6.0900    -4.4200     0.6550 H     1 <1>   0.1500 
 47 H       -8.1630    -1.3530    -2.4380 H     1 <1>   0.1500 
 48 H       -8.4970    -4.3390     0.3250 H     1 <1>   0.1500 
@<TRIPOS>BOND
  1   1   2  2   
  2   2   3  am  
  3   2   4  1   
  4   3   5  1   
  5   3  23  1   
  6   4   6  1   
  7   4   7  1   
  8   4  24  1   
  9   5   8  1   
 10   5   9  1   
 11   5  25  1   
 12   6   7  1   
 13   6  10  1   
 14   6  11  1   
 15   7  12  1   
 16   7  13  1   
 17   8  14  1   
 18   8  15  1   
 19   8  26  1   
 20   9  16  1   
 21   9  27  1   
 22   9  28  1   
 23  10  29  1   
 24  10  30  1   
 25  10  31  1   
 26  11  32  1   
 27  11  33  1   
 28  11  34  1   
 29  12  35  1   
 30  12  36  1   
 31  12  37  1   
 32  13  38  1   
 33  13  39  1   
 34  13  40  1   
 35  14  16  1   
 36  14  41  1   
 37  14  42  1   
 38  15  17  1   
 39  15  43  1   
 40  15  44  1   
 41  17  18  ar  
 42  17  19  ar  
 43  18  20  ar  
 44  18  45  1   
 45  19  21  ar  
 46  19  46  1   
 47  20  22  ar  
 48  20  47  1   
 49  21  22  ar  
 50  21  48  1   
@<TRIPOS>SUBSTRUCTURE
  1 ****   8 GROUP 4 **** **** 0

# MOE 2024.06 (io_trps.svl 2023.06)
