@<TRIPOS>MOLECULE
NONAME
47 49 1 0 0 
SMALL
USER_CHARGES


@<TRIPOS>ATOM
  1 O        2.5730     3.0850     3.2980 O.2   1 <1>  -0.5700 
  2 C        2.6290     2.3300     2.3570 C.2   1 <1>   0.5690 
  3 N        2.3960     2.6510     1.0700 N.am  1 <1>  -0.6600 
  4 C        2.9910     0.8770     2.4830 C.3   1 <1>  -0.0990 
  5 C        2.6010     1.5300     0.1410 C.3   1 <1>   0.1400 
  6 C        2.0630     4.0110     0.5900 C.3   1 <1>   0.2840 
  7 C        3.1930     0.4220     1.0250 C.3   1 <1>  -0.1600 
  8 C        0.9040     3.9880    -0.4080 C.ar  1 <1>  -0.1440 
  9 C        0.9840     4.5630    -1.6780 C.ar  1 <1>  -0.1430 
 10 C       -0.2810     3.3840    -0.0100 C.ar  1 <1>  -0.1500 
 11 C       -0.1210     4.5130    -2.5170 C.ar  1 <1>  -0.1500 
 12 C        2.2400     5.2600    -2.1890 C.3   1 <1>   0.3530 
 13 C       -1.3740     3.3360    -0.8550 C.ar  1 <1>  -0.1500 
 14 C       -1.2930     3.9020    -2.1130 C.ar  1 <1>  -0.1500 
 15 N        2.4560     6.4870    -1.4050 N.pl3 1 <1>  -0.8690 
 16 C        3.7530     6.7960    -1.0300 C.ar  1 <1>   0.4100 
 17 N        4.6510     6.7870    -1.9980 N.ar  1 <1>  -0.6200 
 18 C        4.0640     7.0810     0.3410 C.ar  1 <1>   0.4100 
 19 C        5.8620     7.1000    -1.5560 C.ar  1 <1>   0.1600 
 20 N        5.2820     7.3860     0.7540 N.ar  1 <1>  -0.6200 
 21 N        3.0660     7.0360     1.3260 N.pl3 1 <1>  -0.8380 
 22 C        6.1640     7.3890    -0.2370 C.ar  1 <1>   0.1600 
 23 C        3.4350     6.4420     2.6470 C.3   1 <1>   0.1290 
 24 C        2.2440     8.2670     1.4490 C.3   1 <1>   0.1290 
 25 H        2.1750     0.3540     2.9450 H     1 <1>   0.0800 
 26 H        3.8850     0.7600     3.0680 H     1 <1>   0.0800 
 27 H        3.2780     1.8090    -0.6490 H     1 <1>   0.0800 
 28 H        1.6540     1.2300    -0.2760 H     1 <1>   0.0800 
 29 H        2.9510     4.4360     0.1650 H     1 <1>   0.0800 
 30 H        1.7760     4.6210     1.4280 H     1 <1>   0.0800 
 31 H        2.7210    -0.5240     0.8310 H     1 <1>   0.0800 
 32 H        4.2440     0.3330     0.8150 H     1 <1>   0.0800 
 33 H       -0.3530     2.9460     0.9710 H     1 <1>   0.1500 
 34 H       -0.0760     4.9580    -3.4960 H     1 <1>   0.1500 
 35 H        2.1360     5.5260    -3.2270 H     1 <1>   0.0800 
 36 H        3.0880     4.6010    -2.0990 H     1 <1>   0.0800 
 37 H       -2.2840     2.8620    -0.5330 H     1 <1>   0.1500 
 38 H       -2.1410     3.8700    -2.7740 H     1 <1>   0.1500 
 39 H        1.8520     6.4840    -0.5750 H     1 <1>   0.4000 
 40 H        6.6500     7.1270    -2.2870 H     1 <1>   0.1500 
 41 H        7.1790     7.6340     0.0220 H     1 <1>   0.1500 
 42 H        4.0530     5.5730     2.4990 H     1 <1>   0.0800 
 43 H        2.5490     6.1430     3.1800 H     1 <1>   0.0800 
 44 H        3.9820     7.1580     3.2350 H     1 <1>   0.0800 
 45 H        2.0570     8.6880     0.4760 H     1 <1>   0.0800 
 46 H        2.7650     8.9960     2.0470 H     1 <1>   0.0800 
 47 H        1.3020     8.0330     1.9140 H     1 <1>   0.0800 
@<TRIPOS>BOND
  1   1   2  2   
  2   2   3  am  
  3   2   4  1   
  4   3   5  1   
  5   3   6  1   
  6   4   7  1   
  7   4  25  1   
  8   4  26  1   
  9   5   7  1   
 10   5  27  1   
 11   5  28  1   
 12   6   8  1   
 13   6  29  1   
 14   6  30  1   
 15   7  31  1   
 16   7  32  1   
 17   8   9  ar  
 18   8  10  ar  
 19   9  11  ar  
 20   9  12  1   
 21  10  13  ar  
 22  10  33  1   
 23  11  14  ar  
 24  11  34  1   
 25  12  15  1   
 26  12  35  1   
 27  12  36  1   
 28  13  14  ar  
 29  13  37  1   
 30  14  38  1   
 31  15  16  1   
 32  15  39  1   
 33  16  17  ar  
 34  16  18  ar  
 35  17  19  ar  
 36  18  20  ar  
 37  18  21  1   
 38  19  22  ar  
 39  19  40  1   
 40  20  22  ar  
 41  21  23  1   
 42  21  24  1   
 43  22  41  1   
 44  23  42  1   
 45  23  43  1   
 46  23  44  1   
 47  24  45  1   
 48  24  46  1   
 49  24  47  1   
@<TRIPOS>SUBSTRUCTURE
  1 ****   6 GROUP 4 **** **** 0

# MOE 2024.06 (io_trps.svl 2023.06)
