@<TRIPOS>MOLECULE
NONAME
59 62 1 0 0 
SMALL
USER_CHARGES


@<TRIPOS>ATOM
  1 O        0.5020     1.4240     0.0910 O.co2 1 <1>  -0.9000 
  2 C        1.0680     0.5030     0.6860 C.2   1 <1>   0.9060 
  3 O        0.6560    -0.0310     1.7180 O.co2 1 <1>  -0.9000 
  4 C        2.4360     0.0830     0.1430 C.3   1 <1>  -0.1060 
  5 C        3.8130    -0.3320    -0.4890 C.3   1 <1>   0.4230 
  6 C        3.0950     1.2720     1.0040 C.3   1 <1>  -0.1600 
  7 C        1.7440    -1.1370    -0.6320 C.3   1 <1>  -0.1600 
  8 N        4.4100    -1.3230     0.4680 N.4   1 <1>  -0.9590 
  9 C        4.6580     0.8060    -1.1740 C.3   1 <1>   0.3430 
 10 C        3.4810     2.4670     0.1610 C.3   1 <1>   0.3430 
 11 C        2.1980    -2.4530     0.0560 C.3   1 <1>  -0.1600 
 12 C        3.7240    -2.6320     0.1980 C.3   1 <1>   0.3430 
 13 C        5.8960    -1.4790     0.4780 C.3   1 <1>   0.2630 
 14 N        4.7840     2.1110    -0.4520 N.4   1 <1>  -0.9590 
 15 C        5.2370     3.2310    -1.3270 C.3   1 <1>   0.4860 
 16 C        5.7350     4.3390    -0.4260 C.ar  1 <1>  -0.1430 
 17 C        4.9030     5.4040    -0.1770 C.ar  1 <1>   0.0820 
 18 C        7.0210     4.2520     0.1610 C.ar  1 <1>   0.0000 
 19 O        3.6850     5.4030    -0.7790 O.3   1 <1>  -0.3630 
 20 C        5.3200     6.4250     0.6940 C.ar  1 <1>  -0.1500 
 21 C        7.4140     5.2710     1.0590 C.ar  1 <1>   0.0000 
 22 C        7.9450     3.2080    -0.0930 C.ar  1 <1>  -0.1500 
 23 C        2.7420     6.4510    -0.6610 C.3   1 <1>   0.1200 
 24 C        6.5430     6.3510     1.2960 C.ar  1 <1>  -0.1500 
 25 C        8.6690     5.1850     1.6930 C.ar  1 <1>  -0.1500 
 26 C        9.1600     3.1550     0.5320 C.ar  1 <1>  -0.1500 
 27 C        3.1300     7.5910    -1.6050 C.3   1 <1>  -0.2400 
 28 C        9.5240     4.1510     1.4410 C.ar  1 <1>  -0.1500 
 29 H        3.6600    -0.9260    -1.3710 H     1 <1>   0.0800 
 30 H        3.9450     0.9420     1.5750 H     1 <1>   0.0800 
 31 H        2.4860     1.6980     1.7950 H     1 <1>   0.0800 
 32 H        0.6590    -1.1820    -0.6160 H     1 <1>   0.0800 
 33 H        1.9260    -1.1480    -1.6960 H     1 <1>   0.0800 
 34 H        4.0740    -1.0400     1.4050 H     1 <1>   0.4500 
 35 H        4.1570     1.0140    -2.1060 H     1 <1>   0.0800 
 36 H        5.6340     0.4280    -1.4250 H     1 <1>   0.0800 
 37 H        3.5850     3.3420     0.7840 H     1 <1>   0.0800 
 38 H        2.7210     2.6610    -0.5810 H     1 <1>   0.0800 
 39 H        1.7900    -3.2980    -0.4710 H     1 <1>   0.0800 
 40 H        1.7680    -2.4750     1.0450 H     1 <1>   0.0800 
 41 H        4.1030    -3.0470    -0.7220 H     1 <1>   0.0800 
 42 H        3.9310    -3.3360     0.9890 H     1 <1>   0.0800 
 43 H        6.2490    -1.8030    -0.4870 H     1 <1>   0.0800 
 44 H        6.1840    -2.2160     1.2120 H     1 <1>   0.0800 
 45 H        6.3710    -0.5460     0.7340 H     1 <1>   0.0800 
 46 H        5.4640     2.0670     0.3190 H     1 <1>   0.4500 
 47 H        6.0360     2.9130    -1.9760 H     1 <1>   0.0800 
 48 H        4.4220     3.5810    -1.9410 H     1 <1>   0.0800 
 49 H        4.6880     7.2680     0.8990 H     1 <1>   0.1500 
 50 H        7.7100     2.4390    -0.8010 H     1 <1>   0.1500 
 51 H        1.7840     6.0520    -0.9490 H     1 <1>   0.0800 
 52 H        2.6790     6.7680     0.3640 H     1 <1>   0.0800 
 53 H        6.8640     7.1280     1.9670 H     1 <1>   0.1500 
 54 H        8.9500     5.9600     2.3850 H     1 <1>   0.1500 
 55 H        9.8610     2.3610     0.3330 H     1 <1>   0.1500 
 56 H        3.1580     7.2360    -2.6200 H     1 <1>   0.0800 
 57 H        4.0890     8.0010    -1.3450 H     1 <1>   0.0800 
 58 H        2.3990     8.3760    -1.5410 H     1 <1>   0.0800 
 59 H       10.4830     4.0950     1.9280 H     1 <1>   0.1500 
@<TRIPOS>BOND
  1   1   2  ar  
  2   2   3  ar  
  3   2   4  1   
  4   4   5  1   
  5   4   6  1   
  6   4   7  1   
  7   5   8  1   
  8   5   9  1   
  9   5  29  1   
 10   6  10  1   
 11   6  30  1   
 12   6  31  1   
 13   7  11  1   
 14   7  32  1   
 15   7  33  1   
 16   8  12  1   
 17   8  13  1   
 18   8  34  1   
 19   9  14  1   
 20   9  35  1   
 21   9  36  1   
 22  10  14  1   
 23  10  37  1   
 24  10  38  1   
 25  11  12  1   
 26  11  39  1   
 27  11  40  1   
 28  12  41  1   
 29  12  42  1   
 30  13  43  1   
 31  13  44  1   
 32  13  45  1   
 33  14  15  1   
 34  14  46  1   
 35  15  16  1   
 36  15  47  1   
 37  15  48  1   
 38  16  17  ar  
 39  16  18  ar  
 40  17  19  1   
 41  17  20  ar  
 42  18  21  ar  
 43  18  22  ar  
 44  19  23  1   
 45  20  24  ar  
 46  20  49  1   
 47  21  24  ar  
 48  21  25  ar  
 49  22  26  ar  
 50  22  50  1   
 51  23  27  1   
 52  23  51  1   
 53  23  52  1   
 54  24  53  1   
 55  25  28  ar  
 56  25  54  1   
 57  26  28  ar  
 58  26  55  1   
 59  27  56  1   
 60  27  57  1   
 61  27  58  1   
 62  28  59  1   
@<TRIPOS>SUBSTRUCTURE
  1 ****  14 GROUP 4 **** **** 0

# MOE 2024.06 (io_trps.svl 2023.06)
