@<TRIPOS>MOLECULE
NONAME
44 46 1 0 0 
SMALL
USER_CHARGES


@<TRIPOS>ATOM
  1 N        0.2680    -0.5390     0.3860 N.ar  1 <1>  -0.6200 
  2 C        0.4610    -1.7600    -0.0560 C.ar  1 <1>   0.7710 
  3 C        1.1200     0.4000     0.0160 C.ar  1 <1>   0.4100 
  4 N        1.4710    -2.0880    -0.8780 N.ar  1 <1>  -0.1790 
  5 N       -0.4140    -2.6760     0.3590 N.pl3 1 <1>  -0.8690 
  6 N        0.9130     1.6350     0.5380 N.pl3 1 <1>  -0.8380 
  7 C        2.1860     0.1280    -0.8820 C.ar  1 <1>  -0.1430 
  8 C        2.3440    -1.1480    -1.3140 C.ar  1 <1>   0.2110 
  9 C       -0.5960    -4.1110     0.0810 C.3   1 <1>   0.4330 
 10 C        1.9490     2.3620     1.3250 C.3   1 <1>   0.1290 
 11 C       -0.4640     2.1830     0.7100 C.3   1 <1>   0.1290 
 12 C        3.1140     1.2310    -1.3900 C.3   1 <1>  -0.0970 
 13 C       -2.0350    -4.3710    -0.3630 C.ar  1 <1>  -0.1430 
 14 C       -0.2100    -4.8820     1.3460 C.3   1 <1>  -0.1600 
 15 C       -2.7510    -5.4660     0.1190 C.ar  1 <1>  -0.1430 
 16 C       -2.6390    -3.5240    -1.2850 C.ar  1 <1>  -0.1500 
 17 C       -0.6430    -6.3470     1.2420 C.3   1 <1>  -0.1600 
 18 C       -4.0460    -5.6890    -0.3220 C.ar  1 <1>  -0.1500 
 19 C       -2.1680    -6.4390     1.1390 C.3   1 <1>  -0.0170 
 20 C       -3.9320    -3.7540    -1.7200 C.ar  1 <1>  -0.1500 
 21 C       -4.6360    -4.8390    -1.2380 C.ar  1 <1>  -0.1500 
 22 H        1.5320    -3.0580    -1.1610 H     1 <1>   0.4570 
 23 H       -1.1630    -2.3080     0.9560 H     1 <1>   0.4000 
 24 H        3.1280    -1.4400    -1.9940 H     1 <1>   0.1500 
 25 H        0.0470    -4.4250    -0.7210 H     1 <1>   0.0800 
 26 H        1.5640     2.6100     2.2990 H     1 <1>   0.0800 
 27 H        2.2240     3.2700     0.8160 H     1 <1>   0.0800 
 28 H        2.8230     1.7480     1.4560 H     1 <1>   0.0800 
 29 H       -0.4720     3.2350     0.4810 H     1 <1>   0.0800 
 30 H       -0.7910     2.0380     1.7250 H     1 <1>   0.0800 
 31 H       -1.1510     1.6830     0.0490 H     1 <1>   0.0800 
 32 H        3.6580     0.9150    -2.2620 H     1 <1>   0.0800 
 33 H        3.8250     1.5050    -0.6310 H     1 <1>   0.0800 
 34 H        2.5410     2.1030    -1.6540 H     1 <1>   0.0800 
 35 H        0.8530    -4.8300     1.4940 H     1 <1>   0.0800 
 36 H       -0.6950    -4.4400     2.2010 H     1 <1>   0.0800 
 37 H       -2.1140    -2.6720    -1.6780 H     1 <1>   0.1500 
 38 H       -0.1980    -6.8010     0.3720 H     1 <1>   0.0800 
 39 H       -0.3100    -6.8940     2.1080 H     1 <1>   0.0800 
 40 H       -4.6070    -6.5300     0.0480 H     1 <1>   0.1500 
 41 H       -2.6010    -6.2170     2.0990 H     1 <1>   0.0800 
 42 H       -2.4450    -7.4470     0.8810 H     1 <1>   0.0800 
 43 H       -4.3910    -3.0900    -2.4320 H     1 <1>   0.1500 
 44 H       -5.6430    -5.0230    -1.5740 H     1 <1>   0.1500 
@<TRIPOS>BOND
  1   1   2  ar  
  2   1   3  ar  
  3   2   4  ar  
  4   2   5  1   
  5   3   6  1   
  6   3   7  ar  
  7   4   8  ar  
  8   4  22  1   
  9   5   9  1   
 10   5  23  1   
 11   6  10  1   
 12   6  11  1   
 13   7   8  ar  
 14   7  12  1   
 15   8  24  1   
 16   9  13  1   
 17   9  14  1   
 18   9  25  1   
 19  10  26  1   
 20  10  27  1   
 21  10  28  1   
 22  11  29  1   
 23  11  30  1   
 24  11  31  1   
 25  12  32  1   
 26  12  33  1   
 27  12  34  1   
 28  13  15  ar  
 29  13  16  ar  
 30  14  17  1   
 31  14  35  1   
 32  14  36  1   
 33  15  18  ar  
 34  15  19  1   
 35  16  20  ar  
 36  16  37  1   
 37  17  19  1   
 38  17  38  1   
 39  17  39  1   
 40  18  21  ar  
 41  18  40  1   
 42  19  41  1   
 43  19  42  1   
 44  20  21  ar  
 45  20  43  1   
 46  21  44  1   
@<TRIPOS>SUBSTRUCTURE
  1 ****   5 GROUP 4 **** **** 0

# MOE 2024.06 (io_trps.svl 2023.06)
