@<TRIPOS>MOLECULE
NONAME
47 50 1 0 0 
SMALL
USER_CHARGES


@<TRIPOS>ATOM
  1 O       -1.0240     0.8040     0.3310 O.co2 1 <1>  -0.9030 
  2 C       -0.2730     1.7630     0.0940 C.2   1 <1>   0.9770 
  3 O        0.9320     1.5640    -0.1250 O.co2 1 <1>  -0.9030 
  4 C       -0.8160     3.1120     0.0750 C.ar  1 <1>  -0.1870 
  5 C       -2.1680     3.3280     0.3210 C.ar  1 <1>  -0.1170 
  6 C       -0.0040     4.2320    -0.1900 C.ar  1 <1>  -0.1580 
  7 C       -2.6700     4.6160     0.3020 C.ar  1 <1>   0.3020 
  8 C       -0.5080     5.5170    -0.2100 C.ar  1 <1>  -0.1170 
  9 N       -3.9390     5.1080     0.5030 N.pl3 1 <1>  -0.7040 
 10 C       -1.8620     5.7030     0.0420 C.ar  1 <1>   0.3020 
 11 C       -3.9260     6.4280     0.3570 C.cat 1 <1>   1.0690 
 12 N       -2.6670     6.8390     0.1020 N.pl3 1 <1>  -0.7670 
 13 N       -5.0400     7.1810     0.4570 N.pl3 1 <1>  -0.5970 
 14 C       -2.0910     8.2070     0.1290 C.3   1 <1>   0.2670 
 15 C       -6.2620     6.7210     1.1900 C.3   1 <1>   0.1600 
 16 C       -5.2610     8.4650    -0.2670 C.3   1 <1>   0.1600 
 17 C       -7.4340     6.4770     0.2230 C.3   1 <1>  -0.0090 
 18 C       -6.4170     8.3130    -1.2620 C.3   1 <1>  -0.1680 
 19 C       -8.6710     5.9950     1.0020 C.3   1 <1>   0.1930 
 20 C       -7.6930     7.7750    -0.5930 C.3   1 <1>  -0.1680 
 21 C       -7.2040     5.2770    -0.7150 C.3   1 <1>  -0.1680 
 22 O       -9.3550     7.0260     1.6110 O.3   1 <1>  -0.6840 
 23 C       -9.5560     5.2730    -0.0100 C.3   1 <1>  -0.1680 
 24 C       -8.6040     4.7960    -1.1160 C.3   1 <1>  -0.1680 
 25 H       -2.8150     2.4910     0.5260 H     1 <1>   0.1420 
 26 H        1.0440     4.0570    -0.3820 H     1 <1>   0.1420 
 27 H        0.1350     6.3510    -0.4180 H     1 <1>   0.1420 
 28 H       -4.7650     4.5400     0.6530 H     1 <1>   0.4440 
 29 H       -1.1140     8.1870     0.5820 H     1 <1>   0.0720 
 30 H       -2.7120     8.8680     0.7090 H     1 <1>   0.0720 
 31 H       -2.0000     8.5860    -0.8750 H     1 <1>   0.0720 
 32 H       -6.0590     5.8300     1.7580 H     1 <1>   0.0720 
 33 H       -6.5490     7.4850     1.8940 H     1 <1>   0.0720 
 34 H       -5.4950     9.2390     0.4470 H     1 <1>   0.0720 
 35 H       -4.3890     8.7610    -0.8180 H     1 <1>   0.0720 
 36 H       -6.6300     9.2730    -1.7000 H     1 <1>   0.0720 
 37 H       -6.1140     7.6640    -2.0640 H     1 <1>   0.0720 
 38 H       -8.3750     5.3010     1.7720 H     1 <1>   0.0720 
 39 H       -8.4470     7.6110    -1.3430 H     1 <1>   0.0720 
 40 H       -8.0580     8.5450     0.0640 H     1 <1>   0.0720 
 41 H       -6.6060     5.5100    -1.5780 H     1 <1>   0.0720 
 42 H       -6.7260     4.4800    -0.1740 H     1 <1>   0.0720 
 43 H       -9.8250     7.5520     0.9360 H     1 <1>   0.3940 
 44 H      -10.0550     4.4410     0.4550 H     1 <1>   0.0720 
 45 H      -10.2880     5.9400    -0.4310 H     1 <1>   0.0720 
 46 H       -8.6290     3.7250    -1.2210 H     1 <1>   0.0720 
 47 H       -8.8910     5.2390    -2.0540 H     1 <1>   0.0720 
@<TRIPOS>BOND
  1   1   2  ar  
  2   2   3  ar  
  3   2   4  1   
  4   4   5  ar  
  5   4   6  ar  
  6   5   7  ar  
  7   5  25  1   
  8   6   8  ar  
  9   6  26  1   
 10   7   9  1   
 11   7  10  ar  
 12   8  10  ar  
 13   8  27  1   
 14   9  11  ar  
 15   9  28  1   
 16  10  12  1   
 17  11  12  ar  
 18  11  13  ar  
 19  12  14  1   
 20  13  15  1   
 21  13  16  1   
 22  14  29  1   
 23  14  30  1   
 24  14  31  1   
 25  15  17  1   
 26  15  32  1   
 27  15  33  1   
 28  16  18  1   
 29  16  34  1   
 30  16  35  1   
 31  17  19  1   
 32  17  20  1   
 33  17  21  1   
 34  18  20  1   
 35  18  36  1   
 36  18  37  1   
 37  19  22  1   
 38  19  23  1   
 39  19  38  1   
 40  20  39  1   
 41  20  40  1   
 42  21  24  1   
 43  21  41  1   
 44  21  42  1   
 45  22  43  1   
 46  23  24  1   
 47  23  44  1   
 48  23  45  1   
 49  24  46  1   
 50  24  47  1   
@<TRIPOS>SUBSTRUCTURE
  1 ****   9 GROUP 4 **** **** 0

# MOE 2024.06 (io_trps.svl 2023.06)
