@<TRIPOS>MOLECULE
NONAME
40 42 1 0 0 
SMALL
USER_CHARGES


@<TRIPOS>ATOM
  1 O       -0.2390    -0.6060    -1.1200 O.2   1 <1>  -0.5700 
  2 C       -0.1120    -1.8100    -1.0420 C.2   1 <1>   0.5440 
  3 N       -1.0330    -2.5420    -1.7050 N.am  1 <1>  -0.8000 
  4 C        0.9740    -2.4140    -0.3000 C.ar  1 <1>   0.0860 
  5 C        0.8900    -3.6970     0.2880 C.ar  1 <1>   0.4100 
  6 C        2.1730    -1.7240    -0.1610 C.ar  1 <1>  -0.1500 
  7 N        1.9070    -4.2860     0.9190 N.ar  1 <1>  -0.6200 
  8 N       -0.2820    -4.4340     0.2820 N.pl3 1 <1>  -0.8380 
  9 C        3.2110    -2.3300     0.5070 C.ar  1 <1>  -0.1500 
 10 C        3.0270    -3.6020     1.0160 C.ar  1 <1>   0.1600 
 11 C       -0.2220    -5.9210     0.1450 C.3   1 <1>   0.2090 
 12 C       -1.3470    -4.0320     1.2480 C.3   1 <1>   0.2090 
 13 C       -1.5930    -6.4900    -0.2650 C.3   1 <1>   0.1100 
 14 C       -2.7120    -4.6020     0.8210 C.3   1 <1>   0.1100 
 15 N       -2.6800    -6.0700     0.6540 N.3   1 <1>  -0.8100 
 16 C       -4.0140    -6.5890     0.2420 C.3   1 <1>   0.2900 
 17 C       -4.0960    -8.0990     0.0180 C.2   1 <1>   0.2980 
 18 O       -3.6550    -8.6010    -1.1130 O.3   1 <1>  -0.2800 
 19 N       -4.5910    -8.9640     0.8230 N.2   1 <1>  -0.5650 
 20 C       -3.8660    -9.8820    -1.0250 C.2   1 <1>  -0.0100 
 21 C       -4.4460   -10.1630     0.1590 C.2   1 <1>  -0.0060 
 22 C       -4.8240   -11.5100     0.5960 C.2   1 <1>   1.0330 
 23 O       -4.5710   -12.4780    -0.1510 O.co2 1 <1>  -0.9000 
 24 O       -5.3940   -11.7400     1.6800 O.co2 1 <1>  -0.9000 
 25 H       -1.8090    -2.0830    -2.1780 H     1 <1>   0.3700 
 26 H       -1.1090    -3.5420    -1.4840 H     1 <1>   0.3700 
 27 H        2.2810    -0.7360    -0.5750 H     1 <1>   0.1500 
 28 H        4.1530    -1.8280     0.6310 H     1 <1>   0.1500 
 29 H        3.8460    -4.0750     1.5310 H     1 <1>   0.1500 
 30 H        0.0740    -6.3560     1.0850 H     1 <1>   0.0800 
 31 H        0.5160    -6.1870    -0.5920 H     1 <1>   0.0800 
 32 H       -1.4050    -2.9590     1.3050 H     1 <1>   0.0800 
 33 H       -1.0970    -4.4060     2.2260 H     1 <1>   0.0800 
 34 H       -1.5140    -7.5630    -0.2580 H     1 <1>   0.0800 
 35 H       -1.8180    -6.1770    -1.2690 H     1 <1>   0.0800 
 36 H       -3.0080    -4.1350    -0.1020 H     1 <1>   0.0800 
 37 H       -3.4390    -4.3490     1.5730 H     1 <1>   0.0800 
 38 H       -4.3250    -6.1030    -0.6650 H     1 <1>   0.0800 
 39 H       -4.7250    -6.3430     1.0100 H     1 <1>   0.0800 
 40 H       -3.5880   -10.5460    -1.8240 H     1 <1>   0.1500 
@<TRIPOS>BOND
  1   1   2  2   
  2   2   3  am  
  3   2   4  1   
  4   3  25  1   
  5   3  26  1   
  6   4   5  ar  
  7   4   6  ar  
  8   5   7  ar  
  9   5   8  1   
 10   6   9  ar  
 11   6  27  1   
 12   7  10  ar  
 13   8  11  1   
 14   8  12  1   
 15   9  10  ar  
 16   9  28  1   
 17  10  29  1   
 18  11  13  1   
 19  11  30  1   
 20  11  31  1   
 21  12  14  1   
 22  12  32  1   
 23  12  33  1   
 24  13  15  1   
 25  13  34  1   
 26  13  35  1   
 27  14  15  1   
 28  14  36  1   
 29  14  37  1   
 30  15  16  1   
 31  16  17  1   
 32  16  38  1   
 33  16  39  1   
 34  17  18  1   
 35  17  19  2   
 36  18  20  1   
 37  19  21  1   
 38  20  21  2   
 39  20  40  1   
 40  21  22  1   
 41  22  23  ar  
 42  22  24  ar  
@<TRIPOS>SUBSTRUCTURE
  1 ****  13 GROUP 4 **** **** 0

# MOE 2024.06 (io_trps.svl 2023.06)
