@<TRIPOS>MOLECULE
NONAME
53 56 1 0 0 
SMALL
USER_CHARGES


@<TRIPOS>ATOM
  1 O       -2.1090     2.4550     2.0850 O.3   1 <1>  -0.6800 
  2 C       -2.5150     1.8080     0.9170 C.3   1 <1>   0.1200 
  3 C       -1.6480     2.1620    -0.3340 C.3   1 <1>   0.0000 
  4 C       -2.0190     3.5540    -0.9270 C.3   1 <1>   0.1900 
  5 C       -0.1240     2.1190     0.0010 C.3   1 <1>  -0.1600 
  6 C       -1.9320     1.0900    -1.4130 C.3   1 <1>  -0.1600 
  7 N       -3.4520     3.5960    -1.3680 N.3   1 <1>  -0.8100 
  8 C       -1.6280     4.6880     0.0600 C.3   1 <1>   0.3430 
  9 C        0.5180     3.4850     0.2920 C.3   1 <1>   0.3430 
 10 C       -3.3740     1.1770    -1.9300 C.3   1 <1>  -0.1600 
 11 C       -3.7050     2.5880    -2.4170 C.3   1 <1>   0.1100 
 12 C       -3.8680     4.9220    -1.9010 C.3   1 <1>   0.2900 
 13 N       -0.4710     4.3570     0.9550 N.4   1 <1>  -0.9590 
 14 C       -4.1250     5.9120    -0.7780 C.2   1 <1>   0.0060 
 15 C        0.1130     5.5530     1.6040 C.3   1 <1>   0.3430 
 16 N       -3.4670     7.0070    -0.6000 N.2   1 <1>  -0.5650 
 17 N       -5.0670     5.6750     0.1670 N.pl3 1 <1>   0.0330 
 18 C       -0.8870     6.1360     2.5960 C.3   1 <1>  -0.2400 
 19 C       -4.0060     7.5420     0.5310 C.ar  1 <1>   0.2270 
 20 C       -4.9950     6.7160     1.0330 C.ar  1 <1>  -0.1520 
 21 C       -3.6850     8.7250     1.1950 C.ar  1 <1>  -0.1500 
 22 C       -5.6800     7.0350     2.2070 C.ar  1 <1>  -0.1500 
 23 C       -4.3560     9.0490     2.3540 C.ar  1 <1>  -0.1500 
 24 C       -5.3520     8.2020     2.8590 C.ar  1 <1>  -0.1500 
 25 H       -2.6590     2.1460     2.8380 H     1 <1>   0.4000 
 26 H       -2.4540     0.7500     1.1100 H     1 <1>   0.0800 
 27 H       -3.5480     2.0580     0.7460 H     1 <1>   0.0800 
 28 H       -1.4130     3.7010    -1.8050 H     1 <1>   0.0800 
 29 H        0.4300     1.6910    -0.8150 H     1 <1>   0.0800 
 30 H        0.0430     1.4700     0.8430 H     1 <1>   0.0800 
 31 H       -1.2730     1.2340    -2.2530 H     1 <1>   0.0800 
 32 H       -1.7470     0.1030    -1.0240 H     1 <1>   0.0800 
 33 H       -2.4800     4.8940     0.6850 H     1 <1>   0.0800 
 34 H       -1.4080     5.5770    -0.5070 H     1 <1>   0.0800 
 35 H        0.8370     3.9440    -0.6300 H     1 <1>   0.0800 
 36 H        1.3820     3.3480     0.9220 H     1 <1>   0.0800 
 37 H       -4.0750     0.8910    -1.1660 H     1 <1>   0.0800 
 38 H       -3.5000     0.4880    -2.7470 H     1 <1>   0.0800 
 39 H       -4.7440     2.6140    -2.7030 H     1 <1>   0.0800 
 40 H       -3.1130     2.8130    -3.2900 H     1 <1>   0.0800 
 41 H       -3.1160     5.3110    -2.5670 H     1 <1>   0.0800 
 42 H       -4.7830     4.8250    -2.4600 H     1 <1>   0.0800 
 43 H       -0.9040     3.7590     1.6900 H     1 <1>   0.4500 
 44 H        1.0090     5.2740     2.1350 H     1 <1>   0.0800 
 45 H        0.3710     6.2910     0.8610 H     1 <1>   0.0800 
 46 H       -5.6740     4.8530     0.2320 H     1 <1>   0.2700 
 47 H       -1.1800     5.3980     3.3210 H     1 <1>   0.0800 
 48 H       -1.7600     6.5150     2.0950 H     1 <1>   0.0800 
 49 H       -0.4300     6.9570     3.1190 H     1 <1>   0.0800 
 50 H       -2.9220     9.3590     0.7840 H     1 <1>   0.1500 
 51 H       -6.4470     6.3820     2.5860 H     1 <1>   0.1500 
 52 H       -4.1240     9.9580     2.8800 H     1 <1>   0.1500 
 53 H       -5.8620     8.4790     3.7660 H     1 <1>   0.1500 
@<TRIPOS>BOND
  1   1   2  1   
  2   1  25  1   
  3   2   3  1   
  4   2  26  1   
  5   2  27  1   
  6   3   4  1   
  7   3   5  1   
  8   3   6  1   
  9   4   7  1   
 10   4   8  1   
 11   4  28  1   
 12   5   9  1   
 13   5  29  1   
 14   5  30  1   
 15   6  10  1   
 16   6  31  1   
 17   6  32  1   
 18   7  11  1   
 19   7  12  1   
 20   8  13  1   
 21   8  33  1   
 22   8  34  1   
 23   9  13  1   
 24   9  35  1   
 25   9  36  1   
 26  10  11  1   
 27  10  37  1   
 28  10  38  1   
 29  11  39  1   
 30  11  40  1   
 31  12  14  1   
 32  12  41  1   
 33  12  42  1   
 34  13  15  1   
 35  13  43  1   
 36  14  16  2   
 37  14  17  1   
 38  15  18  1   
 39  15  44  1   
 40  15  45  1   
 41  16  19  1   
 42  17  20  1   
 43  17  46  1   
 44  18  47  1   
 45  18  48  1   
 46  18  49  1   
 47  19  20  ar  
 48  19  21  ar  
 49  20  22  ar  
 50  21  23  ar  
 51  21  50  1   
 52  22  24  ar  
 53  22  51  1   
 54  23  24  ar  
 55  23  52  1   
 56  24  53  1   
@<TRIPOS>SUBSTRUCTURE
  1 ****   8 GROUP 4 **** **** 0

# MOE 2024.06 (io_trps.svl 2023.06)
