@<TRIPOS>MOLECULE
NONAME
43 44 1 0 0 
SMALL
USER_CHARGES


@<TRIPOS>ATOM
  1 O        2.0180    -0.0110     2.5450 O.co2 1 <1>  -0.9000 
  2 C        1.8950    -0.3610     1.3670 C.2   1 <1>   0.9060 
  3 O        1.5890    -1.5190     1.0530 O.co2 1 <1>  -0.9000 
  4 C        2.2450     0.6150     0.2320 C.3   1 <1>  -0.1060 
  5 C        3.5060    -0.0420    -0.3820 C.3   1 <1>   0.2000 
  6 C        2.6110     2.0310     0.7800 C.3   1 <1>  -0.1600 
  7 C        1.0090     0.7450    -0.7180 C.3   1 <1>  -0.1600 
  8 O        3.1660    -0.9980    -1.3210 O.3   1 <1>  -0.6800 
  9 C        4.4870     0.9690    -0.9780 C.3   1 <1>   0.2090 
 10 C        4.0660     2.1160     1.2500 C.3   1 <1>   0.2090 
 11 C        1.2210     1.4780    -2.0580 C.3   1 <1>  -0.1600 
 12 N        5.0080     1.9190     0.0810 N.pl3 1 <1>  -0.8380 
 13 C       -0.0900     1.5510    -2.8460 C.3   1 <1>  -0.2400 
 14 C        6.2350     2.4960     0.0820 C.ar  1 <1>   0.7710 
 15 N        6.6340     3.2080     1.1270 N.ar  1 <1>  -0.6200 
 16 N        7.0220     2.3320    -0.9960 N.ar  1 <1>  -0.1790 
 17 C        7.8290     3.7450     1.0900 C.ar  1 <1>   0.4100 
 18 C        8.2610     2.8750    -1.0680 C.ar  1 <1>   0.2110 
 19 N        8.1660     4.4400     2.1790 N.pl3 1 <1>  -0.9000 
 20 C        8.7010     3.6040    -0.0120 C.ar  1 <1>  -0.1440 
 21 C       10.0830     4.2530    -0.0050 C.3   1 <1>  -0.0970 
 22 H        4.0420    -0.5710     0.3910 H     1 <1>   0.0800 
 23 H        1.9600     2.2780     1.6010 H     1 <1>   0.0800 
 24 H        2.4690     2.7950     0.0420 H     1 <1>   0.0800 
 25 H        0.6430    -0.2430    -0.9420 H     1 <1>   0.0800 
 26 H        0.2230     1.2360    -0.1710 H     1 <1>   0.0800 
 27 H        2.5070    -1.5850    -0.8670 H     1 <1>   0.4000 
 28 H        3.9860     1.5330    -1.7440 H     1 <1>   0.0800 
 29 H        5.2930     0.4090    -1.4150 H     1 <1>   0.0800 
 30 H        4.2470     1.3600     1.9990 H     1 <1>   0.0800 
 31 H        4.2200     3.0780     1.7080 H     1 <1>   0.0800 
 32 H        1.5770     2.4780    -1.8990 H     1 <1>   0.0800 
 33 H        1.9440     0.9480    -2.6510 H     1 <1>   0.0800 
 34 H       -0.8340     2.0900    -2.2880 H     1 <1>   0.0800 
 35 H       -0.4580     0.5600    -3.0470 H     1 <1>   0.0800 
 36 H        0.0690     2.0530    -3.7830 H     1 <1>   0.0800 
 37 H        6.6130     1.7810    -1.7410 H     1 <1>   0.4570 
 38 H        8.8520     2.7110    -1.9550 H     1 <1>   0.1500 
 39 H        7.5060     4.5030     2.9590 H     1 <1>   0.4000 
 40 H        9.0550     4.9200     2.3240 H     1 <1>   0.4000 
 41 H       10.6170     4.0510    -0.9170 H     1 <1>   0.0800 
 42 H       10.6660     3.8750     0.8170 H     1 <1>   0.0800 
 43 H        9.9910     5.3210     0.1010 H     1 <1>   0.0800 
@<TRIPOS>BOND
  1   1   2  ar  
  2   2   3  ar  
  3   2   4  1   
  4   4   5  1   
  5   4   6  1   
  6   4   7  1   
  7   5   8  1   
  8   5   9  1   
  9   5  22  1   
 10   6  10  1   
 11   6  23  1   
 12   6  24  1   
 13   7  11  1   
 14   7  25  1   
 15   7  26  1   
 16   8  27  1   
 17   9  12  1   
 18   9  28  1   
 19   9  29  1   
 20  10  12  1   
 21  10  30  1   
 22  10  31  1   
 23  11  13  1   
 24  11  32  1   
 25  11  33  1   
 26  12  14  1   
 27  13  34  1   
 28  13  35  1   
 29  13  36  1   
 30  14  15  ar  
 31  14  16  ar  
 32  15  17  ar  
 33  16  18  ar  
 34  16  37  1   
 35  17  19  1   
 36  17  20  ar  
 37  18  20  ar  
 38  18  38  1   
 39  19  39  1   
 40  19  40  1   
 41  20  21  1   
 42  21  41  1   
 43  21  42  1   
 44  21  43  1   
@<TRIPOS>SUBSTRUCTURE
  1 ****  12 GROUP 4 **** **** 0

# MOE 2024.06 (io_trps.svl 2023.06)
