@<TRIPOS>MOLECULE
NONAME
45 47 1 0 0 
SMALL
USER_CHARGES


@<TRIPOS>ATOM
  1 O       -2.8120     1.1300    -1.7990 O.2   1 <1>  -0.5700 
  2 C       -2.2090     0.8980    -0.7770 C.2   1 <1>   0.5690 
  3 N       -2.0780    -0.3750    -0.3220 N.am  1 <1>  -0.7300 
  4 C       -1.6080     2.0530     0.0520 C.3   1 <1>   0.0610 
  5 C       -2.6140    -1.5740    -1.0000 C.3   1 <1>   0.2200 
  6 C       -0.2450     1.6960     0.6730 C.3   1 <1>  -0.1600 
  7 C       -1.2520     3.2790    -0.8050 C.3   1 <1>  -0.1600 
  8 C       -2.6020     2.4590     1.1610 C.3   1 <1>  -0.2400 
  9 C       -3.8880    -2.0130    -0.2980 C.3   1 <1>  -0.0800 
 10 C       -1.6930    -2.7610    -0.7430 C.3   1 <1>   0.1200 
 11 C        0.4830     3.0240     0.9060 C.3   1 <1>  -0.1600 
 12 C       -0.1620     4.0390    -0.0430 C.3   1 <1>  -0.1600 
 13 C       -3.3450    -2.8560     0.8620 C.3   1 <1>   0.1200 
 14 C       -4.7970    -2.8270    -1.2390 C.3   1 <1>  -0.0170 
 15 O       -2.0570    -3.2710     0.5050 O.3   1 <1>  -0.5600 
 16 C       -6.0870    -3.2410    -0.5470 C.ar  1 <1>  -0.1440 
 17 C       -6.3120    -4.5350    -0.1240 C.ar  1 <1>  -0.1500 
 18 C       -7.1020    -2.3370    -0.3090 C.ar  1 <1>  -0.1500 
 19 C       -7.5050    -4.8530     0.5030 C.ar  1 <1>   0.1600 
 20 C       -8.2580    -2.7580     0.3270 C.ar  1 <1>   0.1600 
 21 N       -8.4840    -3.9940     0.7400 N.ar  1 <1>  -0.6200 
 22 H       -1.6080    -0.5590     0.5650 H     1 <1>   0.3700 
 23 H       -2.7500    -1.3800    -2.0510 H     1 <1>   0.0800 
 24 H       -0.3400     1.1300     1.5830 H     1 <1>   0.0800 
 25 H        0.3230     1.1180    -0.0360 H     1 <1>   0.0800 
 26 H       -0.8440     2.9440    -1.7440 H     1 <1>   0.0800 
 27 H       -2.1100     3.8940    -1.0130 H     1 <1>   0.0800 
 28 H       -2.2220     3.2700     1.7540 H     1 <1>   0.0800 
 29 H       -2.7990     1.6250     1.8110 H     1 <1>   0.0800 
 30 H       -3.5330     2.7680     0.7200 H     1 <1>   0.0800 
 31 H       -4.4410    -1.1650     0.0660 H     1 <1>   0.0800 
 32 H       -0.6530    -2.4860    -0.7350 H     1 <1>   0.0800 
 33 H       -1.8580    -3.5350    -1.4720 H     1 <1>   0.0800 
 34 H        0.3470     3.3450     1.9240 H     1 <1>   0.0800 
 35 H        1.5370     2.9220     0.7130 H     1 <1>   0.0800 
 36 H        0.5600     4.4560    -0.7250 H     1 <1>   0.0800 
 37 H       -0.6030     4.8390     0.5260 H     1 <1>   0.0800 
 38 H       -3.9450    -3.7230     1.0730 H     1 <1>   0.0800 
 39 H       -3.2560    -2.2590     1.7530 H     1 <1>   0.0800 
 40 H       -4.2810    -3.7020    -1.5940 H     1 <1>   0.0800 
 41 H       -5.0460    -2.2280    -2.0980 H     1 <1>   0.0800 
 42 H       -5.5720    -5.3010    -0.2750 H     1 <1>   0.1500 
 43 H       -7.0050    -1.3100    -0.6110 H     1 <1>   0.1500 
 44 H       -7.6630    -5.8670     0.8270 H     1 <1>   0.1500 
 45 H       -9.0390    -2.0380     0.5040 H     1 <1>   0.1500 
@<TRIPOS>BOND
  1   1   2  2   
  2   2   3  am  
  3   2   4  1   
  4   3   5  1   
  5   3  22  1   
  6   4   6  1   
  7   4   7  1   
  8   4   8  1   
  9   5   9  1   
 10   5  10  1   
 11   5  23  1   
 12   6  11  1   
 13   6  24  1   
 14   6  25  1   
 15   7  12  1   
 16   7  26  1   
 17   7  27  1   
 18   8  28  1   
 19   8  29  1   
 20   8  30  1   
 21   9  13  1   
 22   9  14  1   
 23   9  31  1   
 24  10  15  1   
 25  10  32  1   
 26  10  33  1   
 27  11  12  1   
 28  11  34  1   
 29  11  35  1   
 30  12  36  1   
 31  12  37  1   
 32  13  15  1   
 33  13  38  1   
 34  13  39  1   
 35  14  16  1   
 36  14  40  1   
 37  14  41  1   
 38  16  17  ar  
 39  16  18  ar  
 40  17  19  ar  
 41  17  42  1   
 42  18  20  ar  
 43  18  43  1   
 44  19  21  ar  
 45  19  44  1   
 46  20  21  ar  
 47  20  45  1   
@<TRIPOS>SUBSTRUCTURE
  1 ****   9 GROUP 4 **** **** 0

# MOE 2024.06 (io_trps.svl 2023.06)
