@<TRIPOS>MOLECULE
NONAME
48 50 1 0 0 
SMALL
USER_CHARGES


@<TRIPOS>ATOM
  1 O        1.2510    -0.7340     2.5930 O.co2 1 <1>  -0.9000 
  2 C        1.9830    -0.8060     1.5980 C.2   1 <1>   0.9060 
  3 O        2.5810    -1.8560     1.3290 O.co2 1 <1>  -0.9000 
  4 C        2.1540     0.4480     0.7170 C.3   1 <1>  -0.1060 
  5 C        3.0270     0.0480    -0.5170 C.3   1 <1>   0.2000 
  6 C        2.9130     1.4930     1.5950 C.3   1 <1>  -0.1600 
  7 C        0.7110     0.9270     0.3430 C.3   1 <1>  -0.0160 
  8 O        2.7430     0.8230    -1.6360 O.3   1 <1>  -0.6800 
  9 C        4.5260     0.2060    -0.1880 C.3   1 <1>   0.1100 
 10 C        3.8530     2.3930     0.7880 C.3   1 <1>   0.1100 
 11 C        0.5400     2.2670    -0.3860 C.ar  1 <1>  -0.1430 
 12 N        4.9330     1.6080     0.1430 N.3   1 <1>  -0.8100 
 13 C        0.5960     3.4680     0.3050 C.ar  1 <1>  -0.1500 
 14 C        0.2840     2.2960    -1.7500 C.ar  1 <1>  -0.1500 
 15 C        5.4490     2.3100    -1.0490 C.3   1 <1>   0.2900 
 16 C        0.4430     4.6740    -0.3570 C.ar  1 <1>  -0.1500 
 17 C        0.1290     3.4990    -2.4170 C.ar  1 <1>  -0.1500 
 18 C        6.2310     3.5560    -0.6690 C.2   1 <1>  -0.0400 
 19 C        0.2150     4.6910    -1.7210 C.ar  1 <1>  -0.1500 
 20 O        6.4970     4.4530    -1.5810 O.3   1 <1>  -0.0190 
 21 C        6.7620     3.9790     0.4880 C.2   1 <1>  -0.1500 
 22 N        7.1730     5.4550    -1.0950 N.2   1 <1>  -0.4100 
 23 C        7.3480     5.1960     0.1520 C.2   1 <1>   0.1080 
 24 C        8.0930     6.0990     1.1170 C.3   1 <1>   0.0210 
 25 C        9.4870     5.5470     1.4300 C.3   1 <1>  -0.2400 
 26 H        2.8310    -0.9690    -0.8120 H     1 <1>   0.0800 
 27 H        3.5200     0.9780     2.3200 H     1 <1>   0.0800 
 28 H        2.2180     2.0760     2.1660 H     1 <1>   0.0800 
 29 H        0.2470     0.1500    -0.2390 H     1 <1>   0.0800 
 30 H        0.1300     0.9970     1.2470 H     1 <1>   0.0800 
 31 H        2.2400     1.6090    -1.3300 H     1 <1>   0.4000 
 32 H        5.1140    -0.1850    -0.9990 H     1 <1>   0.0800 
 33 H        4.7360    -0.4130     0.6670 H     1 <1>   0.0800 
 34 H        4.2920     3.1260     1.4410 H     1 <1>   0.0800 
 35 H        3.2780     2.9170     0.0430 H     1 <1>   0.0800 
 36 H        0.7520     3.4730     1.3680 H     1 <1>   0.1500 
 37 H        0.2090     1.3740    -2.3020 H     1 <1>   0.1500 
 38 H        6.1100     1.6610    -1.5950 H     1 <1>   0.0800 
 39 H        4.6350     2.5780    -1.6990 H     1 <1>   0.0800 
 40 H        0.5000     5.5980     0.1910 H     1 <1>   0.1500 
 41 H       -0.0570     3.5040    -3.4760 H     1 <1>   0.1500 
 42 H        0.0990     5.6270    -2.2380 H     1 <1>   0.1500 
 43 H        6.7470     3.5000     1.4490 H     1 <1>   0.1500 
 44 H        8.1830     7.0780     0.6810 H     1 <1>   0.0800 
 45 H        7.5230     6.1900     2.0240 H     1 <1>   0.0800 
 46 H       10.0580     5.4600     0.5220 H     1 <1>   0.0800 
 47 H        9.4120     4.5760     1.8850 H     1 <1>   0.0800 
 48 H       10.0050     6.2080     2.1030 H     1 <1>   0.0800 
@<TRIPOS>BOND
  1   1   2  ar  
  2   2   3  ar  
  3   2   4  1   
  4   4   5  1   
  5   4   6  1   
  6   4   7  1   
  7   5   8  1   
  8   5   9  1   
  9   5  26  1   
 10   6  10  1   
 11   6  27  1   
 12   6  28  1   
 13   7  11  1   
 14   7  29  1   
 15   7  30  1   
 16   8  31  1   
 17   9  12  1   
 18   9  32  1   
 19   9  33  1   
 20  10  12  1   
 21  10  34  1   
 22  10  35  1   
 23  11  13  ar  
 24  11  14  ar  
 25  12  15  1   
 26  13  16  ar  
 27  13  36  1   
 28  14  17  ar  
 29  14  37  1   
 30  15  18  1   
 31  15  38  1   
 32  15  39  1   
 33  16  19  ar  
 34  16  40  1   
 35  17  19  ar  
 36  17  41  1   
 37  18  20  1   
 38  18  21  2   
 39  19  42  1   
 40  20  22  1   
 41  21  23  1   
 42  21  43  1   
 43  22  23  2   
 44  23  24  1   
 45  24  25  1   
 46  24  44  1   
 47  24  45  1   
 48  25  46  1   
 49  25  47  1   
 50  25  48  1   
@<TRIPOS>SUBSTRUCTURE
  1 ****  10 GROUP 4 **** **** 0

# MOE 2024.06 (io_trps.svl 2023.06)
