@<TRIPOS>MOLECULE
NONAME
41 44 1 0 0 
SMALL
USER_CHARGES


@<TRIPOS>ATOM
  1 S       -0.5470     0.7520     2.3970 S.3   1 <1>  -0.0800 
  2 C       -1.1720     1.5500     0.9620 C.2   1 <1>  -0.1400 
  3 C       -2.0910    -0.0470     2.6640 C.2   1 <1>  -0.1100 
  4 C       -2.4520     1.2160     0.7540 C.2   1 <1>  -0.1810 
  5 C       -0.3300     2.4880     0.1060 C.3   1 <1>   0.4600 
  6 C       -2.9840     0.3000     1.7160 C.2   1 <1>  -0.1500 
  7 C       -3.1950     1.8060    -0.4240 C.3   1 <1>   0.0210 
  8 O       -1.0710     2.8340    -1.0480 O.3   1 <1>  -0.5600 
  9 C        0.9390     1.7890    -0.3910 C.3   1 <1>  -0.1600 
 10 C        0.0360     3.7690     0.8680 C.3   1 <1>  -0.1600 
 11 C       -2.4530     3.0690    -0.9050 C.3   1 <1>   0.1200 
 12 C        1.8130     2.7320    -1.2190 C.3   1 <1>   0.1400 
 13 C        0.9190     4.6940     0.0280 C.3   1 <1>   0.1400 
 14 N        2.1330     3.9500    -0.4180 N.am  1 <1>  -0.6600 
 15 C        3.4390     4.3370    -0.2140 C.2   1 <1>   0.5690 
 16 O        4.3650     3.6280    -0.5330 O.2   1 <1>  -0.5700 
 17 C        3.8010     5.6420     0.4620 C.3   1 <1>   0.1570 
 18 N        3.3920     6.7900    -0.3570 N.pl3 1 <1>   0.3140 
 19 N        3.7650     6.9940    -1.6080 N.2   1 <1>  -0.4180 
 20 C        2.5930     7.7990    -0.0090 C.2   1 <1>   0.2700 
 21 N        3.1840     8.0730    -1.9850 N.2   1 <1>   0.0000 
 22 N        2.4450     8.5890    -1.0040 N.2   1 <1>  -0.3380 
 23 N        1.9880     8.0150     1.2190 N.pl3 1 <1>  -0.8840 
 24 H       -2.1680    -0.7020     3.5130 H     1 <1>   0.1500 
 25 H       -3.9990    -0.0510     1.6520 H     1 <1>   0.1500 
 26 H       -4.1960     2.0690    -0.1360 H     1 <1>   0.0800 
 27 H       -3.2450     1.0860    -1.2200 H     1 <1>   0.0800 
 28 H        0.6630     0.9330    -0.9800 H     1 <1>   0.0800 
 29 H        1.5150     1.4370     0.4440 H     1 <1>   0.0800 
 30 H        0.5700     3.5050     1.7620 H     1 <1>   0.0800 
 31 H       -0.8550     4.2840     1.1720 H     1 <1>   0.0800 
 32 H       -2.5920     3.8740    -0.2040 H     1 <1>   0.0800 
 33 H       -2.8330     3.3790    -1.8620 H     1 <1>   0.0800 
 34 H        1.2910     3.0270    -2.1130 H     1 <1>   0.0800 
 35 H        2.7120     2.2190    -1.5170 H     1 <1>   0.0800 
 36 H        1.1770     5.5510     0.6190 H     1 <1>   0.0800 
 37 H        0.3770     5.0340    -0.8390 H     1 <1>   0.0800 
 38 H        4.8640     5.6860     0.5970 H     1 <1>   0.0800 
 39 H        3.3260     5.6910     1.4220 H     1 <1>   0.0800 
 40 H        1.2750     8.7500     1.1440 H     1 <1>   0.4000 
 41 H        2.6380     8.2900     1.9620 H     1 <1>   0.4000 
@<TRIPOS>BOND
  1   1   2  1   
  2   1   3  1   
  3   2   4  2   
  4   2   5  1   
  5   3   6  2   
  6   3  24  1   
  7   4   6  1   
  8   4   7  1   
  9   5   8  1   
 10   5   9  1   
 11   5  10  1   
 12   6  25  1   
 13   7  11  1   
 14   7  26  1   
 15   7  27  1   
 16   8  11  1   
 17   9  12  1   
 18   9  28  1   
 19   9  29  1   
 20  10  13  1   
 21  10  30  1   
 22  10  31  1   
 23  11  32  1   
 24  11  33  1   
 25  12  14  1   
 26  12  34  1   
 27  12  35  1   
 28  13  14  1   
 29  13  36  1   
 30  13  37  1   
 31  14  15  am  
 32  15  16  2   
 33  15  17  1   
 34  17  18  1   
 35  17  38  1   
 36  17  39  1   
 37  18  19  1   
 38  18  20  1   
 39  19  21  2   
 40  20  22  2   
 41  20  23  1   
 42  21  22  1   
 43  23  40  1   
 44  23  41  1   
@<TRIPOS>SUBSTRUCTURE
  1 ****  13 GROUP 4 **** **** 0

# MOE 2024.06 (io_trps.svl 2023.06)
