@<TRIPOS>MOLECULE
NONAME
46 48 1 0 0 
SMALL
USER_CHARGES


@<TRIPOS>ATOM
  1 O        0.2100     0.5660     0.1160 O.3   1 <1>  -0.0190 
  2 N        1.2930     1.2480     0.3330 N.2   1 <1>  -0.4100 
  3 C        0.6400    -0.6160    -0.2530 C.2   1 <1>   0.2980 
  4 C        2.2790     0.4750     0.0960 C.2   1 <1>   0.3350 
  5 N        1.9130    -0.7410    -0.2880 N.2   1 <1>  -0.5650 
  6 C       -0.4180    -1.6740    -0.6000 C.3   1 <1>   0.3800 
  7 C        3.7580     0.8480     0.2240 C.3   1 <1>   0.3900 
  8 O       -1.1270    -2.0350     0.5470 O.3   1 <1>  -0.5600 
  9 C        0.1440    -3.0040    -1.0980 C.3   1 <1>  -0.1600 
 10 N        3.9590     2.3050     0.4780 N.pl3 1 <1>  -0.8690 
 11 C       -0.4560    -3.0460     1.2300 C.3   1 <1>   0.1200 
 12 C        0.3540    -3.8040     0.1800 C.3   1 <1>  -0.1600 
 13 C        5.0520     3.0700     0.3670 C.ar  1 <1>   0.4100 
 14 N        4.8530     4.3510     0.5620 N.ar  1 <1>  -0.6200 
 15 C        6.3220     2.5450     0.0680 C.ar  1 <1>  -0.1500 
 16 C        5.8930     5.1690     0.4620 C.ar  1 <1>   0.7710 
 17 C        7.3750     3.3930    -0.0210 C.ar  1 <1>   0.2180 
 18 N        7.1250     4.7080     0.1850 N.ar  1 <1>  -0.1790 
 19 N        5.7160     6.5080     0.6480 N.pl3 1 <1>  -0.8380 
 20 C        8.8000     2.9470    -0.3290 C.3   1 <1>  -0.0170 
 21 C        6.7070     7.5980     0.3790 C.3   1 <1>   0.1290 
 22 C        4.3920     7.0530     1.1020 C.3   1 <1>   0.1290 
 23 C        9.3250     3.5470    -1.6400 C.3   1 <1>  -0.2400 
 24 H       -1.1120    -1.2590    -1.3080 H     1 <1>   0.0800 
 25 H        4.2580     0.5690    -0.6860 H     1 <1>   0.0800 
 26 H        4.1810     0.2850     1.0370 H     1 <1>   0.0800 
 27 H        1.0470    -2.8840    -1.6710 H     1 <1>   0.0800 
 28 H       -0.5970    -3.4820    -1.7140 H     1 <1>   0.0800 
 29 H        3.0710     2.7830     0.6870 H     1 <1>   0.4000 
 30 H       -1.1820    -3.6730     1.7180 H     1 <1>   0.0800 
 31 H        0.1880    -2.5860     1.9620 H     1 <1>   0.0800 
 32 H        1.3920    -3.8150     0.4640 H     1 <1>   0.0800 
 33 H        0.0060    -4.8170     0.0760 H     1 <1>   0.0800 
 34 H        6.4280     1.4870    -0.0780 H     1 <1>   0.1500 
 35 H        7.8530     5.4070     0.1540 H     1 <1>   0.4570 
 36 H        8.8280     1.8730    -0.4070 H     1 <1>   0.0800 
 37 H        9.4500     3.2240     0.4830 H     1 <1>   0.0800 
 38 H        7.5100     7.2660    -0.2540 H     1 <1>   0.0800 
 39 H        7.1120     7.9620     1.3090 H     1 <1>   0.0800 
 40 H        6.2170     8.4180    -0.1210 H     1 <1>   0.0800 
 41 H        3.8360     6.3210     1.6650 H     1 <1>   0.0800 
 42 H        3.8050     7.3460     0.2480 H     1 <1>   0.0800 
 43 H        4.5370     7.9110     1.7360 H     1 <1>   0.0800 
 44 H        8.6830     3.2790    -2.4620 H     1 <1>   0.0800 
 45 H       10.3100     3.1620    -1.8480 H     1 <1>   0.0800 
 46 H        9.3930     4.6190    -1.5870 H     1 <1>   0.0800 
@<TRIPOS>BOND
  1   1   2  1   
  2   1   3  1   
  3   2   4  2   
  4   3   5  2   
  5   3   6  1   
  6   4   5  1   
  7   4   7  1   
  8   6   8  1   
  9   6   9  1   
 10   6  24  1   
 11   7  10  1   
 12   7  25  1   
 13   7  26  1   
 14   8  11  1   
 15   9  12  1   
 16   9  27  1   
 17   9  28  1   
 18  10  13  1   
 19  10  29  1   
 20  11  12  1   
 21  11  30  1   
 22  11  31  1   
 23  12  32  1   
 24  12  33  1   
 25  13  14  ar  
 26  13  15  ar  
 27  14  16  ar  
 28  15  17  ar  
 29  15  34  1   
 30  16  18  ar  
 31  16  19  1   
 32  17  18  ar  
 33  17  20  1   
 34  18  35  1   
 35  19  21  1   
 36  19  22  1   
 37  20  23  1   
 38  20  36  1   
 39  20  37  1   
 40  21  38  1   
 41  21  39  1   
 42  21  40  1   
 43  22  41  1   
 44  22  42  1   
 45  22  43  1   
 46  23  44  1   
 47  23  45  1   
 48  23  46  1   
@<TRIPOS>SUBSTRUCTURE
  1 ****  10 GROUP 4 **** **** 0

# MOE 2024.06 (io_trps.svl 2023.06)
