@<TRIPOS>MOLECULE
NONAME
46 49 1 0 0 
SMALL
USER_CHARGES


@<TRIPOS>ATOM
  1 F        1.4660    -0.9410     1.9990 F     1 <1>  -0.1900 
  2 C        1.7620    -1.2180     0.7520 C.ar  1 <1>   0.1900 
  3 C        1.1260    -2.3000     0.1370 C.ar  1 <1>   0.1170 
  4 C        2.6880    -0.4150     0.1150 C.ar  1 <1>  -0.1500 
  5 N        0.1890    -3.0600     0.8660 N.am  1 <1>  -0.5470 
  6 C        1.4530    -2.5590    -1.1950 C.ar  1 <1>  -0.1500 
  7 C        2.9770    -0.7180    -1.2000 C.ar  1 <1>   0.1900 
  8 C       -0.3450    -4.2940     0.6570 C.2   1 <1>   0.6900 
  9 C        2.3780    -1.7720    -1.8660 C.ar  1 <1>  -0.1500 
 10 F        3.8470     0.0190    -1.8380 F     1 <1>  -0.1900 
 11 O        0.0020    -5.0160    -0.2570 O.2   1 <1>  -0.5700 
 12 N       -1.3490    -4.7130     1.4800 N.am  1 <1>  -0.6600 
 13 C       -2.6360    -3.9570     1.5010 C.3   1 <1>   0.1400 
 14 C       -1.5200    -6.1790     1.6910 C.3   1 <1>   0.1400 
 15 C       -3.6600    -4.5410     0.4930 C.3   1 <1>   0.4230 
 16 C       -2.4850    -6.7550     0.6390 C.3   1 <1>   0.3430 
 17 N       -3.8220    -6.0460     0.6450 N.4   1 <1>  -0.9590 
 18 C       -3.2900    -4.1650    -0.9630 C.3   1 <1>   0.1200 
 19 C       -4.7610    -6.5640    -0.4100 C.3   1 <1>   0.5180 
 20 O       -4.2380    -4.6870    -1.8480 O.3   1 <1>  -0.5600 
 21 C       -4.9000    -8.0940    -0.2680 C.3   1 <1>  -0.1950 
 22 C       -4.3470    -6.0830    -1.8230 C.3   1 <1>   0.1200 
 23 C       -4.0050    -9.1010    -0.9330 C.3   1 <1>  -0.2000 
 24 C       -5.4380    -8.9670    -1.3630 C.3   1 <1>  -0.2000 
 25 H        3.1620     0.4080     0.6160 H     1 <1>   0.1500 
 26 H        0.0130    -2.7040     1.8050 H     1 <1>   0.3700 
 27 H        0.9910    -3.3740    -1.7220 H     1 <1>   0.1500 
 28 H        2.6330    -1.9720    -2.8920 H     1 <1>   0.1500 
 29 H       -3.0490    -3.9950     2.4940 H     1 <1>   0.0800 
 30 H       -2.4590    -2.9200     1.2680 H     1 <1>   0.0800 
 31 H       -0.5650    -6.6720     1.6030 H     1 <1>   0.0800 
 32 H       -1.8920    -6.3650     2.6830 H     1 <1>   0.0800 
 33 H       -4.6080    -4.0700     0.6940 H     1 <1>   0.0800 
 34 H       -2.6230    -7.8060     0.8350 H     1 <1>   0.0800 
 35 H       -2.0220    -6.6590    -0.3300 H     1 <1>   0.0800 
 36 H       -4.2620    -6.2280     1.5520 H     1 <1>   0.4500 
 37 H       -2.3200    -4.5380    -1.2410 H     1 <1>   0.0800 
 38 H       -3.2890    -3.0960    -1.0830 H     1 <1>   0.0800 
 39 H       -5.7370    -6.1460    -0.2270 H     1 <1>   0.0800 
 40 H       -5.2730    -8.3460     0.7100 H     1 <1>   0.1000 
 41 H       -5.0990    -6.3560    -2.5420 H     1 <1>   0.0800 
 42 H       -3.4090    -6.5090    -2.1300 H     1 <1>   0.0800 
 43 H       -3.2510    -8.8080    -1.6440 H     1 <1>   0.1000 
 44 H       -3.7260    -9.9950    -0.3990 H     1 <1>   0.1000 
 45 H       -6.1200    -9.7610    -1.1070 H     1 <1>   0.1000 
 46 H       -5.6280    -8.5840    -2.3510 H     1 <1>   0.1000 
@<TRIPOS>BOND
  1   1   2  1   
  2   2   3  ar  
  3   2   4  ar  
  4   3   5  1   
  5   3   6  ar  
  6   4   7  ar  
  7   4  25  1   
  8   5   8  am  
  9   5  26  1   
 10   6   9  ar  
 11   6  27  1   
 12   7   9  ar  
 13   7  10  1   
 14   8  11  2   
 15   8  12  am  
 16   9  28  1   
 17  12  13  1   
 18  12  14  1   
 19  13  15  1   
 20  13  29  1   
 21  13  30  1   
 22  14  16  1   
 23  14  31  1   
 24  14  32  1   
 25  15  17  1   
 26  15  18  1   
 27  15  33  1   
 28  16  17  1   
 29  16  34  1   
 30  16  35  1   
 31  17  19  1   
 32  17  36  1   
 33  18  20  1   
 34  18  37  1   
 35  18  38  1   
 36  19  21  1   
 37  19  22  1   
 38  19  39  1   
 39  20  22  1   
 40  21  23  1   
 41  21  24  1   
 42  21  40  1   
 43  22  41  1   
 44  22  42  1   
 45  23  24  1   
 46  23  43  1   
 47  23  44  1   
 48  24  45  1   
 49  24  46  1   
@<TRIPOS>SUBSTRUCTURE
  1 ****   8 GROUP 4 **** **** 0

# MOE 2024.06 (io_trps.svl 2023.06)
