@<TRIPOS>MOLECULE
NONAME
54 57 1 0 0 
SMALL
USER_CHARGES


@<TRIPOS>ATOM
  1 O       -0.8390     0.3150    -1.0200 O.2   1 <1>  -0.5700 
  2 C       -1.6710     0.9300    -0.3810 C.2   1 <1>   0.5440 
  3 N       -2.7300     0.2380     0.1650 N.am  1 <1>  -0.6600 
  4 C       -1.5420     2.3680    -0.2340 C.ar  1 <1>   0.0860 
  5 C       -2.7420    -1.2580     0.2320 C.3   1 <1>   0.1400 
  6 C       -4.0970     0.8250     0.3070 C.3   1 <1>   0.1400 
  7 C       -1.1980     3.1740    -1.3170 C.ar  1 <1>  -0.1500 
  8 C       -1.7510     3.0030     0.9910 C.ar  1 <1>  -0.1500 
  9 C       -3.7970    -1.8420    -0.7230 C.3   1 <1>   0.3440 
 10 C       -5.0840     0.1440    -0.6710 C.3   1 <1>   0.2000 
 11 C       -1.0890     4.5460    -1.1920 C.ar  1 <1>  -0.1500 
 12 C       -1.6420     4.3750     1.1240 C.ar  1 <1>  -0.1500 
 13 O       -5.0460    -1.2470    -0.4780 O.3   1 <1>  -0.5600 
 14 C       -3.9060    -3.3540    -0.5450 C.ar  1 <1>  -0.1430 
 15 C       -6.5580     0.6390    -0.5560 C.3   1 <1>   0.0000 
 16 C       -1.3150     5.1740     0.0300 C.ar  1 <1>  -0.0230 
 17 C       -3.0990    -4.1910    -1.3040 C.ar  1 <1>  -0.1500 
 18 C       -4.7850    -3.9180     0.3700 C.ar  1 <1>  -0.1500 
 19 C       -7.1640     0.3430     0.8290 C.3   1 <1>  -0.2400 
 20 C       -7.4200    -0.0660    -1.6190 C.3   1 <1>  -0.2400 
 21 C       -6.6510     2.1550    -0.8140 C.3   1 <1>  -0.2400 
 22 N       -1.2090     6.5920     0.1520 N.pl3 1 <1>   0.5930 
 23 C       -3.1690    -5.5650    -1.1510 C.ar  1 <1>  -0.1500 
 24 C       -4.8560    -5.2910     0.5250 C.ar  1 <1>  -0.1500 
 25 N       -0.4550     7.3680    -0.6130 N.2   1 <1>  -0.4180 
 26 C       -1.8220     7.4070     1.0010 C.2   1 <1>   0.0360 
 27 C       -4.0470    -6.1160    -0.2360 C.ar  1 <1>  -0.1500 
 28 N       -0.6250     8.5760    -0.2140 N.2   1 <1>   0.0000 
 29 N       -1.4810     8.6190     0.7990 N.2   1 <1>  -0.3380 
 30 H       -1.7770    -1.6600    -0.0190 H     1 <1>   0.0800 
 31 H       -2.9710    -1.5670     1.2360 H     1 <1>   0.0800 
 32 H       -4.4310     0.6870     1.3190 H     1 <1>   0.0800 
 33 H       -4.0700     1.8790     0.1020 H     1 <1>   0.0800 
 34 H       -1.0110     2.7060    -2.2690 H     1 <1>   0.1500 
 35 H       -1.9960     2.4000     1.8490 H     1 <1>   0.1500 
 36 H       -3.5210    -1.6250    -1.7400 H     1 <1>   0.0800 
 37 H       -4.7500     0.3370    -1.6760 H     1 <1>   0.0800 
 38 H       -0.8200     5.1330    -2.0560 H     1 <1>   0.1500 
 39 H       -1.8050     4.8150     2.0930 H     1 <1>   0.1500 
 40 H       -2.4090    -3.7750    -2.0190 H     1 <1>   0.1500 
 41 H       -5.4210    -3.2840     0.9650 H     1 <1>   0.1500 
 42 H       -8.2000     0.6330     0.8570 H     1 <1>   0.0800 
 43 H       -6.6500     0.8780     1.6060 H     1 <1>   0.0800 
 44 H       -7.1070    -0.7090     1.0460 H     1 <1>   0.0800 
 45 H       -8.4370     0.2830    -1.5830 H     1 <1>   0.0800 
 46 H       -7.4270    -1.1300    -1.4550 H     1 <1>   0.0800 
 47 H       -7.0320     0.1180    -2.6050 H     1 <1>   0.0800 
 48 H       -7.6800     2.4680    -0.8350 H     1 <1>   0.0800 
 49 H       -6.2060     2.4040    -1.7620 H     1 <1>   0.0800 
 50 H       -6.1560     2.7150    -0.0420 H     1 <1>   0.0800 
 51 H       -2.5390    -6.2040    -1.7440 H     1 <1>   0.1500 
 52 H       -5.5430    -5.7160     1.2360 H     1 <1>   0.1500 
 53 H       -2.5130     7.0690     1.7480 H     1 <1>   0.1500 
 54 H       -4.1030    -7.1840    -0.1170 H     1 <1>   0.1500 
@<TRIPOS>BOND
  1   1   2  2   
  2   2   3  am  
  3   2   4  1   
  4   3   5  1   
  5   3   6  1   
  6   4   7  ar  
  7   4   8  ar  
  8   5   9  1   
  9   5  30  1   
 10   5  31  1   
 11   6  10  1   
 12   6  32  1   
 13   6  33  1   
 14   7  11  ar  
 15   7  34  1   
 16   8  12  ar  
 17   8  35  1   
 18   9  13  1   
 19   9  14  1   
 20   9  36  1   
 21  10  13  1   
 22  10  15  1   
 23  10  37  1   
 24  11  16  ar  
 25  11  38  1   
 26  12  16  ar  
 27  12  39  1   
 28  14  17  ar  
 29  14  18  ar  
 30  15  19  1   
 31  15  20  1   
 32  15  21  1   
 33  16  22  1   
 34  17  23  ar  
 35  17  40  1   
 36  18  24  ar  
 37  18  41  1   
 38  19  42  1   
 39  19  43  1   
 40  19  44  1   
 41  20  45  1   
 42  20  46  1   
 43  20  47  1   
 44  21  48  1   
 45  21  49  1   
 46  21  50  1   
 47  22  25  1   
 48  22  26  1   
 49  23  27  ar  
 50  23  51  1   
 51  24  27  ar  
 52  24  52  1   
 53  25  28  2   
 54  26  29  2   
 55  26  53  1   
 56  27  54  1   
 57  28  29  1   
@<TRIPOS>SUBSTRUCTURE
  1 ****   3 GROUP 4 **** **** 0

# MOE 2024.06 (io_trps.svl 2023.06)
