@<TRIPOS>MOLECULE
NONAME
45 47 1 0 0 
SMALL
USER_CHARGES


@<TRIPOS>ATOM
  1 F       -1.0450     3.8440     2.9360 F     1 <1>  -0.1900 
  2 C       -0.5060     4.2220     1.8100 C.ar  1 <1>   0.1900 
  3 C        0.8060     4.5970     1.7820 C.ar  1 <1>  -0.1500 
  4 C       -1.3080     4.2260     0.6700 C.ar  1 <1>  -0.1500 
  5 C        1.3930     5.0050     0.5760 C.ar  1 <1>   0.3100 
  6 C       -0.7540     4.6210    -0.5190 C.ar  1 <1>  -0.1500 
  7 N        2.6950     5.3660     0.6070 N.ar  1 <1>  -0.6200 
  8 C        0.6000     5.0200    -0.6020 C.ar  1 <1>   0.0000 
  9 C        3.2460     5.7390    -0.5140 C.ar  1 <1>   0.4100 
 10 C        1.2240     5.4410    -1.7980 C.ar  1 <1>  -0.1440 
 11 N        4.5810     6.1010    -0.5040 N.pl3 1 <1>  -0.8380 
 12 C        2.5350     5.7950    -1.7290 C.ar  1 <1>  -0.1500 
 13 C        0.4670     5.5060    -3.1170 C.3   1 <1>  -0.0970 
 14 C        5.2030     6.6310     0.7460 C.3   1 <1>   0.2090 
 15 C        5.5250     5.3570    -1.3820 C.3   1 <1>   0.1290 
 16 C        4.6200     8.0070     1.1090 C.3   1 <1>  -0.0800 
 17 C        4.9040     9.0340    -0.0010 C.3   1 <1>   0.1400 
 18 C        5.3110     8.5740     2.3650 C.3   1 <1>  -0.0990 
 19 N        6.0680     9.7880     0.5020 N.am  1 <1>  -0.6600 
 20 C        6.3210     9.5350     1.8050 C.2   1 <1>   0.5690 
 21 C        6.8580    10.6760    -0.3760 C.3   1 <1>   0.1400 
 22 O        7.2290     9.9910     2.4570 O.2   1 <1>  -0.5700 
 23 C        6.0310    11.9050    -0.7410 C.3   1 <1>  -0.2400 
 24 H        1.4070     4.5860     2.6710 H     1 <1>   0.1500 
 25 H       -2.3360     3.9200     0.7490 H     1 <1>   0.1500 
 26 H       -1.3610     4.6280    -1.4050 H     1 <1>   0.1500 
 27 H        3.0710     6.1350    -2.5930 H     1 <1>   0.1500 
 28 H       -0.3630     6.1850    -3.0330 H     1 <1>   0.0800 
 29 H        0.1010     4.5300    -3.3800 H     1 <1>   0.0800 
 30 H        1.1070     5.8520    -3.9090 H     1 <1>   0.0800 
 31 H        6.2670     6.7250     0.6090 H     1 <1>   0.0800 
 32 H        5.0320     5.9360     1.5510 H     1 <1>   0.0800 
 33 H        4.9890     4.7740    -2.1100 H     1 <1>   0.0800 
 34 H        6.1260     4.6900    -0.7890 H     1 <1>   0.0800 
 35 H        6.1670     6.0520    -1.8940 H     1 <1>   0.0800 
 36 H        3.5630     7.9060     1.2750 H     1 <1>   0.0800 
 37 H        4.0680     9.7020    -0.1160 H     1 <1>   0.0800 
 38 H        5.1260     8.5690    -0.9460 H     1 <1>   0.0800 
 39 H        5.7880     7.8190     2.9620 H     1 <1>   0.0800 
 40 H        4.6130     9.1260     2.9670 H     1 <1>   0.0800 
 41 H        7.1460    10.1390    -1.2630 H     1 <1>   0.0800 
 42 H        7.7520    10.9830     0.1410 H     1 <1>   0.0800 
 43 H        5.1580    11.6240    -1.3020 H     1 <1>   0.0800 
 44 H        6.6220    12.5710    -1.3420 H     1 <1>   0.0800 
 45 H        5.7330    12.4250     0.1520 H     1 <1>   0.0800 
@<TRIPOS>BOND
  1   1   2  1   
  2   2   3  ar  
  3   2   4  ar  
  4   3   5  ar  
  5   3  24  1   
  6   4   6  ar  
  7   4  25  1   
  8   5   7  ar  
  9   5   8  ar  
 10   6   8  ar  
 11   6  26  1   
 12   7   9  ar  
 13   8  10  ar  
 14   9  11  1   
 15   9  12  ar  
 16  10  12  ar  
 17  10  13  1   
 18  11  14  1   
 19  11  15  1   
 20  12  27  1   
 21  13  28  1   
 22  13  29  1   
 23  13  30  1   
 24  14  16  1   
 25  14  31  1   
 26  14  32  1   
 27  15  33  1   
 28  15  34  1   
 29  15  35  1   
 30  16  17  1   
 31  16  18  1   
 32  16  36  1   
 33  17  19  1   
 34  17  37  1   
 35  17  38  1   
 36  18  20  1   
 37  18  39  1   
 38  18  40  1   
 39  19  20  am  
 40  19  21  1   
 41  20  22  2   
 42  21  23  1   
 43  21  41  1   
 44  21  42  1   
 45  23  43  1   
 46  23  44  1   
 47  23  45  1   
@<TRIPOS>SUBSTRUCTURE
  1 ****   9 GROUP 4 **** **** 0

# MOE 2024.06 (io_trps.svl 2023.06)
