@<TRIPOS>MOLECULE
NONAME
48 50 1 0 0 
SMALL
USER_CHARGES


@<TRIPOS>ATOM
  1 O        3.7640    -1.5900    -0.0030 O.2   1 <1>  -0.5700 
  2 C        2.6870    -1.5710    -0.5590 C.2   1 <1>   0.5690 
  3 N        1.9260    -0.4320    -0.6550 N.am  1 <1>  -0.4940 
  4 C        2.1590    -2.8550    -1.2090 C.3   1 <1>   0.2370 
  5 C        2.0220     0.8660    -0.0910 C.2   1 <1>  -0.0880 
  6 N        0.7000    -2.9530    -0.9500 N.pl3 1 <1>   0.3140 
  7 C        2.9070    -4.1410    -0.7900 C.3   1 <1>  -0.2400 
  8 N        3.1270     1.6060     0.2230 N.pl3 1 <1>   0.3140 
  9 C        0.9560     1.6300     0.2400 C.2   1 <1>  -0.1500 
 10 N       -0.1700    -2.1870    -1.6470 N.2   1 <1>  -0.7070 
 11 C        0.0490    -3.7050    -0.0360 C.2   1 <1>  -0.3020 
 12 N        2.7780     2.8040     0.7580 N.2   1 <1>  -0.7070 
 13 C        4.5610     1.2670     0.0410 C.3   1 <1>   0.1760 
 14 C        1.4820     2.8040     0.7590 C.2   1 <1>   0.1390 
 15 C       -1.3400    -2.4870    -1.1710 C.2   1 <1>   0.1390 
 16 C       -1.2660    -3.4320    -0.1550 C.2   1 <1>  -0.1810 
 17 C        5.1660     0.8500     1.3900 C.3   1 <1>  -0.1600 
 18 C        5.3620     2.4360    -0.5550 C.3   1 <1>  -0.1600 
 19 C       -2.4240    -4.0100     0.6310 C.3   1 <1>  -0.0590 
 20 C        6.6340     0.4870     1.2230 C.3   1 <1>   0.3430 
 21 C        6.8370     2.0670    -0.6790 C.3   1 <1>   0.3430 
 22 N        7.3700     1.6560     0.6540 N.4   1 <1>  -0.9590 
 23 C        8.8360     1.3760     0.5810 C.3   1 <1>   0.2630 
 24 H        1.0000    -0.6270    -1.0780 H     1 <1>   0.3700 
 25 H        2.2740    -2.7410    -2.2710 H     1 <1>   0.0800 
 26 H        2.8820    -4.2640     0.2780 H     1 <1>   0.0800 
 27 H        3.9360    -4.0780    -1.0940 H     1 <1>   0.0800 
 28 H        2.4670    -5.0020    -1.2640 H     1 <1>   0.0800 
 29 H       -0.0890     1.4000     0.1390 H     1 <1>   0.1500 
 30 H        0.5390    -4.3810     0.6390 H     1 <1>   0.1500 
 31 H        4.6220     0.4570    -0.6590 H     1 <1>   0.0800 
 32 H        0.8890     3.6270     1.1240 H     1 <1>   0.1500 
 33 H       -2.2570    -2.0470    -1.5270 H     1 <1>   0.1500 
 34 H        4.6380    -0.0030     1.7780 H     1 <1>   0.0800 
 35 H        5.0670     1.6490     2.1050 H     1 <1>   0.0800 
 36 H        5.2690     3.3140     0.0610 H     1 <1>   0.0800 
 37 H        4.9730     2.6730    -1.5300 H     1 <1>   0.0800 
 38 H       -2.0650    -4.7220     1.3530 H     1 <1>   0.0800 
 39 H       -3.1080    -4.5070    -0.0340 H     1 <1>   0.0800 
 40 H       -2.9460    -3.2250     1.1490 H     1 <1>   0.0800 
 41 H        6.7210    -0.3630     0.5650 H     1 <1>   0.0800 
 42 H        7.0470     0.2190     2.1830 H     1 <1>   0.0800 
 43 H        7.3870     2.9160    -1.0520 H     1 <1>   0.0800 
 44 H        6.9470     1.2560    -1.3820 H     1 <1>   0.0800 
 45 H        7.2210     2.4490     1.2980 H     1 <1>   0.4500 
 46 H        9.0280     0.5490    -0.0830 H     1 <1>   0.0800 
 47 H        9.2180     1.1280     1.5590 H     1 <1>   0.0800 
 48 H        9.3650     2.2420     0.2170 H     1 <1>   0.0800 
@<TRIPOS>BOND
  1   1   2  2   
  2   2   3  am  
  3   2   4  1   
  4   3   5  1   
  5   3  24  1   
  6   4   6  1   
  7   4   7  1   
  8   4  25  1   
  9   5   8  1   
 10   5   9  2   
 11   6  10  1   
 12   6  11  1   
 13   7  26  1   
 14   7  27  1   
 15   7  28  1   
 16   8  12  1   
 17   8  13  1   
 18   9  14  1   
 19   9  29  1   
 20  10  15  2   
 21  11  16  2   
 22  11  30  1   
 23  12  14  2   
 24  13  17  1   
 25  13  18  1   
 26  13  31  1   
 27  14  32  1   
 28  15  16  1   
 29  15  33  1   
 30  16  19  1   
 31  17  20  1   
 32  17  34  1   
 33  17  35  1   
 34  18  21  1   
 35  18  36  1   
 36  18  37  1   
 37  19  38  1   
 38  19  39  1   
 39  19  40  1   
 40  20  22  1   
 41  20  41  1   
 42  20  42  1   
 43  21  22  1   
 44  21  43  1   
 45  21  44  1   
 46  22  23  1   
 47  22  45  1   
 48  23  46  1   
 49  23  47  1   
 50  23  48  1   
@<TRIPOS>SUBSTRUCTURE
  1 ****   3 GROUP 4 **** **** 0

# MOE 2024.06 (io_trps.svl 2023.06)
