@<TRIPOS>MOLECULE
NONAME
45 47 1 0 0 
SMALL
USER_CHARGES


@<TRIPOS>ATOM
  1 O       -3.5500    -2.7000    -0.5260 O.3   1 <1>  -0.5600 
  2 C       -2.6660    -1.9380     0.2390 C.3   1 <1>   0.1200 
  3 C       -3.1840    -4.0460    -0.6090 C.3   1 <1>   0.0400 
  4 C       -3.1380    -0.4810     0.2710 C.3   1 <1>   0.0960 
  5 N       -4.4350    -0.3460     0.9750 N.pl3 1 <1>   0.0480 
  6 C       -5.7000    -0.5830     0.5450 C.2   1 <1>   0.0060 
  7 C       -4.5860     0.0460     2.2540 C.2   1 <1>  -0.3020 
  8 N       -6.6100    -0.3800     1.4500 N.2   1 <1>  -0.5650 
  9 C       -6.0510    -1.0750    -0.8500 C.3   1 <1>   0.5230 
 10 C       -5.9080     0.0220     2.5240 C.2   1 <1>   0.0770 
 11 N       -7.1330    -2.0710    -0.6680 N.4   1 <1>  -0.9590 
 12 C       -6.5480    -3.3710    -0.2110 C.3   1 <1>   0.3430 
 13 C       -8.0260    -2.2090    -1.8430 C.3   1 <1>   0.3430 
 14 C       -7.6330    -4.4040     0.1250 C.3   1 <1>   0.1000 
 15 C       -9.1580    -3.1850    -1.5040 C.3   1 <1>  -0.1600 
 16 C       -6.9720    -5.7390     0.4300 C.2   1 <1>   0.0060 
 17 C       -8.6240    -4.5520    -1.0430 C.3   1 <1>  -0.1600 
 18 N       -5.7830    -6.0570     0.0270 N.2   1 <1>  -0.5650 
 19 N       -7.5750    -6.7150     1.1470 N.pl3 1 <1>   0.0330 
 20 C       -5.6000    -7.3030     0.5050 C.2   1 <1>   0.0770 
 21 C       -6.6840    -7.7200     1.1920 C.2   1 <1>  -0.3020 
 22 H       -1.6890    -1.9950    -0.2120 H     1 <1>   0.0800 
 23 H       -2.6220    -2.3420     1.2370 H     1 <1>   0.0800 
 24 H       -3.8660    -4.5480    -1.2720 H     1 <1>   0.0800 
 25 H       -3.2420    -4.4940     0.3690 H     1 <1>   0.0800 
 26 H       -2.1840    -4.1260    -1.0000 H     1 <1>   0.0800 
 27 H       -3.2260    -0.1010    -0.7300 H     1 <1>   0.0800 
 28 H       -2.4080     0.1140     0.7900 H     1 <1>   0.0800 
 29 H       -3.7670     0.3170     2.8960 H     1 <1>   0.1500 
 30 H       -5.2040    -1.5130    -1.3470 H     1 <1>   0.0800 
 31 H       -6.4060    -0.2390    -1.4290 H     1 <1>   0.0800 
 32 H       -6.3940     0.2780     3.4530 H     1 <1>   0.1500 
 33 H       -7.6470    -1.6720     0.1380 H     1 <1>   0.4500 
 34 H       -5.9280    -3.2150     0.6570 H     1 <1>   0.0800 
 35 H       -5.9200    -3.7740    -0.9900 H     1 <1>   0.0800 
 36 H       -7.4660    -2.5870    -2.6840 H     1 <1>   0.0800 
 37 H       -8.4420    -1.2500    -2.1090 H     1 <1>   0.0800 
 38 H       -8.1530    -4.0680     1.0050 H     1 <1>   0.0800 
 39 H       -9.7730    -3.3210    -2.3770 H     1 <1>   0.0800 
 40 H       -9.7790    -2.7540    -0.7380 H     1 <1>   0.0800 
 41 H       -9.4450    -5.1830    -0.7490 H     1 <1>   0.0800 
 42 H       -8.1230    -5.0330    -1.8670 H     1 <1>   0.0800 
 43 H       -8.5100    -6.7010     1.5680 H     1 <1>   0.2700 
 44 H       -4.6850    -7.8460     0.3270 H     1 <1>   0.1500 
 45 H       -6.8630    -8.6530     1.6950 H     1 <1>   0.1500 
@<TRIPOS>BOND
  1   1   2  1   
  2   1   3  1   
  3   2   4  1   
  4   2  22  1   
  5   2  23  1   
  6   3  24  1   
  7   3  25  1   
  8   3  26  1   
  9   4   5  1   
 10   4  27  1   
 11   4  28  1   
 12   5   6  1   
 13   5   7  1   
 14   6   8  2   
 15   6   9  1   
 16   7  10  2   
 17   7  29  1   
 18   8  10  1   
 19   9  11  1   
 20   9  30  1   
 21   9  31  1   
 22  10  32  1   
 23  11  12  1   
 24  11  13  1   
 25  11  33  1   
 26  12  14  1   
 27  12  34  1   
 28  12  35  1   
 29  13  15  1   
 30  13  36  1   
 31  13  37  1   
 32  14  16  1   
 33  14  17  1   
 34  14  38  1   
 35  15  17  1   
 36  15  39  1   
 37  15  40  1   
 38  16  18  2   
 39  16  19  1   
 40  17  41  1   
 41  17  42  1   
 42  18  20  1   
 43  19  21  1   
 44  19  43  1   
 45  20  21  2   
 46  20  44  1   
 47  21  45  1   
@<TRIPOS>SUBSTRUCTURE
  1 ****  12 GROUP 4 **** **** 0

# MOE 2024.06 (io_trps.svl 2023.06)
