@<TRIPOS>MOLECULE
NONAME
52 55 1 0 0 
SMALL
USER_CHARGES


@<TRIPOS>ATOM
  1 O        1.9160    -3.3780     1.4740 O.2   1 <1>  -0.5700 
  2 C        1.3630    -3.2610     0.4070 C.2   1 <1>   0.5690 
  3 N        1.7780    -2.3640    -0.5250 N.am  1 <1>  -0.7300 
  4 C        0.1660    -4.1400     0.0860 C.3   1 <1>  -0.0190 
  5 C        2.9310    -1.4560    -0.3730 C.3   1 <1>   0.1400 
  6 C       -0.8830    -4.1160     1.1840 C.3   1 <1>   0.2090 
  7 C        0.4920    -5.6250    -0.0510 C.3   1 <1>  -0.1600 
  8 C        3.7860    -1.5450    -1.6310 C.3   1 <1>  -0.2400 
  9 N       -1.6730    -5.3640     0.9890 N.pl3 1 <1>  -0.8220 
 10 C       -0.8270    -6.3360     0.2380 C.3   1 <1>   0.2090 
 11 C       -2.9610    -5.1990     0.4670 C.2   1 <1>   0.2700 
 12 N       -3.3050    -4.3330    -0.4220 N.2   1 <1>  -0.3380 
 13 N       -4.0250    -5.9230     0.7980 N.pl3 1 <1>   0.3140 
 14 N       -4.6050    -4.5300    -0.6360 N.2   1 <1>   0.0000 
 15 N       -5.0560    -5.4830     0.0920 N.2   1 <1>  -0.4180 
 16 C       -4.1070    -7.0030     1.7940 C.3   1 <1>   0.2390 
 17 C       -3.5470    -8.3090     1.2430 C.ar  1 <1>  -0.1440 
 18 C       -4.0650    -8.8670     0.0840 C.ar  1 <1>  -0.1500 
 19 C       -2.5080    -8.9570     1.8950 C.ar  1 <1>  -0.1500 
 20 C       -3.5490   -10.0490    -0.4140 C.ar  1 <1>  -0.1500 
 21 C       -1.9960   -10.1380     1.3910 C.ar  1 <1>  -0.1500 
 22 C       -2.5050   -10.7060     0.2280 C.ar  1 <1>   0.0000 
 23 C       -1.9670   -11.9410    -0.2960 C.ar  1 <1>   0.0000 
 24 C       -1.9290   -13.0940     0.4830 C.ar  1 <1>  -0.1500 
 25 C       -1.4700   -12.0140    -1.5950 C.ar  1 <1>  -0.1500 
 26 C       -1.4130   -14.2770    -0.0150 C.ar  1 <1>  -0.1500 
 27 C       -0.9540   -13.1940    -2.0990 C.ar  1 <1>  -0.1500 
 28 C       -0.9240   -14.3290    -1.3080 C.ar  1 <1>  -0.1500 
 29 H        1.2760    -2.2870    -1.4100 H     1 <1>   0.3700 
 30 H       -0.3020    -3.7960    -0.8190 H     1 <1>   0.0800 
 31 H        3.5130    -1.7370     0.4890 H     1 <1>   0.0800 
 32 H        2.5760    -0.4490    -0.2320 H     1 <1>   0.0800 
 33 H       -1.4970    -3.2330     1.1230 H     1 <1>   0.0800 
 34 H       -0.4170    -4.1500     2.1550 H     1 <1>   0.0800 
 35 H        1.2130    -5.9160     0.6930 H     1 <1>   0.0800 
 36 H        0.8740    -5.8730    -1.0250 H     1 <1>   0.0800 
 37 H        4.1410    -2.5510    -1.7670 H     1 <1>   0.0800 
 38 H        4.6380    -0.8960    -1.5320 H     1 <1>   0.0800 
 39 H        3.2240    -1.2390    -2.4940 H     1 <1>   0.0800 
 40 H       -0.6620    -7.2230     0.8240 H     1 <1>   0.0800 
 41 H       -1.3120    -6.6100    -0.6860 H     1 <1>   0.0800 
 42 H       -5.1360    -7.1360     2.0700 H     1 <1>   0.0800 
 43 H       -3.5560    -6.6950     2.6640 H     1 <1>   0.0800 
 44 H       -4.8730    -8.3820    -0.4390 H     1 <1>   0.1500 
 45 H       -2.0880    -8.5430     2.7960 H     1 <1>   0.1500 
 46 H       -3.9620   -10.4730    -1.3120 H     1 <1>   0.1500 
 47 H       -1.1860   -10.6290     1.9010 H     1 <1>   0.1500 
 48 H       -2.3120   -13.0620     1.4870 H     1 <1>   0.1500 
 49 H       -1.4880   -11.1340    -2.2140 H     1 <1>   0.1500 
 50 H       -1.3930   -15.1590     0.6030 H     1 <1>   0.1500 
 51 H       -0.5740   -13.2300    -3.1050 H     1 <1>   0.1500 
 52 H       -0.5220   -15.2480    -1.6970 H     1 <1>   0.1500 
@<TRIPOS>BOND
  1   1   2  2   
  2   2   3  am  
  3   2   4  1   
  4   3   5  1   
  5   3  29  1   
  6   4   6  1   
  7   4   7  1   
  8   4  30  1   
  9   5   8  1   
 10   5  31  1   
 11   5  32  1   
 12   6   9  1   
 13   6  33  1   
 14   6  34  1   
 15   7  10  1   
 16   7  35  1   
 17   7  36  1   
 18   8  37  1   
 19   8  38  1   
 20   8  39  1   
 21   9  10  1   
 22   9  11  1   
 23  10  40  1   
 24  10  41  1   
 25  11  12  2   
 26  11  13  1   
 27  12  14  1   
 28  13  15  1   
 29  13  16  1   
 30  14  15  2   
 31  16  17  1   
 32  16  42  1   
 33  16  43  1   
 34  17  18  ar  
 35  17  19  ar  
 36  18  20  ar  
 37  18  44  1   
 38  19  21  ar  
 39  19  45  1   
 40  20  22  ar  
 41  20  46  1   
 42  21  22  ar  
 43  21  47  1   
 44  22  23  1   
 45  23  24  ar  
 46  23  25  ar  
 47  24  26  ar  
 48  24  48  1   
 49  25  27  ar  
 50  25  49  1   
 51  26  28  ar  
 52  26  50  1   
 53  27  28  ar  
 54  27  51  1   
 55  28  52  1   
@<TRIPOS>SUBSTRUCTURE
  1 ****  10 GROUP 4 **** **** 0

# MOE 2024.06 (io_trps.svl 2023.06)
