@<TRIPOS>MOLECULE
NONAME
33 34 1 0 0 
SMALL
USER_CHARGES


@<TRIPOS>ATOM
  1 O        3.3720    -0.8150    -0.7280 O.2   1 <1>  -0.5700 
  2 C        2.6970    -1.0940     0.2290 C.2   1 <1>   0.5690 
  3 N        2.2950    -0.1790     1.1480 N.am  1 <1>  -0.4930 
  4 C        2.2650    -2.5370     0.4130 C.3   1 <1>  -0.0990 
  5 C        2.5190     1.2050     1.2460 C.2   1 <1>   0.3520 
  6 C        0.7870    -2.7450     0.0420 C.3   1 <1>  -0.1600 
  7 N        1.9570     1.8570     2.1870 N.2   1 <1>  -0.4100 
  8 C        3.2880     2.1050     0.4860 C.2   1 <1>   0.3520 
  9 C        0.3740    -4.2200     0.1670 C.3   1 <1>   0.0960 
 10 O        2.3570     3.0790     2.0080 O.3   1 <1>   0.2420 
 11 N        3.1550     3.2670     1.0020 N.2   1 <1>  -0.4100 
 12 N        4.0780     1.8250    -0.6440 N.am  1 <1>  -0.4930 
 13 N       -1.0750    -4.3730    -0.0620 N.pl3 1 <1>   0.3140 
 14 C        4.8910     2.5890    -1.4150 C.2   1 <1>   0.5690 
 15 N       -1.9770    -4.0740     0.8620 N.2   1 <1>  -0.7070 
 16 C       -1.7110    -4.7950    -1.1590 C.2   1 <1>   0.0360 
 17 O        5.4620     2.0940    -2.3520 O.2   1 <1>  -0.5700 
 18 C        5.1170     4.0580    -1.1400 C.3   1 <1>  -0.1790 
 19 C       -3.0890    -4.3380     0.2590 C.2   1 <1>   0.3660 
 20 N       -2.9840    -4.7890    -0.9980 N.2   1 <1>  -0.5650 
 21 H        1.6960    -0.5200     1.8980 H     1 <1>   0.3700 
 22 H        2.4370    -2.8280     1.4340 H     1 <1>   0.0800 
 23 H        2.8840    -3.1560    -0.2130 H     1 <1>   0.0800 
 24 H        0.6240    -2.4160    -0.9700 H     1 <1>   0.0800 
 25 H        0.1680    -2.1520     0.6950 H     1 <1>   0.0800 
 26 H        0.5890    -4.5850     1.1550 H     1 <1>   0.0800 
 27 H        0.9050    -4.8230    -0.5470 H     1 <1>   0.0800 
 28 H        4.0330     0.8470    -0.9610 H     1 <1>   0.3700 
 29 H       -1.2010    -5.0970    -2.0560 H     1 <1>   0.1500 
 30 H        5.5220     4.1870    -0.1550 H     1 <1>   0.0800 
 31 H        4.1890     4.5910    -1.2220 H     1 <1>   0.0800 
 32 H        5.8120     4.4590    -1.8550 H     1 <1>   0.0800 
 33 H       -4.0570    -4.2120     0.7180 H     1 <1>   0.1500 
@<TRIPOS>BOND
  1   1   2  2   
  2   2   3  am  
  3   2   4  1   
  4   3   5  1   
  5   3  21  1   
  6   4   6  1   
  7   4  22  1   
  8   4  23  1   
  9   5   7  2   
 10   5   8  1   
 11   6   9  1   
 12   6  24  1   
 13   6  25  1   
 14   7  10  1   
 15   8  11  2   
 16   8  12  1   
 17   9  13  1   
 18   9  26  1   
 19   9  27  1   
 20  10  11  1   
 21  12  14  am  
 22  12  28  1   
 23  13  15  1   
 24  13  16  1   
 25  14  17  2   
 26  14  18  1   
 27  15  19  2   
 28  16  20  2   
 29  16  29  1   
 30  18  30  1   
 31  18  31  1   
 32  18  32  1   
 33  19  20  1   
 34  19  33  1   
@<TRIPOS>SUBSTRUCTURE
  1 ****   2 GROUP 4 **** **** 0

# MOE 2024.06 (io_trps.svl 2023.06)
