@<TRIPOS>MOLECULE
NONAME
55 57 1 0 0 
SMALL
USER_CHARGES


@<TRIPOS>ATOM
  1 S        0.8310     0.6980     0.0640 S.o2  1 <1>   1.0900 
  2 O        1.0650    -0.5170    -0.6720 O.2   1 <1>  -0.6500 
  3 O        0.8470     0.7360     1.5070 O.2   1 <1>  -0.6500 
  4 C       -0.7220     1.4100    -0.4720 C.3   1 <1>  -0.0550 
  5 C        1.9590     1.9590    -0.5220 C.3   1 <1>  -0.0550 
  6 C       -0.9270     2.8410     0.0640 C.3   1 <1>  -0.1600 
  7 C        1.6000     3.3590     0.0130 C.3   1 <1>  -0.1600 
  8 C        0.1850     3.8080    -0.3980 C.3   1 <1>   0.4230 
  9 N       -0.0450     5.1880     0.1110 N.4   1 <1>  -0.9590 
 10 C       -0.1990     5.3110     1.5900 C.3   1 <1>   0.3430 
 11 C       -1.1750     5.8730    -0.5710 C.3   1 <1>   0.3430 
 12 C       -0.0030     6.7680     1.9730 C.3   1 <1>  -0.1600 
 13 C       -1.0500     7.3680    -0.3270 C.3   1 <1>  -0.1600 
 14 C       -0.9020     7.7140     1.1620 C.3   1 <1>   0.2890 
 15 N       -0.4170     9.1000     1.3000 N.pl3 1 <1>  -0.8690 
 16 C        0.8070     9.6270     0.9510 C.ar  1 <1>   0.4100 
 17 N        1.6660     8.8600     0.2860 N.ar  1 <1>  -0.6200 
 18 C        1.0980    10.9400     1.3110 C.ar  1 <1>  -0.1500 
 19 C        2.8270     9.4200    -0.0220 C.ar  1 <1>   0.1600 
 20 C        2.3080    11.5000     0.9810 C.ar  1 <1>  -0.1500 
 21 C        3.2190    10.7230     0.2740 C.ar  1 <1>   0.0860 
 22 C        4.5220    11.1970    -0.1330 C.2   1 <1>   0.5440 
 23 O        5.4710    10.4390    -0.0460 O.2   1 <1>  -0.5700 
 24 N        4.7310    12.4700    -0.6320 N.am  1 <1>  -0.6600 
 25 C        6.1060    13.0270    -0.7680 C.3   1 <1>   0.0600 
 26 C        3.6700    13.2890    -1.2810 C.3   1 <1>   0.0600 
 27 H       -1.5270     0.7880    -0.1260 H     1 <1>   0.0800 
 28 H       -0.7630     1.4160    -1.5460 H     1 <1>   0.0800 
 29 H        1.9580     1.9720    -1.5960 H     1 <1>   0.0800 
 30 H        2.9550     1.7080    -0.2070 H     1 <1>   0.0800 
 31 H       -0.9520     2.7840     1.1380 H     1 <1>   0.0800 
 32 H       -1.8840     3.1900    -0.2800 H     1 <1>   0.0800 
 33 H        2.3240     4.0590    -0.3650 H     1 <1>   0.0800 
 34 H        1.6890     3.3300     1.0860 H     1 <1>   0.0800 
 35 H        0.1630     3.8430    -1.4760 H     1 <1>   0.0800 
 36 H        0.7930     5.7460    -0.1230 H     1 <1>   0.4500 
 37 H        0.5370     4.7110     2.1020 H     1 <1>   0.0800 
 38 H       -1.1790     4.9760     1.8910 H     1 <1>   0.0800 
 39 H       -2.1150     5.5110    -0.1860 H     1 <1>   0.0800 
 40 H       -1.1420     5.6840    -1.6330 H     1 <1>   0.0800 
 41 H        1.0350     7.0010     1.8410 H     1 <1>   0.0800 
 42 H       -0.2220     6.8890     3.0190 H     1 <1>   0.0800 
 43 H       -1.9240     7.8620    -0.7140 H     1 <1>   0.0800 
 44 H       -0.2140     7.7230    -0.8970 H     1 <1>   0.0800 
 45 H       -1.8870     7.6660     1.5980 H     1 <1>   0.0800 
 46 H       -1.0390     9.7170     1.8280 H     1 <1>   0.4000 
 47 H        0.3680    11.5100     1.8540 H     1 <1>   0.1500 
 48 H        3.5370     8.8090    -0.5540 H     1 <1>   0.1500 
 49 H        2.5560    12.5090     1.2620 H     1 <1>   0.1500 
 50 H        6.7920    12.5010    -0.1250 H     1 <1>   0.0800 
 51 H        6.1110    14.0660    -0.4930 H     1 <1>   0.0800 
 52 H        6.4400    12.9240    -1.7860 H     1 <1>   0.0800 
 53 H        2.7820    12.7050    -1.4480 H     1 <1>   0.0800 
 54 H        4.0200    13.6480    -2.2330 H     1 <1>   0.0800 
 55 H        3.4290    14.1310    -0.6560 H     1 <1>   0.0800 
@<TRIPOS>BOND
  1   1   2  2   
  2   1   3  2   
  3   1   4  1   
  4   1   5  1   
  5   4   6  1   
  6   4  27  1   
  7   4  28  1   
  8   5   7  1   
  9   5  29  1   
 10   5  30  1   
 11   6   8  1   
 12   6  31  1   
 13   6  32  1   
 14   7   8  1   
 15   7  33  1   
 16   7  34  1   
 17   8   9  1   
 18   8  35  1   
 19   9  10  1   
 20   9  11  1   
 21   9  36  1   
 22  10  12  1   
 23  10  37  1   
 24  10  38  1   
 25  11  13  1   
 26  11  39  1   
 27  11  40  1   
 28  12  14  1   
 29  12  41  1   
 30  12  42  1   
 31  13  14  1   
 32  13  43  1   
 33  13  44  1   
 34  14  15  1   
 35  14  45  1   
 36  15  16  1   
 37  15  46  1   
 38  16  17  ar  
 39  16  18  ar  
 40  17  19  ar  
 41  18  20  ar  
 42  18  47  1   
 43  19  21  ar  
 44  19  48  1   
 45  20  21  ar  
 46  20  49  1   
 47  21  22  1   
 48  22  23  2   
 49  22  24  am  
 50  24  25  1   
 51  24  26  1   
 52  25  50  1   
 53  25  51  1   
 54  25  52  1   
 55  26  53  1   
 56  26  54  1   
 57  26  55  1   
@<TRIPOS>SUBSTRUCTURE
  1 ****  17 GROUP 4 **** **** 0

# MOE 2024.06 (io_trps.svl 2023.06)
