@<TRIPOS>MOLECULE
NONAME
51 53 1 0 0 
SMALL
USER_CHARGES


@<TRIPOS>ATOM
  1 O        0.4820    -2.3540     1.8120 O.3   1 <1>  -0.2170 
  2 N        0.3550    -1.0800     1.5220 N.2   1 <1>  -0.5130 
  3 C        1.7010    -2.8940     1.3480 C.3   1 <1>   0.2000 
  4 C        1.4600    -0.5840     1.1390 C.2   1 <1>   0.3030 
  5 C        2.5340    -1.6400     1.0960 C.3   1 <1>  -0.0990 
  6 C        1.3780    -3.7140     0.0780 C.3   1 <1>   0.3430 
  7 C        1.7170     0.7860     0.7460 C.ar  1 <1>   0.0860 
  8 N        0.3270    -3.0320    -0.7510 N.4   1 <1>  -0.9590 
  9 C        0.6720     1.7110     0.6870 C.ar  1 <1>  -0.1500 
 10 C        2.9920     1.2470     0.4020 C.ar  1 <1>  -0.1500 
 11 C       -0.7900    -3.9650    -1.0450 C.3   1 <1>   0.3430 
 12 C        0.8640    -2.3570    -1.9690 C.3   1 <1>   0.2630 
 13 C        0.8790     3.0190     0.2930 C.ar  1 <1>  -0.1500 
 14 C        3.2050     2.5550     0.0070 C.ar  1 <1>  -0.1500 
 15 C       -2.0970    -3.1850    -1.2130 C.3   1 <1>  -0.1600 
 16 C        2.1480     3.4440    -0.0520 C.ar  1 <1>  -0.1500 
 17 C       -3.2800    -4.1290    -1.4950 C.3   1 <1>   0.0960 
 18 N       -3.3390    -5.2250    -0.5050 N.pl3 1 <1>   0.3140 
 19 N       -2.5480    -6.3070    -0.6400 N.2   1 <1>  -0.7070 
 20 C       -4.0730    -5.2890     0.6280 C.2   1 <1>  -0.3320 
 21 C       -2.8180    -7.0460     0.3900 C.2   1 <1>   0.1080 
 22 C       -3.7610    -6.4590     1.2230 C.2   1 <1>  -0.1500 
 23 C       -5.0530    -4.2290     1.1060 C.3   1 <1>  -0.0600 
 24 C       -2.1660    -8.3880     0.6250 C.3   1 <1>  -0.0590 
 25 H        2.1280    -3.5100     2.1200 H     1 <1>   0.0800 
 26 H        3.0490    -1.6740     0.1540 H     1 <1>   0.0800 
 27 H        3.2360    -1.4870     1.8960 H     1 <1>   0.0800 
 28 H        1.0150    -4.6790     0.3950 H     1 <1>   0.0800 
 29 H        2.2740    -3.8790    -0.4970 H     1 <1>   0.0800 
 30 H       -0.0580    -2.3110    -0.0980 H     1 <1>   0.4500 
 31 H       -0.3230     1.4010     0.9600 H     1 <1>   0.1500 
 32 H        3.8410     0.5910     0.4450 H     1 <1>   0.1500 
 33 H       -0.9060    -4.6470    -0.2170 H     1 <1>   0.0800 
 34 H       -0.5790    -4.5480    -1.9270 H     1 <1>   0.0800 
 35 H        1.2850    -3.0830    -2.6450 H     1 <1>   0.0800 
 36 H        1.6290    -1.6480    -1.6980 H     1 <1>   0.0800 
 37 H        0.0760    -1.8270    -2.4790 H     1 <1>   0.0800 
 38 H        0.0540     3.7110     0.2570 H     1 <1>   0.1500 
 39 H        4.1960     2.8890    -0.2540 H     1 <1>   0.1500 
 40 H       -2.0180    -2.4880    -2.0270 H     1 <1>   0.0800 
 41 H       -2.3060    -2.6370    -0.3100 H     1 <1>   0.0800 
 42 H        2.3130     4.4630    -0.3590 H     1 <1>   0.1500 
 43 H       -3.1740    -4.5750    -2.4670 H     1 <1>   0.0800 
 44 H       -4.2080    -3.5880    -1.4740 H     1 <1>   0.0800 
 45 H       -4.1430    -6.8720     2.1400 H     1 <1>   0.1500 
 46 H       -4.5490    -3.2910     1.2540 H     1 <1>   0.0800 
 47 H       -5.4920    -4.5300     2.0400 H     1 <1>   0.0800 
 48 H       -5.8420    -4.0990     0.3870 H     1 <1>   0.0800 
 49 H       -2.3710    -9.0350    -0.2080 H     1 <1>   0.0800 
 50 H       -2.5480    -8.8390     1.5220 H     1 <1>   0.0800 
 51 H       -1.1030    -8.2630     0.7180 H     1 <1>   0.0800 
@<TRIPOS>BOND
  1   1   2  1   
  2   1   3  1   
  3   2   4  2   
  4   3   5  1   
  5   3   6  1   
  6   3  25  1   
  7   4   5  1   
  8   4   7  1   
  9   5  26  1   
 10   5  27  1   
 11   6   8  1   
 12   6  28  1   
 13   6  29  1   
 14   7   9  ar  
 15   7  10  ar  
 16   8  11  1   
 17   8  12  1   
 18   8  30  1   
 19   9  13  ar  
 20   9  31  1   
 21  10  14  ar  
 22  10  32  1   
 23  11  15  1   
 24  11  33  1   
 25  11  34  1   
 26  12  35  1   
 27  12  36  1   
 28  12  37  1   
 29  13  16  ar  
 30  13  38  1   
 31  14  16  ar  
 32  14  39  1   
 33  15  17  1   
 34  15  40  1   
 35  15  41  1   
 36  16  42  1   
 37  17  18  1   
 38  17  43  1   
 39  17  44  1   
 40  18  19  1   
 41  18  20  1   
 42  19  21  2   
 43  20  22  2   
 44  20  23  1   
 45  21  22  1   
 46  21  24  1   
 47  22  45  1   
 48  23  46  1   
 49  23  47  1   
 50  23  48  1   
 51  24  49  1   
 52  24  50  1   
 53  24  51  1   
@<TRIPOS>SUBSTRUCTURE
  1 ****   8 GROUP 4 **** **** 0

# MOE 2024.06 (io_trps.svl 2023.06)
