@<TRIPOS>MOLECULE
NONAME
44 46 1 0 0 
SMALL
USER_CHARGES


@<TRIPOS>ATOM
  1 F        0.6230     1.8190     0.8730 F     1 <1>  -0.1900 
  2 C        1.8900     2.0320     1.1060 C.ar  1 <1>   0.1900 
  3 C        2.5050     1.4000     2.1710 C.ar  1 <1>   0.1600 
  4 C        2.5830     2.8860     0.2820 C.ar  1 <1>  -0.1500 
  5 N        3.7880     1.5660     2.4680 N.ar  1 <1>  -0.6200 
  6 C        3.9280     3.0860     0.5750 C.ar  1 <1>   0.0860 
  7 C        4.4540     2.3860     1.6670 C.ar  1 <1>   0.1600 
  8 C        4.7720     3.9730    -0.2000 C.2   1 <1>   0.5440 
  9 O        5.9860     3.8830    -0.1580 O.2   1 <1>  -0.5700 
 10 N        4.2620     5.0050    -0.9520 N.am  1 <1>  -0.6600 
 11 C        4.8800     5.3370    -2.2800 C.3   1 <1>   0.1400 
 12 C        3.5240     6.1140    -0.2930 C.3   1 <1>   0.1400 
 13 C        5.9520     6.4460    -2.1990 C.3   1 <1>   0.3430 
 14 C        4.4610     6.8900     0.6470 C.3   1 <1>  -0.1600 
 15 N        6.4770     6.5910    -0.8080 N.4   1 <1>  -0.9590 
 16 C        5.6710     7.5620    -0.0170 C.3   1 <1>   0.3430 
 17 C        7.9380     6.8880    -0.7930 C.3   1 <1>   0.3430 
 18 C        8.5970     6.3820     0.4940 C.3   1 <1>   0.0200 
 19 C       10.0630     6.7610     0.4850 C.2   1 <1>   0.0060 
 20 N       10.5630     7.6290    -0.3320 N.2   1 <1>  -0.5650 
 21 N       10.9750     6.2270     1.3310 N.pl3 1 <1>   0.0330 
 22 C       11.8700     7.6680    -0.0050 C.2   1 <1>   0.0770 
 23 C       12.1380     6.8170     1.0090 C.2   1 <1>  -0.3020 
 24 H        1.9250     0.7400     2.7930 H     1 <1>   0.1500 
 25 H        2.0970     3.3660    -0.5480 H     1 <1>   0.1500 
 26 H        5.5000     2.5180     1.8920 H     1 <1>   0.1500 
 27 H        4.1120     5.6240    -2.9770 H     1 <1>   0.0800 
 28 H        5.3440     4.4480    -2.6740 H     1 <1>   0.0800 
 29 H        2.7040     5.7080     0.2770 H     1 <1>   0.0800 
 30 H        3.1070     6.7730    -1.0370 H     1 <1>   0.0800 
 31 H        5.5320     7.3810    -2.5330 H     1 <1>   0.0800 
 32 H        6.7520     6.1910    -2.8750 H     1 <1>   0.0800 
 33 H        4.8050     6.2390     1.4320 H     1 <1>   0.0800 
 34 H        3.8840     7.6600     1.1260 H     1 <1>   0.0800 
 35 H        6.3400     5.6430    -0.3940 H     1 <1>   0.4500 
 36 H        6.2840     7.9950     0.7570 H     1 <1>   0.0800 
 37 H        5.3400     8.3650    -0.6560 H     1 <1>   0.0800 
 38 H        8.1060     7.9490    -0.8920 H     1 <1>   0.0800 
 39 H        8.4230     6.4010    -1.6240 H     1 <1>   0.0800 
 40 H        8.5060     5.3120     0.5480 H     1 <1>   0.0800 
 41 H        8.1340     6.8270     1.3550 H     1 <1>   0.0800 
 42 H       10.8210     5.5240     2.0620 H     1 <1>   0.2700 
 43 H       12.5600     8.3140    -0.5230 H     1 <1>   0.1500 
 44 H       13.0710     6.6080     1.5020 H     1 <1>   0.1500 
@<TRIPOS>BOND
  1   1   2  1   
  2   2   3  ar  
  3   2   4  ar  
  4   3   5  ar  
  5   3  24  1   
  6   4   6  ar  
  7   4  25  1   
  8   5   7  ar  
  9   6   7  ar  
 10   6   8  1   
 11   7  26  1   
 12   8   9  2   
 13   8  10  am  
 14  10  11  1   
 15  10  12  1   
 16  11  13  1   
 17  11  27  1   
 18  11  28  1   
 19  12  14  1   
 20  12  29  1   
 21  12  30  1   
 22  13  15  1   
 23  13  31  1   
 24  13  32  1   
 25  14  16  1   
 26  14  33  1   
 27  14  34  1   
 28  15  16  1   
 29  15  17  1   
 30  15  35  1   
 31  16  36  1   
 32  16  37  1   
 33  17  18  1   
 34  17  38  1   
 35  17  39  1   
 36  18  19  1   
 37  18  40  1   
 38  18  41  1   
 39  19  20  2   
 40  19  21  1   
 41  20  22  1   
 42  21  23  1   
 43  21  42  1   
 44  22  23  2   
 45  22  43  1   
 46  23  44  1   
@<TRIPOS>SUBSTRUCTURE
  1 ****   9 GROUP 4 **** **** 0

# MOE 2024.06 (io_trps.svl 2023.06)
