@<TRIPOS>MOLECULE
NONAME
43 45 1 0 0 
SMALL
USER_CHARGES


@<TRIPOS>ATOM
  1 S        1.1560     0.1170    -1.6760 S.o2  1 <1>   1.3330 
  2 O        0.6470     0.9530    -2.7400 O.2   1 <1>  -0.6500 
  3 O        1.6120    -1.2220    -1.9770 O.2   1 <1>  -0.6500 
  4 N       -0.0670    -0.0040    -0.5030 N.am  1 <1>  -0.8490 
  5 C        2.4840     0.9750    -0.8300 C.3   1 <1>  -0.0550 
  6 C       -0.8510     1.2280    -0.3560 C.3   1 <1>   0.1160 
  7 C       -0.9660    -1.1330    -0.7590 C.3   1 <1>   0.1160 
  8 C        3.1600     0.1530     0.2880 C.3   1 <1>  -0.0800 
  9 C        4.3940     0.8020     0.8940 C.3   1 <1>   0.2890 
 10 C        2.2860    -0.1210     1.5180 C.3   1 <1>   0.1200 
 11 N        4.1590     2.2490     1.1340 N.pl3 1 <1>  -0.8690 
 12 C        4.4560     0.0830     2.2340 C.3   1 <1>   0.1200 
 13 O        3.1270    -0.0660     2.6360 O.3   1 <1>  -0.5600 
 14 C        4.6610     3.2770     0.3820 C.ar  1 <1>   0.4100 
 15 N        5.2230     2.9710    -0.7720 N.ar  1 <1>  -0.6200 
 16 C        4.5650     4.5990     0.8090 C.ar  1 <1>   0.0000 
 17 C        5.6860     3.9820    -1.4970 C.ar  1 <1>   0.4770 
 18 C        5.0910     5.5250    -0.0570 C.ar  1 <1>   0.2970 
 19 C        4.0110     5.1910     2.0000 C.2   1 <1>  -0.1500 
 20 N        5.6590     5.2700    -1.2150 N.ar  1 <1>  -0.5670 
 21 C        6.3180     3.5970    -2.8130 C.3   1 <1>  -0.0970 
 22 S        4.9040     7.1520     0.5980 S.3   1 <1>  -0.0800 
 23 C        4.1090     6.5320     2.0480 C.2   1 <1>  -0.1100 
 24 H        3.2340     1.2240    -1.5540 H     1 <1>   0.0800 
 25 H        2.1140     1.8990    -0.4300 H     1 <1>   0.0800 
 26 H       -1.5510     1.1260     0.4560 H     1 <1>   0.0800 
 27 H       -1.3950     1.4400    -1.2620 H     1 <1>   0.0800 
 28 H       -0.2020     2.0590    -0.1410 H     1 <1>   0.0800 
 29 H       -1.7210    -1.1910     0.0050 H     1 <1>   0.0800 
 30 H       -0.4100    -2.0560    -0.7520 H     1 <1>   0.0800 
 31 H       -1.4410    -1.0240    -1.7210 H     1 <1>   0.0800 
 32 H        3.4560    -0.7980    -0.1190 H     1 <1>   0.0800 
 33 H        5.2830     0.6450     0.3070 H     1 <1>   0.0800 
 34 H        1.8220    -1.0910     1.4730 H     1 <1>   0.0800 
 35 H        1.5320     0.6370     1.6460 H     1 <1>   0.0800 
 36 H        3.6770     2.4430     2.0150 H     1 <1>   0.4000 
 37 H        5.0030     0.6340     2.9780 H     1 <1>   0.0800 
 38 H        4.8780    -0.9000     2.1190 H     1 <1>   0.0800 
 39 H        3.5690     4.5740     2.7610 H     1 <1>   0.1500 
 40 H        7.1350     2.9230    -2.6340 H     1 <1>   0.0800 
 41 H        6.6870     4.4660    -3.3250 H     1 <1>   0.0800 
 42 H        5.5880     3.1100    -3.4310 H     1 <1>   0.0800 
 43 H        3.8020     7.2550     2.7830 H     1 <1>   0.1500 
@<TRIPOS>BOND
  1   1   2  2   
  2   1   3  2   
  3   1   4  am  
  4   1   5  1   
  5   4   6  1   
  6   4   7  1   
  7   5   8  1   
  8   5  24  1   
  9   5  25  1   
 10   6  26  1   
 11   6  27  1   
 12   6  28  1   
 13   7  29  1   
 14   7  30  1   
 15   7  31  1   
 16   8   9  1   
 17   8  10  1   
 18   8  32  1   
 19   9  11  1   
 20   9  12  1   
 21   9  33  1   
 22  10  13  1   
 23  10  34  1   
 24  10  35  1   
 25  11  14  1   
 26  11  36  1   
 27  12  13  1   
 28  12  37  1   
 29  12  38  1   
 30  14  15  ar  
 31  14  16  ar  
 32  15  17  ar  
 33  16  18  ar  
 34  16  19  1   
 35  17  20  ar  
 36  17  21  1   
 37  18  20  ar  
 38  18  22  1   
 39  19  23  2   
 40  19  39  1   
 41  21  40  1   
 42  21  41  1   
 43  21  42  1   
 44  22  23  1   
 45  23  43  1   
@<TRIPOS>SUBSTRUCTURE
  1 ****  11 GROUP 4 **** **** 0

# MOE 2024.06 (io_trps.svl 2023.06)
