@<TRIPOS>MOLECULE
NONAME
49 51 1 0 0 
SMALL
USER_CHARGES


@<TRIPOS>ATOM
  1 S        1.0500     1.8280     1.3970 S.o2  1 <1>   1.2040 
  2 O        0.4130     3.1240     1.3370 O.2   1 <1>  -0.6500 
  3 O        1.2810     1.1930     2.6750 O.2   1 <1>  -0.6500 
  4 C        2.6050     1.8930     0.4740 C.ar  1 <1>  -0.0090 
  5 C        0.0740     0.7080     0.4140 C.3   1 <1>  -0.1350 
  6 C        3.6610     1.0440     0.7820 C.ar  1 <1>  -0.1500 
  7 C        2.7740     2.7780    -0.5830 C.ar  1 <1>  -0.1500 
  8 C        4.8480     1.0850     0.0710 C.ar  1 <1>  -0.1500 
  9 C        3.9560     2.8240    -1.3000 C.ar  1 <1>  -0.1500 
 10 C        5.0090     1.9870    -0.9680 C.ar  1 <1>  -0.1430 
 11 C        6.3320     2.0700    -1.7280 C.3   1 <1>   0.0440 
 12 C        6.8310     3.5020    -1.9150 C.2   1 <1>   0.5690 
 13 O        7.1310     3.8320    -3.0360 O.2   1 <1>  -0.5700 
 14 N        6.9430     4.4050    -0.8790 N.am  1 <1>  -0.6600 
 15 C        6.8760     4.0140     0.5820 C.3   1 <1>   0.2200 
 16 C        6.9730     5.8610    -1.2510 C.3   1 <1>   0.1400 
 17 C        5.6920     4.6660     1.3140 C.3   1 <1>   0.1200 
 18 C        8.2080     4.2990     1.3180 C.3   1 <1>   0.3430 
 19 C        7.2140     6.8540    -0.1000 C.3   1 <1>  -0.0800 
 20 O        6.0470     5.9280     1.7930 O.3   1 <1>  -0.5600 
 21 N        9.0860     5.2760     0.5880 N.4   1 <1>  -0.9590 
 22 C        6.0170     6.9520     0.8570 C.3   1 <1>   0.1200 
 23 C        8.5510     6.6730     0.6420 C.3   1 <1>   0.3430 
 24 C       10.4960     5.2150     1.0690 C.3   1 <1>   0.2630 
 25 H       -0.0580     1.0960    -0.5770 H     1 <1>   0.0800 
 26 H       -0.8930     0.5780     0.8600 H     1 <1>   0.0800 
 27 H        0.5520    -0.2500     0.3520 H     1 <1>   0.0800 
 28 H        3.5530     0.3410     1.5930 H     1 <1>   0.1500 
 29 H        1.9690     3.4440    -0.8490 H     1 <1>   0.1500 
 30 H        5.6400     0.4060     0.3370 H     1 <1>   0.1500 
 31 H        4.0500     3.5210    -2.1180 H     1 <1>   0.1500 
 32 H        6.1910     1.6280    -2.6980 H     1 <1>   0.0800 
 33 H        7.0940     1.5040    -1.2280 H     1 <1>   0.0800 
 34 H        6.7180     2.9570     0.6590 H     1 <1>   0.0800 
 35 H        7.7400     6.0090    -1.9950 H     1 <1>   0.0800 
 36 H        6.0360     6.1020    -1.7270 H     1 <1>   0.0800 
 37 H        5.4360     4.0730     2.1750 H     1 <1>   0.0800 
 38 H        4.8190     4.7350     0.6860 H     1 <1>   0.0800 
 39 H        8.7320     3.3630     1.4170 H     1 <1>   0.0800 
 40 H        8.0000     4.6570     2.3130 H     1 <1>   0.0800 
 41 H        7.2650     7.8230    -0.5650 H     1 <1>   0.0800 
 42 H        9.0360     4.9830    -0.4040 H     1 <1>   0.4500 
 43 H        5.0760     6.9290     0.3320 H     1 <1>   0.0800 
 44 H        6.0670     7.8750     1.4090 H     1 <1>   0.0800 
 45 H        8.4300     6.9790     1.6690 H     1 <1>   0.0800 
 46 H        9.2730     7.3320     0.1880 H     1 <1>   0.0800 
 47 H       10.5510     5.5070     2.1060 H     1 <1>   0.0800 
 48 H       11.1180     5.8780     0.4900 H     1 <1>   0.0800 
 49 H       10.8820     4.2130     0.9710 H     1 <1>   0.0800 
@<TRIPOS>BOND
  1   1   2  2   
  2   1   3  2   
  3   1   4  1   
  4   1   5  1   
  5   4   6  ar  
  6   4   7  ar  
  7   5  25  1   
  8   5  26  1   
  9   5  27  1   
 10   6   8  ar  
 11   6  28  1   
 12   7   9  ar  
 13   7  29  1   
 14   8  10  ar  
 15   8  30  1   
 16   9  10  ar  
 17   9  31  1   
 18  10  11  1   
 19  11  12  1   
 20  11  32  1   
 21  11  33  1   
 22  12  13  2   
 23  12  14  am  
 24  14  15  1   
 25  14  16  1   
 26  15  17  1   
 27  15  18  1   
 28  15  34  1   
 29  16  19  1   
 30  16  35  1   
 31  16  36  1   
 32  17  20  1   
 33  17  37  1   
 34  17  38  1   
 35  18  21  1   
 36  18  39  1   
 37  18  40  1   
 38  19  22  1   
 39  19  23  1   
 40  19  41  1   
 41  20  22  1   
 42  21  23  1   
 43  21  24  1   
 44  21  42  1   
 45  22  43  1   
 46  22  44  1   
 47  23  45  1   
 48  23  46  1   
 49  24  47  1   
 50  24  48  1   
 51  24  49  1   
@<TRIPOS>SUBSTRUCTURE
  1 ****  17 GROUP 4 **** **** 0

# MOE 2024.06 (io_trps.svl 2023.06)
