@<TRIPOS>MOLECULE
NONAME
55 57 1 0 0 
SMALL
USER_CHARGES


@<TRIPOS>ATOM
  1 O       -0.4010    -0.0850     0.5930 O.2   1 <1>  -0.5700 
  2 C       -0.3830     1.0970     0.3030 C.2   1 <1>   0.6900 
  3 N       -1.5440     1.8310     0.3190 N.am  1 <1>  -0.6600 
  4 N        0.7800     1.7310    -0.0210 N.am  1 <1>  -0.5470 
  5 C       -2.7790     1.2580     0.9310 C.3   1 <1>   0.1400 
  6 C       -1.6710     3.1710    -0.3260 C.3   1 <1>   0.1400 
  7 C        2.1100     1.3110    -0.2030 C.ar  1 <1>   0.1170 
  8 C       -3.6650     2.3780     1.4860 C.3   1 <1>  -0.1600 
  9 C       -3.1100     3.3960    -0.7880 C.3   1 <1>  -0.1600 
 10 C        3.1030     2.2930    -0.2850 C.ar  1 <1>   0.0820 
 11 C        2.4780    -0.0240    -0.3180 C.ar  1 <1>  -0.1500 
 12 C       -4.0910     3.4050     0.4070 C.3   1 <1>   0.2800 
 13 O        2.7010     3.6000    -0.1790 O.3   1 <1>  -0.3630 
 14 C        4.4330     1.9270    -0.4690 C.ar  1 <1>  -0.1500 
 15 C        3.8000    -0.3910    -0.5020 C.ar  1 <1>   0.0820 
 16 O       -3.9160     4.6720     1.0040 O.3   1 <1>  -0.5600 
 17 C       -5.5750     3.1650    -0.0270 C.3   1 <1>   0.2000 
 18 C        3.6440     4.6480    -0.1200 C.3   1 <1>   0.0400 
 19 C        4.7810     0.5920    -0.5770 C.ar  1 <1>  -0.1500 
 20 O        4.0580    -1.7220    -0.6020 O.3   1 <1>  -0.3620 
 21 C       -4.9910     5.5630     1.0730 C.3   1 <1>   0.1200 
 22 O       -5.7170     1.9530    -0.7240 O.3   1 <1>  -0.6800 
 23 C       -6.2110     4.3740    -0.7860 C.3   1 <1>   0.2800 
 24 C        5.3740    -2.2020    -0.7570 C.3   1 <1>   0.0400 
 25 C       -5.6060     5.7080    -0.3190 C.3   1 <1>  -0.1600 
 26 O       -7.5520     4.4120    -0.4520 O.3   1 <1>  -0.6800 
 27 C       -6.1770     4.2730    -2.3180 C.3   1 <1>  -0.2400 
 28 H        0.6970     2.7430    -0.0140 H     1 <1>   0.3700 
 29 H       -3.3160     0.6960     0.1860 H     1 <1>   0.0800 
 30 H       -2.5100     0.5850     1.7280 H     1 <1>   0.0800 
 31 H       -1.3930     3.9330     0.3830 H     1 <1>   0.0800 
 32 H       -1.0140     3.2310    -1.1770 H     1 <1>   0.0800 
 33 H       -3.1130     2.8700     2.2680 H     1 <1>   0.0800 
 34 H       -4.5290     1.9300     1.9400 H     1 <1>   0.0800 
 35 H       -3.3530     2.6110    -1.4800 H     1 <1>   0.0800 
 36 H       -3.1700     4.3270    -1.3200 H     1 <1>   0.0800 
 37 H        1.7370    -0.7990    -0.2680 H     1 <1>   0.1500 
 38 H        5.2120     2.6610    -0.5350 H     1 <1>   0.1500 
 39 H       -6.1370     3.0360     0.8820 H     1 <1>   0.0800 
 40 H        3.1100     5.5710     0.0170 H     1 <1>   0.0800 
 41 H        4.1920     4.6780    -1.0450 H     1 <1>   0.0800 
 42 H        4.3010     4.4800     0.7150 H     1 <1>   0.0800 
 43 H        5.8140     0.3390    -0.7190 H     1 <1>   0.1500 
 44 H       -5.7080     5.1930     1.7880 H     1 <1>   0.0800 
 45 H       -4.6090     6.5080     1.4210 H     1 <1>   0.0800 
 46 H       -5.4900     2.0790    -1.6630 H     1 <1>   0.4000 
 47 H        5.3340    -3.2750    -0.7990 H     1 <1>   0.0800 
 48 H        5.9600    -1.8910     0.0900 H     1 <1>   0.0800 
 49 H        5.7810    -1.8150    -1.6740 H     1 <1>   0.0800 
 50 H       -4.8250     6.0230    -0.9860 H     1 <1>   0.0800 
 51 H       -6.3500     6.4850    -0.3110 H     1 <1>   0.0800 
 52 H       -8.0220     5.0410    -1.0290 H     1 <1>   0.4000 
 53 H       -5.1660     4.1740    -2.6670 H     1 <1>   0.0800 
 54 H       -6.5930     5.1600    -2.7630 H     1 <1>   0.0800 
 55 H       -6.7400     3.4210    -2.6570 H     1 <1>   0.0800 
@<TRIPOS>BOND
  1   1   2  2   
  2   2   3  am  
  3   2   4  am  
  4   3   5  1   
  5   3   6  1   
  6   4   7  1   
  7   4  28  1   
  8   5   8  1   
  9   5  29  1   
 10   5  30  1   
 11   6   9  1   
 12   6  31  1   
 13   6  32  1   
 14   7  10  ar  
 15   7  11  ar  
 16   8  12  1   
 17   8  33  1   
 18   8  34  1   
 19   9  12  1   
 20   9  35  1   
 21   9  36  1   
 22  10  13  1   
 23  10  14  ar  
 24  11  15  ar  
 25  11  37  1   
 26  12  16  1   
 27  12  17  1   
 28  13  18  1   
 29  14  19  ar  
 30  14  38  1   
 31  15  19  ar  
 32  15  20  1   
 33  16  21  1   
 34  17  22  1   
 35  17  23  1   
 36  17  39  1   
 37  18  40  1   
 38  18  41  1   
 39  18  42  1   
 40  19  43  1   
 41  20  24  1   
 42  21  25  1   
 43  21  44  1   
 44  21  45  1   
 45  22  46  1   
 46  23  25  1   
 47  23  26  1   
 48  23  27  1   
 49  24  47  1   
 50  24  48  1   
 51  24  49  1   
 52  25  50  1   
 53  25  51  1   
 54  26  52  1   
 55  27  53  1   
 56  27  54  1   
 57  27  55  1   
@<TRIPOS>SUBSTRUCTURE
  1 ****   3 GROUP 4 **** **** 0

# MOE 2024.06 (io_trps.svl 2023.06)
