@<TRIPOS>MOLECULE
NONAME
55 57 1 0 0 
SMALL
USER_CHARGES


@<TRIPOS>ATOM
  1 O       -0.0130     1.4310     1.7260 O.2   1 <1>  -0.5700 
  2 C        0.0080     2.5080     1.1760 C.2   1 <1>   0.5690 
  3 N       -1.1360     3.2430     0.9940 N.am  1 <1>  -0.6600 
  4 C        1.3430     3.0450     0.6770 C.3   1 <1>  -0.0990 
  5 C       -2.4710     2.7080     1.3960 C.3   1 <1>   0.1400 
  6 C       -1.2300     4.5570     0.3000 C.3   1 <1>   0.1400 
  7 C        2.5230     2.0800     0.8910 C.3   1 <1>  -0.0160 
  8 C       -3.3450     2.4620     0.1510 C.3   1 <1>   0.0000 
  9 C       -2.0700     4.4010    -0.9720 C.3   1 <1>  -0.1600 
 10 C        3.8830     2.5510     0.3580 C.ar  1 <1>  -0.1440 
 11 C       -4.7190     1.9070     0.5670 C.3   1 <1>   0.2000 
 12 C       -3.4470     3.7760    -0.6760 C.3   1 <1>  -0.1600 
 13 C       -2.8070     1.3090    -0.7160 C.3   1 <1>  -0.1600 
 14 C        4.9740     1.6850     0.4020 C.ar  1 <1>  -0.1440 
 15 C        4.0670     3.8250    -0.1700 C.ar  1 <1>  -0.1500 
 16 O       -5.5830     2.9200     0.9880 O.3   1 <1>  -0.5600 
 17 C       -5.2570     1.1810    -0.6680 C.3   1 <1>  -0.1600 
 18 C       -4.0200     0.7510    -1.4690 C.3   1 <1>  -0.1600 
 19 C        6.2070     2.0980    -0.0790 C.ar  1 <1>  -0.1500 
 20 C        4.8570     0.2750     0.9700 C.3   1 <1>  -0.0970 
 21 C        5.3020     4.2280    -0.6460 C.ar  1 <1>  -0.1500 
 22 C       -6.7270     2.4810     1.6480 C.3   1 <1>   0.0400 
 23 C        6.3810     3.3660    -0.6030 C.ar  1 <1>  -0.1440 
 24 C        7.7390     3.8000    -1.1260 C.3   1 <1>  -0.0970 
 25 H        1.2500     3.2430    -0.3750 H     1 <1>   0.0800 
 26 H        1.5440     3.9630     1.1960 H     1 <1>   0.0800 
 27 H       -2.3620     1.7950     1.9540 H     1 <1>   0.0800 
 28 H       -2.9560     3.4250     2.0360 H     1 <1>   0.0800 
 29 H       -1.7040     5.2630     0.9600 H     1 <1>   0.0800 
 30 H       -0.2590     4.9430     0.0490 H     1 <1>   0.0800 
 31 H        2.2750     1.1480     0.4140 H     1 <1>   0.0800 
 32 H        2.6180     1.8910     1.9460 H     1 <1>   0.0800 
 33 H       -2.2110     5.3680    -1.4210 H     1 <1>   0.0800 
 34 H       -1.5290     3.7970    -1.6780 H     1 <1>   0.0800 
 35 H       -4.5860     1.2030     1.3720 H     1 <1>   0.0800 
 36 H       -3.9720     3.6020    -1.5980 H     1 <1>   0.0800 
 37 H       -4.0180     4.4970    -0.1170 H     1 <1>   0.0800 
 38 H       -2.0220     1.6100    -1.3850 H     1 <1>   0.0800 
 39 H       -2.4130     0.5380    -0.0750 H     1 <1>   0.0800 
 40 H        3.2620     4.5320    -0.2240 H     1 <1>   0.1500 
 41 H       -5.8470     0.3290    -0.3840 H     1 <1>   0.0800 
 42 H       -5.8510     1.8550    -1.2600 H     1 <1>   0.0800 
 43 H       -3.9560    -0.3210    -1.5520 H     1 <1>   0.0800 
 44 H       -4.0650     1.1730    -2.4590 H     1 <1>   0.0800 
 45 H        7.0460     1.4270    -0.0470 H     1 <1>   0.1500 
 46 H        5.8140    -0.2140     0.9900 H     1 <1>   0.0800 
 47 H        4.1920    -0.3120     0.3640 H     1 <1>   0.0800 
 48 H        4.4800     0.3100     1.9760 H     1 <1>   0.0800 
 49 H        5.4170     5.2180    -1.0510 H     1 <1>   0.1500 
 50 H       -7.2940     3.3460     1.9440 H     1 <1>   0.0800 
 51 H       -6.4410     1.9200     2.5210 H     1 <1>   0.0800 
 52 H       -7.3160     1.8750     0.9830 H     1 <1>   0.0800 
 53 H        7.8290     4.8710    -1.1020 H     1 <1>   0.0800 
 54 H        7.8620     3.4630    -2.1390 H     1 <1>   0.0800 
 55 H        8.5220     3.3810    -0.5210 H     1 <1>   0.0800 
@<TRIPOS>BOND
  1   1   2  2   
  2   2   3  am  
  3   2   4  1   
  4   3   5  1   
  5   3   6  1   
  6   4   7  1   
  7   4  25  1   
  8   4  26  1   
  9   5   8  1   
 10   5  27  1   
 11   5  28  1   
 12   6   9  1   
 13   6  29  1   
 14   6  30  1   
 15   7  10  1   
 16   7  31  1   
 17   7  32  1   
 18   8  11  1   
 19   8  12  1   
 20   8  13  1   
 21   9  12  1   
 22   9  33  1   
 23   9  34  1   
 24  10  14  ar  
 25  10  15  ar  
 26  11  16  1   
 27  11  17  1   
 28  11  35  1   
 29  12  36  1   
 30  12  37  1   
 31  13  18  1   
 32  13  38  1   
 33  13  39  1   
 34  14  19  ar  
 35  14  20  1   
 36  15  21  ar  
 37  15  40  1   
 38  16  22  1   
 39  17  18  1   
 40  17  41  1   
 41  17  42  1   
 42  18  43  1   
 43  18  44  1   
 44  19  23  ar  
 45  19  45  1   
 46  20  46  1   
 47  20  47  1   
 48  20  48  1   
 49  21  23  ar  
 50  21  49  1   
 51  22  50  1   
 52  22  51  1   
 53  22  52  1   
 54  23  24  1   
 55  24  53  1   
 56  24  54  1   
 57  24  55  1   
@<TRIPOS>SUBSTRUCTURE
  1 ****   2 GROUP 4 **** **** 0

# MOE 2024.06 (io_trps.svl 2023.06)
