@<TRIPOS>MOLECULE
NONAME
56 59 1 0 0 
SMALL
USER_CHARGES


@<TRIPOS>ATOM
  1 O       -0.9760     0.1280    -0.1130 O.2   1 <1>  -0.5700 
  2 C       -1.8040     0.9040    -0.5710 C.2   1 <1>   0.7160 
  3 N       -3.0050     0.3330    -0.9620 N.am  1 <1>  -0.6600 
  4 C       -1.5290     2.3400    -0.6730 C.2   1 <1>   0.2030 
  5 C       -3.0950    -1.1160    -1.2650 C.3   1 <1>   0.1400 
  6 C       -4.3150     0.9890    -0.7040 C.3   1 <1>   0.1400 
  7 N       -2.1890     3.1820    -1.4540 N.2   1 <1>  -0.7070 
  8 C       -0.5270     3.0360     0.0250 C.2   1 <1>  -0.1810 
  9 C       -3.7320    -1.8410    -0.0610 C.3   1 <1>   0.4230 
 10 C       -4.9820     0.2820     0.4850 C.3   1 <1>  -0.1600 
 11 N       -1.6120     4.3730    -1.2600 N.pl3 1 <1>   0.3000 
 12 C       -0.6010     4.3310    -0.3690 C.2   1 <1>  -0.2050 
 13 C        0.4540     2.4640     1.0380 C.3   1 <1>  -0.0590 
 14 N       -3.7000    -3.3600    -0.1680 N.4   1 <1>  -0.9590 
 15 C       -5.1320    -1.2580     0.3020 C.3   1 <1>   0.0000 
 16 C        0.1730     5.4890    -0.0050 C.ar  1 <1>   0.0530 
 17 C       -4.6550    -4.0590     0.7510 C.3   1 <1>   0.3430 
 18 C       -3.8290    -3.9130    -1.5570 C.3   1 <1>   0.2630 
 19 C       -5.6100    -1.8760     1.6500 C.3   1 <1>  -0.1600 
 20 C       -6.1530    -1.5650    -0.8320 C.3   1 <1>   0.1200 
 21 C        1.5460     5.5260    -0.2270 C.ar  1 <1>  -0.1500 
 22 C       -0.4280     6.6050     0.5710 C.ar  1 <1>  -0.1500 
 23 C       -4.9330    -3.2170     1.9950 C.3   1 <1>  -0.1600 
 24 O       -7.3580    -0.9150    -0.6290 O.3   1 <1>  -0.6800 
 25 C        2.2950     6.6390     0.1080 C.ar  1 <1>  -0.1500 
 26 C        0.3150     7.7220     0.9080 C.ar  1 <1>  -0.1500 
 27 C        1.6800     7.7410     0.6770 C.ar  1 <1>  -0.1500 
 28 H       -3.6790    -1.2420    -2.1580 H     1 <1>   0.0800 
 29 H       -2.1100    -1.5090    -1.4490 H     1 <1>   0.0800 
 30 H       -4.1850     2.0300    -0.4650 H     1 <1>   0.0800 
 31 H       -4.9330     0.9300    -1.5850 H     1 <1>   0.0800 
 32 H       -3.0990    -1.5880     0.7750 H     1 <1>   0.0800 
 33 H       -4.3780     0.4890     1.3520 H     1 <1>   0.0800 
 34 H       -5.9390     0.7400     0.6640 H     1 <1>   0.0800 
 35 H       -1.9090     5.2210    -1.7560 H     1 <1>   0.2700 
 36 H       -0.0760     1.9260     1.8020 H     1 <1>   0.0800 
 37 H        1.0200     3.2490     1.5050 H     1 <1>   0.0800 
 38 H        1.1350     1.7910     0.5480 H     1 <1>   0.0800 
 39 H       -2.7550    -3.6130     0.1620 H     1 <1>   0.4500 
 40 H       -5.5900    -4.2330     0.2430 H     1 <1>   0.0800 
 41 H       -4.2520    -5.0170     1.0410 H     1 <1>   0.0800 
 42 H       -4.7810    -3.6440    -1.9850 H     1 <1>   0.0800 
 43 H       -3.7530    -4.9880    -1.5400 H     1 <1>   0.0800 
 44 H       -3.0450    -3.5310    -2.1910 H     1 <1>   0.0800 
 45 H       -5.4160    -1.2010     2.4670 H     1 <1>   0.0800 
 46 H       -6.6770    -2.0200     1.6340 H     1 <1>   0.0800 
 47 H       -6.3650    -2.6170    -0.8980 H     1 <1>   0.0800 
 48 H       -5.7890    -1.2310    -1.7870 H     1 <1>   0.0800 
 49 H        2.0240     4.6710    -0.6710 H     1 <1>   0.1500 
 50 H       -1.4860     6.5930     0.7630 H     1 <1>   0.1500 
 51 H       -5.5700    -3.7710     2.6640 H     1 <1>   0.0800 
 52 H       -4.0070    -3.0420     2.5170 H     1 <1>   0.0800 
 53 H       -7.7930    -1.1860     0.2030 H     1 <1>   0.4000 
 54 H        3.3560     6.6490    -0.0720 H     1 <1>   0.1500 
 55 H       -0.1650     8.5760     1.3540 H     1 <1>   0.1500 
 56 H        2.2600     8.6090     0.9390 H     1 <1>   0.1500 
@<TRIPOS>BOND
  1   1   2  2   
  2   2   3  am  
  3   2   4  1   
  4   3   5  1   
  5   3   6  1   
  6   4   7  2   
  7   4   8  1   
  8   5   9  1   
  9   5  28  1   
 10   5  29  1   
 11   6  10  1   
 12   6  30  1   
 13   6  31  1   
 14   7  11  1   
 15   8  12  2   
 16   8  13  1   
 17   9  14  1   
 18   9  15  1   
 19   9  32  1   
 20  10  15  1   
 21  10  33  1   
 22  10  34  1   
 23  11  12  1   
 24  11  35  1   
 25  12  16  1   
 26  13  36  1   
 27  13  37  1   
 28  13  38  1   
 29  14  17  1   
 30  14  18  1   
 31  14  39  1   
 32  15  19  1   
 33  15  20  1   
 34  16  21  ar  
 35  16  22  ar  
 36  17  23  1   
 37  17  40  1   
 38  17  41  1   
 39  18  42  1   
 40  18  43  1   
 41  18  44  1   
 42  19  23  1   
 43  19  45  1   
 44  19  46  1   
 45  20  24  1   
 46  20  47  1   
 47  20  48  1   
 48  21  25  ar  
 49  21  49  1   
 50  22  26  ar  
 51  22  50  1   
 52  23  51  1   
 53  23  52  1   
 54  24  53  1   
 55  25  27  ar  
 56  25  54  1   
 57  26  27  ar  
 58  26  55  1   
 59  27  56  1   
@<TRIPOS>SUBSTRUCTURE
  1 ****   2 GROUP 4 **** **** 0

# MOE 2024.06 (io_trps.svl 2023.06)
