@<TRIPOS>MOLECULE
NONAME
57 59 1 0 0 
SMALL
USER_CHARGES


@<TRIPOS>ATOM
  1 O        0.4620     0.4740    -1.2620 O.3   1 <1>  -0.5600 
  2 C        1.6990    -0.1920    -1.2600 C.3   1 <1>   0.2000 
  3 C        0.5880     1.8660    -1.2780 C.3   1 <1>   0.1200 
  4 C        2.5050     0.2060     0.0080 C.3   1 <1>   0.3340 
  5 C        1.4080    -1.6980    -1.3600 C.3   1 <1>   0.1200 
  6 C        1.3460     2.3480    -0.0290 C.3   1 <1>   0.1100 
  7 N        2.6560     1.6800     0.0970 N.3   1 <1>  -0.8100 
  8 C        3.8760    -0.4690     0.0240 C.ar  1 <1>  -0.1440 
  9 O        2.5460    -2.4080    -1.7360 O.3   1 <1>  -0.6800 
 10 C        3.3880     2.1010     1.3210 C.3   1 <1>   0.2530 
 11 C        4.1320    -1.5080     0.9040 C.ar  1 <1>  -0.1500 
 12 C        4.8800    -0.0610    -0.8390 C.ar  1 <1>  -0.1500 
 13 C        3.6450     3.6070     1.3840 C.ar  1 <1>   0.1670 
 14 C        5.3610    -2.1450     0.9290 C.ar  1 <1>   0.0830 
 15 C        6.1180    -0.6770    -0.8220 C.ar  1 <1>  -0.1500 
 16 N        4.5920     4.1130     0.6220 N.ar  1 <1>  -0.6200 
 17 C        2.9070     4.4080     2.2260 C.ar  1 <1>  -0.1500 
 18 O        5.4590    -3.1600     1.8330 O.3   1 <1>  -0.3630 
 19 C        6.3830    -1.7190     0.0640 C.ar  1 <1>   0.0830 
 20 C        4.7810     5.4230     0.7040 C.ar  1 <1>   0.4770 
 21 C        3.1880     5.7510     2.2360 C.ar  1 <1>   0.1600 
 22 C        6.2280    -4.3070     1.5490 C.3   1 <1>   0.0400 
 23 O        7.6110    -2.3120     0.1160 O.3   1 <1>  -0.3630 
 24 N        4.1230     6.2750     1.4770 N.ar  1 <1>  -0.6200 
 25 C        5.8750     6.0250    -0.1880 C.3   1 <1>   0.0630 
 26 C        8.7230    -1.7880    -0.5770 C.3   1 <1>   0.0400 
 27 C        5.5600     5.8340    -1.6810 C.3   1 <1>  -0.2400 
 28 C        7.2630     5.4490     0.1380 C.3   1 <1>  -0.2400 
 29 H        2.2320     0.1120    -2.1440 H     1 <1>   0.0800 
 30 H        1.1110     2.1590    -2.1720 H     1 <1>   0.0800 
 31 H       -0.4010     2.2870    -1.3000 H     1 <1>   0.0800 
 32 H        1.9470    -0.1320     0.8650 H     1 <1>   0.0800 
 33 H        0.6600    -1.8770    -2.1130 H     1 <1>   0.0800 
 34 H        1.0640    -2.0850    -0.4170 H     1 <1>   0.0800 
 35 H        0.7440     2.1540     0.8420 H     1 <1>   0.0800 
 36 H        1.4900     3.4110    -0.1120 H     1 <1>   0.0800 
 37 H        3.3060    -2.1870    -1.1540 H     1 <1>   0.4000 
 38 H        2.8380     1.7910     2.1910 H     1 <1>   0.0800 
 39 H        4.3490     1.6190     1.3540 H     1 <1>   0.0800 
 40 H        3.3730    -1.8460     1.5880 H     1 <1>   0.1500 
 41 H        4.6970     0.7530    -1.5220 H     1 <1>   0.1500 
 42 H        6.8610    -0.3210    -1.5080 H     1 <1>   0.1500 
 43 H        2.1370     4.0020     2.8530 H     1 <1>   0.1500 
 44 H        2.6340     6.4140     2.8800 H     1 <1>   0.1500 
 45 H        5.8770    -5.1090     2.1720 H     1 <1>   0.0800 
 46 H        7.2580    -4.0980     1.7730 H     1 <1>   0.0800 
 47 H        6.1080    -4.5660     0.5110 H     1 <1>   0.0800 
 48 H        5.9090     7.0840     0.0040 H     1 <1>   0.0800 
 49 H        9.5870    -2.3680    -0.3090 H     1 <1>   0.0800 
 50 H        8.8660    -0.7630    -0.2830 H     1 <1>   0.0800 
 51 H        8.5440    -1.8670    -1.6340 H     1 <1>   0.0800 
 52 H        5.5350     4.7870    -1.9270 H     1 <1>   0.0800 
 53 H        6.3040     6.3170    -2.2880 H     1 <1>   0.0800 
 54 H        4.5990     6.2610    -1.9080 H     1 <1>   0.0800 
 55 H        7.2860     4.3920    -0.0640 H     1 <1>   0.0800 
 56 H        7.4850     5.6020     1.1790 H     1 <1>   0.0800 
 57 H        8.0200     5.9330    -0.4510 H     1 <1>   0.0800 
@<TRIPOS>BOND
  1   1   2  1   
  2   1   3  1   
  3   2   4  1   
  4   2   5  1   
  5   2  29  1   
  6   3   6  1   
  7   3  30  1   
  8   3  31  1   
  9   4   7  1   
 10   4   8  1   
 11   4  32  1   
 12   5   9  1   
 13   5  33  1   
 14   5  34  1   
 15   6   7  1   
 16   6  35  1   
 17   6  36  1   
 18   7  10  1   
 19   8  11  ar  
 20   8  12  ar  
 21   9  37  1   
 22  10  13  1   
 23  10  38  1   
 24  10  39  1   
 25  11  14  ar  
 26  11  40  1   
 27  12  15  ar  
 28  12  41  1   
 29  13  16  ar  
 30  13  17  ar  
 31  14  18  1   
 32  14  19  ar  
 33  15  19  ar  
 34  15  42  1   
 35  16  20  ar  
 36  17  21  ar  
 37  17  43  1   
 38  18  22  1   
 39  19  23  1   
 40  20  24  ar  
 41  20  25  1   
 42  21  24  ar  
 43  21  44  1   
 44  22  45  1   
 45  22  46  1   
 46  22  47  1   
 47  23  26  1   
 48  25  27  1   
 49  25  28  1   
 50  25  48  1   
 51  26  49  1   
 52  26  50  1   
 53  26  51  1   
 54  27  52  1   
 55  27  53  1   
 56  27  54  1   
 57  28  55  1   
 58  28  56  1   
 59  28  57  1   
@<TRIPOS>SUBSTRUCTURE
  1 ****   7 GROUP 4 **** **** 0

# MOE 2024.06 (io_trps.svl 2023.06)
