@<TRIPOS>MOLECULE
NONAME
48 51 1 0 0 
SMALL
USER_CHARGES


@<TRIPOS>ATOM
  1 CL      -1.0230    -1.9460    -3.7630 Cl    1 <1>  -0.1770 
  2 C       -1.6700    -3.0160    -2.5460 C.ar  1 <1>   0.1770 
  3 C       -0.8290    -3.5390    -1.5840 C.ar  1 <1>  -0.1500 
  4 C       -3.0160    -3.3260    -2.5570 C.ar  1 <1>  -0.1500 
  5 C       -1.3480    -4.3870    -0.6210 C.ar  1 <1>  -0.1500 
  6 C       -3.5240    -4.1730    -1.5880 C.ar  1 <1>  -0.1500 
  7 C       -2.7030    -4.7260    -0.6010 C.ar  1 <1>   0.0530 
  8 C       -3.2260    -5.6120     0.4110 C.2   1 <1>   0.0870 
  9 O       -2.6200    -5.7410     1.5660 O.3   1 <1>  -0.0190 
 10 C       -4.3100    -6.4240     0.4540 C.2   1 <1>  -0.2330 
 11 N       -3.2310    -6.5720     2.3720 N.2   1 <1>  -0.4100 
 12 C       -4.2590    -6.9990     1.7270 C.2   1 <1>   0.3720 
 13 C       -5.2970    -6.6920    -0.5260 C.2   1 <1>   1.0330 
 14 N       -5.1560    -7.9070     2.3170 N.3   1 <1>  -0.5730 
 15 O       -6.4120    -6.1460    -0.4770 O.co2 1 <1>  -0.9000 
 16 O       -5.1750    -7.6260    -1.3280 O.co2 1 <1>  -0.9000 
 17 C       -6.5910    -7.4670     2.3970 C.3   1 <1>   0.2450 
 18 C       -5.5430    -9.1280     1.5260 C.3   1 <1>   0.2450 
 19 C       -7.0440    -8.7000     1.5570 C.3   1 <1>   0.4720 
 20 N       -7.7350    -8.4130     0.2380 N.4   1 <1>  -0.9280 
 21 C       -9.1910    -8.1160     0.3290 C.3   1 <1>   0.4230 
 22 C       -7.4190    -9.4580    -0.7830 C.3   1 <1>   0.3430 
 23 C       -9.7270    -7.7050    -1.0490 C.3   1 <1>  -0.1600 
 24 C       -9.4880    -6.9960     1.3260 C.3   1 <1>  -0.2400 
 25 C       -7.9710    -9.0780    -2.1570 C.3   1 <1>  -0.1600 
 26 C       -9.4680    -8.7770    -2.1100 C.3   1 <1>  -0.1600 
 27 H        0.2160    -3.2860    -1.5920 H     1 <1>   0.1500 
 28 H       -3.6560    -2.9090    -3.3130 H     1 <1>   0.1500 
 29 H       -0.6930    -4.7990     0.1270 H     1 <1>   0.1500 
 30 H       -4.5760    -4.4020    -1.6010 H     1 <1>   0.1500 
 31 H       -6.7510    -6.5110     1.9360 H     1 <1>   0.0000 
 32 H       -6.9380    -7.5070     3.4140 H     1 <1>   0.0000 
 33 H       -5.3580   -10.0160     2.1030 H     1 <1>   0.0000 
 34 H       -5.0730    -9.1580     0.5640 H     1 <1>   0.0000 
 35 H       -7.6300    -9.3880     2.1390 H     1 <1>   0.0000 
 36 H       -7.2890    -7.5410    -0.1490 H     1 <1>   0.4500 
 37 H       -9.7100    -9.0060     0.6440 H     1 <1>   0.0800 
 38 H       -7.8340   -10.4020    -0.4770 H     1 <1>   0.0800 
 39 H       -6.3500    -9.5670    -0.8780 H     1 <1>   0.0800 
 40 H       -9.2580    -6.7820    -1.3500 H     1 <1>   0.0800 
 41 H      -10.7860    -7.5270    -0.9860 H     1 <1>   0.0800 
 42 H       -8.9080    -6.1190     1.0920 H     1 <1>   0.0800 
 43 H       -9.2990    -7.3090     2.3350 H     1 <1>   0.0800 
 44 H      -10.5280    -6.7280     1.2710 H     1 <1>   0.0800 
 45 H       -7.7800    -9.8800    -2.8480 H     1 <1>   0.0800 
 46 H       -7.4350    -8.2140    -2.5160 H     1 <1>   0.0800 
 47 H       -9.7980    -8.4250    -3.0730 H     1 <1>   0.0800 
 48 H      -10.0170    -9.6720    -1.8730 H     1 <1>   0.0800 
@<TRIPOS>BOND
  1   1   2  1   
  2   2   3  ar  
  3   2   4  ar  
  4   3   5  ar  
  5   3  27  1   
  6   4   6  ar  
  7   4  28  1   
  8   5   7  ar  
  9   5  29  1   
 10   6   7  ar  
 11   6  30  1   
 12   7   8  1   
 13   8   9  1   
 14   8  10  2   
 15   9  11  1   
 16  10  12  1   
 17  10  13  1   
 18  11  12  2   
 19  12  14  1   
 20  13  15  ar  
 21  13  16  ar  
 22  14  17  1   
 23  14  18  1   
 24  17  19  1   
 25  17  31  1   
 26  17  32  1   
 27  18  19  1   
 28  18  33  1   
 29  18  34  1   
 30  19  20  1   
 31  19  35  1   
 32  20  21  1   
 33  20  22  1   
 34  20  36  1   
 35  21  23  1   
 36  21  24  1   
 37  21  37  1   
 38  22  25  1   
 39  22  38  1   
 40  22  39  1   
 41  23  26  1   
 42  23  40  1   
 43  23  41  1   
 44  24  42  1   
 45  24  43  1   
 46  24  44  1   
 47  25  26  1   
 48  25  45  1   
 49  25  46  1   
 50  26  47  1   
 51  26  48  1   
@<TRIPOS>SUBSTRUCTURE
  1 ****  13 GROUP 4 **** **** 0

# MOE 2024.06 (io_trps.svl 2023.06)
