@<TRIPOS>MOLECULE
NONAME
54 56 1 0 0 
SMALL
USER_CHARGES


@<TRIPOS>ATOM
  1 O       -0.7350     1.4650    -2.1070 O.co2 1 <1>  -0.9000 
  2 C       -1.2940     1.3950    -1.0080 C.2   1 <1>   0.9060 
  3 O       -2.1580     0.5500    -0.7510 O.co2 1 <1>  -0.9000 
  4 C       -0.9490     2.4280     0.0530 C.3   1 <1>  -0.1060 
  5 C       -2.2640     2.9930     0.6230 C.3   1 <1>   0.2000 
  6 C       -0.2210     3.5590    -0.6940 C.3   1 <1>   0.3430 
  7 C       -0.0680     1.7540     1.1470 C.3   1 <1>  -0.0650 
  8 O       -2.9200     2.0160     1.3330 O.3   1 <1>  -0.6800 
  9 C       -2.0680     4.2010     1.5520 C.3   1 <1>  -0.1600 
 10 N       -0.3890     4.9360    -0.1000 N.4   1 <1>  -0.9590 
 11 C        1.3860     1.5160     0.7170 C.3   1 <1>  -0.1950 
 12 C       -0.7220     4.8950     1.3500 C.3   1 <1>   0.3430 
 13 C        0.8400     5.7360    -0.4050 C.3   1 <1>   0.3430 
 14 C        2.4280     1.2170     1.7450 C.3   1 <1>  -0.2000 
 15 C        2.4630     2.5180     0.9960 C.3   1 <1>  -0.2000 
 16 C        0.6660     7.2280    -0.1120 C.3   1 <1>   0.1200 
 17 O        1.8750     7.8630    -0.4440 O.3   1 <1>  -0.3630 
 18 C        2.0440     9.2030    -0.2840 C.ar  1 <1>   0.0830 
 19 C        3.2870     9.7390    -0.6090 C.ar  1 <1>  -0.1430 
 20 C        1.0360    10.0430     0.1860 C.ar  1 <1>  -0.1500 
 21 C        3.5060    11.0990    -0.4590 C.ar  1 <1>  -0.1500 
 22 C        4.4100     8.8510    -1.1280 C.3   1 <1>  -0.0970 
 23 C        1.2700    11.3980     0.3310 C.ar  1 <1>  -0.1500 
 24 C        2.5060    11.9320     0.0110 C.ar  1 <1>  -0.1430 
 25 C        2.7640    13.4200     0.1680 C.3   1 <1>  -0.0970 
 26 H       -2.9090     3.2690    -0.1960 H     1 <1>   0.0800 
 27 H       -0.5960     3.5940    -1.7060 H     1 <1>   0.0800 
 28 H        0.8210     3.3040    -0.7730 H     1 <1>   0.0800 
 29 H       -0.0760     2.3200     2.0590 H     1 <1>   0.0800 
 30 H       -0.5010     0.7960     1.3890 H     1 <1>   0.0800 
 31 H       -2.9230     1.2040     0.7450 H     1 <1>   0.4000 
 32 H       -2.8630     4.9030     1.3810 H     1 <1>   0.0800 
 33 H       -2.1270     3.8900     2.5810 H     1 <1>   0.0800 
 34 H       -1.1890     5.3530    -0.5930 H     1 <1>   0.4500 
 35 H        1.4500     0.9420    -0.1950 H     1 <1>   0.1000 
 36 H        0.0470     4.3510     1.8750 H     1 <1>   0.0800 
 37 H       -0.7690     5.8890     1.7620 H     1 <1>   0.0800 
 38 H        1.6660     5.3570     0.1750 H     1 <1>   0.0800 
 39 H        1.0830     5.6250    -1.4490 H     1 <1>   0.0800 
 40 H        2.1480     1.2170     2.7850 H     1 <1>   0.1000 
 41 H        3.1630     0.4630     1.5200 H     1 <1>   0.1000 
 42 H        3.2420     2.6590     0.2650 H     1 <1>   0.1000 
 43 H        2.2510     3.4110     1.5550 H     1 <1>   0.1000 
 44 H        0.4790     7.4040     0.9320 H     1 <1>   0.0800 
 45 H       -0.1110     7.6500    -0.7240 H     1 <1>   0.0800 
 46 H        0.0640     9.6730     0.4440 H     1 <1>   0.1500 
 47 H        4.4650    11.5170    -0.7100 H     1 <1>   0.1500 
 48 H        5.2950     9.4260    -1.3320 H     1 <1>   0.0800 
 49 H        4.1010     8.3660    -2.0360 H     1 <1>   0.0800 
 50 H        4.6510     8.1020    -0.3970 H     1 <1>   0.0800 
 51 H        0.4850    12.0390     0.6930 H     1 <1>   0.1500 
 52 H        2.1180    13.8400     0.9180 H     1 <1>   0.0800 
 53 H        2.5830    13.9210    -0.7660 H     1 <1>   0.0800 
 54 H        3.7830    13.5940     0.4640 H     1 <1>   0.0800 
@<TRIPOS>BOND
  1   1   2  ar  
  2   2   3  ar  
  3   2   4  1   
  4   4   5  1   
  5   4   6  1   
  6   4   7  1   
  7   5   8  1   
  8   5   9  1   
  9   5  26  1   
 10   6  10  1   
 11   6  27  1   
 12   6  28  1   
 13   7  11  1   
 14   7  29  1   
 15   7  30  1   
 16   8  31  1   
 17   9  12  1   
 18   9  32  1   
 19   9  33  1   
 20  10  12  1   
 21  10  13  1   
 22  10  34  1   
 23  11  14  1   
 24  11  15  1   
 25  11  35  1   
 26  12  36  1   
 27  12  37  1   
 28  13  16  1   
 29  13  38  1   
 30  13  39  1   
 31  14  15  1   
 32  14  40  1   
 33  14  41  1   
 34  15  42  1   
 35  15  43  1   
 36  16  17  1   
 37  16  44  1   
 38  16  45  1   
 39  17  18  1   
 40  18  19  ar  
 41  18  20  ar  
 42  19  21  ar  
 43  19  22  1   
 44  20  23  ar  
 45  20  46  1   
 46  21  24  ar  
 47  21  47  1   
 48  22  48  1   
 49  22  49  1   
 50  22  50  1   
 51  23  24  ar  
 52  23  51  1   
 53  24  25  1   
 54  25  52  1   
 55  25  53  1   
 56  25  54  1   
@<TRIPOS>SUBSTRUCTURE
  1 ****  13 GROUP 4 **** **** 0

# MOE 2024.06 (io_trps.svl 2023.06)
