@<TRIPOS>MOLECULE
NONAME
54 57 1 0 0 
SMALL
USER_CHARGES


@<TRIPOS>ATOM
  1 O       -0.7050     0.1870    -0.3630 O.2   1 <1>  -0.5700 
  2 C       -1.5380     0.8560     0.2210 C.2   1 <1>   0.5440 
  3 N       -2.6340     0.2110     0.7520 N.am  1 <1>  -0.6600 
  4 C       -1.3790     2.2950     0.3150 C.ar  1 <1>   0.0860 
  5 C       -2.6520    -1.2760     0.9370 C.3   1 <1>   0.1400 
  6 C       -4.0090     0.7940     0.6990 C.3   1 <1>   0.1400 
  7 C       -0.8630     3.0360    -0.7480 C.ar  1 <1>  -0.1500 
  8 C       -1.7310     3.0000     1.4660 C.ar  1 <1>  -0.1500 
  9 C       -3.6030    -1.9440    -0.0730 C.3   1 <1>   0.3440 
 10 C       -4.8970     0.0110    -0.2900 C.3   1 <1>   0.2950 
 11 C       -0.7190     4.4120    -0.6900 C.ar  1 <1>  -0.1440 
 12 C       -1.5900     4.3710     1.5400 C.ar  1 <1>  -0.1500 
 13 O       -4.8770    -1.3550     0.0060 O.3   1 <1>  -0.5600 
 14 C       -3.7090    -3.4420     0.2010 C.ar  1 <1>  -0.1430 
 15 C       -6.3540     0.4760    -0.2230 C.3   1 <1>  -0.1950 
 16 C       -1.0840     5.0990     0.4710 C.ar  1 <1>   0.1170 
 17 C       -0.1600     5.1340    -1.9110 C.3   1 <1>  -0.0970 
 18 C       -4.6770    -3.9620     1.0490 C.ar  1 <1>  -0.1500 
 19 C       -2.8060    -4.3090    -0.4000 C.ar  1 <1>  -0.1500 
 20 C       -7.2920     0.2520    -1.3670 C.3   1 <1>  -0.2000 
 21 C       -6.8310     1.6430    -1.0310 C.3   1 <1>  -0.2000 
 22 N       -0.9850     6.4870     0.6050 N.am  1 <1>  -0.5470 
 23 C       -4.7430    -5.3230     1.2930 C.ar  1 <1>  -0.1500 
 24 C       -2.8700    -5.6700    -0.1580 C.ar  1 <1>  -0.1500 
 25 C        0.1320     7.2700     0.5570 C.2   1 <1>   0.5690 
 26 C       -3.8390    -6.1780     0.6890 C.ar  1 <1>  -0.1500 
 27 O        1.2420     6.8430     0.3720 O.2   1 <1>  -0.5700 
 28 C       -0.0490     8.7530     0.7590 C.3   1 <1>  -0.1790 
 29 H       -1.6640    -1.6850     0.8180 H     1 <1>   0.0800 
 30 H       -2.9810    -1.5070     1.9340 H     1 <1>   0.0800 
 31 H       -4.4480     0.7560     1.6800 H     1 <1>   0.0800 
 32 H       -3.9740     1.8230     0.3890 H     1 <1>   0.0800 
 33 H       -0.5680     2.5030    -1.6350 H     1 <1>   0.1500 
 34 H       -2.1120     2.4570     2.3140 H     1 <1>   0.1500 
 35 H       -3.2290    -1.7940    -1.0710 H     1 <1>   0.0800 
 36 H       -4.5250     0.1400    -1.2920 H     1 <1>   0.0800 
 37 H       -1.8640     4.8860     2.4430 H     1 <1>   0.1500 
 38 H       -6.7640     0.3670     0.7670 H     1 <1>   0.1000 
 39 H       -0.2540     4.5270    -2.7940 H     1 <1>   0.0800 
 40 H        0.8820     5.3510    -1.7580 H     1 <1>   0.0800 
 41 H       -0.6860     6.0550    -2.0810 H     1 <1>   0.0800 
 42 H       -5.3880    -3.3050     1.5210 H     1 <1>   0.1500 
 43 H       -2.0460    -3.9280    -1.0600 H     1 <1>   0.1500 
 44 H       -6.9150    -0.2280    -2.2540 H     1 <1>   0.1000 
 45 H       -8.3060    -0.0330    -1.1460 H     1 <1>   0.1000 
 46 H       -7.5400     2.3240    -0.5920 H     1 <1>   0.1000 
 47 H       -6.1600     2.1320    -1.7150 H     1 <1>   0.1000 
 48 H       -1.8430     6.9610     0.8760 H     1 <1>   0.3700 
 49 H       -5.4990    -5.7140     1.9500 H     1 <1>   0.1500 
 50 H       -2.1660    -6.3340    -0.6290 H     1 <1>   0.1500 
 51 H       -3.8890    -7.2360     0.8780 H     1 <1>   0.1500 
 52 H       -0.7430     9.1390     0.0360 H     1 <1>   0.0800 
 53 H        0.8940     9.2520     0.6350 H     1 <1>   0.0800 
 54 H       -0.4140     8.9430     1.7510 H     1 <1>   0.0800 
@<TRIPOS>BOND
  1   1   2  2   
  2   2   3  am  
  3   2   4  1   
  4   3   5  1   
  5   3   6  1   
  6   4   7  ar  
  7   4   8  ar  
  8   5   9  1   
  9   5  29  1   
 10   5  30  1   
 11   6  10  1   
 12   6  31  1   
 13   6  32  1   
 14   7  11  ar  
 15   7  33  1   
 16   8  12  ar  
 17   8  34  1   
 18   9  13  1   
 19   9  14  1   
 20   9  35  1   
 21  10  13  1   
 22  10  15  1   
 23  10  36  1   
 24  11  16  ar  
 25  11  17  1   
 26  12  16  ar  
 27  12  37  1   
 28  14  18  ar  
 29  14  19  ar  
 30  15  20  1   
 31  15  21  1   
 32  15  38  1   
 33  16  22  1   
 34  17  39  1   
 35  17  40  1   
 36  17  41  1   
 37  18  23  ar  
 38  18  42  1   
 39  19  24  ar  
 40  19  43  1   
 41  20  21  1   
 42  20  44  1   
 43  20  45  1   
 44  21  46  1   
 45  21  47  1   
 46  22  25  am  
 47  22  48  1   
 48  23  26  ar  
 49  23  49  1   
 50  24  26  ar  
 51  24  50  1   
 52  25  27  2   
 53  25  28  1   
 54  26  51  1   
 55  28  52  1   
 56  28  53  1   
 57  28  54  1   
@<TRIPOS>SUBSTRUCTURE
  1 ****   3 GROUP 4 **** **** 0

# MOE 2024.06 (io_trps.svl 2023.06)
