@<TRIPOS>MOLECULE
NONAME
47 50 1 0 0 
SMALL
USER_CHARGES


@<TRIPOS>ATOM
  1 O        0.3650    -0.0080     2.8500 O.3   1 <1>  -0.6800 
  2 C        0.1960    -0.6390     1.6240 C.3   1 <1>   0.2000 
  3 C        0.8600    -2.0110     1.7100 C.3   1 <1>  -0.0800 
  4 C        1.0400     0.1160     0.5850 C.3   1 <1>   0.3430 
  5 C        2.3440    -1.6530     1.5690 C.3   1 <1>   0.3430 
  6 C        0.3480    -2.9670     0.6070 C.3   1 <1>  -0.0160 
  7 N        2.3820    -0.5470     0.5820 N.4   1 <1>  -0.9590 
  8 C        1.3350    -4.1060     0.3700 C.ar  1 <1>  -0.1430 
  9 C        3.4990     0.4120     0.7360 C.3   1 <1>   0.5230 
 10 C        2.3400    -4.0630    -0.6290 C.ar  1 <1>   0.0000 
 11 C        1.2910    -5.2060     1.1760 C.ar  1 <1>  -0.1500 
 12 C        3.7610     1.0130    -0.6410 C.2   1 <1>   0.0070 
 13 C        3.2750    -5.1270    -0.6600 C.ar  1 <1>   0.3100 
 14 C        2.4900    -3.0300    -1.5870 C.ar  1 <1>  -0.1500 
 15 C        2.2380    -6.2260     1.0290 C.ar  1 <1>   0.1600 
 16 N        3.2820     0.5050    -1.7390 N.2   1 <1>  -0.5650 
 17 N        4.5200     2.1210    -0.8390 N.pl3 1 <1>   0.0480 
 18 N        3.2030    -6.1980     0.1670 N.ar  1 <1>  -0.6200 
 19 C        4.3360    -5.0770    -1.5780 C.ar  1 <1>  -0.1500 
 20 C        3.5350    -3.0110    -2.4680 C.ar  1 <1>  -0.1500 
 21 C        3.7480     1.3220    -2.7010 C.2   1 <1>   0.0770 
 22 C        4.5010     2.3090    -2.1700 C.2   1 <1>  -0.3020 
 23 C        5.2330     2.9700     0.1370 C.3   1 <1>   0.0160 
 24 C        4.4760    -4.0420    -2.4620 C.ar  1 <1>  -0.1500 
 25 H       -0.2870    -0.3290     3.5100 H     1 <1>   0.4000 
 26 H       -0.8540    -0.6570     1.3810 H     1 <1>   0.0800 
 27 H        0.6890    -2.4770     2.6650 H     1 <1>   0.0800 
 28 H        1.1040     1.1600     0.8410 H     1 <1>   0.0800 
 29 H        0.5950     0.0200    -0.3920 H     1 <1>   0.0800 
 30 H        2.9470    -2.4910     1.2600 H     1 <1>   0.0800 
 31 H        2.7000    -1.2960     2.5220 H     1 <1>   0.0800 
 32 H        0.1470    -2.4470    -0.3100 H     1 <1>   0.0800 
 33 H       -0.5940    -3.3830     0.9220 H     1 <1>   0.0800 
 34 H        2.5440    -0.9130    -0.3740 H     1 <1>   0.4500 
 35 H        3.2440     1.1780     1.4500 H     1 <1>   0.0800 
 36 H        4.3860    -0.1020     1.0660 H     1 <1>   0.0800 
 37 H        0.5460    -5.3210     1.9430 H     1 <1>   0.1500 
 38 H        1.7700    -2.2400    -1.6510 H     1 <1>   0.1500 
 39 H        2.1650    -7.0820     1.6790 H     1 <1>   0.1500 
 40 H        5.0400    -5.8890    -1.5650 H     1 <1>   0.1500 
 41 H        3.6440    -2.2110    -3.1830 H     1 <1>   0.1500 
 42 H        3.5180     1.1600    -3.7420 H     1 <1>   0.1500 
 43 H        5.0120     3.1150    -2.6660 H     1 <1>   0.1500 
 44 H        5.7830     3.7310    -0.3870 H     1 <1>   0.0800 
 45 H        5.9200     2.3700     0.7050 H     1 <1>   0.0800 
 46 H        4.5240     3.4400     0.7930 H     1 <1>   0.0800 
 47 H        5.2960    -4.0160    -3.1590 H     1 <1>   0.1500 
@<TRIPOS>BOND
  1   1   2  1   
  2   1  25  1   
  3   2   3  1   
  4   2   4  1   
  5   2  26  1   
  6   3   5  1   
  7   3   6  1   
  8   3  27  1   
  9   4   7  1   
 10   4  28  1   
 11   4  29  1   
 12   5   7  1   
 13   5  30  1   
 14   5  31  1   
 15   6   8  1   
 16   6  32  1   
 17   6  33  1   
 18   7   9  1   
 19   7  34  1   
 20   8  10  ar  
 21   8  11  ar  
 22   9  12  1   
 23   9  35  1   
 24   9  36  1   
 25  10  13  ar  
 26  10  14  ar  
 27  11  15  ar  
 28  11  37  1   
 29  12  16  2   
 30  12  17  1   
 31  13  18  ar  
 32  13  19  ar  
 33  14  20  ar  
 34  14  38  1   
 35  15  18  ar  
 36  15  39  1   
 37  16  21  1   
 38  17  22  1   
 39  17  23  1   
 40  19  24  ar  
 41  19  40  1   
 42  20  24  ar  
 43  20  41  1   
 44  21  22  2   
 45  21  42  1   
 46  22  43  1   
 47  23  44  1   
 48  23  45  1   
 49  23  46  1   
 50  24  47  1   
@<TRIPOS>SUBSTRUCTURE
  1 ****   7 GROUP 4 **** **** 0

# MOE 2024.06 (io_trps.svl 2023.06)
