@<TRIPOS>MOLECULE
NONAME
50 54 1 0 0 
SMALL
USER_CHARGES


@<TRIPOS>ATOM
  1 N        0.5130    -0.1680     0.9810 N.ar  1 <1>  -0.6200 
  2 C       -0.7340     0.1350     1.3240 C.ar  1 <1>   0.4760 
  3 C        1.0200     0.6200     0.0620 C.ar  1 <1>   0.1660 
  4 N       -1.4860     1.1240     0.8630 N.ar  1 <1>  -0.6200 
  5 C       -1.3800    -0.7440     2.3680 C.3   1 <1>  -0.0960 
  6 C        0.3470     1.6690    -0.4850 C.ar  1 <1>  -0.1440 
  7 C        2.4150     0.4900    -0.5020 C.3   1 <1>   0.1430 
  8 C       -0.9360     1.8960    -0.0520 C.ar  1 <1>   0.1600 
  9 C        1.1880     2.4040    -1.4980 C.3   1 <1>  -0.0160 
 10 C        3.3960     0.2980     0.6680 C.3   1 <1>   0.3430 
 11 C        2.4890    -0.7120    -1.4660 C.3   1 <1>  -0.1600 
 12 C        2.6010     1.8430    -1.2430 C.3   1 <1>  -0.1600 
 13 N        4.7940     0.0260     0.1960 N.4   1 <1>  -0.9590 
 14 C        3.9380    -1.0320    -1.8760 C.3   1 <1>  -0.1600 
 15 C        4.8590    -1.1960    -0.6640 C.3   1 <1>   0.3430 
 16 C        5.7400    -0.0650     1.3410 C.3   1 <1>   0.4860 
 17 C        7.1500    -0.0590     0.7960 C.ar  1 <1>  -0.1440 
 18 C        7.8330    -1.2740     0.6530 C.ar  1 <1>   0.0000 
 19 C        7.7750     1.1130     0.4260 C.ar  1 <1>  -0.1500 
 20 C        9.1160    -1.2800     0.1150 C.ar  1 <1>  -0.1520 
 21 C        7.5190    -2.6240     0.9370 C.2   1 <1>  -0.1500 
 22 C        9.0700     1.0950    -0.1050 C.ar  1 <1>  -0.1500 
 23 N        9.5620    -2.5760     0.0640 N.pl3 1 <1>   0.0330 
 24 C        9.7430    -0.0930    -0.2660 C.ar  1 <1>  -0.1500 
 25 C        8.5790    -3.3800     0.5670 C.2   1 <1>  -0.3020 
 26 H       -0.7760    -1.6110     2.5620 H     1 <1>   0.0800 
 27 H       -2.3450    -1.0620     2.0210 H     1 <1>   0.0800 
 28 H       -1.5000    -0.1870     3.2770 H     1 <1>   0.0800 
 29 H       -1.5170     2.7100    -0.4510 H     1 <1>   0.1500 
 30 H        1.1480     3.4700    -1.3540 H     1 <1>   0.0800 
 31 H        0.8510     2.1580    -2.4910 H     1 <1>   0.0800 
 32 H        3.0500    -0.5330     1.2620 H     1 <1>   0.0800 
 33 H        3.3740     1.1780     1.2890 H     1 <1>   0.0800 
 34 H        1.8890    -0.5250    -2.3410 H     1 <1>   0.0800 
 35 H        2.0710    -1.5760    -0.9760 H     1 <1>   0.0800 
 36 H        3.1500     1.7500    -2.1630 H     1 <1>   0.0800 
 37 H        3.1200     2.5370    -0.6050 H     1 <1>   0.0800 
 38 H        5.1160     0.8110    -0.3820 H     1 <1>   0.4500 
 39 H        4.3290    -0.2630    -2.5180 H     1 <1>   0.0800 
 40 H        3.9490    -1.9480    -2.4420 H     1 <1>   0.0800 
 41 H        4.5520    -2.0580    -0.0940 H     1 <1>   0.0800 
 42 H        5.8700    -1.3590    -1.0040 H     1 <1>   0.0800 
 43 H        5.5650    -0.9650     1.9070 H     1 <1>   0.0800 
 44 H        5.6130     0.7810     1.9960 H     1 <1>   0.0800 
 45 H        7.2910     2.0680     0.5350 H     1 <1>   0.1500 
 46 H        6.6030    -2.9740     1.3780 H     1 <1>   0.1500 
 47 H        9.5400     2.0230    -0.3860 H     1 <1>   0.1500 
 48 H       10.4830    -2.8740    -0.2770 H     1 <1>   0.2700 
 49 H       10.7390    -0.1150    -0.6750 H     1 <1>   0.1500 
 50 H        8.7020    -4.4480     0.6360 H     1 <1>   0.1500 
@<TRIPOS>BOND
  1   1   2  ar  
  2   1   3  ar  
  3   2   4  ar  
  4   2   5  1   
  5   3   6  ar  
  6   3   7  1   
  7   4   8  ar  
  8   5  26  1   
  9   5  27  1   
 10   5  28  1   
 11   6   8  ar  
 12   6   9  1   
 13   7  10  1   
 14   7  11  1   
 15   7  12  1   
 16   8  29  1   
 17   9  12  1   
 18   9  30  1   
 19   9  31  1   
 20  10  13  1   
 21  10  32  1   
 22  10  33  1   
 23  11  14  1   
 24  11  34  1   
 25  11  35  1   
 26  12  36  1   
 27  12  37  1   
 28  13  15  1   
 29  13  16  1   
 30  13  38  1   
 31  14  15  1   
 32  14  39  1   
 33  14  40  1   
 34  15  41  1   
 35  15  42  1   
 36  16  17  1   
 37  16  43  1   
 38  16  44  1   
 39  17  18  ar  
 40  17  19  ar  
 41  18  20  ar  
 42  18  21  1   
 43  19  22  ar  
 44  19  45  1   
 45  20  23  1   
 46  20  24  ar  
 47  21  25  2   
 48  21  46  1   
 49  22  24  ar  
 50  22  47  1   
 51  23  25  1   
 52  23  48  1   
 53  24  49  1   
 54  25  50  1   
@<TRIPOS>SUBSTRUCTURE
  1 ****  13 GROUP 4 **** **** 0

# MOE 2024.06 (io_trps.svl 2023.06)
