@<TRIPOS>MOLECULE
NONAME
51 54 1 0 0 
SMALL
USER_CHARGES


@<TRIPOS>ATOM
  1 O       -2.4530     0.1820    -2.0470 O.2   1 <1>  -0.5700 
  2 C       -2.1910     0.2500    -0.8700 C.2   1 <1>   0.5690 
  3 N       -1.9460    -0.8660    -0.1400 N.am  1 <1>  -0.7300 
  4 C       -2.1810     1.6020    -0.1590 C.3   1 <1>  -0.0190 
  5 C       -1.9870    -2.2520    -0.6640 C.3   1 <1>   0.2200 
  6 C       -3.6180     2.0660     0.1440 C.3   1 <1>  -0.1600 
  7 C       -1.4230     2.6760    -0.9640 C.3   1 <1>  -0.1600 
  8 C       -3.3090    -2.9340    -0.3300 C.3   1 <1>  -0.0800 
  9 C       -1.0240    -3.1050     0.1490 C.3   1 <1>   0.1200 
 10 C       -3.6350     3.4250     0.8590 C.3   1 <1>  -0.1600 
 11 C       -1.4370     4.0330    -0.2460 C.3   1 <1>  -0.1600 
 12 C       -3.0840    -3.4080     1.1120 C.3   1 <1>   0.1200 
 13 C       -4.5650    -2.0580    -0.5290 C.3   1 <1>  -0.0170 
 14 O       -1.7030    -3.3840     1.3360 O.3   1 <1>  -0.5600 
 15 C       -2.8730     4.4840     0.0520 C.3   1 <1>  -0.1600 
 16 C       -5.9230    -2.7280    -0.2950 C.ar  1 <1>  -0.1440 
 17 C       -7.0960    -1.9320    -0.2680 C.ar  1 <1>   0.0000 
 18 C       -6.0840    -4.0730    -0.1110 C.ar  1 <1>  -0.1500 
 19 C       -8.3310    -2.5760    -0.0150 C.ar  1 <1>   0.3100 
 20 C       -7.1150    -0.5330    -0.4860 C.ar  1 <1>  -0.1500 
 21 C       -7.3550    -4.6110     0.1210 C.ar  1 <1>   0.1600 
 22 N       -8.4440    -3.9140     0.1770 N.ar  1 <1>  -0.6200 
 23 C       -9.5040    -1.8060     0.0370 C.ar  1 <1>  -0.1500 
 24 C       -8.2770     0.1880    -0.4330 C.ar  1 <1>  -0.1500 
 25 C       -9.4880    -0.4530    -0.1640 C.ar  1 <1>  -0.1500 
 26 H       -1.7770    -0.8090     0.8670 H     1 <1>   0.3700 
 27 H       -1.6680     1.4760     0.7770 H     1 <1>   0.0800 
 28 H       -1.7630    -2.2660    -1.7180 H     1 <1>   0.0800 
 29 H       -4.1650     2.1450    -0.7810 H     1 <1>   0.0800 
 30 H       -4.1140     1.3340     0.7580 H     1 <1>   0.0800 
 31 H       -0.4050     2.3600    -1.1180 H     1 <1>   0.0800 
 32 H       -1.8810     2.7850    -1.9330 H     1 <1>   0.0800 
 33 H       -3.3890    -3.7990    -0.9630 H     1 <1>   0.0800 
 34 H       -0.0980    -2.6020     0.3660 H     1 <1>   0.0800 
 35 H       -0.8270    -4.0390    -0.3480 H     1 <1>   0.0800 
 36 H       -4.6530     3.7450     1.0000 H     1 <1>   0.0800 
 37 H       -3.1830     3.3250     1.8310 H     1 <1>   0.0800 
 38 H       -0.8870     3.9570     0.6770 H     1 <1>   0.0800 
 39 H       -0.9490     4.7700    -0.8610 H     1 <1>   0.0800 
 40 H       -3.4420    -4.4100     1.2710 H     1 <1>   0.0800 
 41 H       -3.5400    -2.7420     1.8240 H     1 <1>   0.0800 
 42 H       -4.5510    -1.6690    -1.5330 H     1 <1>   0.0800 
 43 H       -4.4980    -1.2230     0.1440 H     1 <1>   0.0800 
 44 H       -2.8530     5.4100     0.6010 H     1 <1>   0.0800 
 45 H       -3.3880     4.6630    -0.8760 H     1 <1>   0.0800 
 46 H       -5.2660    -4.7650    -0.1350 H     1 <1>   0.1500 
 47 H       -6.2000    -0.0160    -0.7060 H     1 <1>   0.1500 
 48 H       -7.4320    -5.6760     0.2630 H     1 <1>   0.1500 
 49 H      -10.4240    -2.3220     0.2400 H     1 <1>   0.1500 
 50 H       -8.2740     1.2520    -0.5990 H     1 <1>   0.1500 
 51 H      -10.3960     0.1250    -0.1230 H     1 <1>   0.1500 
@<TRIPOS>BOND
  1   1   2  2   
  2   2   3  am  
  3   2   4  1   
  4   3   5  1   
  5   3  26  1   
  6   4   6  1   
  7   4   7  1   
  8   4  27  1   
  9   5   8  1   
 10   5   9  1   
 11   5  28  1   
 12   6  10  1   
 13   6  29  1   
 14   6  30  1   
 15   7  11  1   
 16   7  31  1   
 17   7  32  1   
 18   8  12  1   
 19   8  13  1   
 20   8  33  1   
 21   9  14  1   
 22   9  34  1   
 23   9  35  1   
 24  10  15  1   
 25  10  36  1   
 26  10  37  1   
 27  11  15  1   
 28  11  38  1   
 29  11  39  1   
 30  12  14  1   
 31  12  40  1   
 32  12  41  1   
 33  13  16  1   
 34  13  42  1   
 35  13  43  1   
 36  15  44  1   
 37  15  45  1   
 38  16  17  ar  
 39  16  18  ar  
 40  17  19  ar  
 41  17  20  ar  
 42  18  21  ar  
 43  18  46  1   
 44  19  22  ar  
 45  19  23  ar  
 46  20  24  ar  
 47  20  47  1   
 48  21  22  ar  
 49  21  48  1   
 50  23  25  ar  
 51  23  49  1   
 52  24  25  ar  
 53  24  50  1   
 54  25  51  1   
@<TRIPOS>SUBSTRUCTURE
  1 ****  13 GROUP 4 **** **** 0

# MOE 2024.06 (io_trps.svl 2023.06)
