@<TRIPOS>MOLECULE
NONAME
52 54 1 0 0 
SMALL
USER_CHARGES


@<TRIPOS>ATOM
  1 O        2.1500    -1.0110     1.7540 O.co2 1 <1>  -0.9000 
  2 C        1.8680     0.1520     1.4210 C.2   1 <1>   0.9060 
  3 O        1.2060     0.8890     2.1460 O.co2 1 <1>  -0.9000 
  4 C        2.4340     0.6960     0.0950 C.3   1 <1>  -0.1060 
  5 C        3.7910     0.0120    -0.1630 C.3   1 <1>   0.4230 
  6 C        2.6890     2.2230     0.1790 C.3   1 <1>  -0.1600 
  7 C        1.4620     0.4260    -1.0770 C.3   1 <1>  -0.1600 
  8 N        3.5850    -1.4630    -0.4030 N.4   1 <1>  -0.9590 
  9 C        4.7830     0.3480     0.9940 C.3   1 <1>   0.2090 
 10 C        3.6530     2.5880     1.3110 C.3   1 <1>   0.2090 
 11 C        1.3400    -1.0750    -1.3720 C.3   1 <1>  -0.1600 
 12 C        2.7050    -1.7320    -1.5720 C.3   1 <1>   0.3430 
 13 C        4.7960    -2.3260    -0.4210 C.3   1 <1>   0.2630 
 14 N        4.9470     1.8370     1.1680 N.pl3 1 <1>  -0.8380 
 15 C        6.1190     2.5090     1.1240 C.ar  1 <1>   0.7710 
 16 N        6.1890     3.6420     0.4530 N.ar  1 <1>  -0.6200 
 17 N        7.1690     1.9990     1.7830 N.ar  1 <1>  -0.1790 
 18 C        7.3510     4.2680     0.3980 C.ar  1 <1>   0.4100 
 19 C        8.3660     2.6320     1.7950 C.ar  1 <1>   0.2110 
 20 N        7.3880     5.3930    -0.3620 N.pl3 1 <1>  -0.8380 
 21 C        8.4890     3.7900     1.1000 C.ar  1 <1>  -0.1440 
 22 C        8.3570     5.5900    -1.4770 C.3   1 <1>   0.1290 
 23 C        6.2440     6.3500    -0.3860 C.3   1 <1>   0.1290 
 24 C        9.8060     4.5640     1.1290 C.3   1 <1>  -0.0970 
 25 H        4.2030     0.4360    -1.0620 H     1 <1>   0.0800 
 26 H        1.7560     2.7300     0.3600 H     1 <1>   0.0800 
 27 H        3.0850     2.6000    -0.7480 H     1 <1>   0.0800 
 28 H        0.4890     0.8220    -0.8310 H     1 <1>   0.0800 
 29 H        1.8060     0.9310    -1.9640 H     1 <1>   0.0800 
 30 H        3.0030    -1.7150     0.4440 H     1 <1>   0.4500 
 31 H        5.7360    -0.0880     0.7620 H     1 <1>   0.0800 
 32 H        4.4290    -0.0740     1.9200 H     1 <1>   0.0800 
 33 H        3.2070     2.3480     2.2640 H     1 <1>   0.0800 
 34 H        3.8200     3.6530     1.3030 H     1 <1>   0.0800 
 35 H        0.7440    -1.2180    -2.2560 H     1 <1>   0.0800 
 36 H        0.8270    -1.5660    -0.5610 H     1 <1>   0.0800 
 37 H        3.1630    -1.3450    -2.4680 H     1 <1>   0.0800 
 38 H        2.5670    -2.7940    -1.6900 H     1 <1>   0.0800 
 39 H        5.4470    -2.0410    -1.2300 H     1 <1>   0.0800 
 40 H        4.5090    -3.3570    -0.5520 H     1 <1>   0.0800 
 41 H        5.3270    -2.2430     0.5120 H     1 <1>   0.0800 
 42 H        6.9660     1.1830     2.3490 H     1 <1>   0.4570 
 43 H        9.1750     2.2050     2.3660 H     1 <1>   0.1500 
 44 H        7.8280     5.8020    -2.3900 H     1 <1>   0.0800 
 45 H        8.9440     4.7020    -1.6290 H     1 <1>   0.0800 
 46 H        9.0100     6.4150    -1.2520 H     1 <1>   0.0800 
 47 H        6.6110     7.3610    -0.4150 H     1 <1>   0.0800 
 48 H        5.6370     6.2300     0.4950 H     1 <1>   0.0800 
 49 H        5.6340     6.1680    -1.2540 H     1 <1>   0.0800 
 50 H       10.4400     4.2290     1.9300 H     1 <1>   0.0800 
 51 H        9.6140     5.6130     1.2760 H     1 <1>   0.0800 
 52 H       10.3380     4.4380     0.2030 H     1 <1>   0.0800 
@<TRIPOS>BOND
  1   1   2  ar  
  2   2   3  ar  
  3   2   4  1   
  4   4   5  1   
  5   4   6  1   
  6   4   7  1   
  7   5   8  1   
  8   5   9  1   
  9   5  25  1   
 10   6  10  1   
 11   6  26  1   
 12   6  27  1   
 13   7  11  1   
 14   7  28  1   
 15   7  29  1   
 16   8  12  1   
 17   8  13  1   
 18   8  30  1   
 19   9  14  1   
 20   9  31  1   
 21   9  32  1   
 22  10  14  1   
 23  10  33  1   
 24  10  34  1   
 25  11  12  1   
 26  11  35  1   
 27  11  36  1   
 28  12  37  1   
 29  12  38  1   
 30  13  39  1   
 31  13  40  1   
 32  13  41  1   
 33  14  15  1   
 34  15  16  ar  
 35  15  17  ar  
 36  16  18  ar  
 37  17  19  ar  
 38  17  42  1   
 39  18  20  1   
 40  18  21  ar  
 41  19  21  ar  
 42  19  43  1   
 43  20  22  1   
 44  20  23  1   
 45  21  24  1   
 46  22  44  1   
 47  22  45  1   
 48  22  46  1   
 49  23  47  1   
 50  23  48  1   
 51  23  49  1   
 52  24  50  1   
 53  24  51  1   
 54  24  52  1   
@<TRIPOS>SUBSTRUCTURE
  1 ****  14 GROUP 4 **** **** 0

# MOE 2024.06 (io_trps.svl 2023.06)
