@<TRIPOS>MOLECULE
NONAME
53 56 1 0 0 
SMALL
USER_CHARGES


@<TRIPOS>ATOM
  1 O        4.3330    -2.2680     1.0360 O.2   1 <1>  -0.5700 
  2 C        3.1800    -2.1590     0.6630 C.2   1 <1>   0.5440 
  3 N        2.6470    -0.8920     0.6820 N.am  1 <1>  -0.6600 
  4 C        2.4440    -3.2980     0.1360 C.ar  1 <1>   0.0860 
  5 C        3.0520     0.0580     1.7850 C.3   1 <1>   0.2200 
  6 C        2.0560    -0.3340    -0.5710 C.3   1 <1>   0.1400 
  7 C        1.0500    -3.3210     0.1260 C.ar  1 <1>  -0.1500 
  8 C        3.1030    -4.4060    -0.3950 C.ar  1 <1>  -0.1500 
  9 C        2.0130     1.1630     2.0390 C.3   1 <1>   0.1200 
 10 C        4.4430     0.6810     1.5110 C.3   1 <1>   0.3430 
 11 C        2.5300     1.0940    -0.9010 C.3   1 <1>  -0.0800 
 12 C        0.3270    -4.3720    -0.4210 C.ar  1 <1>  -0.0230 
 13 C        2.4040    -5.4670    -0.9410 C.ar  1 <1>  -0.1500 
 14 O        2.2480     2.2590     1.2040 O.3   1 <1>  -0.5600 
 15 N        4.8590     0.5160     0.0770 N.4   1 <1>  -0.9590 
 16 C        1.7610     2.1510    -0.0910 C.3   1 <1>   0.1200 
 17 C        4.0600     1.3340    -0.8950 C.3   1 <1>   0.3430 
 18 N       -1.0950    -4.3150    -0.4340 N.pl3 1 <1>   0.5930 
 19 C        1.0220    -5.4470    -0.9640 C.ar  1 <1>  -0.1500 
 20 C        6.3260     0.7140    -0.0850 C.3   1 <1>   0.2630 
 21 N       -1.7570    -3.2340    -0.9200 N.2   1 <1>  -0.7070 
 22 C       -1.9850    -5.2200     0.0620 C.2   1 <1>  -0.3320 
 23 C       -3.0120    -3.4870    -0.7460 C.2   1 <1>   0.1080 
 24 C       -3.2210    -4.7160    -0.1330 C.2   1 <1>  -0.1500 
 25 C       -1.6160    -6.5370     0.7270 C.3   1 <1>  -0.0600 
 26 C       -4.1020    -2.5300    -1.1680 C.3   1 <1>  -0.0590 
 27 H        3.1210    -0.5140     2.6940 H     1 <1>   0.0800 
 28 H        2.3130    -0.9800    -1.3950 H     1 <1>   0.0800 
 29 H        0.9820    -0.3480    -0.4850 H     1 <1>   0.0800 
 30 H        0.5030    -2.4970     0.5510 H     1 <1>   0.1500 
 31 H        4.1800    -4.4350    -0.3820 H     1 <1>   0.1500 
 32 H        2.1210     1.5220     3.0480 H     1 <1>   0.0800 
 33 H        1.0050     0.8060     1.9160 H     1 <1>   0.0800 
 34 H        5.1540     0.1730     2.1410 H     1 <1>   0.0800 
 35 H        4.4440     1.7220     1.7880 H     1 <1>   0.0800 
 36 H        2.2150     1.2670    -1.9150 H     1 <1>   0.0800 
 37 H        2.9370    -6.3080    -1.3530 H     1 <1>   0.1500 
 38 H        4.6400    -0.4860    -0.0910 H     1 <1>   0.4500 
 39 H        0.7060     1.9330    -0.0500 H     1 <1>   0.0800 
 40 H        1.8800     3.1190    -0.5480 H     1 <1>   0.0800 
 41 H        4.2390     2.3810    -0.7080 H     1 <1>   0.0800 
 42 H        4.4250     1.1200    -1.8860 H     1 <1>   0.0800 
 43 H        0.4840    -6.2650    -1.4100 H     1 <1>   0.1500 
 44 H        6.5940     1.7320     0.1450 H     1 <1>   0.0800 
 45 H        6.6220     0.4960    -1.0980 H     1 <1>   0.0800 
 46 H        6.8640     0.0550     0.5770 H     1 <1>   0.0800 
 47 H       -4.1750    -5.1410     0.1240 H     1 <1>   0.1500 
 48 H       -2.4920    -6.9970     1.1480 H     1 <1>   0.0800 
 49 H       -0.9060    -6.3700     1.5180 H     1 <1>   0.0800 
 50 H       -1.1890    -7.2150     0.0110 H     1 <1>   0.0800 
 51 H       -5.0700    -2.9620    -0.9940 H     1 <1>   0.0800 
 52 H       -3.9990    -2.3080    -2.2140 H     1 <1>   0.0800 
 53 H       -4.0170    -1.6180    -0.6070 H     1 <1>   0.0800 
@<TRIPOS>BOND
  1   1   2  2   
  2   2   3  am  
  3   2   4  1   
  4   3   5  1   
  5   3   6  1   
  6   4   7  ar  
  7   4   8  ar  
  8   5   9  1   
  9   5  10  1   
 10   5  27  1   
 11   6  11  1   
 12   6  28  1   
 13   6  29  1   
 14   7  12  ar  
 15   7  30  1   
 16   8  13  ar  
 17   8  31  1   
 18   9  14  1   
 19   9  32  1   
 20   9  33  1   
 21  10  15  1   
 22  10  34  1   
 23  10  35  1   
 24  11  16  1   
 25  11  17  1   
 26  11  36  1   
 27  12  18  1   
 28  12  19  ar  
 29  13  19  ar  
 30  13  37  1   
 31  14  16  1   
 32  15  17  1   
 33  15  20  1   
 34  15  38  1   
 35  16  39  1   
 36  16  40  1   
 37  17  41  1   
 38  17  42  1   
 39  18  21  1   
 40  18  22  1   
 41  19  43  1   
 42  20  44  1   
 43  20  45  1   
 44  20  46  1   
 45  21  23  2   
 46  22  24  2   
 47  22  25  1   
 48  23  24  1   
 49  23  26  1   
 50  24  47  1   
 51  25  48  1   
 52  25  49  1   
 53  25  50  1   
 54  26  51  1   
 55  26  52  1   
 56  26  53  1   
@<TRIPOS>SUBSTRUCTURE
  1 ****   7 GROUP 4 **** **** 0

# MOE 2024.06 (io_trps.svl 2023.06)
