@<TRIPOS>MOLECULE
NONAME
48 49 1 0 0 
SMALL
USER_CHARGES


@<TRIPOS>ATOM
  1 N       -0.0590     1.2370    -0.8540 N.1   1 <1>  -0.5570 
  2 C       -1.1080     1.5590    -0.5350 C.1   1 <1>   0.4840 
  3 C       -2.4290     1.9880    -0.1850 C.ar  1 <1>   0.0730 
  4 C       -2.5620     3.0160     0.7560 C.ar  1 <1>   0.4100 
  5 C       -3.5760     1.4470    -0.7560 C.ar  1 <1>  -0.1440 
  6 N       -3.7230     3.5320     1.1240 N.ar  1 <1>  -0.6200 
  7 N       -1.4590     3.5700     1.3860 N.pl3 1 <1>  -0.8380 
  8 C       -4.7950     1.9970    -0.3750 C.ar  1 <1>  -0.1430 
  9 C       -3.5020     0.2970    -1.7670 C.3   1 <1>  -0.0970 
 10 C       -4.8050     3.0210     0.5720 C.ar  1 <1>   0.1670 
 11 C       -1.3070     5.0440     1.3330 C.3   1 <1>   0.2090 
 12 C       -1.0740     2.9450     2.6810 C.3   1 <1>   0.1290 
 13 C       -6.0990     1.4780    -0.9900 C.3   1 <1>  -0.0970 
 14 C       -6.0990     3.6470     1.0640 C.3   1 <1>  -0.0970 
 15 C        0.1120     5.3980     0.8640 C.3   1 <1>  -0.0800 
 16 C        0.2620     6.8980     0.6150 C.3   1 <1>   0.3430 
 17 C        0.5030     4.7270    -0.4610 C.3   1 <1>  -0.1600 
 18 N        0.5550     7.0460    -0.8400 N.4   1 <1>  -0.9590 
 19 C        1.2350     5.7940    -1.2480 C.3   1 <1>   0.3430 
 20 C        1.3290     8.2620    -1.1920 C.3   1 <1>   0.3430 
 21 C        0.4600     9.4950    -0.9810 C.3   1 <1>  -0.2400 
 22 H       -2.5620    -0.2230    -1.7350 H     1 <1>   0.0800 
 23 H       -3.6420     0.6770    -2.7630 H     1 <1>   0.0800 
 24 H       -4.2650    -0.4320    -1.5630 H     1 <1>   0.0800 
 25 H       -1.5060     5.4650     2.3040 H     1 <1>   0.0800 
 26 H       -2.0280     5.4510     0.6420 H     1 <1>   0.0800 
 27 H       -1.2990     1.8920     2.6650 H     1 <1>   0.0800 
 28 H       -1.6240     3.3990     3.4870 H     1 <1>   0.0800 
 29 H       -0.0190     3.0670     2.8520 H     1 <1>   0.0800 
 30 H       -5.9660     1.2320    -2.0270 H     1 <1>   0.0800 
 31 H       -6.8840     2.2090    -0.9520 H     1 <1>   0.0800 
 32 H       -6.4240     0.5990    -0.4630 H     1 <1>   0.0800 
 33 H       -5.9180     4.2480     1.9380 H     1 <1>   0.0800 
 34 H       -6.8070     2.8850     1.3300 H     1 <1>   0.0800 
 35 H       -6.5140     4.2770     0.3000 H     1 <1>   0.0800 
 36 H        0.8060     5.1170     1.6360 H     1 <1>   0.0800 
 37 H        1.0880     7.2730     1.1960 H     1 <1>   0.0800 
 38 H       -0.6320     7.4370     0.8850 H     1 <1>   0.0800 
 39 H       -0.3700     4.4290    -1.0150 H     1 <1>   0.0800 
 40 H        1.1180     3.8570    -0.3050 H     1 <1>   0.0800 
 41 H       -0.3450     7.0720    -1.3390 H     1 <1>   0.4500 
 42 H        1.1690     5.6230    -2.3110 H     1 <1>   0.0800 
 43 H        2.2710     5.8190    -0.9480 H     1 <1>   0.0800 
 44 H        1.6290     8.2150    -2.2270 H     1 <1>   0.0800 
 45 H        2.2190     8.3260    -0.5850 H     1 <1>   0.0800 
 46 H       -0.4350     9.4390    -1.5750 H     1 <1>   0.0800 
 47 H        1.0070    10.3680    -1.2910 H     1 <1>   0.0800 
 48 H        0.2020     9.6220     0.0540 H     1 <1>   0.0800 
@<TRIPOS>BOND
  1   1   2  3   
  2   2   3  1   
  3   3   4  ar  
  4   3   5  ar  
  5   4   6  ar  
  6   4   7  1   
  7   5   8  ar  
  8   5   9  1   
  9   6  10  ar  
 10   7  11  1   
 11   7  12  1   
 12   8  10  ar  
 13   8  13  1   
 14   9  22  1   
 15   9  23  1   
 16   9  24  1   
 17  10  14  1   
 18  11  15  1   
 19  11  25  1   
 20  11  26  1   
 21  12  27  1   
 22  12  28  1   
 23  12  29  1   
 24  13  30  1   
 25  13  31  1   
 26  13  32  1   
 27  14  33  1   
 28  14  34  1   
 29  14  35  1   
 30  15  16  1   
 31  15  17  1   
 32  15  36  1   
 33  16  18  1   
 34  16  37  1   
 35  16  38  1   
 36  17  19  1   
 37  17  39  1   
 38  17  40  1   
 39  18  19  1   
 40  18  20  1   
 41  18  41  1   
 42  19  42  1   
 43  19  43  1   
 44  20  21  1   
 45  20  44  1   
 46  20  45  1   
 47  21  46  1   
 48  21  47  1   
 49  21  48  1   
@<TRIPOS>SUBSTRUCTURE
  1 ****   4 GROUP 4 **** **** 0

# MOE 2024.06 (io_trps.svl 2023.06)
