@<TRIPOS>MOLECULE
NONAME
55 58 1 0 0 
SMALL
USER_CHARGES


@<TRIPOS>ATOM
  1 O        2.3330     2.0330     0.7340 O.co2 1 <1>  -0.9000 
  2 C        1.9330     1.1200    -0.0070 C.2   1 <1>   0.9060 
  3 O        0.8450     1.1790    -0.5590 O.co2 1 <1>  -0.9000 
  4 C        2.9220     0.0120    -0.4200 C.3   1 <1>  -0.1060 
  5 C        4.2670     0.1840     0.3220 C.3   1 <1>   0.4230 
  6 C        3.1830     0.1990    -1.9380 C.3   1 <1>  -0.1600 
  7 C        2.3630    -1.3950    -0.0850 C.3   1 <1>  -0.1600 
  8 N        3.9900     0.2960     1.8010 N.4   1 <1>  -0.9590 
  9 C        5.1110     1.3480    -0.2970 C.3   1 <1>   0.3430 
 10 C        3.5770     1.6560    -2.2710 C.3   1 <1>   0.3430 
 11 C        2.8000    -1.8830     1.3160 C.3   1 <1>  -0.1600 
 12 C        3.0330    -0.7430     2.3220 C.3   1 <1>   0.3430 
 13 C        5.1800     0.4760     2.6840 C.3   1 <1>   0.2630 
 14 N        4.2860     2.3060    -1.1180 N.4   1 <1>  -0.9590 
 15 C        4.9420     3.5980    -1.4540 C.3   1 <1>   0.4860 
 16 C        5.5920     4.1520    -0.1960 C.ar  1 <1>  -0.1430 
 17 C        6.9840     3.9370     0.0080 C.ar  1 <1>   0.0000 
 18 C        4.8310     4.8130     0.7430 C.ar  1 <1>  -0.1430 
 19 C        7.5650     4.3930     1.2140 C.ar  1 <1>   0.0000 
 20 C        7.8390     3.2750    -0.9110 C.ar  1 <1>  -0.1500 
 21 C        5.4340     5.2760     1.9170 C.ar  1 <1>  -0.1500 
 22 C        3.3330     5.0920     0.6260 C.3   1 <1>  -0.0970 
 23 C        6.7610     5.0690     2.1470 C.ar  1 <1>  -0.1500 
 24 C        8.9330     4.1630     1.4610 C.ar  1 <1>  -0.1500 
 25 C        9.1630     3.0640    -0.6450 C.ar  1 <1>  -0.1500 
 26 C        9.7180     3.5100     0.5560 C.ar  1 <1>  -0.1500 
 27 H        4.8410    -0.7150     0.1720 H     1 <1>   0.0800 
 28 H        2.2880    -0.0380    -2.4900 H     1 <1>   0.0800 
 29 H        3.9500    -0.4740    -2.2790 H     1 <1>   0.0800 
 30 H        1.2860    -1.3670    -0.1380 H     1 <1>   0.0800 
 31 H        2.6900    -2.1160    -0.8150 H     1 <1>   0.0800 
 32 H        3.4160     1.1810     1.8330 H     1 <1>   0.4500 
 33 H        5.8670     0.9210    -0.9330 H     1 <1>   0.0800 
 34 H        5.6070     1.8730     0.5000 H     1 <1>   0.0800 
 35 H        2.6770     2.2150    -2.4830 H     1 <1>   0.0800 
 36 H        4.1960     1.6680    -3.1540 H     1 <1>   0.0800 
 37 H        3.7070    -2.4560     1.2340 H     1 <1>   0.0800 
 38 H        2.0480    -2.5460     1.7060 H     1 <1>   0.0800 
 39 H        3.3940    -1.1500     3.2520 H     1 <1>   0.0800 
 40 H        2.0840    -0.2670     2.5180 H     1 <1>   0.0800 
 41 H        5.8110    -0.3970     2.6460 H     1 <1>   0.0800 
 42 H        4.8620     0.6270     3.7030 H     1 <1>   0.0800 
 43 H        5.7510     1.3380     2.3800 H     1 <1>   0.0800 
 44 H        3.5170     2.5810    -0.4500 H     1 <1>   0.4500 
 45 H        5.6680     3.4630    -2.2350 H     1 <1>   0.0800 
 46 H        4.2050     4.2970    -1.8120 H     1 <1>   0.0800 
 47 H        7.4650     2.9270    -1.8530 H     1 <1>   0.1500 
 48 H        4.8360     5.8000     2.6440 H     1 <1>   0.1500 
 49 H        2.8150     4.6390     1.4530 H     1 <1>   0.0800 
 50 H        2.8880     4.7140    -0.2740 H     1 <1>   0.0800 
 51 H        3.1570     6.1520     0.6610 H     1 <1>   0.0800 
 52 H        7.2150     5.4300     3.0530 H     1 <1>   0.1500 
 53 H        9.3570     4.5190     2.3840 H     1 <1>   0.1500 
 54 H        9.8030     2.5630    -1.3530 H     1 <1>   0.1500 
 55 H       10.7640     3.3390     0.7490 H     1 <1>   0.1500 
@<TRIPOS>BOND
  1   1   2  ar  
  2   2   3  ar  
  3   2   4  1   
  4   4   5  1   
  5   4   6  1   
  6   4   7  1   
  7   5   8  1   
  8   5   9  1   
  9   5  27  1   
 10   6  10  1   
 11   6  28  1   
 12   6  29  1   
 13   7  11  1   
 14   7  30  1   
 15   7  31  1   
 16   8  12  1   
 17   8  13  1   
 18   8  32  1   
 19   9  14  1   
 20   9  33  1   
 21   9  34  1   
 22  10  14  1   
 23  10  35  1   
 24  10  36  1   
 25  11  12  1   
 26  11  37  1   
 27  11  38  1   
 28  12  39  1   
 29  12  40  1   
 30  13  41  1   
 31  13  42  1   
 32  13  43  1   
 33  14  15  1   
 34  14  44  1   
 35  15  16  1   
 36  15  45  1   
 37  15  46  1   
 38  16  17  ar  
 39  16  18  ar  
 40  17  19  ar  
 41  17  20  ar  
 42  18  21  ar  
 43  18  22  1   
 44  19  23  ar  
 45  19  24  ar  
 46  20  25  ar  
 47  20  47  1   
 48  21  23  ar  
 49  21  48  1   
 50  22  49  1   
 51  22  50  1   
 52  22  51  1   
 53  23  52  1   
 54  24  26  ar  
 55  24  53  1   
 56  25  26  ar  
 57  25  54  1   
 58  26  55  1   
@<TRIPOS>SUBSTRUCTURE
  1 ****   9 GROUP 4 **** **** 0

# MOE 2024.06 (io_trps.svl 2023.06)
