@<TRIPOS>MOLECULE
NONAME
46 48 1 0 0 
SMALL
USER_CHARGES


@<TRIPOS>ATOM
  1 S       -1.2390     0.6410     0.3540 S.3   1 <1>  -0.4600 
  2 C       -2.5250    -0.5440    -0.1900 C.3   1 <1>   0.1310 
  3 C        0.2140     0.1580    -0.6150 C.3   1 <1>  -0.0100 
  4 C       -3.7640    -0.5070     0.7030 C.2   1 <1>   0.5690 
  5 O       -3.9480    -1.4840     1.3930 O.2   1 <1>  -0.5700 
  6 N       -4.6530     0.5480     0.6950 N.am  1 <1>  -0.6600 
  7 C       -5.8270     0.5320     1.6440 C.3   1 <1>   0.1400 
  8 C       -4.3890     1.8330    -0.0240 C.3   1 <1>   0.1400 
  9 C       -7.1850     1.1410     1.1940 C.3   1 <1>   0.1900 
 10 C       -5.5690     2.3200    -0.8900 C.3   1 <1>  -0.0800 
 11 N       -7.5730     0.9880    -0.2320 N.3   1 <1>  -0.8100 
 12 C       -7.3370     2.6210     1.6080 C.3   1 <1>   0.1200 
 13 C       -6.2610     3.5570    -0.2820 C.3   1 <1>   0.1200 
 14 C       -6.5600     1.2020    -1.2670 C.3   1 <1>   0.1100 
 15 C       -8.6350     0.0100    -0.5410 C.3   1 <1>   0.2900 
 16 O       -6.3400     3.4650     1.1080 O.3   1 <1>  -0.5600 
 17 C       -8.2390    -1.4540    -0.4120 C.2   1 <1>  -0.0400 
 18 O       -9.2110    -2.3450    -0.4810 O.3   1 <1>  -0.2800 
 19 C       -7.0540    -2.0790    -0.2390 C.2   1 <1>  -0.1500 
 20 C       -8.6770    -3.5420    -0.3480 C.2   1 <1>  -0.0400 
 21 C       -7.3410    -3.4470    -0.1930 C.2   1 <1>  -0.1500 
 22 C       -9.5860    -4.7490    -0.3850 C.3   1 <1>  -0.0600 
 23 H       -2.7800    -0.3090    -1.2050 H     1 <1>   0.0800 
 24 H       -2.0820    -1.5210    -0.1490 H     1 <1>   0.0800 
 25 H        1.0180     0.8210    -0.3490 H     1 <1>   0.0800 
 26 H       -0.0310     0.2520    -1.6580 H     1 <1>   0.0800 
 27 H        0.4590    -0.8590    -0.3630 H     1 <1>   0.0800 
 28 H       -6.0330    -0.4870     1.9200 H     1 <1>   0.0800 
 29 H       -5.5200     1.0240     2.5500 H     1 <1>   0.0800 
 30 H       -4.1130     2.5820     0.6990 H     1 <1>   0.0800 
 31 H       -3.5450     1.7210    -0.6770 H     1 <1>   0.0800 
 32 H       -7.9300     0.6280     1.7760 H     1 <1>   0.0800 
 33 H       -5.1420     2.6540    -1.8170 H     1 <1>   0.0800 
 34 H       -7.2910     2.6940     2.6790 H     1 <1>   0.0800 
 35 H       -8.2930     2.9970     1.2890 H     1 <1>   0.0800 
 36 H       -7.2480     3.7020    -0.6880 H     1 <1>   0.0800 
 37 H       -5.6730     4.4330    -0.4950 H     1 <1>   0.0800 
 38 H       -6.0330     0.2850    -1.4650 H     1 <1>   0.0800 
 39 H       -7.0670     1.4840    -2.1730 H     1 <1>   0.0800 
 40 H       -9.4650     0.1890     0.1190 H     1 <1>   0.0800 
 41 H       -8.9880     0.1790    -1.5430 H     1 <1>   0.0800 
 42 H       -6.0740    -1.6560    -0.1510 H     1 <1>   0.1500 
 43 H       -6.6150    -4.2280    -0.0570 H     1 <1>   0.1500 
 44 H       -9.0130    -5.6500    -0.2630 H     1 <1>   0.0800 
 45 H      -10.1010    -4.7860    -1.3280 H     1 <1>   0.0800 
 46 H      -10.3090    -4.6830     0.4070 H     1 <1>   0.0800 
@<TRIPOS>BOND
  1   1   2  1   
  2   1   3  1   
  3   2   4  1   
  4   2  23  1   
  5   2  24  1   
  6   3  25  1   
  7   3  26  1   
  8   3  27  1   
  9   4   5  2   
 10   4   6  am  
 11   6   7  1   
 12   6   8  1   
 13   7   9  1   
 14   7  28  1   
 15   7  29  1   
 16   8  10  1   
 17   8  30  1   
 18   8  31  1   
 19   9  11  1   
 20   9  12  1   
 21   9  32  1   
 22  10  13  1   
 23  10  14  1   
 24  10  33  1   
 25  11  14  1   
 26  11  15  1   
 27  12  16  1   
 28  12  34  1   
 29  12  35  1   
 30  13  16  1   
 31  13  36  1   
 32  13  37  1   
 33  14  38  1   
 34  14  39  1   
 35  15  17  1   
 36  15  40  1   
 37  15  41  1   
 38  17  18  1   
 39  17  19  2   
 40  18  20  1   
 41  19  21  1   
 42  19  42  1   
 43  20  21  2   
 44  20  22  1   
 45  21  43  1   
 46  22  44  1   
 47  22  45  1   
 48  22  46  1   
@<TRIPOS>SUBSTRUCTURE
  1 ****   6 GROUP 4 **** **** 0

# MOE 2024.06 (io_trps.svl 2023.06)
