@<TRIPOS>MOLECULE
NONAME
38 39 1 0 0 
SMALL
USER_CHARGES


@<TRIPOS>ATOM
  1 O       -1.0710     0.5990     0.4450 O.3   1 <1>  -0.3630 
  2 C       -2.0880    -0.2970     0.4050 C.ar  1 <1>   0.0820 
  3 C       -0.0140     0.6200    -0.4880 C.3   1 <1>   0.2000 
  4 C       -3.0660    -0.1700     1.3780 C.ar  1 <1>  -0.1500 
  5 C       -2.2010    -1.3190    -0.5330 C.ar  1 <1>  -0.1500 
  6 C        1.1420     1.3740     0.1640 C.3   1 <1>  -0.2400 
  7 C       -0.4880     1.3290    -1.7580 C.3   1 <1>  -0.2400 
  8 C       -4.1420    -1.0360     1.4140 C.ar  1 <1>  -0.1500 
  9 C       -3.2810    -2.1820    -0.4910 C.ar  1 <1>  -0.1500 
 10 C       -4.2800    -2.0580     0.4740 C.ar  1 <1>   0.0000 
 11 C       -5.4170    -2.9560     0.4910 C.ar  1 <1>   0.3100 
 12 N       -5.1870    -4.2620     0.3630 N.ar  1 <1>  -0.6200 
 13 C       -6.7090    -2.4380     0.6310 C.ar  1 <1>   0.1600 
 14 C       -6.2860    -5.0010     0.3970 C.ar  1 <1>   0.4100 
 15 N       -7.8230    -3.1520     0.6720 N.ar  1 <1>  -0.6200 
 16 N       -6.1260    -6.3750     0.2590 N.pl3 1 <1>  -0.8380 
 17 C       -7.5630    -4.4410     0.5560 C.ar  1 <1>   0.1600 
 18 C       -6.7070    -7.0330    -0.9410 C.3   1 <1>   0.1290 
 19 C       -4.8700    -7.0070     0.7530 C.3   1 <1>   0.1290 
 20 H        0.2940    -0.3910    -0.6890 H     1 <1>   0.0800 
 21 H       -2.9720     0.6150     2.1070 H     1 <1>   0.1500 
 22 H       -1.4640    -1.4590    -1.2990 H     1 <1>   0.1500 
 23 H        0.8450     2.3790     0.4060 H     1 <1>   0.0800 
 24 H        1.9810     1.4150    -0.5070 H     1 <1>   0.0800 
 25 H        1.4490     0.8680     1.0610 H     1 <1>   0.0800 
 26 H       -0.8010     2.3320    -1.5280 H     1 <1>   0.0800 
 27 H       -1.3090     0.8000    -2.2060 H     1 <1>   0.0800 
 28 H        0.3130     1.3750    -2.4720 H     1 <1>   0.0800 
 29 H       -4.8790    -0.9200     2.1880 H     1 <1>   0.1500 
 30 H       -3.3600    -2.9720    -1.2180 H     1 <1>   0.1500 
 31 H       -6.8190    -1.3720     0.7090 H     1 <1>   0.1500 
 32 H       -8.3930    -5.1200     0.5890 H     1 <1>   0.1500 
 33 H       -7.4870    -6.4250    -1.3660 H     1 <1>   0.0800 
 34 H       -7.1200    -7.9880    -0.6660 H     1 <1>   0.0800 
 35 H       -5.9420    -7.1790    -1.6840 H     1 <1>   0.0800 
 36 H       -4.5520    -6.5260     1.6630 H     1 <1>   0.0800 
 37 H       -4.0920    -6.9000     0.0160 H     1 <1>   0.0800 
 38 H       -5.0360    -8.0510     0.9530 H     1 <1>   0.0800 
@<TRIPOS>BOND
  1   1   2  1   
  2   1   3  1   
  3   2   4  ar  
  4   2   5  ar  
  5   3   6  1   
  6   3   7  1   
  7   3  20  1   
  8   4   8  ar  
  9   4  21  1   
 10   5   9  ar  
 11   5  22  1   
 12   6  23  1   
 13   6  24  1   
 14   6  25  1   
 15   7  26  1   
 16   7  27  1   
 17   7  28  1   
 18   8  10  ar  
 19   8  29  1   
 20   9  10  ar  
 21   9  30  1   
 22  10  11  1   
 23  11  12  ar  
 24  11  13  ar  
 25  12  14  ar  
 26  13  15  ar  
 27  13  31  1   
 28  14  16  1   
 29  14  17  ar  
 30  15  17  ar  
 31  16  18  1   
 32  16  19  1   
 33  17  32  1   
 34  18  33  1   
 35  18  34  1   
 36  18  35  1   
 37  19  36  1   
 38  19  37  1   
 39  19  38  1   
@<TRIPOS>SUBSTRUCTURE
  1 ****  10 GROUP 4 **** **** 0

# MOE 2024.06 (io_trps.svl 2023.06)
