@<TRIPOS>MOLECULE
NONAME
41 42 1 0 0 
SMALL
USER_CHARGES


@<TRIPOS>ATOM
  1 F       -1.1790    -0.2720    -1.9120 F     1 <1>  -0.1900 
  2 C       -2.0200    -0.9450    -1.1580 C.ar  1 <1>   0.1900 
  3 C       -3.3770    -0.6510    -1.0730 C.ar  1 <1>   0.3920 
  4 C       -1.5340    -1.9970    -0.4260 C.ar  1 <1>   0.1600 
  5 O       -4.0210     0.3380    -1.7350 O.3   1 <1>  -0.3630 
  6 N       -4.1680    -1.3660    -0.3010 N.ar  1 <1>  -0.6200 
  7 N       -2.3190    -2.7190     0.3460 N.ar  1 <1>  -0.6200 
  8 C       -3.3780     1.3320    -2.5050 C.3   1 <1>   0.0400 
  9 C       -3.5920    -2.3460     0.3870 C.ar  1 <1>   0.7200 
 10 N       -4.4170    -3.0850     1.1980 N.pl3 1 <1>  -0.8380 
 11 C       -5.6630    -2.4650     1.7390 C.3   1 <1>   0.2090 
 12 C       -4.5520    -4.5360     0.8920 C.3   1 <1>   0.2090 
 13 C       -6.8360    -2.6910     0.7620 C.3   1 <1>   0.3430 
 14 C       -5.7370    -4.7670    -0.0730 C.3   1 <1>   0.3430 
 15 N       -7.0330    -4.1520     0.4170 N.4   1 <1>  -0.9590 
 16 C       -8.1310    -4.2970    -0.5760 C.3   1 <1>   0.3430 
 17 C       -8.5790    -5.7560    -0.6710 C.3   1 <1>  -0.1600 
 18 C       -9.7850    -5.8930    -1.6090 C.3   1 <1>  -0.1600 
 19 C      -10.2410    -7.3510    -1.7070 C.3   1 <1>  -0.2400 
 20 H       -0.4890    -2.2490    -0.4780 H     1 <1>   0.1500 
 21 H       -4.1250     2.0280    -2.8430 H     1 <1>   0.0800 
 22 H       -2.9040     0.8700    -3.3530 H     1 <1>   0.0800 
 23 H       -2.6570     1.8430    -1.8910 H     1 <1>   0.0800 
 24 H       -5.5140    -1.4080     1.8870 H     1 <1>   0.0800 
 25 H       -5.8910    -2.8960     2.6990 H     1 <1>   0.0800 
 26 H       -4.7060    -5.0820     1.8070 H     1 <1>   0.0800 
 27 H       -3.6480    -4.9090     0.4420 H     1 <1>   0.0800 
 28 H       -6.6280    -2.1330    -0.1360 H     1 <1>   0.0800 
 29 H       -7.7370    -2.2910     1.1970 H     1 <1>   0.0800 
 30 H       -5.8630    -5.8260    -0.2190 H     1 <1>   0.0800 
 31 H       -5.4750    -4.3330    -1.0240 H     1 <1>   0.0800 
 32 H       -7.3070    -4.6400     1.2790 H     1 <1>   0.4500 
 33 H       -7.8050    -3.9480    -1.5430 H     1 <1>   0.0800 
 34 H       -8.9740    -3.6980    -0.2710 H     1 <1>   0.0800 
 35 H       -8.8590    -6.1140     0.3050 H     1 <1>   0.0800 
 36 H       -7.7810    -6.3680    -1.0520 H     1 <1>   0.0800 
 37 H       -9.5270    -5.5420    -2.5950 H     1 <1>   0.0800 
 38 H      -10.6050    -5.2950    -1.2470 H     1 <1>   0.0800 
 39 H       -9.4530    -7.9730    -2.0950 H     1 <1>   0.0800 
 40 H      -11.0860    -7.4270    -2.3690 H     1 <1>   0.0800 
 41 H      -10.5350    -7.7250    -0.7420 H     1 <1>   0.0800 
@<TRIPOS>BOND
  1   1   2  1   
  2   2   3  ar  
  3   2   4  ar  
  4   3   5  1   
  5   3   6  ar  
  6   4   7  ar  
  7   4  20  1   
  8   5   8  1   
  9   6   9  ar  
 10   7   9  ar  
 11   8  21  1   
 12   8  22  1   
 13   8  23  1   
 14   9  10  1   
 15  10  11  1   
 16  10  12  1   
 17  11  13  1   
 18  11  24  1   
 19  11  25  1   
 20  12  14  1   
 21  12  26  1   
 22  12  27  1   
 23  13  15  1   
 24  13  28  1   
 25  13  29  1   
 26  14  15  1   
 27  14  30  1   
 28  14  31  1   
 29  15  16  1   
 30  15  32  1   
 31  16  17  1   
 32  16  33  1   
 33  16  34  1   
 34  17  18  1   
 35  17  35  1   
 36  17  36  1   
 37  18  19  1   
 38  18  37  1   
 39  18  38  1   
 40  19  39  1   
 41  19  40  1   
 42  19  41  1   
@<TRIPOS>SUBSTRUCTURE
  1 ****   6 GROUP 4 **** **** 0

# MOE 2024.06 (io_trps.svl 2023.06)
