@<TRIPOS>MOLECULE
NONAME
51 53 1 0 0 
SMALL
USER_CHARGES


@<TRIPOS>ATOM
  1 CL      -0.4730    -0.4500    -0.5830 Cl    1 <1>  -0.1770 
  2 C       -1.9090     0.4970    -0.2920 C.ar  1 <1>   0.1770 
  3 C       -2.9650    -0.0710     0.3900 C.ar  1 <1>  -0.1500 
  4 C       -1.9690     1.7970    -0.7500 C.ar  1 <1>  -0.1500 
  5 C       -4.1270     0.6570     0.6270 C.ar  1 <1>  -0.0090 
  6 C       -3.1120     2.5390    -0.5170 C.ar  1 <1>  -0.1500 
  7 S       -5.5120    -0.0970     1.5170 S.o2  1 <1>   1.4470 
  8 C       -4.1870     1.9730     0.1710 C.ar  1 <1>   0.0830 
  9 O       -5.3010    -1.5310     1.6180 O.2   1 <1>  -0.6500 
 10 O       -5.8200     0.6300     2.7270 O.2   1 <1>  -0.6500 
 11 N       -6.8500     0.0310     0.4710 N.am  1 <1>  -0.8490 
 12 O       -5.3240     2.6680     0.4220 O.3   1 <1>  -0.3630 
 13 C       -6.8770    -1.0170    -0.5670 C.3   1 <1>   0.1960 
 14 C       -8.1150     0.2010     1.2270 C.3   1 <1>   0.1960 
 15 C       -5.4290     4.0560     0.1890 C.3   1 <1>   0.0400 
 16 C       -7.7230    -2.1950    -0.0480 C.3   1 <1>   0.4230 
 17 C       -9.3380    -0.3130     0.4470 C.3   1 <1>  -0.1600 
 18 N       -7.4400    -3.5720    -0.6030 N.4   1 <1>  -0.9590 
 19 C       -9.2220    -1.8050    -0.0050 C.3   1 <1>   0.0000 
 20 C       -8.4920    -4.5740    -0.2150 C.3   1 <1>   0.3430 
 21 C       -7.1460    -3.6270    -2.0720 C.3   1 <1>   0.2630 
 22 C       -9.8840    -2.7670     1.0190 C.3   1 <1>  -0.1600 
 23 C       -9.8950    -1.9410    -1.3990 C.3   1 <1>   0.1200 
 24 C       -9.2170    -4.1660     1.0780 C.3   1 <1>  -0.1600 
 25 O      -11.1830    -1.4340    -1.3880 O.3   1 <1>  -0.6800 
 26 H       -2.8740    -1.0860     0.7390 H     1 <1>   0.1500 
 27 H       -1.1320     2.2180    -1.2790 H     1 <1>   0.1500 
 28 H       -3.1470     3.5500    -0.8780 H     1 <1>   0.1500 
 29 H       -7.3160    -0.6080    -1.4600 H     1 <1>   0.0800 
 30 H       -5.8740    -1.3320    -0.8010 H     1 <1>   0.0800 
 31 H       -8.0630    -0.3390     2.1600 H     1 <1>   0.0800 
 32 H       -8.2390     1.2450     1.4670 H     1 <1>   0.0800 
 33 H       -6.3890     4.3820     0.5470 H     1 <1>   0.0800 
 34 H       -5.3530     4.2420    -0.8680 H     1 <1>   0.0800 
 35 H       -4.6490     4.5620     0.7290 H     1 <1>   0.0800 
 36 H       -7.4370    -2.2660     0.9890 H     1 <1>   0.0800 
 37 H      -10.2240    -0.1710     1.0400 H     1 <1>   0.0800 
 38 H       -9.4460     0.3320    -0.4100 H     1 <1>   0.0800 
 39 H       -6.5780    -3.8610    -0.1110 H     1 <1>   0.4500 
 40 H       -9.2220    -4.6580    -1.0030 H     1 <1>   0.0800 
 41 H       -8.0410    -5.5460    -0.0860 H     1 <1>   0.0800 
 42 H       -8.0040    -3.3130    -2.6430 H     1 <1>   0.0800 
 43 H       -6.8920    -4.6330    -2.3630 H     1 <1>   0.0800 
 44 H       -6.3150    -2.9850    -2.3150 H     1 <1>   0.0800 
 45 H       -9.8260    -2.3410     2.0080 H     1 <1>   0.0800 
 46 H      -10.9320    -2.8780     0.8010 H     1 <1>   0.0800 
 47 H       -9.9610    -2.9610    -1.7270 H     1 <1>   0.0800 
 48 H       -9.3510    -1.3790    -2.1390 H     1 <1>   0.0800 
 49 H       -9.9670    -4.9040     1.3070 H     1 <1>   0.0800 
 50 H       -8.5060    -4.1900     1.8860 H     1 <1>   0.0800 
 51 H      -11.7700    -1.9180    -0.7740 H     1 <1>   0.4000 
@<TRIPOS>BOND
  1   1   2  1   
  2   2   3  ar  
  3   2   4  ar  
  4   3   5  ar  
  5   3  26  1   
  6   4   6  ar  
  7   4  27  1   
  8   5   7  1   
  9   5   8  ar  
 10   6   8  ar  
 11   6  28  1   
 12   7   9  2   
 13   7  10  2   
 14   7  11  am  
 15   8  12  1   
 16  11  13  1   
 17  11  14  1   
 18  12  15  1   
 19  13  16  1   
 20  13  29  1   
 21  13  30  1   
 22  14  17  1   
 23  14  31  1   
 24  14  32  1   
 25  15  33  1   
 26  15  34  1   
 27  15  35  1   
 28  16  18  1   
 29  16  19  1   
 30  16  36  1   
 31  17  19  1   
 32  17  37  1   
 33  17  38  1   
 34  18  20  1   
 35  18  21  1   
 36  18  39  1   
 37  19  22  1   
 38  19  23  1   
 39  20  24  1   
 40  20  40  1   
 41  20  41  1   
 42  21  42  1   
 43  21  43  1   
 44  21  44  1   
 45  22  24  1   
 46  22  45  1   
 47  22  46  1   
 48  23  25  1   
 49  23  47  1   
 50  23  48  1   
 51  24  49  1   
 52  24  50  1   
 53  25  51  1   
@<TRIPOS>SUBSTRUCTURE
  1 ****  11 GROUP 4 **** **** 0

# MOE 2024.06 (io_trps.svl 2023.06)
