@<TRIPOS>MOLECULE
NONAME
32 33 1 0 0 
SMALL
USER_CHARGES


@<TRIPOS>ATOM
  1 O       -0.2770    -0.0210    -0.0870 O.2   1 <1>  -0.5700 
  2 C       -1.3230     0.5750    -0.2020 C.2   1 <1>   0.5690 
  3 N       -2.5050    -0.0850    -0.4170 N.am  1 <1>  -0.6600 
  4 C       -1.2920     2.1020    -0.0900 C.3   1 <1>   0.1810 
  5 C       -3.8520     0.5380    -0.4080 C.3   1 <1>   0.1400 
  6 C       -2.6110    -1.5620    -0.4620 C.3   1 <1>   0.1400 
  7 O       -1.7890     2.5510     1.1400 O.3   1 <1>  -0.6800 
  8 C       -4.8340    -0.6370    -0.4200 C.3   1 <1>   0.2000 
  9 C       -4.0310    -1.8600     0.0190 C.3   1 <1>  -0.0800 
 10 O       -5.8900    -0.4290     0.4530 O.3   1 <1>  -0.6800 
 11 C       -4.6180    -3.1770    -0.5190 C.3   1 <1>  -0.0170 
 12 C       -3.8160    -4.3820    -0.0550 C.ar  1 <1>   0.1670 
 13 N       -2.7460    -4.6910    -0.7690 N.ar  1 <1>  -0.6200 
 14 C       -4.2200    -5.0950     1.0730 C.ar  1 <1>   0.1600 
 15 C       -2.1110    -5.7450    -0.2840 C.ar  1 <1>   0.1600 
 16 N       -3.5870    -6.1500     1.5600 N.ar  1 <1>  -0.6200 
 17 C       -2.5180    -6.4500     0.8420 C.ar  1 <1>   0.1600 
 18 H       -1.8830     2.5430    -0.8710 H     1 <1>   0.0800 
 19 H       -0.2780     2.4480    -0.1850 H     1 <1>   0.0800 
 20 H       -3.9700     1.1310     0.4830 H     1 <1>   0.0800 
 21 H       -3.9850     1.1500    -1.2820 H     1 <1>   0.0800 
 22 H       -2.4690    -1.8940    -1.4770 H     1 <1>   0.0800 
 23 H       -1.8720    -2.0280     0.1690 H     1 <1>   0.0800 
 24 H       -1.2780     2.1370     1.8660 H     1 <1>   0.4000 
 25 H       -5.2340    -0.7650    -1.4120 H     1 <1>   0.0800 
 26 H       -3.9970    -1.8980     1.0940 H     1 <1>   0.0800 
 27 H       -5.5560    -0.2590     1.3550 H     1 <1>   0.4000 
 28 H       -4.6330    -3.1610    -1.5950 H     1 <1>   0.0800 
 29 H       -5.6350    -3.2720    -0.1830 H     1 <1>   0.0800 
 30 H       -5.1040    -4.7780     1.5970 H     1 <1>   0.1500 
 31 H       -1.2260    -6.0670    -0.8030 H     1 <1>   0.1500 
 32 H       -1.9340    -7.2960     1.1600 H     1 <1>   0.1500 
@<TRIPOS>BOND
  1   1   2  2   
  2   2   3  am  
  3   2   4  1   
  4   3   5  1   
  5   3   6  1   
  6   4   7  1   
  7   4  18  1   
  8   4  19  1   
  9   5   8  1   
 10   5  20  1   
 11   5  21  1   
 12   6   9  1   
 13   6  22  1   
 14   6  23  1   
 15   7  24  1   
 16   8   9  1   
 17   8  10  1   
 18   8  25  1   
 19   9  11  1   
 20   9  26  1   
 21  10  27  1   
 22  11  12  1   
 23  11  28  1   
 24  11  29  1   
 25  12  13  ar  
 26  12  14  ar  
 27  13  15  ar  
 28  14  16  ar  
 29  14  30  1   
 30  15  17  ar  
 31  15  31  1   
 32  16  17  ar  
 33  17  32  1   
@<TRIPOS>SUBSTRUCTURE
  1 ****   6 GROUP 4 **** **** 0

# MOE 2024.06 (io_trps.svl 2023.06)
