@<TRIPOS>MOLECULE
NONAME
42 43 1 0 0 
SMALL
USER_CHARGES


@<TRIPOS>ATOM
  1 CL       1.2990     1.8000    -0.7930 Cl    1 <1>  -0.1770 
  2 C       -0.1450     2.2660     0.0750 C.ar  1 <1>   0.1770 
  3 C       -1.0450     3.1670    -0.4800 C.ar  1 <1>  -0.1440 
  4 C       -0.3500     1.7190     1.3290 C.ar  1 <1>  -0.1500 
  5 C       -2.1680     3.5150     0.2570 C.ar  1 <1>  -0.1500 
  6 C       -0.8330     3.7760    -1.8580 C.3   1 <1>   0.2140 
  7 C       -1.4750     2.0740     2.0510 C.ar  1 <1>  -0.1500 
  8 C       -2.3820     2.9720     1.5140 C.ar  1 <1>  -0.1500 
  9 S       -0.3580     5.5170    -1.6510 S.3   1 <1>  -0.4600 
 10 C        1.1520     5.4250    -0.6110 C.3   1 <1>   0.1310 
 11 C        1.7720     6.7970    -0.3730 C.2   1 <1>   0.5690 
 12 O        2.8550     6.8640     0.1560 O.2   1 <1>  -0.5700 
 13 N        1.1050     7.9170    -0.7590 N.am  1 <1>  -0.7300 
 14 C        1.5620     9.3030    -0.5030 C.3   1 <1>   0.1400 
 15 C        2.7120     9.6610    -1.4460 C.3   1 <1>   0.0960 
 16 N        3.2950    10.9540    -1.0470 N.pl3 1 <1>   0.0480 
 17 C        4.2790    11.1970    -0.1430 C.2   1 <1>   0.0070 
 18 C        2.9300    12.1670    -1.4990 C.2   1 <1>  -0.3020 
 19 N        4.5460    12.4590    -0.0060 N.2   1 <1>  -0.5650 
 20 C        4.9840    10.0750     0.6170 C.3   1 <1>   0.0200 
 21 C        3.7010    13.0680    -0.8560 C.2   1 <1>   0.0770 
 22 C        5.9500    10.5820     1.6950 C.3   1 <1>  -0.2400 
 23 H        0.3650     1.0250     1.7320 H     1 <1>   0.1500 
 24 H       -2.8810     4.2150    -0.1450 H     1 <1>   0.1500 
 25 H       -1.7450     3.7650    -2.4290 H     1 <1>   0.0800 
 26 H       -0.0550     3.2930    -2.4200 H     1 <1>   0.0800 
 27 H       -1.6450     1.6550     3.0280 H     1 <1>   0.1500 
 28 H       -3.2570     3.2510     2.0760 H     1 <1>   0.1500 
 29 H        1.8540     4.7870    -1.1160 H     1 <1>   0.0800 
 30 H        0.8720     4.9870     0.3290 H     1 <1>   0.0800 
 31 H        0.1960     7.7910    -1.2200 H     1 <1>   0.3700 
 32 H        1.8980     9.3700     0.5180 H     1 <1>   0.0800 
 33 H        0.7410     9.9850    -0.6420 H     1 <1>   0.0800 
 34 H        2.3550     9.7340    -2.4560 H     1 <1>   0.0800 
 35 H        3.4780     8.9090    -1.3990 H     1 <1>   0.0800 
 36 H        2.1630    12.3240    -2.2340 H     1 <1>   0.1500 
 37 H        5.5320     9.4730    -0.0850 H     1 <1>   0.0800 
 38 H        4.2460     9.4470     1.0860 H     1 <1>   0.0800 
 39 H        3.6950    14.1400    -0.9600 H     1 <1>   0.1500 
 40 H        6.7190    11.1860     1.2460 H     1 <1>   0.0800 
 41 H        6.4100     9.7540     2.2030 H     1 <1>   0.0800 
 42 H        5.4190    11.1820     2.4120 H     1 <1>   0.0800 
@<TRIPOS>BOND
  1   1   2  1   
  2   2   3  ar  
  3   2   4  ar  
  4   3   5  ar  
  5   3   6  1   
  6   4   7  ar  
  7   4  23  1   
  8   5   8  ar  
  9   5  24  1   
 10   6   9  1   
 11   6  25  1   
 12   6  26  1   
 13   7   8  ar  
 14   7  27  1   
 15   8  28  1   
 16   9  10  1   
 17  10  11  1   
 18  10  29  1   
 19  10  30  1   
 20  11  12  2   
 21  11  13  am  
 22  13  14  1   
 23  13  31  1   
 24  14  15  1   
 25  14  32  1   
 26  14  33  1   
 27  15  16  1   
 28  15  34  1   
 29  15  35  1   
 30  16  17  1   
 31  16  18  1   
 32  17  19  2   
 33  17  20  1   
 34  18  21  2   
 35  18  36  1   
 36  19  21  1   
 37  20  22  1   
 38  20  37  1   
 39  20  38  1   
 40  21  39  1   
 41  22  40  1   
 42  22  41  1   
 43  22  42  1   
@<TRIPOS>SUBSTRUCTURE
  1 ****  11 GROUP 4 **** **** 0

# MOE 2024.06 (io_trps.svl 2023.06)
