@<TRIPOS>MOLECULE
NONAME
38 40 1 0 0 
SMALL
USER_CHARGES


@<TRIPOS>ATOM
  1 S       -0.6170    -0.0540     1.3240 S.3   1 <1>  -0.3320 
  2 C       -0.2830    -1.7180     0.7200 C.ar  1 <1>   0.1020 
  3 C        0.8400     0.9900     0.8760 C.3   1 <1>  -0.0100 
  4 C       -1.2310    -2.6790     0.9390 C.ar  1 <1>  -0.1500 
  5 C        0.9040    -2.0280     0.0490 C.ar  1 <1>  -0.1500 
  6 C       -1.0460    -3.9980     0.5000 C.ar  1 <1>   0.3100 
  7 C        1.1100    -3.3080    -0.3910 C.ar  1 <1>  -0.1500 
  8 N       -2.0300    -4.8890     0.7560 N.ar  1 <1>  -0.6200 
  9 C        0.1520    -4.3250    -0.1830 C.ar  1 <1>   0.0000 
 10 C       -1.8580    -6.1050     0.3350 C.ar  1 <1>   0.4100 
 11 C        0.3130    -5.6610    -0.6140 C.ar  1 <1>  -0.1430 
 12 N       -2.8730    -6.9730     0.6000 N.pl3 1 <1>  -0.8690 
 13 C       -0.6990    -6.5290    -0.3440 C.ar  1 <1>  -0.1500 
 14 C        1.5620    -6.1260    -1.3480 C.3   1 <1>  -0.0970 
 15 C       -3.3680    -7.9870    -0.4040 C.3   1 <1>   0.2780 
 16 C       -4.8710    -7.8360    -0.7760 C.2   1 <1>   0.9060 
 17 C       -3.0530    -9.4220     0.0860 C.3   1 <1>  -0.1950 
 18 O       -5.6430    -7.2410    -0.0040 O.co2 1 <1>  -0.9000 
 19 O       -5.2710    -8.3070    -1.8530 O.co2 1 <1>  -0.9000 
 20 C       -3.2540    -9.8430     1.5090 C.3   1 <1>  -0.2000 
 21 C       -1.8680    -9.7890     0.9300 C.3   1 <1>  -0.2000 
 22 H        0.6470     1.9850     1.2340 H     1 <1>   0.0800 
 23 H        0.9380     0.9830    -0.1940 H     1 <1>   0.0800 
 24 H        1.7070     0.5740     1.3560 H     1 <1>   0.0800 
 25 H       -2.1440    -2.4440     1.4530 H     1 <1>   0.1500 
 26 H        1.6470    -1.2750    -0.1220 H     1 <1>   0.1500 
 27 H        2.0210    -3.5470    -0.9080 H     1 <1>   0.1500 
 28 H       -3.7060    -6.4990     0.9790 H     1 <1>   0.4000 
 29 H       -0.6470    -7.5600    -0.6310 H     1 <1>   0.1500 
 30 H        1.4950    -7.1720    -1.5880 H     1 <1>   0.0800 
 31 H        2.4290    -5.9750    -0.7310 H     1 <1>   0.0800 
 32 H        1.6770    -5.5750    -2.2640 H     1 <1>   0.0800 
 33 H       -2.8400    -7.8350    -1.3260 H     1 <1>   0.0800 
 34 H       -3.3620   -10.1370    -0.6560 H     1 <1>   0.1000 
 35 H       -3.5550    -9.0910     2.2190 H     1 <1>   0.1000 
 36 H       -3.7220   -10.7940     1.6920 H     1 <1>   0.1000 
 37 H       -1.3550   -10.7110     0.7240 H     1 <1>   0.1000 
 38 H       -1.2110    -9.0200     1.2950 H     1 <1>   0.1000 
@<TRIPOS>BOND
  1   1   2  1   
  2   1   3  1   
  3   2   4  ar  
  4   2   5  ar  
  5   3  22  1   
  6   3  23  1   
  7   3  24  1   
  8   4   6  ar  
  9   4  25  1   
 10   5   7  ar  
 11   5  26  1   
 12   6   8  ar  
 13   6   9  ar  
 14   7   9  ar  
 15   7  27  1   
 16   8  10  ar  
 17   9  11  ar  
 18  10  12  1   
 19  10  13  ar  
 20  11  13  ar  
 21  11  14  1   
 22  12  15  1   
 23  12  28  1   
 24  13  29  1   
 25  14  30  1   
 26  14  31  1   
 27  14  32  1   
 28  15  16  1   
 29  15  17  1   
 30  15  33  1   
 31  16  18  ar  
 32  16  19  ar  
 33  17  20  1   
 34  17  21  1   
 35  17  34  1   
 36  20  21  1   
 37  20  35  1   
 38  20  36  1   
 39  21  37  1   
 40  21  38  1   
@<TRIPOS>SUBSTRUCTURE
  1 ****  10 GROUP 4 **** **** 0

# MOE 2024.06 (io_trps.svl 2023.06)
