@<TRIPOS>MOLECULE
NONAME
59 61 1 0 0 
SMALL
USER_CHARGES


@<TRIPOS>ATOM
  1 O        1.8770     4.0580    -1.4760 O.2   1 <1>  -0.5700 
  2 C        0.7010     4.3290    -1.4000 C.2   1 <1>   0.5690 
  3 N       -0.0240     4.1490    -0.2600 N.am  1 <1>  -0.6600 
  4 C       -0.0140     4.9540    -2.5990 C.3   1 <1>   0.1810 
  5 C       -1.3550     4.8190    -0.1460 C.3   1 <1>   0.3640 
  6 C        0.4270     3.3290     0.8960 C.3   1 <1>   0.0600 
  7 O       -0.7700     6.0960    -2.2580 O.3   1 <1>  -0.5600 
  8 C       -2.5260     3.8960    -0.5220 C.ar  1 <1>  -0.1430 
  9 C       -1.3600     6.1530    -0.9510 C.3   1 <1>   0.2610 
 10 C       -3.8120     4.1600    -0.0410 C.ar  1 <1>  -0.1430 
 11 C       -2.3370     2.7800    -1.3350 C.ar  1 <1>  -0.1500 
 12 C       -0.6460     7.2200    -0.1150 C.2   1 <1>   0.5690 
 13 C       -4.8660     3.3330    -0.4050 C.ar  1 <1>  -0.1500 
 14 C       -4.1310     5.3260     0.8930 C.3   1 <1>  -0.0960 
 15 C       -3.3930     1.9620    -1.6880 C.ar  1 <1>  -0.1500 
 16 O       -1.0220     7.4500     1.0100 O.2   1 <1>  -0.5700 
 17 N        0.4190     7.8870    -0.6420 N.am  1 <1>  -0.7300 
 18 C       -4.6630     2.2410    -1.2250 C.ar  1 <1>  -0.1500 
 19 C        1.1650     8.9790     0.0530 C.3   1 <1>   0.1400 
 20 C        2.4330     8.5320     0.8520 C.3   1 <1>   0.5030 
 21 N        3.5000     7.8850     0.0210 N.4   1 <1>  -0.9590 
 22 C        2.0620     7.5710     1.9890 C.3   1 <1>  -0.2400 
 23 C        3.0690     9.7730     1.4870 C.3   1 <1>  -0.2400 
 24 C        3.9550     8.6460    -1.1700 C.3   1 <1>   0.3430 
 25 C        3.2270     6.5090    -0.4760 C.3   1 <1>   0.3430 
 26 C        4.7790     7.6470    -1.9700 C.3   1 <1>  -0.1600 
 27 C        4.3070     6.2630    -1.5200 C.3   1 <1>  -0.1600 
 28 H       -0.6820     4.2360    -3.0360 H     1 <1>   0.0800 
 29 H        0.7050     5.2440    -3.3430 H     1 <1>   0.0800 
 30 H       -1.4870     5.0630     0.8920 H     1 <1>   0.0800 
 31 H       -0.3090     2.5730     1.1120 H     1 <1>   0.0800 
 32 H        0.5560     3.9540     1.7630 H     1 <1>   0.0800 
 33 H        1.3610     2.8430     0.6720 H     1 <1>   0.0800 
 34 H       -2.3730     6.4800    -1.0880 H     1 <1>   0.0800 
 35 H       -1.3640     2.5170    -1.7050 H     1 <1>   0.1500 
 36 H       -5.8610     3.5300    -0.0470 H     1 <1>   0.1500 
 37 H       -5.1460     5.2680     1.2420 H     1 <1>   0.0800 
 38 H       -4.0160     6.2660     0.3870 H     1 <1>   0.0800 
 39 H       -3.4950     5.3070     1.7590 H     1 <1>   0.0800 
 40 H       -3.2280     1.1070    -2.3200 H     1 <1>   0.1500 
 41 H        0.5780     7.7500    -1.6480 H     1 <1>   0.3700 
 42 H       -5.4890     1.6090    -1.4990 H     1 <1>   0.1500 
 43 H        1.4320     9.7310    -0.6680 H     1 <1>   0.0800 
 44 H        0.4900     9.4530     0.7460 H     1 <1>   0.0800 
 45 H        4.3130     7.7910     0.6360 H     1 <1>   0.4500 
 46 H        1.3590     8.0450     2.6520 H     1 <1>   0.0800 
 47 H        2.9270     7.2950     2.5660 H     1 <1>   0.0800 
 48 H        1.5870     6.6810     1.6190 H     1 <1>   0.0800 
 49 H        2.3760    10.2280     2.1740 H     1 <1>   0.0800 
 50 H        3.3180    10.5130     0.7480 H     1 <1>   0.0800 
 51 H        3.9540     9.5150     2.0420 H     1 <1>   0.0800 
 52 H        3.1050     8.9550    -1.7560 H     1 <1>   0.0800 
 53 H        4.5380     9.5110    -0.8960 H     1 <1>   0.0800 
 54 H        3.2630     5.7750     0.3130 H     1 <1>   0.0800 
 55 H        2.2620     6.4660    -0.9490 H     1 <1>   0.0800 
 56 H        4.6290     7.7960    -3.0260 H     1 <1>   0.0800 
 57 H        5.8250     7.7770    -1.7530 H     1 <1>   0.0800 
 58 H        5.1180     5.7090    -1.0790 H     1 <1>   0.0800 
 59 H        3.9100     5.6860    -2.3370 H     1 <1>   0.0800 
@<TRIPOS>BOND
  1   1   2  2   
  2   2   3  am  
  3   2   4  1   
  4   3   5  1   
  5   3   6  1   
  6   4   7  1   
  7   4  28  1   
  8   4  29  1   
  9   5   8  1   
 10   5   9  1   
 11   5  30  1   
 12   6  31  1   
 13   6  32  1   
 14   6  33  1   
 15   7   9  1   
 16   8  10  ar  
 17   8  11  ar  
 18   9  12  1   
 19   9  34  1   
 20  10  13  ar  
 21  10  14  1   
 22  11  15  ar  
 23  11  35  1   
 24  12  16  2   
 25  12  17  am  
 26  13  18  ar  
 27  13  36  1   
 28  14  37  1   
 29  14  38  1   
 30  14  39  1   
 31  15  18  ar  
 32  15  40  1   
 33  17  19  1   
 34  17  41  1   
 35  18  42  1   
 36  19  20  1   
 37  19  43  1   
 38  19  44  1   
 39  20  21  1   
 40  20  22  1   
 41  20  23  1   
 42  21  24  1   
 43  21  25  1   
 44  21  45  1   
 45  22  46  1   
 46  22  47  1   
 47  22  48  1   
 48  23  49  1   
 49  23  50  1   
 50  23  51  1   
 51  24  26  1   
 52  24  52  1   
 53  24  53  1   
 54  25  27  1   
 55  25  54  1   
 56  25  55  1   
 57  26  27  1   
 58  26  56  1   
 59  26  57  1   
 60  27  58  1   
 61  27  59  1   
@<TRIPOS>SUBSTRUCTURE
  1 ****   9 GROUP 4 **** **** 0

# MOE 2024.06 (io_trps.svl 2023.06)
