@<TRIPOS>MOLECULE
NONAME
49 52 1 0 0 
SMALL
USER_CHARGES


@<TRIPOS>ATOM
  1 O        1.3460    -0.1760    -1.9970 O.2   1 <1>  -0.5700 
  2 C        1.5820    -0.6950    -0.9200 C.2   1 <1>   0.7150 
  3 N        2.3620    -0.0380    -0.0020 N.am  1 <1>  -0.6600 
  4 C        1.1240    -2.0280    -0.6540 C.2   1 <1>  -0.2370 
  5 C        2.4850     1.4450     0.1160 C.3   1 <1>   0.4000 
  6 C        3.5370    -0.7390     0.5710 C.3   1 <1>   0.1400 
  7 N        0.0910    -2.3680     0.1930 N.pl3 1 <1>   0.0480 
  8 C        1.6320    -3.1860    -1.1860 C.2   1 <1>  -0.1500 
  9 C        1.2040     2.2500    -0.1160 C.2   1 <1>   0.0060 
 10 C        3.6690     1.9000    -0.7460 C.3   1 <1>  -0.1600 
 11 C        4.7810    -0.3350    -0.2350 C.3   1 <1>  -0.1600 
 12 C       -0.0070    -3.7240     0.1850 C.2   1 <1>  -0.3020 
 13 C       -0.8630    -1.5060     0.9550 C.3   1 <1>   0.1760 
 14 C        0.9240    -4.2540    -0.6500 C.2   1 <1>  -0.1500 
 15 N        0.6160     2.9390     0.8050 N.2   1 <1>  -0.5650 
 16 N        0.5820     2.3200    -1.3200 N.pl3 1 <1>   0.0330 
 17 C        4.9660     1.1930    -0.3070 C.3   1 <1>  -0.1600 
 18 C       -1.5990    -0.5250     0.0360 C.3   1 <1>  -0.2400 
 19 C       -0.1800    -0.7860     2.1230 C.3   1 <1>  -0.2400 
 20 C       -0.4660     3.4880     0.1840 C.ar  1 <1>   0.2270 
 21 C       -0.5060     3.1080    -1.1430 C.ar  1 <1>  -0.1520 
 22 C       -1.4620     4.3160     0.6990 C.ar  1 <1>  -0.1500 
 23 C       -1.5350     3.5260    -1.9890 C.ar  1 <1>  -0.1500 
 24 C       -2.4800     4.7390    -0.1280 C.ar  1 <1>  -0.1500 
 25 C       -2.5160     4.3420    -1.4710 C.ar  1 <1>  -0.1500 
 26 H        2.7520     1.6500     1.1390 H     1 <1>   0.0800 
 27 H        3.4050    -1.8070     0.5300 H     1 <1>   0.0800 
 28 H        3.6530    -0.4580     1.6050 H     1 <1>   0.0800 
 29 H        2.4370    -3.2690    -1.8950 H     1 <1>   0.1500 
 30 H        3.7890     2.9640    -0.6490 H     1 <1>   0.0800 
 31 H        3.4610     1.6820    -1.7790 H     1 <1>   0.0800 
 32 H        4.6850    -0.7300    -1.2320 H     1 <1>   0.0800 
 33 H        5.6530    -0.7840     0.2080 H     1 <1>   0.0800 
 34 H       -0.7390    -4.2540     0.7670 H     1 <1>   0.1500 
 35 H       -1.6030    -2.1640     1.3760 H     1 <1>   0.0800 
 36 H        1.0940    -5.2940    -0.8730 H     1 <1>   0.1500 
 37 H        0.8060     1.7210    -2.1260 H     1 <1>   0.2700 
 38 H        5.2500     1.5570     0.6660 H     1 <1>   0.0800 
 39 H        5.7610     1.4320    -0.9920 H     1 <1>   0.0800 
 40 H       -0.9290     0.2150    -0.3540 H     1 <1>   0.0800 
 41 H       -2.3680    -0.0140     0.5870 H     1 <1>   0.0800 
 42 H       -2.0570    -1.0530    -0.7810 H     1 <1>   0.0800 
 43 H        0.4540     0.0050     1.7740 H     1 <1>   0.0800 
 44 H        0.3980    -1.4810     2.7040 H     1 <1>   0.0800 
 45 H       -0.9260    -0.3450     2.7590 H     1 <1>   0.0800 
 46 H       -1.4090     4.6020     1.7330 H     1 <1>   0.1500 
 47 H       -1.5510     3.2110    -3.0170 H     1 <1>   0.1500 
 48 H       -3.2570     5.3780     0.2530 H     1 <1>   0.1500 
 49 H       -3.3230     4.6840    -2.0960 H     1 <1>   0.1500 
@<TRIPOS>BOND
  1   1   2  2   
  2   2   3  am  
  3   2   4  1   
  4   3   5  1   
  5   3   6  1   
  6   4   7  1   
  7   4   8  2   
  8   5   9  1   
  9   5  10  1   
 10   5  26  1   
 11   6  11  1   
 12   6  27  1   
 13   6  28  1   
 14   7  12  1   
 15   7  13  1   
 16   8  14  1   
 17   8  29  1   
 18   9  15  2   
 19   9  16  1   
 20  10  17  1   
 21  10  30  1   
 22  10  31  1   
 23  11  17  1   
 24  11  32  1   
 25  11  33  1   
 26  12  14  2   
 27  12  34  1   
 28  13  18  1   
 29  13  19  1   
 30  13  35  1   
 31  14  36  1   
 32  15  20  1   
 33  16  21  1   
 34  16  37  1   
 35  17  38  1   
 36  17  39  1   
 37  18  40  1   
 38  18  41  1   
 39  18  42  1   
 40  19  43  1   
 41  19  44  1   
 42  19  45  1   
 43  20  21  ar  
 44  20  22  ar  
 45  21  23  ar  
 46  22  24  ar  
 47  22  46  1   
 48  23  25  ar  
 49  23  47  1   
 50  24  25  ar  
 51  24  48  1   
 52  25  49  1   
@<TRIPOS>SUBSTRUCTURE
  1 ****   2 GROUP 4 **** **** 0

# MOE 2024.06 (io_trps.svl 2023.06)
