@<TRIPOS>MOLECULE
NONAME
52 55 1 0 0 
SMALL
USER_CHARGES


@<TRIPOS>ATOM
  1 F        0.2630     0.7410    -1.7600 F     1 <1>  -0.1900 
  2 C       -0.1620     1.6650    -0.9420 C.ar  1 <1>   0.1900 
  3 C        0.3360     2.9450    -1.0680 C.ar  1 <1>  -0.1500 
  4 C       -1.0940     1.3210     0.0170 C.ar  1 <1>  -0.1500 
  5 C       -0.1010     3.9520    -0.2060 C.ar  1 <1>   0.0530 
  6 C       -1.5380     2.3080     0.8790 C.ar  1 <1>  -0.1500 
  7 C        0.4100     5.3030    -0.3210 C.2   1 <1>   0.4250 
  8 C       -1.0470     3.5990     0.7650 C.ar  1 <1>  -0.1500 
  9 O        0.0010     6.2340     0.5100 O.3   1 <1>  -0.2800 
 10 N        1.2660     5.7310    -1.1830 N.2   1 <1>  -0.3380 
 11 C        0.6820     7.2550     0.0760 C.2   1 <1>   0.2980 
 12 N        1.4380     7.0050    -0.9230 N.2   1 <1>  -0.3380 
 13 C        0.4930     8.5950     0.7950 C.3   1 <1>   0.2900 
 14 N        1.6260     9.5410     0.6650 N.3   1 <1>  -0.8100 
 15 C        2.8520     9.0200     1.3100 C.3   1 <1>   0.2530 
 16 C        1.2600    10.9000     1.1410 C.3   1 <1>   0.1100 
 17 C        4.0850     9.7780     0.8480 C.ar  1 <1>  -0.1430 
 18 C        1.9030    12.0210     0.3080 C.3   1 <1>   0.2000 
 19 C        4.4600     9.7210    -0.4850 C.ar  1 <1>  -0.1500 
 20 C        4.8410    10.5280     1.7360 C.ar  1 <1>  -0.1500 
 21 O        1.3480    13.2400     0.6840 O.3   1 <1>  -0.5600 
 22 C        1.6310    11.9400    -1.1890 C.3   1 <1>  -0.1600 
 23 C        5.5740    10.4070    -0.9380 C.ar  1 <1>  -0.1430 
 24 C        5.9550    11.2170     1.2900 C.ar  1 <1>  -0.1500 
 25 C        1.5740    14.1790    -0.3160 C.3   1 <1>   0.1200 
 26 C        1.6420    13.3970    -1.6260 C.3   1 <1>  -0.1600 
 27 C        6.3200    11.1570    -0.0440 C.ar  1 <1>  -0.1500 
 28 C        5.9630    10.3390    -2.4030 C.3   1 <1>  -0.0970 
 29 H        1.0620     3.1560    -1.8340 H     1 <1>   0.1500 
 30 H       -1.4580     0.3110     0.0820 H     1 <1>   0.1500 
 31 H       -2.2650     2.0710     1.6370 H     1 <1>   0.1500 
 32 H       -1.4090     4.3480     1.4470 H     1 <1>   0.1500 
 33 H        0.3100     8.4070     1.8380 H     1 <1>   0.0800 
 34 H       -0.3900     9.0480     0.3810 H     1 <1>   0.0800 
 35 H        2.9970     7.9870     1.0470 H     1 <1>   0.0800 
 36 H        2.7570     9.0760     2.3810 H     1 <1>   0.0800 
 37 H        1.5390    11.0220     2.1730 H     1 <1>   0.0800 
 38 H        0.1950    11.0340     1.0660 H     1 <1>   0.0800 
 39 H        2.9600    12.0860     0.4940 H     1 <1>   0.0800 
 40 H        3.8660     9.1380    -1.1700 H     1 <1>   0.1500 
 41 H        4.5640    10.5840     2.7730 H     1 <1>   0.1500 
 42 H        0.6640    11.5020    -1.3610 H     1 <1>   0.0800 
 43 H        2.3780    11.3480    -1.6870 H     1 <1>   0.0800 
 44 H        6.5380    11.8000     1.9800 H     1 <1>   0.1500 
 45 H        2.5090    14.6700    -0.1070 H     1 <1>   0.0800 
 46 H        0.7690    14.8940    -0.3070 H     1 <1>   0.0800 
 47 H        0.8000    13.6220    -2.2550 H     1 <1>   0.0800 
 48 H        2.5500    13.6400    -2.1490 H     1 <1>   0.0800 
 49 H        7.1860    11.6970    -0.3830 H     1 <1>   0.1500 
 50 H        5.7020     9.3800    -2.8140 H     1 <1>   0.0800 
 51 H        7.0220    10.4820    -2.5200 H     1 <1>   0.0800 
 52 H        5.4440    11.1040    -2.9520 H     1 <1>   0.0800 
@<TRIPOS>BOND
  1   1   2  1   
  2   2   3  ar  
  3   2   4  ar  
  4   3   5  ar  
  5   3  29  1   
  6   4   6  ar  
  7   4  30  1   
  8   5   7  1   
  9   5   8  ar  
 10   6   8  ar  
 11   6  31  1   
 12   7   9  1   
 13   7  10  2   
 14   8  32  1   
 15   9  11  1   
 16  10  12  1   
 17  11  12  2   
 18  11  13  1   
 19  13  14  1   
 20  13  33  1   
 21  13  34  1   
 22  14  15  1   
 23  14  16  1   
 24  15  17  1   
 25  15  35  1   
 26  15  36  1   
 27  16  18  1   
 28  16  37  1   
 29  16  38  1   
 30  17  19  ar  
 31  17  20  ar  
 32  18  21  1   
 33  18  22  1   
 34  18  39  1   
 35  19  23  ar  
 36  19  40  1   
 37  20  24  ar  
 38  20  41  1   
 39  21  25  1   
 40  22  26  1   
 41  22  42  1   
 42  22  43  1   
 43  23  27  ar  
 44  23  28  1   
 45  24  27  ar  
 46  24  44  1   
 47  25  26  1   
 48  25  45  1   
 49  25  46  1   
 50  26  47  1   
 51  26  48  1   
 52  27  49  1   
 53  28  50  1   
 54  28  51  1   
 55  28  52  1   
@<TRIPOS>SUBSTRUCTURE
  1 ****  12 GROUP 4 **** **** 0

# MOE 2024.06 (io_trps.svl 2023.06)
