@<TRIPOS>MOLECULE
NONAME
41 42 1 0 0 
SMALL
USER_CHARGES


@<TRIPOS>ATOM
  1 O       -0.1410     1.0620     0.8070 O.2   1 <1>  -0.5700 
  2 C       -0.1970     2.2300     0.5150 C.2   1 <1>   0.5690 
  3 N       -1.2150     3.0030     0.9450 N.am  1 <1>  -0.7300 
  4 C        0.8690     2.8510    -0.3860 C.3   1 <1>   0.1810 
  5 C       -1.4100     4.4200     0.5430 C.3   1 <1>   0.3640 
  6 O        0.9400     4.2520    -0.2430 O.3   1 <1>  -0.5600 
  7 C       -2.7900     4.5320    -0.1050 C.ar  1 <1>  -0.1440 
  8 C       -0.2970     4.9400    -0.4150 C.3   1 <1>   0.2610 
  9 C       -3.6460     5.5610     0.2620 C.ar  1 <1>  -0.1500 
 10 C       -3.2130     3.6210    -1.0660 C.ar  1 <1>  -0.1500 
 11 C       -0.0690     6.4490    -0.2370 C.2   1 <1>   0.5690 
 12 C       -4.8980     5.6780    -0.3170 C.ar  1 <1>  -0.1500 
 13 C       -4.4650     3.7360    -1.6450 C.ar  1 <1>  -0.1500 
 14 O       -0.9760     7.1640     0.1190 O.2   1 <1>  -0.5700 
 15 N        1.1760     6.9430    -0.4790 N.am  1 <1>  -0.7300 
 16 C       -5.3080     4.7650    -1.2710 C.ar  1 <1>  -0.1500 
 17 C        1.6470     8.3420    -0.4290 C.3   1 <1>   0.3000 
 18 C        1.3960     8.9720     0.9650 C.3   1 <1>   0.1200 
 19 C        0.9310     9.1390    -1.5220 C.3   1 <1>  -0.2400 
 20 C        3.1450     8.3040    -0.7410 C.3   1 <1>  -0.2400 
 21 O        1.9190     8.1780     1.9830 O.3   1 <1>  -0.6800 
 22 H       -1.9600     2.5730     1.4950 H     1 <1>   0.3700 
 23 H        0.6540     2.6210    -1.4130 H     1 <1>   0.0800 
 24 H        1.8310     2.4450    -0.1300 H     1 <1>   0.0800 
 25 H       -1.3950     5.0150     1.4410 H     1 <1>   0.0800 
 26 H       -0.6100     4.7800    -1.4300 H     1 <1>   0.0800 
 27 H       -3.3420     6.2870     0.9980 H     1 <1>   0.1500 
 28 H       -2.5740     2.8090    -1.3700 H     1 <1>   0.1500 
 29 H       -5.5500     6.4830    -0.0250 H     1 <1>   0.1500 
 30 H       -4.7830     3.0240    -2.3870 H     1 <1>   0.1500 
 31 H        1.9110     6.2580    -0.6740 H     1 <1>   0.3700 
 32 H       -6.2820     4.8570    -1.7210 H     1 <1>   0.1500 
 33 H        0.3400     9.0880     1.1420 H     1 <1>   0.0800 
 34 H        1.8590     9.9410     1.0300 H     1 <1>   0.0800 
 35 H        1.3100    10.1440    -1.5580 H     1 <1>   0.0800 
 36 H       -0.1250     9.1900    -1.3250 H     1 <1>   0.0800 
 37 H        1.0840     8.6830    -2.4840 H     1 <1>   0.0800 
 38 H        3.5490     9.3000    -0.7260 H     1 <1>   0.0800 
 39 H        3.3230     7.8830    -1.7140 H     1 <1>   0.0800 
 40 H        3.6710     7.7240    -0.0030 H     1 <1>   0.0800 
 41 H        1.5650     7.2730     1.8800 H     1 <1>   0.4000 
@<TRIPOS>BOND
  1   1   2  2   
  2   2   3  am  
  3   2   4  1   
  4   3   5  1   
  5   3  22  1   
  6   4   6  1   
  7   4  23  1   
  8   4  24  1   
  9   5   7  1   
 10   5   8  1   
 11   5  25  1   
 12   6   8  1   
 13   7   9  ar  
 14   7  10  ar  
 15   8  11  1   
 16   8  26  1   
 17   9  12  ar  
 18   9  27  1   
 19  10  13  ar  
 20  10  28  1   
 21  11  14  2   
 22  11  15  am  
 23  12  16  ar  
 24  12  29  1   
 25  13  16  ar  
 26  13  30  1   
 27  15  17  1   
 28  15  31  1   
 29  16  32  1   
 30  17  18  1   
 31  17  19  1   
 32  17  20  1   
 33  18  21  1   
 34  18  33  1   
 35  18  34  1   
 36  19  35  1   
 37  19  36  1   
 38  19  37  1   
 39  20  38  1   
 40  20  39  1   
 41  20  40  1   
 42  21  41  1   
@<TRIPOS>SUBSTRUCTURE
  1 ****   8 GROUP 4 **** **** 0

# MOE 2024.06 (io_trps.svl 2023.06)
