@<TRIPOS>MOLECULE
NONAME
59 63 1 0 0 
SMALL
USER_CHARGES


@<TRIPOS>ATOM
  1 S       -0.4040    -4.8690    -1.4840 S.3   1 <1>  -0.0800 
  2 C       -1.2370    -5.0620    -3.0070 C.2   1 <1>   0.2280 
  3 C       -1.6270    -3.7330    -0.9980 C.2   1 <1>  -0.1100 
  4 N       -2.2930    -4.3620    -3.1240 N.2   1 <1>  -0.5650 
  5 C       -2.5230    -3.5940    -1.9910 C.2   1 <1>   0.0460 
  6 C       -3.7620    -2.7100    -2.0660 C.3   1 <1>   0.0210 
  7 C       -4.2320    -2.0120    -0.7620 C.3   1 <1>   0.0610 
  8 C       -4.4840    -3.0900     0.3040 C.2   1 <1>   0.5690 
  9 C       -3.2420    -0.8940    -0.3410 C.3   1 <1>   0.2200 
 10 C       -5.5080    -1.1630    -1.0700 C.3   1 <1>  -0.1600 
 11 O       -3.7190    -3.2440     1.2250 O.2   1 <1>  -0.5700 
 12 N       -5.5730    -3.8910     0.1780 N.am  1 <1>  -0.7300 
 13 N       -3.6410     0.1590    -1.2670 N.am  1 <1>  -0.6600 
 14 C       -3.6380    -0.1970     0.9760 C.3   1 <1>  -0.1600 
 15 C       -5.0380     0.2900    -0.9050 C.3   1 <1>   0.2200 
 16 C       -5.8720    -5.0340     1.0540 C.3   1 <1>   0.2840 
 17 C       -2.8490     0.8320    -2.1440 C.2   1 <1>   0.5690 
 18 C       -4.8980     0.5980     0.5880 C.3   1 <1>  -0.1600 
 19 C       -6.8010    -5.9600     0.2830 C.ar  1 <1>  -0.1430 
 20 O       -1.6830     0.5590    -2.2880 O.2   1 <1>  -0.5700 
 21 C       -3.4390     1.9470    -2.9710 C.3   1 <1>  -0.1790 
 22 C       -6.3290    -7.0970    -0.3780 C.ar  1 <1>  -0.0230 
 23 C       -8.1510    -5.6480     0.2290 C.ar  1 <1>  -0.1500 
 24 N       -4.9630    -7.4780    -0.3330 N.pl3 1 <1>   0.3260 
 25 C       -7.2250    -7.8880    -1.0900 C.ar  1 <1>  -0.1500 
 26 C       -9.0330    -6.4460    -0.4780 C.ar  1 <1>  -0.1500 
 27 C       -4.3860    -8.4760     0.3950 C.2   1 <1>   0.0060 
 28 C       -3.9230    -6.9180    -0.9880 C.2   1 <1>  -0.3020 
 29 C       -8.5680    -7.5660    -1.1410 C.ar  1 <1>  -0.1500 
 30 N       -3.1070    -8.5770     0.2430 N.2   1 <1>  -0.5650 
 31 C       -5.1800    -9.3870     1.3120 C.3   1 <1>  -0.0600 
 32 C       -2.8130    -7.5930    -0.6280 C.2   1 <1>   0.0770 
 33 H       -0.8070    -5.7440    -3.7170 H     1 <1>   0.1500 
 34 H       -1.5300    -3.2970    -0.0210 H     1 <1>   0.1500 
 35 H       -3.5790    -1.9750    -2.8300 H     1 <1>   0.0800 
 36 H       -4.5640    -3.3300    -2.4240 H     1 <1>   0.0800 
 37 H       -2.1980    -1.1500    -0.4070 H     1 <1>   0.0800 
 38 H       -6.3210    -1.3700    -0.3970 H     1 <1>   0.0800 
 39 H       -5.8580    -1.3130    -2.0760 H     1 <1>   0.0800 
 40 H       -6.1840    -3.8230    -0.6370 H     1 <1>   0.3700 
 41 H       -3.8190    -0.8730     1.7900 H     1 <1>   0.0800 
 42 H       -2.8490     0.4740     1.2680 H     1 <1>   0.0800 
 43 H       -5.5900     1.0210    -1.4720 H     1 <1>   0.0800 
 44 H       -4.9580    -5.5250     1.3440 H     1 <1>   0.0800 
 45 H       -6.3570    -4.6790     1.9470 H     1 <1>   0.0800 
 46 H       -4.7380     1.6520     0.7340 H     1 <1>   0.0800 
 47 H       -5.7650     0.2930     1.1480 H     1 <1>   0.0800 
 48 H       -4.2250     1.5610    -3.5910 H     1 <1>   0.0800 
 49 H       -2.6780     2.3740    -3.5970 H     1 <1>   0.0800 
 50 H       -3.8260     2.7100    -2.3240 H     1 <1>   0.0800 
 51 H       -8.5270    -4.7770     0.7390 H     1 <1>   0.1500 
 52 H       -6.8690    -8.7620    -1.6080 H     1 <1>   0.1500 
 53 H      -10.0790    -6.1950    -0.5140 H     1 <1>   0.1500 
 54 H       -4.0350    -6.0860    -1.6570 H     1 <1>   0.1500 
 55 H       -9.2520    -8.1870    -1.6940 H     1 <1>   0.1500 
 56 H       -4.5140   -10.0590     1.8240 H     1 <1>   0.0800 
 57 H       -5.8820    -9.9650     0.7400 H     1 <1>   0.0800 
 58 H       -5.7110    -8.8040     2.0420 H     1 <1>   0.0800 
 59 H       -1.8000    -7.4220    -0.9500 H     1 <1>   0.1500 
@<TRIPOS>BOND
  1   1   2  1   
  2   1   3  1   
  3   2   4  2   
  4   2  33  1   
  5   3   5  2   
  6   3  34  1   
  7   4   5  1   
  8   5   6  1   
  9   6   7  1   
 10   6  35  1   
 11   6  36  1   
 12   7   8  1   
 13   7   9  1   
 14   7  10  1   
 15   8  11  2   
 16   8  12  am  
 17   9  13  1   
 18   9  14  1   
 19   9  37  1   
 20  10  15  1   
 21  10  38  1   
 22  10  39  1   
 23  12  16  1   
 24  12  40  1   
 25  13  15  1   
 26  13  17  am  
 27  14  18  1   
 28  14  41  1   
 29  14  42  1   
 30  15  18  1   
 31  15  43  1   
 32  16  19  1   
 33  16  44  1   
 34  16  45  1   
 35  17  20  2   
 36  17  21  1   
 37  18  46  1   
 38  18  47  1   
 39  19  22  ar  
 40  19  23  ar  
 41  21  48  1   
 42  21  49  1   
 43  21  50  1   
 44  22  24  1   
 45  22  25  ar  
 46  23  26  ar  
 47  23  51  1   
 48  24  27  1   
 49  24  28  1   
 50  25  29  ar  
 51  25  52  1   
 52  26  29  ar  
 53  26  53  1   
 54  27  30  2   
 55  27  31  1   
 56  28  32  2   
 57  28  54  1   
 58  29  55  1   
 59  30  32  1   
 60  31  56  1   
 61  31  57  1   
 62  31  58  1   
 63  32  59  1   
@<TRIPOS>SUBSTRUCTURE
  1 ****   8 GROUP 4 **** **** 0

# MOE 2024.06 (io_trps.svl 2023.06)
