@<TRIPOS>MOLECULE
NONAME
60 63 1 0 0 
SMALL
USER_CHARGES


@<TRIPOS>ATOM
  1 O       -0.6990     0.8740     0.7060 O.2   1 <1>  -0.5700 
  2 C       -1.6670     1.3580     0.1500 C.2   1 <1>   0.5440 
  3 N       -2.8120     0.5940     0.0390 N.am  1 <1>  -0.6600 
  4 C       -1.5740     2.7090    -0.3710 C.ar  1 <1>   0.0860 
  5 C       -2.8290    -0.8160     0.5600 C.3   1 <1>   0.1400 
  6 C       -4.1020     1.1290    -0.5110 C.3   1 <1>   0.1400 
  7 C       -1.2270     3.7680     0.4670 C.ar  1 <1>  -0.1500 
  8 C       -1.8060     2.9990    -1.7150 C.ar  1 <1>  -0.1500 
  9 C       -3.8930    -1.6230    -0.2040 C.3   1 <1>   0.4230 
 10 C       -5.3160     0.4610     0.1500 C.3   1 <1>  -0.1600 
 11 C       -1.1260     5.0680    -0.0030 C.ar  1 <1>  -0.1440 
 12 C       -1.7140     4.2920    -2.1960 C.ar  1 <1>  -0.1500 
 13 N       -3.8380    -3.1180    -0.0830 N.4   1 <1>  -0.9590 
 14 C       -5.2970    -1.1010     0.1590 C.3   1 <1>  -0.1060 
 15 C       -1.3780     5.3250    -1.3410 C.ar  1 <1>  -0.1500 
 16 C       -0.7360     6.2070     0.9380 C.3   1 <1>   0.2390 
 17 C       -4.7690    -3.7710    -1.0430 C.3   1 <1>   0.3430 
 18 C       -2.4770    -3.7160    -0.0930 C.3   1 <1>   0.2630 
 19 C       -5.7120    -1.5860     1.5610 C.2   1 <1>   0.9060 
 20 C       -6.2660    -1.6810    -0.8980 C.3   1 <1>  -0.1600 
 21 N        0.4110     6.9880     0.4200 N.pl3 1 <1>   0.3140 
 22 C       -6.1960    -3.2210    -0.9080 C.3   1 <1>  -0.1600 
 23 O       -6.7790    -1.1920     2.0290 O.co2 1 <1>  -0.9000 
 24 O       -5.0050    -2.4120     2.1590 O.co2 1 <1>  -0.9000 
 25 N        0.2750     8.2920     0.1050 N.2   1 <1>  -0.7070 
 26 C        1.6840     6.5690     0.2220 C.2   1 <1>  -0.3320 
 27 C        1.4510     8.6670    -0.2850 C.2   1 <1>   0.1080 
 28 C        2.3770     7.6330    -0.2340 C.2   1 <1>  -0.1500 
 29 C        2.1910     5.1570     0.4710 C.3   1 <1>  -0.0600 
 30 C        1.7420    10.0790    -0.7370 C.3   1 <1>  -0.0590 
 31 H       -1.8560    -1.2460     0.4130 H     1 <1>   0.0800 
 32 H       -3.0470    -0.8030     1.6150 H     1 <1>   0.0800 
 33 H       -4.1600     2.1920    -0.3450 H     1 <1>   0.0800 
 34 H       -4.1300     0.9540    -1.5730 H     1 <1>   0.0800 
 35 H       -1.0320     3.5470     1.5030 H     1 <1>   0.1500 
 36 H       -2.0530     2.1990    -2.3890 H     1 <1>   0.1500 
 37 H       -3.7250    -1.3950    -1.2410 H     1 <1>   0.0800 
 38 H       -5.3460     0.8190     1.1670 H     1 <1>   0.0800 
 39 H       -6.2210     0.8180    -0.3100 H     1 <1>   0.0800 
 40 H       -1.8970     4.5000    -3.2370 H     1 <1>   0.1500 
 41 H       -4.2430    -3.2470     0.8850 H     1 <1>   0.4500 
 42 H       -1.3010     6.3320    -1.7220 H     1 <1>   0.1500 
 43 H       -0.4680     5.8260     1.9040 H     1 <1>   0.0800 
 44 H       -1.5690     6.8750     1.0560 H     1 <1>   0.0800 
 45 H       -4.4190    -3.5980    -2.0470 H     1 <1>   0.0800 
 46 H       -4.7840    -4.8350    -0.8680 H     1 <1>   0.0800 
 47 H       -1.9790    -3.5000    -1.0230 H     1 <1>   0.0800 
 48 H       -2.5420    -4.7840     0.0330 H     1 <1>   0.0800 
 49 H       -1.8920    -3.3160     0.7200 H     1 <1>   0.0800 
 50 H       -7.2740    -1.3770    -0.6650 H     1 <1>   0.0800 
 51 H       -6.0220    -1.2980    -1.8740 H     1 <1>   0.0800 
 52 H       -6.7970    -3.6000    -1.7150 H     1 <1>   0.0800 
 53 H       -6.6250    -3.6030     0.0040 H     1 <1>   0.0800 
 54 H        3.4150     7.6970    -0.5070 H     1 <1>   0.1500 
 55 H        3.2470     5.1040     0.2770 H     1 <1>   0.0800 
 56 H        1.6910     4.4620    -0.1800 H     1 <1>   0.0800 
 57 H        2.0160     4.8700     1.4930 H     1 <1>   0.0800 
 58 H        2.7730    10.1780    -1.0200 H     1 <1>   0.0800 
 59 H        1.5260    10.7610     0.0640 H     1 <1>   0.0800 
 60 H        1.1190    10.3200    -1.5780 H     1 <1>   0.0800 
@<TRIPOS>BOND
  1   1   2  2   
  2   2   3  am  
  3   2   4  1   
  4   3   5  1   
  5   3   6  1   
  6   4   7  ar  
  7   4   8  ar  
  8   5   9  1   
  9   5  31  1   
 10   5  32  1   
 11   6  10  1   
 12   6  33  1   
 13   6  34  1   
 14   7  11  ar  
 15   7  35  1   
 16   8  12  ar  
 17   8  36  1   
 18   9  13  1   
 19   9  14  1   
 20   9  37  1   
 21  10  14  1   
 22  10  38  1   
 23  10  39  1   
 24  11  15  ar  
 25  11  16  1   
 26  12  15  ar  
 27  12  40  1   
 28  13  17  1   
 29  13  18  1   
 30  13  41  1   
 31  14  19  1   
 32  14  20  1   
 33  15  42  1   
 34  16  21  1   
 35  16  43  1   
 36  16  44  1   
 37  17  22  1   
 38  17  45  1   
 39  17  46  1   
 40  18  47  1   
 41  18  48  1   
 42  18  49  1   
 43  19  23  ar  
 44  19  24  ar  
 45  20  22  1   
 46  20  50  1   
 47  20  51  1   
 48  21  25  1   
 49  21  26  1   
 50  22  52  1   
 51  22  53  1   
 52  25  27  2   
 53  26  28  2   
 54  26  29  1   
 55  27  28  1   
 56  27  30  1   
 57  28  54  1   
 58  29  55  1   
 59  29  56  1   
 60  29  57  1   
 61  30  58  1   
 62  30  59  1   
 63  30  60  1   
@<TRIPOS>SUBSTRUCTURE
  1 ****   4 GROUP 4 **** **** 0

# MOE 2024.06 (io_trps.svl 2023.06)
