@<TRIPOS>MOLECULE
NONAME
50 51 1 0 0 
SMALL
USER_CHARGES


@<TRIPOS>ATOM
  1 F       -0.4550     0.1540     0.8860 F     1 <1>  -0.1900 
  2 C       -1.6980     0.4890     0.6530 C.ar  1 <1>   0.1900 
  3 C       -2.0360     1.5510    -0.1940 C.ar  1 <1>   0.0830 
  4 C       -2.6660    -0.2610     1.2930 C.ar  1 <1>  -0.1500 
  5 O       -1.1770     2.3620    -0.8770 O.3   1 <1>  -0.3630 
  6 C       -3.3810     1.8270    -0.3720 C.ar  1 <1>  -0.1500 
  7 C       -4.0000     0.0430     1.0930 C.ar  1 <1>  -0.1500 
  8 C        0.2240     2.2010    -0.8440 C.3   1 <1>   0.0400 
  9 C       -4.3870     1.0880     0.2530 C.ar  1 <1>   0.0530 
 10 C       -5.7720     1.4220     0.0420 C.2   1 <1>   0.0870 
 11 O       -6.1380     2.6770     0.1140 O.3   1 <1>  -0.0190 
 12 C       -6.8900     0.6970    -0.2450 C.2   1 <1>  -0.0860 
 13 N       -7.4150     2.8510    -0.0890 N.2   1 <1>  -0.4100 
 14 C       -7.8920     1.6770    -0.3060 C.2   1 <1>   0.3720 
 15 C       -7.0720    -0.7080    -0.4640 C.2   1 <1>   0.7160 
 16 N       -9.2540     1.4540    -0.5630 N.pl3 1 <1>  -0.8210 
 17 O       -6.1810    -1.5100    -0.2610 O.2   1 <1>  -0.5700 
 18 N       -8.2730    -1.1820    -0.8900 N.am  1 <1>  -0.7300 
 19 C       -9.7140     2.1060    -1.8210 C.3   1 <1>   0.1290 
 20 C      -10.1270     1.8290     0.5850 C.3   1 <1>   0.1290 
 21 C       -8.6650    -2.6080    -1.0330 C.3   1 <1>   0.1400 
 22 C       -9.0720    -3.2230     0.3160 C.3   1 <1>   0.2000 
 23 O       -9.4960    -4.5260     0.0630 O.3   1 <1>  -0.5600 
 24 C      -10.2290    -2.4770     0.9900 C.3   1 <1>  -0.2400 
 25 C       -9.2260    -5.4430     1.0700 C.3   1 <1>   0.1200 
 26 C       -9.7880    -6.7870     0.6270 C.3   1 <1>  -0.2400 
 27 H       -2.3780    -1.0720     1.9380 H     1 <1>   0.1500 
 28 H       -3.6560     2.6410    -1.0190 H     1 <1>   0.1500 
 29 H       -4.7540    -0.5390     1.5940 H     1 <1>   0.1500 
 30 H        0.6610     2.9490    -1.4800 H     1 <1>   0.0800 
 31 H        0.4720     1.2210    -1.2100 H     1 <1>   0.0800 
 32 H        0.5680     2.3350     0.1660 H     1 <1>   0.0800 
 33 H       -9.0240    -0.4760    -0.9320 H     1 <1>   0.3700 
 34 H       -9.0530     1.8460    -2.6300 H     1 <1>   0.0800 
 35 H       -9.7140     3.1780    -1.7060 H     1 <1>   0.0800 
 36 H      -10.7090     1.7760    -2.0660 H     1 <1>   0.0800 
 37 H       -9.7460     1.3900     1.4910 H     1 <1>   0.0800 
 38 H      -11.1270     1.4690     0.4200 H     1 <1>   0.0800 
 39 H      -10.1480     2.8990     0.7020 H     1 <1>   0.0800 
 40 H       -7.8330    -3.1630    -1.4310 H     1 <1>   0.0800 
 41 H       -9.4880    -2.6780    -1.7220 H     1 <1>   0.0800 
 42 H       -8.2050    -3.2500     0.9550 H     1 <1>   0.0800 
 43 H      -11.0840    -2.4550     0.3380 H     1 <1>   0.0800 
 44 H       -9.9390    -1.4670     1.2130 H     1 <1>   0.0800 
 45 H      -10.4990    -2.9550     1.9140 H     1 <1>   0.0800 
 46 H       -9.6970    -5.1180     1.9820 H     1 <1>   0.0800 
 47 H       -8.1590    -5.5050     1.2070 H     1 <1>   0.0800 
 48 H      -10.8500    -6.7110     0.4790 H     1 <1>   0.0800 
 49 H       -9.5980    -7.5300     1.3800 H     1 <1>   0.0800 
 50 H       -9.3200    -7.0980    -0.2900 H     1 <1>   0.0800 
@<TRIPOS>BOND
  1   1   2  1   
  2   2   3  ar  
  3   2   4  ar  
  4   3   5  1   
  5   3   6  ar  
  6   4   7  ar  
  7   4  27  1   
  8   5   8  1   
  9   6   9  ar  
 10   6  28  1   
 11   7   9  ar  
 12   7  29  1   
 13   8  30  1   
 14   8  31  1   
 15   8  32  1   
 16   9  10  1   
 17  10  11  1   
 18  10  12  2   
 19  11  13  1   
 20  12  14  1   
 21  12  15  1   
 22  13  14  2   
 23  14  16  1   
 24  15  17  2   
 25  15  18  am  
 26  16  19  1   
 27  16  20  1   
 28  18  21  1   
 29  18  33  1   
 30  19  34  1   
 31  19  35  1   
 32  19  36  1   
 33  20  37  1   
 34  20  38  1   
 35  20  39  1   
 36  21  22  1   
 37  21  40  1   
 38  21  41  1   
 39  22  23  1   
 40  22  24  1   
 41  22  42  1   
 42  23  25  1   
 43  24  43  1   
 44  24  44  1   
 45  24  45  1   
 46  25  26  1   
 47  25  46  1   
 48  25  47  1   
 49  26  48  1   
 50  26  49  1   
 51  26  50  1   
@<TRIPOS>SUBSTRUCTURE
  1 ****  15 GROUP 4 **** **** 0

# MOE 2024.06 (io_trps.svl 2023.06)
