@<TRIPOS>MOLECULE
NONAME
52 54 1 0 0 
SMALL
USER_CHARGES


@<TRIPOS>ATOM
  1 O        0.2840    -2.3050     1.2790 O.2   1 <1>  -0.5700 
  2 C       -0.6220    -1.9820     0.5240 C.2   1 <1>   0.5440 
  3 N       -0.3500    -0.9800    -0.4020 N.am  1 <1>  -0.6600 
  4 C       -1.9100    -2.6840     0.6230 C.ar  1 <1>   0.3960 
  5 C        0.8720    -0.1330    -0.3140 C.3   1 <1>   0.0600 
  6 C       -1.2370    -0.6650    -1.5550 C.3   1 <1>   0.0600 
  7 N       -3.0620    -2.0350     0.3840 N.ar  1 <1>  -0.6200 
  8 C       -1.9000    -4.0330     0.9810 C.ar  1 <1>  -0.1500 
  9 C       -4.1920    -2.7160     0.4980 C.ar  1 <1>   0.4100 
 10 C       -3.0720    -4.7490     1.0910 C.ar  1 <1>  -0.1500 
 11 N       -5.3710    -2.0300     0.2560 N.pl3 1 <1>  -0.8380 
 12 C       -4.2330    -4.0650     0.8380 C.ar  1 <1>  -0.1500 
 13 C       -6.5050    -2.1650     1.2190 C.3   1 <1>   0.2090 
 14 C       -5.3430    -0.7890    -0.5720 C.3   1 <1>   0.2090 
 15 C       -7.1200    -0.8000     1.5330 C.3   1 <1>  -0.1600 
 16 C       -6.7720    -0.4310    -0.9700 C.3   1 <1>  -0.1600 
 17 C       -7.6300    -0.0720     0.2670 C.3   1 <1>   0.2800 
 18 O       -7.3780     1.2970     0.5030 O.3   1 <1>  -0.5600 
 19 C       -9.1540    -0.3500     0.0470 C.3   1 <1>   0.2000 
 20 C       -8.4190     2.2260     0.4010 C.3   1 <1>   0.1200 
 21 O       -9.3950    -1.6960    -0.2730 O.3   1 <1>  -0.6800 
 22 C       -9.8280     0.6380    -0.9590 C.3   1 <1>   0.2800 
 23 C       -9.1500     2.0180    -0.9240 C.3   1 <1>  -0.1600 
 24 O      -11.1320     0.8280    -0.5430 O.3   1 <1>  -0.6800 
 25 C       -9.9320     0.1270    -2.4040 C.3   1 <1>  -0.2400 
 26 H        0.6080     0.9020    -0.4390 H     1 <1>   0.0800 
 27 H        1.5660    -0.4200    -1.0840 H     1 <1>   0.0800 
 28 H        1.3490    -0.2480     0.6440 H     1 <1>   0.0800 
 29 H       -0.6540    -0.3090    -2.3860 H     1 <1>   0.0800 
 30 H       -1.9450     0.0920    -1.2650 H     1 <1>   0.0800 
 31 H       -1.7720    -1.5450    -1.8670 H     1 <1>   0.0800 
 32 H       -0.9590    -4.5160     1.1730 H     1 <1>   0.1500 
 33 H       -3.0730    -5.7910     1.3600 H     1 <1>   0.1500 
 34 H       -5.1820    -4.5620     0.8930 H     1 <1>   0.1500 
 35 H       -7.2520    -2.8130     0.7930 H     1 <1>   0.0800 
 36 H       -6.1540    -2.6100     2.1350 H     1 <1>   0.0800 
 37 H       -4.8970     0.0140    -0.0090 H     1 <1>   0.0800 
 38 H       -4.7470    -0.9630    -1.4510 H     1 <1>   0.0800 
 39 H       -6.3620    -0.2090     2.0160 H     1 <1>   0.0800 
 40 H       -7.9200    -0.9330     2.2360 H     1 <1>   0.0800 
 41 H       -7.1740    -1.2830    -1.4840 H     1 <1>   0.0800 
 42 H       -6.7540     0.3890    -1.6610 H     1 <1>   0.0800 
 43 H       -9.6290    -0.1970     1.0010 H     1 <1>   0.0800 
 44 H       -9.0810     2.1020     1.2430 H     1 <1>   0.0800 
 45 H       -7.9820     3.2090     0.4450 H     1 <1>   0.0800 
 46 H       -9.2360    -1.8460    -1.2230 H     1 <1>   0.4000 
 47 H       -8.4230     2.1010    -1.7110 H     1 <1>   0.0800 
 48 H       -9.8710     2.8020    -1.0730 H     1 <1>   0.0800 
 49 H      -11.6370     1.2950    -1.2340 H     1 <1>   0.4000 
 50 H       -8.9570    -0.1010    -2.7930 H     1 <1>   0.0800 
 51 H      -10.3710     0.8770    -3.0380 H     1 <1>   0.0800 
 52 H      -10.5360    -0.7620    -2.4520 H     1 <1>   0.0800 
@<TRIPOS>BOND
  1   1   2  2   
  2   2   3  am  
  3   2   4  1   
  4   3   5  1   
  5   3   6  1   
  6   4   7  ar  
  7   4   8  ar  
  8   5  26  1   
  9   5  27  1   
 10   5  28  1   
 11   6  29  1   
 12   6  30  1   
 13   6  31  1   
 14   7   9  ar  
 15   8  10  ar  
 16   8  32  1   
 17   9  11  1   
 18   9  12  ar  
 19  10  12  ar  
 20  10  33  1   
 21  11  13  1   
 22  11  14  1   
 23  12  34  1   
 24  13  15  1   
 25  13  35  1   
 26  13  36  1   
 27  14  16  1   
 28  14  37  1   
 29  14  38  1   
 30  15  17  1   
 31  15  39  1   
 32  15  40  1   
 33  16  17  1   
 34  16  41  1   
 35  16  42  1   
 36  17  18  1   
 37  17  19  1   
 38  18  20  1   
 39  19  21  1   
 40  19  22  1   
 41  19  43  1   
 42  20  23  1   
 43  20  44  1   
 44  20  45  1   
 45  21  46  1   
 46  22  23  1   
 47  22  24  1   
 48  22  25  1   
 49  23  47  1   
 50  23  48  1   
 51  24  49  1   
 52  25  50  1   
 53  25  51  1   
 54  25  52  1   
@<TRIPOS>SUBSTRUCTURE
  1 ****  14 GROUP 4 **** **** 0

# MOE 2024.06 (io_trps.svl 2023.06)
