@<TRIPOS>MOLECULE
NONAME
60 63 1 0 0 
SMALL
USER_CHARGES


@<TRIPOS>ATOM
  1 O        5.2420     2.9260     1.1030 O.co2 1 <1>  -0.9000 
  2 C        4.8970     1.7920     0.7530 C.2   1 <1>   0.9060 
  3 O        5.5500     0.8100     1.1510 O.co2 1 <1>  -0.9000 
  4 C        3.6520     1.5720    -0.1430 C.3   1 <1>  -0.1060 
  5 C        3.7290     0.1540    -0.7600 C.3   1 <1>   0.4230 
  6 C        3.5650     2.6060    -1.3180 C.3   1 <1>  -0.1600 
  7 C        2.3740     1.6990     0.7220 C.3   1 <1>  -0.1600 
  8 N        3.6760    -0.8880     0.3280 N.4   1 <1>  -0.9590 
  9 C        4.9710     0.0100    -1.7020 C.3   1 <1>   0.2090 
 10 C        4.3010     2.1920    -2.6120 C.3   1 <1>   0.2090 
 11 C        2.3030     0.5870     1.7770 C.3   1 <1>  -0.1600 
 12 C        2.4400    -0.8020     1.1530 C.3   1 <1>   0.3430 
 13 C        3.9420    -2.2880    -0.1060 C.3   1 <1>   0.2630 
 14 N        5.4620     1.3320    -2.2450 N.pl3 1 <1>  -0.8380 
 15 C        6.6100     1.9260    -1.7840 C.ar  1 <1>   0.4100 
 16 N        6.6880     3.2410    -1.8510 N.ar  1 <1>  -0.6200 
 17 C        7.5660     1.1960    -1.0500 C.ar  1 <1>  -0.1500 
 18 C        7.2540     3.8320    -0.8070 C.ar  1 <1>   0.7710 
 19 C        8.2080     1.8270    -0.0380 C.ar  1 <1>   0.2180 
 20 N        7.9610     3.1470     0.1060 N.ar  1 <1>  -0.1790 
 21 N        7.1180     5.1700    -0.6430 N.pl3 1 <1>  -0.8380 
 22 C        9.1400     1.1330     0.9430 C.3   1 <1>  -0.0170 
 23 C        6.7750     6.0710    -1.7910 C.3   1 <1>   0.2090 
 24 C        6.6550     5.7430     0.6680 C.3   1 <1>   0.2090 
 25 C       10.5740     1.6740     0.8680 C.3   1 <1>  -0.2400 
 26 C        5.2960     6.4910    -1.7390 C.3   1 <1>   0.1200 
 27 C        5.1830     6.1880     0.5820 C.3   1 <1>   0.1200 
 28 O        4.9890     7.0610    -0.4980 O.3   1 <1>  -0.5600 
 29 H        2.8570     0.0300    -1.3770 H     1 <1>   0.0800 
 30 H        3.9610     3.5490    -0.9870 H     1 <1>   0.0800 
 31 H        2.5410     2.7940    -1.5860 H     1 <1>   0.0800 
 32 H        2.3700     2.6590     1.2140 H     1 <1>   0.0800 
 33 H        1.4960     1.6440     0.1010 H     1 <1>   0.0800 
 34 H        4.4660    -0.5590     0.9460 H     1 <1>   0.4500 
 35 H        4.7100    -0.6210    -2.5320 H     1 <1>   0.0800 
 36 H        5.7490    -0.4790    -1.1520 H     1 <1>   0.0800 
 37 H        4.6160     3.0620    -3.1660 H     1 <1>   0.0800 
 38 H        3.6400     1.6330    -3.2520 H     1 <1>   0.0800 
 39 H        1.3630     0.6480     2.2960 H     1 <1>   0.0800 
 40 H        3.0800     0.7230     2.5110 H     1 <1>   0.0800 
 41 H        1.5800    -1.0030     0.5360 H     1 <1>   0.0800 
 42 H        2.4740    -1.5380     1.9390 H     1 <1>   0.0800 
 43 H        3.1850    -2.6150    -0.8000 H     1 <1>   0.0800 
 44 H        3.9390    -2.9460     0.7480 H     1 <1>   0.0800 
 45 H        4.9070    -2.3590    -0.5810 H     1 <1>   0.0800 
 46 H        7.7200     0.1580    -1.2580 H     1 <1>   0.1500 
 47 H        8.2310     3.6660     0.9260 H     1 <1>   0.4570 
 48 H        8.7510     1.2540     1.9400 H     1 <1>   0.0800 
 49 H        9.1510     0.0770     0.7350 H     1 <1>   0.0800 
 50 H        7.3890     6.9540    -1.7450 H     1 <1>   0.0800 
 51 H        6.9760     5.5860    -2.7310 H     1 <1>   0.0800 
 52 H        6.7330     5.0170     1.4590 H     1 <1>   0.0800 
 53 H        7.2640     6.5920     0.9270 H     1 <1>   0.0800 
 54 H       10.6130     2.7140     1.1370 H     1 <1>   0.0800 
 55 H       10.9670     1.5560    -0.1270 H     1 <1>   0.0800 
 56 H       11.2050     1.1270     1.5470 H     1 <1>   0.0800 
 57 H        4.6570     5.6410    -1.8990 H     1 <1>   0.0800 
 58 H        5.0920     7.2260    -2.4970 H     1 <1>   0.0800 
 59 H        4.8990     6.7050     1.4800 H     1 <1>   0.0800 
 60 H        4.5390     5.3340     0.4620 H     1 <1>   0.0800 
@<TRIPOS>BOND
  1   1   2  ar  
  2   2   3  ar  
  3   2   4  1   
  4   4   5  1   
  5   4   6  1   
  6   4   7  1   
  7   5   8  1   
  8   5   9  1   
  9   5  29  1   
 10   6  10  1   
 11   6  30  1   
 12   6  31  1   
 13   7  11  1   
 14   7  32  1   
 15   7  33  1   
 16   8  12  1   
 17   8  13  1   
 18   8  34  1   
 19   9  14  1   
 20   9  35  1   
 21   9  36  1   
 22  10  14  1   
 23  10  37  1   
 24  10  38  1   
 25  11  12  1   
 26  11  39  1   
 27  11  40  1   
 28  12  41  1   
 29  12  42  1   
 30  13  43  1   
 31  13  44  1   
 32  13  45  1   
 33  14  15  1   
 34  15  16  ar  
 35  15  17  ar  
 36  16  18  ar  
 37  17  19  ar  
 38  17  46  1   
 39  18  20  ar  
 40  18  21  1   
 41  19  20  ar  
 42  19  22  1   
 43  20  47  1   
 44  21  23  1   
 45  21  24  1   
 46  22  25  1   
 47  22  48  1   
 48  22  49  1   
 49  23  26  1   
 50  23  50  1   
 51  23  51  1   
 52  24  27  1   
 53  24  52  1   
 54  24  53  1   
 55  25  54  1   
 56  25  55  1   
 57  25  56  1   
 58  26  28  1   
 59  26  57  1   
 60  26  58  1   
 61  27  28  1   
 62  27  59  1   
 63  27  60  1   
@<TRIPOS>SUBSTRUCTURE
  1 ****   2 GROUP 4 **** **** 0

# MOE 2024.06 (io_trps.svl 2023.06)
