@<TRIPOS>MOLECULE
NONAME
45 47 1 0 0 
SMALL
USER_CHARGES


@<TRIPOS>ATOM
  1 O       -2.4260    -0.5260     1.0130 O.2   1 <1>  -0.5700 
  2 C       -2.5300     0.3990     0.2100 C.2   1 <1>   0.6160 
  3 N       -2.0500     1.6590     0.5820 N.am  1 <1>  -0.4690 
  4 C       -3.1390     0.2240    -1.0830 C.2   1 <1>   0.0290 
  5 C       -2.2070     2.7450    -0.2580 C.2   1 <1>  -0.0290 
  6 C       -1.3880     1.8270     1.9150 C.3   1 <1>   0.0600 
  7 C       -3.6110    -1.0710    -1.5240 C.2   1 <1>   0.6160 
  8 C       -3.2620     1.3290    -1.8890 C.2   1 <1>  -0.1500 
  9 C       -2.8000     2.5880    -1.4730 C.2   1 <1>  -0.1500 
 10 C       -1.7180     4.1200     0.1780 C.3   1 <1>  -0.1020 
 11 O       -4.2660    -1.1660    -2.5470 O.2   1 <1>  -0.5700 
 12 N       -3.3550    -2.2280    -0.8480 N.am  1 <1>  -0.7300 
 13 C       -3.8240    -3.5830    -1.2160 C.3   1 <1>   0.2200 
 14 C       -4.9960    -3.9650    -0.3280 C.3   1 <1>  -0.0800 
 15 C       -2.7670    -4.6240    -0.8400 C.3   1 <1>   0.1200 
 16 C       -4.2730    -4.5210     0.8980 C.3   1 <1>   0.1200 
 17 C       -5.8910    -5.0180    -1.0070 C.3   1 <1>  -0.0170 
 18 O       -3.1150    -5.1330     0.4170 O.3   1 <1>  -0.5600 
 19 C       -7.0640    -5.4150    -0.1230 C.ar  1 <1>  -0.1430 
 20 C       -8.1650    -4.5990     0.0330 C.ar  1 <1>  -0.1500 
 21 C       -7.0900    -6.6110     0.5660 C.ar  1 <1>  -0.1500 
 22 C       -9.2090    -5.0050     0.8480 C.ar  1 <1>   0.1600 
 23 C       -8.1840    -6.9220     1.3560 C.ar  1 <1>   0.1600 
 24 N       -9.2450    -6.1480     1.5150 N.ar  1 <1>  -0.6200 
 25 H       -0.4750     2.3830     1.8060 H     1 <1>   0.0800 
 26 H       -1.1380     0.8780     2.3570 H     1 <1>   0.0800 
 27 H       -2.0500     2.3510     2.5800 H     1 <1>   0.0800 
 28 H       -3.7160     1.2540    -2.8640 H     1 <1>   0.1500 
 29 H       -2.9320     3.4190    -2.1440 H     1 <1>   0.1500 
 30 H       -2.1850     4.4050     1.1040 H     1 <1>   0.0800 
 31 H       -1.9620     4.8630    -0.5600 H     1 <1>   0.0800 
 32 H       -0.6510     4.1140     0.3030 H     1 <1>   0.0800 
 33 H       -2.8960    -2.1410     0.0700 H     1 <1>   0.3700 
 34 H       -4.0620    -3.6190    -2.2660 H     1 <1>   0.0800 
 35 H       -5.5930    -3.1070    -0.0720 H     1 <1>   0.0800 
 36 H       -1.7780    -4.2040    -0.7930 H     1 <1>   0.0800 
 37 H       -2.7820    -5.4450    -1.5340 H     1 <1>   0.0800 
 38 H       -4.8530    -5.2380     1.4510 H     1 <1>   0.0800 
 39 H       -3.9700    -3.7220     1.5540 H     1 <1>   0.0800 
 40 H       -5.3140    -5.8930    -1.2520 H     1 <1>   0.0800 
 41 H       -6.2760    -4.6160    -1.9280 H     1 <1>   0.0800 
 42 H       -8.2210    -3.6510    -0.4720 H     1 <1>   0.1500 
 43 H       -6.2700    -7.3020     0.4970 H     1 <1>   0.1500 
 44 H      -10.0600    -4.3540     0.9580 H     1 <1>   0.1500 
 45 H       -8.1850    -7.8590     1.8870 H     1 <1>   0.1500 
@<TRIPOS>BOND
  1   1   2  2   
  2   2   3  am  
  3   2   4  1   
  4   3   5  1   
  5   3   6  1   
  6   4   7  1   
  7   4   8  2   
  8   5   9  2   
  9   5  10  1   
 10   6  25  1   
 11   6  26  1   
 12   6  27  1   
 13   7  11  2   
 14   7  12  am  
 15   8   9  1   
 16   8  28  1   
 17   9  29  1   
 18  10  30  1   
 19  10  31  1   
 20  10  32  1   
 21  12  13  1   
 22  12  33  1   
 23  13  14  1   
 24  13  15  1   
 25  13  34  1   
 26  14  16  1   
 27  14  17  1   
 28  14  35  1   
 29  15  18  1   
 30  15  36  1   
 31  15  37  1   
 32  16  18  1   
 33  16  38  1   
 34  16  39  1   
 35  17  19  1   
 36  17  40  1   
 37  17  41  1   
 38  19  20  ar  
 39  19  21  ar  
 40  20  22  ar  
 41  20  42  1   
 42  21  23  ar  
 43  21  43  1   
 44  22  24  ar  
 45  22  44  1   
 46  23  24  ar  
 47  23  45  1   
@<TRIPOS>SUBSTRUCTURE
  1 ****  12 GROUP 4 **** **** 0

# MOE 2024.06 (io_trps.svl 2023.06)
