@<TRIPOS>MOLECULE
NONAME
47 49 1 0 0 
SMALL
USER_CHARGES


@<TRIPOS>ATOM
  1 S        1.4080    -0.0140    -0.8800 S.3   1 <1>  -0.0800 
  2 C        2.9570     0.7490    -0.6400 C.2   1 <1>   0.2280 
  3 C        0.6450     1.4980    -0.5180 C.2   1 <1>  -0.1100 
  4 N        2.8990     1.9820    -0.3230 N.2   1 <1>  -0.5650 
  5 C        1.5670     2.4480    -0.2410 C.2   1 <1>   0.1410 
  6 C        1.2200     3.8350     0.0810 C.2   1 <1>   0.7160 
  7 O        0.1430     4.2560    -0.2960 O.2   1 <1>  -0.5700 
  8 N        2.0400     4.7120     0.7880 N.am  1 <1>  -0.6600 
  9 C        3.2210     4.2640     1.5810 C.3   1 <1>   0.1400 
 10 C        1.6560     6.1450     0.9520 C.3   1 <1>   0.1400 
 11 C        4.5160     4.3740     0.7510 C.3   1 <1>   0.3430 
 12 C        2.8540     7.0880     0.7980 C.3   1 <1>  -0.1600 
 13 N        4.9350     5.7810     0.4240 N.4   1 <1>  -0.9590 
 14 C        3.8760     6.6100    -0.2340 C.3   1 <1>   0.3430 
 15 C        6.1550     5.7710    -0.4100 C.3   1 <1>   0.5230 
 16 C        6.8100     7.1160    -0.2110 C.2   1 <1>  -0.3320 
 17 N        7.6550     7.4170     0.8190 N.pl3 1 <1>   0.0480 
 18 C        6.6750     8.2090    -1.0040 C.2   1 <1>  -0.1500 
 19 C        8.0220     8.7080     0.6640 C.2   1 <1>  -0.3020 
 20 C        8.1550     6.5270     1.8860 C.3   1 <1>   0.0160 
 21 C        7.4390     9.2540    -0.4530 C.2   1 <1>  -0.0860 
 22 C        7.5310    10.5790    -1.0070 C.2   1 <1>   0.5950 
 23 O        6.8870    10.9360    -1.9610 O.2   1 <1>  -0.5700 
 24 C        8.4650    11.5810    -0.3660 C.3   1 <1>  -0.1790 
 25 H        3.8250     0.1270    -0.7780 H     1 <1>   0.1500 
 26 H       -0.4300     1.5460    -0.5490 H     1 <1>   0.1500 
 27 H        3.0810     3.2400     1.8840 H     1 <1>   0.0800 
 28 H        3.3060     4.8440     2.4830 H     1 <1>   0.0800 
 29 H        1.1940     6.2850     1.9150 H     1 <1>   0.0800 
 30 H        0.9250     6.4120     0.2060 H     1 <1>   0.0800 
 31 H        4.3750     3.8230    -0.1640 H     1 <1>   0.0800 
 32 H        5.3060     3.8890     1.2990 H     1 <1>   0.0800 
 33 H        3.3220     7.2620     1.7500 H     1 <1>   0.0800 
 34 H        2.4670     8.0370     0.4720 H     1 <1>   0.0800 
 35 H        5.2010     6.2820     1.2780 H     1 <1>   0.4500 
 36 H        4.3300     7.4820    -0.6760 H     1 <1>   0.0800 
 37 H        3.3860     6.0540    -1.0180 H     1 <1>   0.0800 
 38 H        5.9000     5.6240    -1.4480 H     1 <1>   0.0800 
 39 H        6.8290     4.9880    -0.1030 H     1 <1>   0.0800 
 40 H        6.1020     8.3260    -1.9110 H     1 <1>   0.1500 
 41 H        8.6920     9.1990     1.3490 H     1 <1>   0.1500 
 42 H        7.3420     6.2200     2.5170 H     1 <1>   0.0800 
 43 H        8.8810     7.0530     2.4810 H     1 <1>   0.0800 
 44 H        8.6260     5.6670     1.4460 H     1 <1>   0.0800 
 45 H        9.4560    11.1710    -0.3130 H     1 <1>   0.0800 
 46 H        8.1190    11.8170     0.6220 H     1 <1>   0.0800 
 47 H        8.4910    12.4810    -0.9520 H     1 <1>   0.0800 
@<TRIPOS>BOND
  1   1   2  1   
  2   1   3  1   
  3   2   4  2   
  4   2  25  1   
  5   3   5  2   
  6   3  26  1   
  7   4   5  1   
  8   5   6  1   
  9   6   7  2   
 10   6   8  am  
 11   8   9  1   
 12   8  10  1   
 13   9  11  1   
 14   9  27  1   
 15   9  28  1   
 16  10  12  1   
 17  10  29  1   
 18  10  30  1   
 19  11  13  1   
 20  11  31  1   
 21  11  32  1   
 22  12  14  1   
 23  12  33  1   
 24  12  34  1   
 25  13  14  1   
 26  13  15  1   
 27  13  35  1   
 28  14  36  1   
 29  14  37  1   
 30  15  16  1   
 31  15  38  1   
 32  15  39  1   
 33  16  17  1   
 34  16  18  2   
 35  17  19  1   
 36  17  20  1   
 37  18  21  1   
 38  18  40  1   
 39  19  21  2   
 40  19  41  1   
 41  20  42  1   
 42  20  43  1   
 43  20  44  1   
 44  21  22  1   
 45  22  23  2   
 46  22  24  1   
 47  24  45  1   
 48  24  46  1   
 49  24  47  1   
@<TRIPOS>SUBSTRUCTURE
  1 ****  13 GROUP 4 **** **** 0

# MOE 2024.06 (io_trps.svl 2023.06)
