@<TRIPOS>MOLECULE
NONAME
14 13 1 0 0 
SMALL
USER_CHARGES


@<TRIPOS>ATOM
  1 S       -0.3010     0.0430    -0.9630 S.o2  1 <1>   1.3450 
  2 O       -1.4170     0.7420    -0.2940 O.co2 1 <1>  -0.8170 
  3 O        0.9220     0.8560    -1.1090 O.co2 1 <1>  -0.8170 
  4 O       -0.6900    -0.6720    -2.1950 O.co2 1 <1>  -0.8170 
  5 C        0.1910    -1.2440     0.1490 C.3   1 <1>   0.0500 
  6 S       -1.2070    -2.2250     0.6230 S.o2  1 <1>   1.0900 
  7 O       -0.7560    -3.6000     0.5800 O.2   1 <1>  -0.6500 
  8 O       -1.6840    -1.7680     1.9100 O.2   1 <1>  -0.6500 
  9 C       -2.5770    -2.1310    -0.5240 C.3   1 <1>  -0.1350 
 10 H        0.6370    -0.8130     1.0190 H     1 <1>   0.0800 
 11 H        0.9160    -1.8570    -0.3420 H     1 <1>   0.0800 
 12 H       -2.2730    -2.4380    -1.5060 H     1 <1>   0.0800 
 13 H       -2.9690    -1.1340    -0.5790 H     1 <1>   0.0800 
 14 H       -3.3660    -2.7790    -0.1990 H     1 <1>   0.0800 
@<TRIPOS>BOND
  1   1   2  ar  
  2   1   3  ar  
  3   1   4  ar  
  4   1   5  1   
  5   5   6  1   
  6   5  10  1   
  7   5  11  1   
  8   6   7  2   
  9   6   8  2   
 10   6   9  1   
 11   9  12  1   
 12   9  13  1   
 13   9  14  1   
@<TRIPOS>SUBSTRUCTURE
  1 ****   5 GROUP 4 **** **** 0

# MOE 2024.06 (io_trps.svl 2023.06)
