@<TRIPOS>MOLECULE
NONAME
58 61 1 0 0 
SMALL
USER_CHARGES


@<TRIPOS>ATOM
  1 O       -3.6710     0.0670    -2.7270 O.2   1 <1>  -0.5700 
  2 C       -3.4230    -0.4860    -1.6910 C.2   1 <1>   0.5690 
  3 N       -3.1480     0.2290    -0.5870 N.am  1 <1>  -0.7300 
  4 C       -3.4670    -1.9880    -1.6210 C.3   1 <1>  -0.0190 
  5 C       -2.8650    -0.3280     0.7560 C.3   1 <1>   0.2200 
  6 C       -2.1020    -2.5820    -1.2070 C.3   1 <1>   0.1200 
  7 C       -4.6840    -2.3950    -0.7800 C.3   1 <1>   0.3430 
  8 C       -1.6060    -1.2310     0.7110 C.3   1 <1>   0.1200 
  9 C       -4.1250    -1.0420     1.3240 C.3   1 <1>   0.3430 
 10 O       -1.8610    -2.5060     0.1740 O.3   1 <1>  -0.5600 
 11 N       -4.4370    -2.3800     0.7020 N.4   1 <1>  -0.9590 
 12 C       -5.4680    -3.1430     1.4560 C.3   1 <1>   0.4860 
 13 C       -5.4570    -4.5830     0.9790 C.ar  1 <1>  -0.1430 
 14 C       -6.5690    -5.1290     0.3430 C.ar  1 <1>   0.0820 
 15 C       -4.3200    -5.3560     1.1690 C.ar  1 <1>  -0.1500 
 16 O       -7.6750    -4.3470     0.2020 O.3   1 <1>  -0.3630 
 17 C       -6.5140    -6.4430    -0.1200 C.ar  1 <1>  -0.1500 
 18 C       -4.2780    -6.6610     0.7140 C.ar  1 <1>  -0.1500 
 19 C       -8.9110    -4.9230    -0.1810 C.3   1 <1>   0.1200 
 20 C       -5.3730    -7.2010     0.0670 C.ar  1 <1>  -0.1500 
 21 C      -10.0150    -3.8610    -0.0630 C.3   1 <1>   0.3430 
 22 N      -11.3700    -4.3790    -0.4510 N.4   1 <1>  -0.9590 
 23 C      -12.3610    -3.2450    -0.5400 C.3   1 <1>   0.3430 
 24 C      -11.8910    -5.4310     0.5010 C.3   1 <1>   0.3430 
 25 C      -13.7870    -3.7530    -0.8320 C.3   1 <1>   0.1200 
 26 C      -13.3370    -5.8410     0.1640 C.3   1 <1>   0.1200 
 27 O      -14.1580    -4.7120     0.1130 O.3   1 <1>  -0.5600 
 28 H       -3.0760     1.2450    -0.7160 H     1 <1>   0.3700 
 29 H       -3.6570    -2.3220    -2.6260 H     1 <1>   0.0800 
 30 H       -2.6420     0.5070     1.3980 H     1 <1>   0.0800 
 31 H       -1.2950    -2.0930    -1.7280 H     1 <1>   0.0800 
 32 H       -2.0760    -3.6270    -1.4670 H     1 <1>   0.0800 
 33 H       -4.9540    -3.3960    -1.0750 H     1 <1>   0.0800 
 34 H       -5.5140    -1.7510    -1.0210 H     1 <1>   0.0800 
 35 H       -1.2480    -1.3880     1.7140 H     1 <1>   0.0800 
 36 H       -0.8150    -0.7630     0.1490 H     1 <1>   0.0800 
 37 H       -4.9700    -0.3830     1.2170 H     1 <1>   0.0800 
 38 H       -3.9620    -1.1900     2.3790 H     1 <1>   0.0800 
 39 H       -3.5480    -2.9130     0.7890 H     1 <1>   0.4500 
 40 H       -5.2460    -3.1240     2.5100 H     1 <1>   0.0800 
 41 H       -6.4400    -2.7050     1.3020 H     1 <1>   0.0800 
 42 H       -3.4520    -4.9620     1.6720 H     1 <1>   0.1500 
 43 H       -7.3360    -6.9060    -0.6310 H     1 <1>   0.1500 
 44 H       -3.3940    -7.2600     0.8630 H     1 <1>   0.1500 
 45 H       -8.8200    -5.2610    -1.1980 H     1 <1>   0.0800 
 46 H       -9.1060    -5.7490     0.4800 H     1 <1>   0.0800 
 47 H       -5.3320    -8.2170    -0.2900 H     1 <1>   0.1500 
 48 H       -9.7560    -3.0350    -0.7050 H     1 <1>   0.0800 
 49 H      -10.0480    -3.5040     0.9530 H     1 <1>   0.0800 
 50 H      -11.3230    -4.8030    -1.3880 H     1 <1>   0.4500 
 51 H      -12.3830    -2.7050     0.3920 H     1 <1>   0.0800 
 52 H      -12.0670    -2.5560    -1.3150 H     1 <1>   0.0800 
 53 H      -11.2630    -6.3060     0.4700 H     1 <1>   0.0800 
 54 H      -11.8780    -5.0500     1.5090 H     1 <1>   0.0800 
 55 H      -13.8570    -4.1860    -1.8150 H     1 <1>   0.0800 
 56 H      -14.4910    -2.9410    -0.7660 H     1 <1>   0.0800 
 57 H      -13.7260    -6.4930     0.9280 H     1 <1>   0.0800 
 58 H      -13.3910    -6.3540    -0.7820 H     1 <1>   0.0800 
@<TRIPOS>BOND
  1   1   2  2   
  2   2   3  am  
  3   2   4  1   
  4   3   5  1   
  5   3  28  1   
  6   4   6  1   
  7   4   7  1   
  8   4  29  1   
  9   5   8  1   
 10   5   9  1   
 11   5  30  1   
 12   6  10  1   
 13   6  31  1   
 14   6  32  1   
 15   7  11  1   
 16   7  33  1   
 17   7  34  1   
 18   8  10  1   
 19   8  35  1   
 20   8  36  1   
 21   9  11  1   
 22   9  37  1   
 23   9  38  1   
 24  11  12  1   
 25  11  39  1   
 26  12  13  1   
 27  12  40  1   
 28  12  41  1   
 29  13  14  ar  
 30  13  15  ar  
 31  14  16  1   
 32  14  17  ar  
 33  15  18  ar  
 34  15  42  1   
 35  16  19  1   
 36  17  20  ar  
 37  17  43  1   
 38  18  20  ar  
 39  18  44  1   
 40  19  21  1   
 41  19  45  1   
 42  19  46  1   
 43  20  47  1   
 44  21  22  1   
 45  21  48  1   
 46  21  49  1   
 47  22  23  1   
 48  22  24  1   
 49  22  50  1   
 50  23  25  1   
 51  23  51  1   
 52  23  52  1   
 53  24  26  1   
 54  24  53  1   
 55  24  54  1   
 56  25  27  1   
 57  25  55  1   
 58  25  56  1   
 59  26  27  1   
 60  26  57  1   
 61  26  58  1   
@<TRIPOS>SUBSTRUCTURE
  1 ****  16 GROUP 4 **** **** 0

# MOE 2024.06 (io_trps.svl 2023.06)
