@<TRIPOS>MOLECULE
NONAME
46 48 1 0 0 
SMALL
USER_CHARGES


@<TRIPOS>ATOM
  1 CL       1.0580     2.0860    -1.0000 Cl    1 <1>  -0.1770 
  2 C        1.4920     3.3360     0.1430 C.ar  1 <1>   0.1770 
  3 C        2.7590     3.3910     0.7170 C.ar  1 <1>  -0.1440 
  4 C        0.5170     4.2650     0.4590 C.ar  1 <1>  -0.1500 
  5 C        3.0180     4.4030     1.6330 C.ar  1 <1>  -0.1500 
  6 C        3.8760     2.4020     0.3940 C.3   1 <1>   0.3640 
  7 C        0.7940     5.2690     1.3690 C.ar  1 <1>  -0.1500 
  8 C        2.0450     5.3330     1.9570 C.ar  1 <1>  -0.1500 
  9 N        3.4860     1.0370     0.8080 N.am  1 <1>  -0.7300 
 10 C        4.3450     2.4310    -1.0820 C.3   1 <1>   0.2610 
 11 C        3.8780    -0.0700     0.1350 C.2   1 <1>   0.5690 
 12 O        5.2590     1.3710    -1.3100 O.3   1 <1>  -0.5600 
 13 C        4.9720     3.7900    -1.3770 C.2   1 <1>   0.5690 
 14 O        3.5940    -1.1680     0.5410 O.2   1 <1>  -0.5700 
 15 C        4.6800     0.0870    -1.1640 C.3   1 <1>   0.1810 
 16 O        4.3100     4.6400    -1.9260 O.2   1 <1>  -0.5700 
 17 N        6.2390     4.0450    -0.9660 N.am  1 <1>  -0.7300 
 18 C        6.8070     5.4000    -0.8290 C.3   1 <1>   0.3200 
 19 C        6.2710     6.0280     0.4480 C.2   1 <1>   0.0070 
 20 N        6.7700     5.7940     1.6140 N.2   1 <1>  -0.3380 
 21 N        5.2250     6.8640     0.5190 N.pl3 1 <1>   0.0480 
 22 N        6.0510     6.4870     2.4960 N.2   1 <1>  -0.3380 
 23 C        5.1460     7.1120     1.8280 C.2   1 <1>   0.0360 
 24 C        4.3180     7.3730    -0.5390 C.3   1 <1>   0.0960 
 25 C        4.2130     8.9040    -0.4990 C.3   1 <1>  -0.1600 
 26 C        3.3200     9.4230    -1.6320 C.3   1 <1>  -0.2400 
 27 H       -0.4510     4.1980    -0.0040 H     1 <1>   0.1500 
 28 H        3.9850     4.4790     2.1070 H     1 <1>   0.1500 
 29 H        4.7290     2.6730     0.9920 H     1 <1>   0.0800 
 30 H        0.0390     5.9940     1.6220 H     1 <1>   0.1500 
 31 H        2.2640     6.1070     2.6740 H     1 <1>   0.1500 
 32 H        2.9420     0.9300     1.6650 H     1 <1>   0.3700 
 33 H        3.5180     2.3000    -1.7530 H     1 <1>   0.0800 
 34 H        4.0330    -0.0890    -2.0040 H     1 <1>   0.0800 
 35 H        5.4750    -0.6360    -1.1820 H     1 <1>   0.0800 
 36 H        6.7740     3.2980    -0.5150 H     1 <1>   0.3700 
 37 H        7.8790     5.3310    -0.7700 H     1 <1>   0.0800 
 38 H        6.5550     5.9940    -1.6890 H     1 <1>   0.0800 
 39 H        4.4050     7.7580     2.2610 H     1 <1>   0.1500 
 40 H        4.6860     7.0700    -1.5010 H     1 <1>   0.0800 
 41 H        3.3490     6.9270    -0.3990 H     1 <1>   0.0800 
 42 H        3.7960     9.2200     0.4410 H     1 <1>   0.0800 
 43 H        5.1950     9.3340    -0.6020 H     1 <1>   0.0800 
 44 H        2.3260     9.0200    -1.5450 H     1 <1>   0.0800 
 45 H        3.7230     9.1420    -2.5900 H     1 <1>   0.0800 
 46 H        3.2580    10.4960    -1.5910 H     1 <1>   0.0800 
@<TRIPOS>BOND
  1   1   2  1   
  2   2   3  ar  
  3   2   4  ar  
  4   3   5  ar  
  5   3   6  1   
  6   4   7  ar  
  7   4  27  1   
  8   5   8  ar  
  9   5  28  1   
 10   6   9  1   
 11   6  10  1   
 12   6  29  1   
 13   7   8  ar  
 14   7  30  1   
 15   8  31  1   
 16   9  11  am  
 17   9  32  1   
 18  10  12  1   
 19  10  13  1   
 20  10  33  1   
 21  11  14  2   
 22  11  15  1   
 23  12  15  1   
 24  13  16  2   
 25  13  17  am  
 26  15  34  1   
 27  15  35  1   
 28  17  18  1   
 29  17  36  1   
 30  18  19  1   
 31  18  37  1   
 32  18  38  1   
 33  19  20  2   
 34  19  21  1   
 35  20  22  1   
 36  21  23  1   
 37  21  24  1   
 38  22  23  2   
 39  23  39  1   
 40  24  25  1   
 41  24  40  1   
 42  24  41  1   
 43  25  26  1   
 44  25  42  1   
 45  25  43  1   
 46  26  44  1   
 47  26  45  1   
 48  26  46  1   
@<TRIPOS>SUBSTRUCTURE
  1 ****   3 GROUP 4 **** **** 0

# MOE 2024.06 (io_trps.svl 2023.06)
