@<TRIPOS>MOLECULE
NONAME
53 55 1 0 0 
SMALL
USER_CHARGES


@<TRIPOS>ATOM
  1 O       -0.2800     2.8880     2.8980 O.2   1 <1>  -0.5700 
  2 C       -0.0400     3.2320     1.7550 C.2   1 <1>   0.5440 
  3 N       -1.0920     3.4350     0.8850 N.am  1 <1>  -0.6600 
  4 C        1.3400     3.4290     1.3570 C.ar  1 <1>   0.0860 
  5 C       -2.4620     2.9180     1.1810 C.3   1 <1>   0.1400 
  6 C       -1.0120     4.2580    -0.3520 C.3   1 <1>   0.1400 
  7 C        1.8590     2.8620     0.1950 C.ar  1 <1>  -0.1500 
  8 C        2.2080     4.1880     2.1370 C.ar  1 <1>  -0.1500 
  9 C       -3.0090     2.0650     0.0110 C.3   1 <1>   0.0000 
 10 C       -1.5160     3.4440    -1.5470 C.3   1 <1>  -0.1600 
 11 C        3.1700     3.0540    -0.1990 C.ar  1 <1>   0.0820 
 12 C        3.5230     4.3980     1.7630 C.ar  1 <1>  -0.1500 
 13 C       -4.4410     1.6080     0.3600 C.3   1 <1>   0.2000 
 14 C       -2.9280     2.8880    -1.2990 C.3   1 <1>  -0.1600 
 15 C       -2.2440     0.7340    -0.0900 C.3   1 <1>  -0.1600 
 16 O        3.5140     2.4350    -1.3630 O.3   1 <1>  -0.3630 
 17 C        4.0250     3.8450     0.5870 C.ar  1 <1>   0.0820 
 18 O       -5.1050     1.1990    -0.8030 O.3   1 <1>  -0.5600 
 19 C       -4.2580     0.3870     1.2710 C.3   1 <1>  -0.1600 
 20 C       -2.8790    -0.2010     0.9440 C.3   1 <1>  -0.1600 
 21 C        4.8240     1.9600    -1.5770 C.3   1 <1>   0.3200 
 22 O        5.3060     4.0700     0.1860 O.3   1 <1>  -0.3630 
 23 C       -6.4950     1.2480    -0.7390 C.3   1 <1>   0.0400 
 24 C        4.7790     0.9100    -2.6360 C.1   1 <1>  -0.2000 
 25 C        6.1800     4.9320     0.8840 C.3   1 <1>   0.0400 
 26 C        4.7460     0.0730    -3.4810 C.1   1 <1>  -0.1770 
 27 H       -2.4480     2.3320     2.0840 H     1 <1>   0.0800 
 28 H       -3.1110     3.7590     1.3500 H     1 <1>   0.0800 
 29 H       -1.6300     5.1300    -0.2250 H     1 <1>   0.0800 
 30 H       -0.0060     4.5930    -0.5320 H     1 <1>   0.0800 
 31 H        1.2200     2.2490    -0.4150 H     1 <1>   0.1500 
 32 H        1.8340     4.6170     3.0510 H     1 <1>   0.1500 
 33 H       -1.5270     4.0710    -2.4210 H     1 <1>   0.0800 
 34 H       -0.8330     2.6360    -1.7390 H     1 <1>   0.0800 
 35 H        4.1380     4.9970     2.4070 H     1 <1>   0.1500 
 36 H       -5.0060     2.3970     0.8280 H     1 <1>   0.0800 
 37 H       -3.2200     2.2800    -2.1380 H     1 <1>   0.0800 
 38 H       -3.6230     3.7070    -1.2390 H     1 <1>   0.0800 
 39 H       -2.3980     0.3110    -1.0690 H     1 <1>   0.0800 
 40 H       -1.1860     0.8460     0.0710 H     1 <1>   0.0800 
 41 H       -4.2650     0.7100     2.2970 H     1 <1>   0.0800 
 42 H       -5.0390    -0.3390     1.1350 H     1 <1>   0.0800 
 43 H       -2.2730    -0.2330     1.8340 H     1 <1>   0.0800 
 44 H       -2.9660    -1.1970     0.5460 H     1 <1>   0.0800 
 45 H        5.4370     2.7830    -1.8970 H     1 <1>   0.0800 
 46 H        5.1990     1.5480    -0.6560 H     1 <1>   0.0800 
 47 H       -6.8840     0.8820    -1.6730 H     1 <1>   0.0800 
 48 H       -6.8070     2.2670    -0.5910 H     1 <1>   0.0800 
 49 H       -6.8420     0.6250     0.0660 H     1 <1>   0.0800 
 50 H        7.1110     4.9700     0.3480 H     1 <1>   0.0800 
 51 H        6.3440     4.5380     1.8720 H     1 <1>   0.0800 
 52 H        5.7440     5.9140     0.9260 H     1 <1>   0.0800 
 53 H        4.7100    -0.6810    -4.2460 H     1 <1>   0.1770 
@<TRIPOS>BOND
  1   1   2  2   
  2   2   3  am  
  3   2   4  1   
  4   3   5  1   
  5   3   6  1   
  6   4   7  ar  
  7   4   8  ar  
  8   5   9  1   
  9   5  27  1   
 10   5  28  1   
 11   6  10  1   
 12   6  29  1   
 13   6  30  1   
 14   7  11  ar  
 15   7  31  1   
 16   8  12  ar  
 17   8  32  1   
 18   9  13  1   
 19   9  14  1   
 20   9  15  1   
 21  10  14  1   
 22  10  33  1   
 23  10  34  1   
 24  11  16  1   
 25  11  17  ar  
 26  12  17  ar  
 27  12  35  1   
 28  13  18  1   
 29  13  19  1   
 30  13  36  1   
 31  14  37  1   
 32  14  38  1   
 33  15  20  1   
 34  15  39  1   
 35  15  40  1   
 36  16  21  1   
 37  17  22  1   
 38  18  23  1   
 39  19  20  1   
 40  19  41  1   
 41  19  42  1   
 42  20  43  1   
 43  20  44  1   
 44  21  24  1   
 45  21  45  1   
 46  21  46  1   
 47  22  25  1   
 48  23  47  1   
 49  23  48  1   
 50  23  49  1   
 51  24  26  3   
 52  25  50  1   
 53  25  51  1   
 54  25  52  1   
 55  26  53  1   
@<TRIPOS>SUBSTRUCTURE
  1 ****   7 GROUP 4 **** **** 0

# MOE 2024.06 (io_trps.svl 2023.06)
