@<TRIPOS>MOLECULE
NONAME
55 57 1 0 0 
SMALL
USER_CHARGES


@<TRIPOS>ATOM
  1 O       -1.6310     1.8890    -2.3830 O.2   1 <1>  -0.5700 
  2 C       -1.6430     2.0620    -1.1720 C.2   1 <1>   0.7150 
  3 N       -2.2630     1.0900    -0.4010 N.am  1 <1>  -0.6600 
  4 C       -1.0190     3.2770    -0.6650 C.2   1 <1>   0.1020 
  5 C       -2.8760    -0.1270    -1.0220 C.3   1 <1>   0.1400 
  6 C       -2.5260     1.2050     1.0620 C.3   1 <1>   0.1400 
  7 N       -0.9140     3.7350     0.5670 N.2   1 <1>  -0.5650 
  8 N       -0.4290     4.1260    -1.5470 N.pl3 1 <1>   0.0330 
  9 C       -4.3870     0.0440    -1.2480 C.3   1 <1>   0.1400 
 10 C       -3.7720     2.0550     1.3490 C.3   1 <1>  -0.1600 
 11 C       -0.2470     4.8910     0.4520 C.2   1 <1>   0.0770 
 12 C        0.0600     5.1500    -0.8360 C.2   1 <1>  -0.3020 
 13 N       -5.1070     0.4240     0.0100 N.am  1 <1>  -0.6600 
 14 C       -4.9440     1.8580     0.3780 C.3   1 <1>   0.1400 
 15 C       -5.8430    -0.4200     0.8080 C.2   1 <1>   0.5690 
 16 O       -6.4370     0.0020     1.7750 O.2   1 <1>  -0.5700 
 17 C       -5.9330    -1.9230     0.5040 C.3   1 <1>  -0.0190 
 18 C       -7.1160    -2.2240    -0.4370 C.3   1 <1>  -0.1600 
 19 C       -6.0450    -2.7840     1.7790 C.3   1 <1>  -0.1600 
 20 C       -7.2010    -3.7200    -0.7730 C.3   1 <1>  -0.1600 
 21 C       -6.1280    -4.2810     1.4460 C.3   1 <1>  -0.1600 
 22 C       -7.3110    -4.5800     0.5010 C.3   1 <1>  -0.0800 
 23 C       -7.4940    -6.0830     0.1650 C.3   1 <1>  -0.0800 
 24 C       -7.9040    -6.8940     1.4030 C.3   1 <1>  -0.2400 
 25 C       -6.2660    -6.7420    -0.4850 C.3   1 <1>  -0.2400 
 26 H       -2.7050    -0.9790    -0.3880 H     1 <1>   0.0800 
 27 H       -2.4040    -0.3390    -1.9650 H     1 <1>   0.0800 
 28 H       -1.6690     1.6080     1.5710 H     1 <1>   0.0800 
 29 H       -2.6870     0.2200     1.4660 H     1 <1>   0.0800 
 30 H       -0.3950     3.9630    -2.5590 H     1 <1>   0.2700 
 31 H       -4.7900    -0.8640    -1.6560 H     1 <1>   0.0800 
 32 H       -4.5400     0.8090    -1.9900 H     1 <1>   0.0800 
 33 H       -3.4980     3.0940     1.3450 H     1 <1>   0.0800 
 34 H       -4.1110     1.8300     2.3440 H     1 <1>   0.0800 
 35 H       -0.0140     5.4940     1.3150 H     1 <1>   0.1500 
 36 H        0.5850     5.9840    -1.2670 H     1 <1>   0.1500 
 37 H       -4.7700     2.4390    -0.5110 H     1 <1>   0.0800 
 38 H       -5.8500     2.2260     0.8300 H     1 <1>   0.0800 
 39 H       -5.0250    -2.2240     0.0190 H     1 <1>   0.0800 
 40 H       -7.0140    -1.6570    -1.3450 H     1 <1>   0.0800 
 41 H       -8.0300    -1.9120     0.0390 H     1 <1>   0.0800 
 42 H       -6.9250    -2.4970     2.3300 H     1 <1>   0.0800 
 43 H       -5.1930    -2.6020     2.4100 H     1 <1>   0.0800 
 44 H       -6.3250    -3.9980    -1.3320 H     1 <1>   0.0800 
 45 H       -8.0590    -3.8900    -1.3990 H     1 <1>   0.0800 
 46 H       -6.2410    -4.8290     2.3640 H     1 <1>   0.0800 
 47 H       -5.2050    -4.5870     0.9880 H     1 <1>   0.0800 
 48 H       -8.2090    -4.2640     1.0070 H     1 <1>   0.0800 
 49 H       -8.3080    -6.1570    -0.5370 H     1 <1>   0.0800 
 50 H       -7.1030    -6.9430     2.1180 H     1 <1>   0.0800 
 51 H       -8.1610    -7.8990     1.1180 H     1 <1>   0.0800 
 52 H       -8.7620    -6.4500     1.8760 H     1 <1>   0.0800 
 53 H       -5.4270    -6.7460     0.1880 H     1 <1>   0.0800 
 54 H       -5.9850    -6.2320    -1.3870 H     1 <1>   0.0800 
 55 H       -6.4910    -7.7620    -0.7420 H     1 <1>   0.0800 
@<TRIPOS>BOND
  1   1   2  2   
  2   2   3  am  
  3   2   4  1   
  4   3   5  1   
  5   3   6  1   
  6   4   7  2   
  7   4   8  1   
  8   5   9  1   
  9   5  26  1   
 10   5  27  1   
 11   6  10  1   
 12   6  28  1   
 13   6  29  1   
 14   7  11  1   
 15   8  12  1   
 16   8  30  1   
 17   9  13  1   
 18   9  31  1   
 19   9  32  1   
 20  10  14  1   
 21  10  33  1   
 22  10  34  1   
 23  11  12  2   
 24  11  35  1   
 25  12  36  1   
 26  13  14  1   
 27  13  15  am  
 28  14  37  1   
 29  14  38  1   
 30  15  16  2   
 31  15  17  1   
 32  17  18  1   
 33  17  19  1   
 34  17  39  1   
 35  18  20  1   
 36  18  40  1   
 37  18  41  1   
 38  19  21  1   
 39  19  42  1   
 40  19  43  1   
 41  20  22  1   
 42  20  44  1   
 43  20  45  1   
 44  21  22  1   
 45  21  46  1   
 46  21  47  1   
 47  22  23  1   
 48  22  48  1   
 49  23  24  1   
 50  23  25  1   
 51  23  49  1   
 52  24  50  1   
 53  24  51  1   
 54  24  52  1   
 55  25  53  1   
 56  25  54  1   
 57  25  55  1   
@<TRIPOS>SUBSTRUCTURE
  1 ****  13 GROUP 4 **** **** 0

# MOE 2024.06 (io_trps.svl 2023.06)
