@<TRIPOS>MOLECULE
NONAME
47 48 1 0 0 
SMALL
USER_CHARGES


@<TRIPOS>ATOM
  1 O        3.2930     1.6530     1.6740 O.co2 1 <1>  -0.9000 
  2 C        2.6260     0.8320     1.0250 C.2   1 <1>   0.9060 
  3 O        2.3220    -0.2610     1.5000 O.co2 1 <1>  -0.9000 
  4 C        2.4300     1.0410    -0.4840 C.3   1 <1>  -0.1060 
  5 C        3.3490    -0.0270    -1.1200 C.3   1 <1>   0.2000 
  6 C        2.9190     2.4500    -0.9550 C.3   1 <1>  -0.1600 
  7 C        0.9400     0.8180    -0.8510 C.3   1 <1>  -0.0170 
  8 O        3.3220     0.0890    -2.5130 O.3   1 <1>  -0.6800 
  9 C        4.8150     0.1570    -0.6410 C.3   1 <1>   0.3430 
 10 C        4.4420     2.5580    -1.1490 C.3   1 <1>   0.3430 
 11 C        0.0270     1.9410    -0.3710 C.ar  1 <1>  -0.1440 
 12 N        5.1310     1.5830    -0.2670 N.4   1 <1>  -0.9590 
 13 C       -0.3420     2.0180     0.9630 C.ar  1 <1>  -0.1500 
 14 C       -0.4470     2.8940    -1.2600 C.ar  1 <1>  -0.1500 
 15 C        6.5740     1.8380    -0.0330 C.3   1 <1>   0.3430 
 16 C       -1.1660     3.0390     1.4050 C.ar  1 <1>  -0.1500 
 17 C       -1.2730     3.9150    -0.8200 C.ar  1 <1>  -0.1500 
 18 C        6.7710     2.9980     0.9470 C.3   1 <1>   0.1200 
 19 C       -1.6320     3.9890     0.5140 C.ar  1 <1>  -0.1500 
 20 O        8.1350     3.2520     1.0400 O.3   1 <1>  -0.5600 
 21 C        8.4650     4.2290     1.9700 C.3   1 <1>   0.1200 
 22 C        9.9790     4.3990     1.9390 C.3   1 <1>  -0.2400 
 23 H        3.0170    -1.0220    -0.8700 H     1 <1>   0.0800 
 24 H        2.5980     3.1950    -0.2460 H     1 <1>   0.0800 
 25 H        2.4600     2.7030    -1.8930 H     1 <1>   0.0800 
 26 H        0.8330     0.7290    -1.9160 H     1 <1>   0.0800 
 27 H        0.5970    -0.1110    -0.4250 H     1 <1>   0.0800 
 28 H        2.4320    -0.1410    -2.8460 H     1 <1>   0.4000 
 29 H        5.4790    -0.1900    -1.4130 H     1 <1>   0.0800 
 30 H        4.9570    -0.4570     0.2340 H     1 <1>   0.0800 
 31 H        4.7600     3.5630    -0.9290 H     1 <1>   0.0800 
 32 H        4.6860     2.3360    -2.1760 H     1 <1>   0.0800 
 33 H        4.6380     1.7060     0.6580 H     1 <1>   0.4500 
 34 H        0.0150     1.2840     1.6680 H     1 <1>   0.1500 
 35 H       -0.1770     2.8490    -2.2990 H     1 <1>   0.1500 
 36 H        7.0280     0.9610     0.3940 H     1 <1>   0.0800 
 37 H        7.0610     2.0650    -0.9660 H     1 <1>   0.0800 
 38 H       -1.4400     3.0890     2.4440 H     1 <1>   0.1500 
 39 H       -1.6360     4.6510    -1.5150 H     1 <1>   0.1500 
 40 H        6.3970     2.7280     1.9210 H     1 <1>   0.0800 
 41 H        6.2850     3.8910     0.5940 H     1 <1>   0.0800 
 42 H       -2.2710     4.7810     0.8590 H     1 <1>   0.1500 
 43 H        7.9750     5.1500     1.7020 H     1 <1>   0.0800 
 44 H        8.1400     3.9080     2.9460 H     1 <1>   0.0800 
 45 H       10.2970     4.7090     0.9600 H     1 <1>   0.0800 
 46 H       10.4610     3.4730     2.1970 H     1 <1>   0.0800 
 47 H       10.2760     5.1500     2.6490 H     1 <1>   0.0800 
@<TRIPOS>BOND
  1   1   2  ar  
  2   2   3  ar  
  3   2   4  1   
  4   4   5  1   
  5   4   6  1   
  6   4   7  1   
  7   5   8  1   
  8   5   9  1   
  9   5  23  1   
 10   6  10  1   
 11   6  24  1   
 12   6  25  1   
 13   7  11  1   
 14   7  26  1   
 15   7  27  1   
 16   8  28  1   
 17   9  12  1   
 18   9  29  1   
 19   9  30  1   
 20  10  12  1   
 21  10  31  1   
 22  10  32  1   
 23  11  13  ar  
 24  11  14  ar  
 25  12  15  1   
 26  12  33  1   
 27  13  16  ar  
 28  13  34  1   
 29  14  17  ar  
 30  14  35  1   
 31  15  18  1   
 32  15  36  1   
 33  15  37  1   
 34  16  19  ar  
 35  16  38  1   
 36  17  19  ar  
 37  17  39  1   
 38  18  20  1   
 39  18  40  1   
 40  18  41  1   
 41  19  42  1   
 42  20  21  1   
 43  21  22  1   
 44  21  43  1   
 45  21  44  1   
 46  22  45  1   
 47  22  46  1   
 48  22  47  1   
@<TRIPOS>SUBSTRUCTURE
  1 ****   6 GROUP 4 **** **** 0

# MOE 2024.06 (io_trps.svl 2023.06)
