@<TRIPOS>MOLECULE
NONAME
55 59 1 0 0 
SMALL
USER_CHARGES


@<TRIPOS>ATOM
  1 O        0.5430     0.1620     1.0100 O.3   1 <1>  -0.5600 
  2 C        0.4310    -1.1890     0.6540 C.3   1 <1>   0.1200 
  3 C        1.3840     0.8860     0.1680 C.3   1 <1>   0.1200 
  4 C        1.8090    -1.8890     0.6590 C.3   1 <1>   0.2850 
  5 C        2.8030     0.2910     0.2190 C.3   1 <1>   0.1900 
  6 N        2.7870    -1.1420    -0.1770 N.3   1 <1>  -0.8100 
  7 C        1.6440    -3.3240     0.1360 C.3   1 <1>  -0.1950 
  8 C        3.7480     1.0980    -0.6920 C.3   1 <1>   0.3430 
  9 C        4.1480    -1.7190    -0.1400 C.3   1 <1>   0.1100 
 10 C        1.0020    -4.3730     0.9900 C.3   1 <1>  -0.2000 
 11 C        2.4610    -4.4700     0.6550 C.3   1 <1>  -0.2000 
 12 N        5.1450     0.5290    -0.7060 N.4   1 <1>  -0.9590 
 13 C        5.1210    -0.9350    -1.0440 C.3   1 <1>   0.3430 
 14 C        6.0450     1.2970    -1.6070 C.3   1 <1>   0.4860 
 15 C        6.0960     2.7340    -1.1260 C.ar  1 <1>  -0.1440 
 16 C        5.4710     3.7380    -1.8520 C.ar  1 <1>  -0.1500 
 17 C        6.7570     3.0580     0.0500 C.ar  1 <1>  -0.1500 
 18 C        5.4950     5.0460    -1.4000 C.ar  1 <1>  -0.1500 
 19 C        6.7760     4.3650     0.5000 C.ar  1 <1>  -0.1500 
 20 C        6.1460     5.3680    -0.2200 C.ar  1 <1>  -0.1440 
 21 C        6.1730     6.8080     0.2890 C.3   1 <1>   0.2390 
 22 N        7.5550     7.2660     0.5460 N.pl3 1 <1>   0.3140 
 23 N        8.0400     7.4040     1.7970 N.2   1 <1>  -0.7070 
 24 C        8.4830     7.6020    -0.3740 C.2   1 <1>  -0.3020 
 25 C        9.2580     7.8230     1.6380 C.2   1 <1>   0.1390 
 26 C        9.5950     7.9670     0.2980 C.2   1 <1>  -0.1500 
 27 H       -0.2250    -1.6610     1.3630 H     1 <1>   0.0800 
 28 H       -0.0190    -1.2510    -0.3220 H     1 <1>   0.0800 
 29 H        0.9820     0.8530    -0.8310 H     1 <1>   0.0800 
 30 H        1.3840     1.9050     0.5130 H     1 <1>   0.0800 
 31 H        2.1560    -1.9250     1.6780 H     1 <1>   0.0800 
 32 H        3.1520     0.3790     1.2340 H     1 <1>   0.0800 
 33 H        1.3700    -3.3370    -0.9060 H     1 <1>   0.1000 
 34 H        3.7740     2.1200    -0.3500 H     1 <1>   0.0800 
 35 H        3.3440     1.0920    -1.6900 H     1 <1>   0.0800 
 36 H        4.5160    -1.7350     0.8720 H     1 <1>   0.0800 
 37 H        4.1190    -2.7340    -0.4970 H     1 <1>   0.0800 
 38 H        0.7280    -4.1430     2.0060 H     1 <1>   0.1000 
 39 H        0.3210    -5.0700     0.5310 H     1 <1>   0.1000 
 40 H        2.7760    -5.2380    -0.0300 H     1 <1>   0.1000 
 41 H        3.1690    -4.3110     1.4500 H     1 <1>   0.1000 
 42 H        5.5130     0.6360     0.2460 H     1 <1>   0.4500 
 43 H        4.8040    -1.0660    -2.0660 H     1 <1>   0.0800 
 44 H        6.1090    -1.3540    -0.9450 H     1 <1>   0.0800 
 45 H        7.0390     0.8790    -1.5880 H     1 <1>   0.0800 
 46 H        5.6780     1.2610    -2.6200 H     1 <1>   0.0800 
 47 H        4.9620     3.5180    -2.7760 H     1 <1>   0.1500 
 48 H        7.2680     2.3080     0.6300 H     1 <1>   0.1500 
 49 H        5.0060     5.8130    -1.9770 H     1 <1>   0.1500 
 50 H        7.2940     4.6080     1.4170 H     1 <1>   0.1500 
 51 H        5.6210     6.8760     1.2080 H     1 <1>   0.0800 
 52 H        5.7270     7.4730    -0.4260 H     1 <1>   0.0800 
 53 H        8.3050     7.5610    -1.4330 H     1 <1>   0.1500 
 54 H        9.9240     8.0330     2.4590 H     1 <1>   0.1500 
 55 H       10.5430     8.2980    -0.0860 H     1 <1>   0.1500 
@<TRIPOS>BOND
  1   1   2  1   
  2   1   3  1   
  3   2   4  1   
  4   2  27  1   
  5   2  28  1   
  6   3   5  1   
  7   3  29  1   
  8   3  30  1   
  9   4   6  1   
 10   4   7  1   
 11   4  31  1   
 12   5   6  1   
 13   5   8  1   
 14   5  32  1   
 15   6   9  1   
 16   7  10  1   
 17   7  11  1   
 18   7  33  1   
 19   8  12  1   
 20   8  34  1   
 21   8  35  1   
 22   9  13  1   
 23   9  36  1   
 24   9  37  1   
 25  10  11  1   
 26  10  38  1   
 27  10  39  1   
 28  11  40  1   
 29  11  41  1   
 30  12  13  1   
 31  12  14  1   
 32  12  42  1   
 33  13  43  1   
 34  13  44  1   
 35  14  15  1   
 36  14  45  1   
 37  14  46  1   
 38  15  16  ar  
 39  15  17  ar  
 40  16  18  ar  
 41  16  47  1   
 42  17  19  ar  
 43  17  48  1   
 44  18  20  ar  
 45  18  49  1   
 46  19  20  ar  
 47  19  50  1   
 48  20  21  1   
 49  21  22  1   
 50  21  51  1   
 51  21  52  1   
 52  22  23  1   
 53  22  24  1   
 54  23  25  2   
 55  24  26  2   
 56  24  53  1   
 57  25  26  1   
 58  25  54  1   
 59  26  55  1   
@<TRIPOS>SUBSTRUCTURE
  1 ****   8 GROUP 4 **** **** 0

# MOE 2024.06 (io_trps.svl 2023.06)
