@<TRIPOS>MOLECULE
NONAME
51 55 1 0 0 
SMALL
USER_CHARGES


@<TRIPOS>ATOM
  1 S       -0.0790    -0.0400    -1.7560 S.3   1 <1>  -0.0800 
  2 C        0.1810    -1.4870    -0.7760 C.2   1 <1>  -0.0450 
  3 C        1.2840     0.7820    -1.0330 C.2   1 <1>  -0.1100 
  4 C        1.2720    -1.2910     0.0110 C.2   1 <1>  -0.1810 
  5 C       -0.6910    -2.6230    -0.9490 C.2   1 <1>   0.7150 
  6 C        1.8820    -0.0040    -0.1200 C.2   1 <1>  -0.1810 
  7 C        1.8530    -2.3570     0.9300 C.3   1 <1>   0.0210 
  8 O       -0.2050    -3.6960    -1.2640 O.2   1 <1>  -0.5700 
  9 N       -2.0540    -2.5620    -0.7270 N.am  1 <1>  -0.6600 
 10 C        3.0760     0.4070     0.7280 C.3   1 <1>   0.0210 
 11 C        2.8140    -1.7720     1.9720 C.3   1 <1>  -0.1600 
 12 C       -2.7250    -1.4220    -0.0280 C.3   1 <1>   0.1400 
 13 C       -2.8900    -3.7870    -0.9200 C.3   1 <1>   0.1400 
 14 C        3.8090    -0.8060     1.3140 C.3   1 <1>  -0.1600 
 15 C       -4.0430    -1.0110    -0.7260 C.3   1 <1>   0.1440 
 16 C       -4.3690    -3.5510    -0.5730 C.3   1 <1>  -0.1600 
 17 C       -4.7950    -0.1180     0.2470 C.ar  1 <1>   0.1670 
 18 C       -4.8740    -2.2380    -1.1890 C.3   1 <1>  -0.1600 
 19 C       -3.7860    -0.0390    -1.9070 C.3   1 <1>  -0.1600 
 20 N       -5.4660    -0.5270     1.3020 N.ar  1 <1>  -0.6200 
 21 C       -4.6780     1.1980    -0.0890 C.ar  1 <1>  -0.1430 
 22 C       -3.8420     1.3860    -1.3300 C.3   1 <1>  -0.0170 
 23 C       -6.0300     0.4460     2.0040 C.ar  1 <1>   0.4770 
 24 C       -5.3010     2.1230     0.7110 C.ar  1 <1>   0.1600 
 25 N       -5.9890     1.7520     1.7710 N.ar  1 <1>  -0.6200 
 26 C       -6.8200     0.0160     3.2160 C.3   1 <1>  -0.0970 
 27 H        1.4950     1.7830    -1.3650 H     1 <1>   0.1500 
 28 H        2.3880    -3.0640     0.3190 H     1 <1>   0.0800 
 29 H        1.0590    -2.8900     1.4230 H     1 <1>   0.0800 
 30 H        2.7170     1.0190     1.5370 H     1 <1>   0.0800 
 31 H        3.7560     0.9980     0.1410 H     1 <1>   0.0800 
 32 H        3.3450    -2.5730     2.4550 H     1 <1>   0.0800 
 33 H        2.2480    -1.2470     2.7230 H     1 <1>   0.0800 
 34 H       -2.0750    -0.5710     0.0560 H     1 <1>   0.0800 
 35 H       -2.9510    -1.7390     0.9760 H     1 <1>   0.0800 
 36 H       -2.4990    -4.5850    -0.3120 H     1 <1>   0.0800 
 37 H       -2.8110    -4.0880    -1.9510 H     1 <1>   0.0800 
 38 H        4.5310    -0.4730     2.0380 H     1 <1>   0.0800 
 39 H        4.3360    -1.3170     0.5260 H     1 <1>   0.0800 
 40 H       -4.4900    -3.5230     0.4970 H     1 <1>   0.0800 
 41 H       -4.9540    -4.3760    -0.9400 H     1 <1>   0.0800 
 42 H       -4.8070    -2.3410    -2.2580 H     1 <1>   0.0800 
 43 H       -5.9130    -2.0950    -0.9450 H     1 <1>   0.0800 
 44 H       -4.5860    -0.1250    -2.6210 H     1 <1>   0.0800 
 45 H       -2.8620    -0.2430    -2.4140 H     1 <1>   0.0800 
 46 H       -4.2940     2.0760    -2.0210 H     1 <1>   0.0800 
 47 H       -2.8580     1.7270    -1.0590 H     1 <1>   0.0800 
 48 H       -5.2380     3.1730     0.4850 H     1 <1>   0.1500 
 49 H       -6.4300    -0.9070     3.6040 H     1 <1>   0.0800 
 50 H       -7.8470    -0.1250     2.9360 H     1 <1>   0.0800 
 51 H       -6.7620     0.7680     3.9800 H     1 <1>   0.0800 
@<TRIPOS>BOND
  1   1   2  1   
  2   1   3  1   
  3   2   4  2   
  4   2   5  1   
  5   3   6  2   
  6   3  27  1   
  7   4   6  1   
  8   4   7  1   
  9   5   8  2   
 10   5   9  am  
 11   6  10  1   
 12   7  11  1   
 13   7  28  1   
 14   7  29  1   
 15   9  12  1   
 16   9  13  1   
 17  10  14  1   
 18  10  30  1   
 19  10  31  1   
 20  11  14  1   
 21  11  32  1   
 22  11  33  1   
 23  12  15  1   
 24  12  34  1   
 25  12  35  1   
 26  13  16  1   
 27  13  36  1   
 28  13  37  1   
 29  14  38  1   
 30  14  39  1   
 31  15  17  1   
 32  15  18  1   
 33  15  19  1   
 34  16  18  1   
 35  16  40  1   
 36  16  41  1   
 37  17  20  ar  
 38  17  21  ar  
 39  18  42  1   
 40  18  43  1   
 41  19  22  1   
 42  19  44  1   
 43  19  45  1   
 44  20  23  ar  
 45  21  22  1   
 46  21  24  ar  
 47  22  46  1   
 48  22  47  1   
 49  23  25  ar  
 50  23  26  1   
 51  24  25  ar  
 52  24  48  1   
 53  26  49  1   
 54  26  50  1   
 55  26  51  1   
@<TRIPOS>SUBSTRUCTURE
  1 ****  12 GROUP 4 **** **** 0

# MOE 2024.06 (io_trps.svl 2023.06)
