@<TRIPOS>MOLECULE
NONAME
56 59 1 0 0 
SMALL
USER_CHARGES


@<TRIPOS>ATOM
  1 F       -1.6020    -0.1410     2.2540 F     1 <1>  -0.1900 
  2 C       -2.5330    -0.8110     1.6220 C.ar  1 <1>   0.1900 
  3 C       -2.4780    -0.8890     0.2440 C.ar  1 <1>  -0.1500 
  4 C       -3.5340    -1.4130     2.3570 C.ar  1 <1>  -0.1500 
  5 C       -3.4610    -1.5970    -0.4310 C.ar  1 <1>  -0.1440 
  6 C       -4.5120    -2.1180     1.6790 C.ar  1 <1>  -0.1500 
  7 C       -4.4870    -2.2180     0.2890 C.ar  1 <1>   0.1000 
  8 C       -3.4080    -1.6860    -1.9490 C.3   1 <1>  -0.0960 
  9 N       -5.4880    -2.9360    -0.3610 N.pl3 1 <1>  -0.8380 
 10 C       -5.3530    -4.3970    -0.5130 C.3   1 <1>   0.2090 
 11 C       -6.7960    -2.3040    -0.6120 C.3   1 <1>   0.2090 
 12 C       -6.4170    -5.0830     0.3390 C.3   1 <1>  -0.1600 
 13 C       -7.8550    -3.0020     0.2370 C.3   1 <1>  -0.1600 
 14 C       -7.8130    -4.5220     0.0320 C.3   1 <1>   0.4230 
 15 N       -8.8200    -5.1770     0.9160 N.4   1 <1>  -0.9590 
 16 C      -10.2310    -4.7190     0.7730 C.3   1 <1>   0.3430 
 17 C       -8.8870    -6.6690     0.8420 C.3   1 <1>   0.3430 
 18 C      -11.0290    -5.7640     1.5490 C.3   1 <1>   0.2000 
 19 C      -10.3310    -7.0750     1.1860 C.3   1 <1>  -0.0800 
 20 O      -10.8200    -5.5300     2.9030 O.3   1 <1>  -0.6800 
 21 C      -11.0170    -7.7770    -0.0030 C.3   1 <1>  -0.0170 
 22 C      -10.1780    -8.9410    -0.5060 C.ar  1 <1>  -0.1430 
 23 C       -9.6030    -8.9400    -1.7620 C.ar  1 <1>  -0.1500 
 24 C       -9.9450   -10.0610     0.2690 C.ar  1 <1>  -0.1500 
 25 C       -8.8290   -10.0170    -2.1620 C.ar  1 <1>   0.1600 
 26 C       -9.1540   -11.0840    -0.2250 C.ar  1 <1>   0.1600 
 27 N       -8.5820   -11.0800    -1.4170 N.ar  1 <1>  -0.6200 
 28 H       -1.6770    -0.4020    -0.2800 H     1 <1>   0.1500 
 29 H       -3.5420    -1.3290     3.4280 H     1 <1>   0.1500 
 30 H       -5.3010    -2.5960     2.2240 H     1 <1>   0.1500 
 31 H       -2.5730    -1.1360    -2.3430 H     1 <1>   0.0800 
 32 H       -4.3120    -1.2840    -2.3690 H     1 <1>   0.0800 
 33 H       -3.3150    -2.7140    -2.2500 H     1 <1>   0.0800 
 34 H       -5.4710    -4.6540    -1.5530 H     1 <1>   0.0800 
 35 H       -4.3680    -4.7050    -0.1990 H     1 <1>   0.0800 
 36 H       -6.7470    -1.2570    -0.3610 H     1 <1>   0.0800 
 37 H       -7.0300    -2.3880    -1.6600 H     1 <1>   0.0800 
 38 H       -6.1710    -4.9240     1.3730 H     1 <1>   0.0800 
 39 H       -6.3690    -6.1350     0.1300 H     1 <1>   0.0800 
 40 H       -8.8100    -2.6010    -0.0460 H     1 <1>   0.0800 
 41 H       -7.6710    -2.7600     1.2680 H     1 <1>   0.0800 
 42 H       -8.0480    -4.7360    -0.9990 H     1 <1>   0.0800 
 43 H       -8.5810    -4.9540     1.8950 H     1 <1>   0.4500 
 44 H      -10.3830    -3.7340     1.1840 H     1 <1>   0.0800 
 45 H      -10.5220    -4.7310    -0.2640 H     1 <1>   0.0800 
 46 H       -8.6370    -7.0050    -0.1520 H     1 <1>   0.0800 
 47 H       -8.1940    -7.1110     1.5400 H     1 <1>   0.0800 
 48 H      -12.0860    -5.7380     1.3420 H     1 <1>   0.0800 
 49 H      -10.3280    -7.7540     2.0210 H     1 <1>   0.0800 
 50 H      -11.4380    -6.0540     3.4580 H     1 <1>   0.4000 
 51 H      -11.1790    -7.0820    -0.8080 H     1 <1>   0.0800 
 52 H      -11.9810    -8.1490     0.3020 H     1 <1>   0.0800 
 53 H       -9.7490    -8.1220    -2.4440 H     1 <1>   0.1500 
 54 H      -10.3710   -10.1580     1.2510 H     1 <1>   0.1500 
 55 H       -8.3900   -10.0050    -3.1460 H     1 <1>   0.1500 
 56 H       -8.9820   -11.9520     0.3900 H     1 <1>   0.1500 
@<TRIPOS>BOND
  1   1   2  1   
  2   2   3  ar  
  3   2   4  ar  
  4   3   5  ar  
  5   3  28  1   
  6   4   6  ar  
  7   4  29  1   
  8   5   7  ar  
  9   5   8  1   
 10   6   7  ar  
 11   6  30  1   
 12   7   9  1   
 13   8  31  1   
 14   8  32  1   
 15   8  33  1   
 16   9  10  1   
 17   9  11  1   
 18  10  12  1   
 19  10  34  1   
 20  10  35  1   
 21  11  13  1   
 22  11  36  1   
 23  11  37  1   
 24  12  14  1   
 25  12  38  1   
 26  12  39  1   
 27  13  14  1   
 28  13  40  1   
 29  13  41  1   
 30  14  15  1   
 31  14  42  1   
 32  15  16  1   
 33  15  17  1   
 34  15  43  1   
 35  16  18  1   
 36  16  44  1   
 37  16  45  1   
 38  17  19  1   
 39  17  46  1   
 40  17  47  1   
 41  18  19  1   
 42  18  20  1   
 43  18  48  1   
 44  19  21  1   
 45  19  49  1   
 46  20  50  1   
 47  21  22  1   
 48  21  51  1   
 49  21  52  1   
 50  22  23  ar  
 51  22  24  ar  
 52  23  25  ar  
 53  23  53  1   
 54  24  26  ar  
 55  24  54  1   
 56  25  27  ar  
 57  25  55  1   
 58  26  27  ar  
 59  26  56  1   
@<TRIPOS>SUBSTRUCTURE
  1 ****  12 GROUP 4 **** **** 0

# MOE 2024.06 (io_trps.svl 2023.06)
