@<TRIPOS>MOLECULE
NONAME
45 47 1 0 0 
SMALL
USER_CHARGES


@<TRIPOS>ATOM
  1 F       -1.0980    -0.0820    -0.8090 F     1 <1>  -0.1900 
  2 C       -1.8360    -0.7070     0.0640 C.ar  1 <1>   0.1900 
  3 C       -1.8600    -2.0980     0.1150 C.ar  1 <1>  -0.1440 
  4 C       -2.5850     0.0910     0.9060 C.ar  1 <1>  -0.1500 
  5 C       -2.7170    -2.6890     1.0600 C.ar  1 <1>  -0.1440 
  6 C       -0.9990    -2.9480    -0.8340 C.3   1 <1>   1.1640 
  7 C       -3.4030    -0.5060     1.8430 C.ar  1 <1>  -0.1500 
  8 C       -3.4650    -1.8860     1.9160 C.ar  1 <1>  -0.1500 
  9 C       -2.8890    -4.1990     1.2170 C.3   1 <1>   0.4860 
 10 F       -0.0770    -2.3290    -1.5510 F     1 <1>  -0.3400 
 11 F       -0.3600    -3.9000    -0.1670 F     1 <1>  -0.3400 
 12 F       -1.7760    -3.5950    -1.6980 F     1 <1>  -0.3400 
 13 N       -3.6790    -4.8010     0.0950 N.4   1 <1>  -0.9590 
 14 C       -5.0630    -4.2310    -0.0040 C.3   1 <1>   0.4230 
 15 C       -3.6270    -6.2940     0.2360 C.3   1 <1>   0.2630 
 16 C       -6.1090    -5.1890    -0.5790 C.3   1 <1>  -0.1600 
 17 C       -5.1150    -3.0560    -0.9810 C.3   1 <1>  -0.1600 
 18 C       -7.2390    -4.2810    -1.0750 C.3   1 <1>  -0.0800 
 19 C       -6.5930    -2.9170    -1.3600 C.3   1 <1>  -0.0800 
 20 C       -8.3370    -4.0320    -0.0310 C.3   1 <1>  -0.1600 
 21 C       -7.3490    -1.8880    -0.5050 C.3   1 <1>  -0.1600 
 22 C       -8.6750    -2.5570    -0.1800 C.3   1 <1>   0.2000 
 23 O       -9.1830    -2.0610     0.9980 O.3   1 <1>  -0.6800 
 24 H       -2.5250     1.1630     0.8270 H     1 <1>   0.1500 
 25 H       -3.9870     0.1040     2.5130 H     1 <1>   0.1500 
 26 H       -4.1120    -2.3230     2.6600 H     1 <1>   0.1500 
 27 H       -3.3910    -4.3980     2.1500 H     1 <1>   0.0800 
 28 H       -1.9190    -4.6650     1.2740 H     1 <1>   0.0800 
 29 H       -3.2090    -4.5590    -0.7910 H     1 <1>   0.4500 
 30 H       -5.4040    -3.9010     0.9640 H     1 <1>   0.0800 
 31 H       -4.1630    -6.6080     1.1170 H     1 <1>   0.0800 
 32 H       -2.6050    -6.6290     0.3150 H     1 <1>   0.0800 
 33 H       -4.0690    -6.7710    -0.6240 H     1 <1>   0.0800 
 34 H       -5.7120    -5.7060    -1.4350 H     1 <1>   0.0800 
 35 H       -6.4630    -5.9000     0.1470 H     1 <1>   0.0800 
 36 H       -4.7380    -2.1390    -0.5680 H     1 <1>   0.0800 
 37 H       -4.5620    -3.2950    -1.8720 H     1 <1>   0.0800 
 38 H       -7.6840    -4.6760    -1.9750 H     1 <1>   0.0800 
 39 H       -6.6980    -2.6640    -2.4030 H     1 <1>   0.0800 
 40 H       -7.9690    -4.2220     0.9610 H     1 <1>   0.0800 
 41 H       -9.2020    -4.6450    -0.2170 H     1 <1>   0.0800 
 42 H       -7.5050    -0.9700    -1.0450 H     1 <1>   0.0800 
 43 H       -6.8130    -1.6800     0.4050 H     1 <1>   0.0800 
 44 H       -9.3950    -2.3990    -0.9680 H     1 <1>   0.0800 
 45 H       -8.5590    -2.1950     1.7330 H     1 <1>   0.4000 
@<TRIPOS>BOND
  1   1   2  1   
  2   2   3  ar  
  3   2   4  ar  
  4   3   5  ar  
  5   3   6  1   
  6   4   7  ar  
  7   4  24  1   
  8   5   8  ar  
  9   5   9  1   
 10   6  10  1   
 11   6  11  1   
 12   6  12  1   
 13   7   8  ar  
 14   7  25  1   
 15   8  26  1   
 16   9  13  1   
 17   9  27  1   
 18   9  28  1   
 19  13  14  1   
 20  13  15  1   
 21  13  29  1   
 22  14  16  1   
 23  14  17  1   
 24  14  30  1   
 25  15  31  1   
 26  15  32  1   
 27  15  33  1   
 28  16  18  1   
 29  16  34  1   
 30  16  35  1   
 31  17  19  1   
 32  17  36  1   
 33  17  37  1   
 34  18  19  1   
 35  18  20  1   
 36  18  38  1   
 37  19  21  1   
 38  19  39  1   
 39  20  22  1   
 40  20  40  1   
 41  20  41  1   
 42  21  22  1   
 43  21  42  1   
 44  21  43  1   
 45  22  23  1   
 46  22  44  1   
 47  23  45  1   
@<TRIPOS>SUBSTRUCTURE
  1 ****  17 GROUP 4 **** **** 0

# MOE 2024.06 (io_trps.svl 2023.06)
