@<TRIPOS>MOLECULE
NONAME
43 45 1 0 0 
SMALL
USER_CHARGES


@<TRIPOS>ATOM
  1 S        0.3940    -1.9250    -1.0290 S.3   1 <1>  -0.0800 
  2 C       -0.5370    -0.4640    -0.7930 C.2   1 <1>   0.4620 
  3 C       -0.9320    -2.8340    -0.3750 C.2   1 <1>  -0.1100 
  4 N       -1.6940    -0.6500    -0.2890 N.2   1 <1>  -0.5650 
  5 N        0.0090     0.7250    -1.1430 N.pl3 1 <1>  -0.8840 
  6 C       -1.9520    -2.0100    -0.0420 C.2   1 <1>   0.1410 
  7 C       -3.2060    -2.4870     0.5470 C.2   1 <1>   0.7160 
  8 O       -3.1920    -3.5620     1.1270 O.2   1 <1>  -0.5700 
  9 N       -4.4130    -1.8110     0.4730 N.am  1 <1>  -0.6600 
 10 C       -5.5810    -2.2460     1.2960 C.3   1 <1>   0.1400 
 11 C       -4.6480    -0.6660    -0.4560 C.3   1 <1>   0.1400 
 12 C       -6.4550    -1.0400     1.6510 C.3   1 <1>  -0.1600 
 13 C       -6.1260    -0.5740    -0.8340 C.3   1 <1>  -0.1600 
 14 C       -7.0220    -0.3270     0.4000 C.3   1 <1>   0.2800 
 15 O       -6.9060     1.0560     0.6690 O.3   1 <1>  -0.5600 
 16 C       -8.5090    -0.7380     0.1570 C.3   1 <1>   0.2000 
 17 C       -8.0440     1.8690     0.6370 C.3   1 <1>   0.1200 
 18 O       -8.6410    -2.0840    -0.2050 O.3   1 <1>  -0.6800 
 19 C       -9.2650     0.2030    -0.8290 C.3   1 <1>   0.2800 
 20 C       -8.7780     1.6560    -0.6890 C.3   1 <1>  -0.1600 
 21 O      -10.5980     0.1740    -0.4610 O.3   1 <1>  -0.6800 
 22 C       -9.2500    -0.2310    -2.3030 C.3   1 <1>  -0.2400 
 23 H       -0.8310    -3.9010    -0.2950 H     1 <1>   0.1500 
 24 H        0.9860     0.8070    -1.4240 H     1 <1>   0.4000 
 25 H       -0.4850     1.5860    -0.9070 H     1 <1>   0.4000 
 26 H       -6.1560    -2.9680     0.7410 H     1 <1>   0.0800 
 27 H       -5.2360    -2.7150     2.2020 H     1 <1>   0.0800 
 28 H       -4.3380     0.2480     0.0250 H     1 <1>   0.0800 
 29 H       -4.0640    -0.7960    -1.3510 H     1 <1>   0.0800 
 30 H       -5.8500    -0.3580     2.2230 H     1 <1>   0.0800 
 31 H       -7.2530    -1.3740     2.2880 H     1 <1>   0.0800 
 32 H       -6.3970    -1.4950    -1.3180 H     1 <1>   0.0800 
 33 H       -6.2580     0.2170    -1.5470 H     1 <1>   0.0800 
 34 H       -9.0020    -0.6500     1.1090 H     1 <1>   0.0800 
 35 H       -8.6680     1.6290     1.4810 H     1 <1>   0.0800 
 36 H       -7.7140     2.8900     0.7280 H     1 <1>   0.0800 
 37 H       -9.5930    -2.2740    -0.3250 H     1 <1>   0.4000 
 38 H       -8.0840     1.8920    -1.4750 H     1 <1>   0.0800 
 39 H       -9.5980     2.3460    -0.7690 H     1 <1>   0.0800 
 40 H      -11.1260     0.6890    -1.1000 H     1 <1>   0.4000 
 41 H       -8.2420    -0.2970    -2.6650 H     1 <1>   0.0800 
 42 H       -9.7740     0.4810    -2.9140 H     1 <1>   0.0800 
 43 H       -9.7060    -1.1980    -2.4230 H     1 <1>   0.0800 
@<TRIPOS>BOND
  1   1   2  1   
  2   1   3  1   
  3   2   4  2   
  4   2   5  1   
  5   3   6  2   
  6   3  23  1   
  7   4   6  1   
  8   5  24  1   
  9   5  25  1   
 10   6   7  1   
 11   7   8  2   
 12   7   9  am  
 13   9  10  1   
 14   9  11  1   
 15  10  12  1   
 16  10  26  1   
 17  10  27  1   
 18  11  13  1   
 19  11  28  1   
 20  11  29  1   
 21  12  14  1   
 22  12  30  1   
 23  12  31  1   
 24  13  14  1   
 25  13  32  1   
 26  13  33  1   
 27  14  15  1   
 28  14  16  1   
 29  15  17  1   
 30  16  18  1   
 31  16  19  1   
 32  16  34  1   
 33  17  20  1   
 34  17  35  1   
 35  17  36  1   
 36  18  37  1   
 37  19  20  1   
 38  19  21  1   
 39  19  22  1   
 40  20  38  1   
 41  20  39  1   
 42  21  40  1   
 43  22  41  1   
 44  22  42  1   
 45  22  43  1   
@<TRIPOS>SUBSTRUCTURE
  1 ****  11 GROUP 4 **** **** 0

# MOE 2024.06 (io_trps.svl 2023.06)
