@<TRIPOS>MOLECULE
NONAME
43 44 1 0 0 
SMALL
USER_CHARGES


@<TRIPOS>ATOM
  1 S       -0.1460    -0.1590     0.0820 S.o2  1 <1>   1.3330 
  2 O       -0.4750    -0.4030     1.4680 O.2   1 <1>  -0.6500 
  3 O       -0.7580     0.9520    -0.6110 O.2   1 <1>  -0.6500 
  4 N       -0.4810    -1.5780    -0.7870 N.am  1 <1>  -0.8490 
  5 C        1.6310    -0.0010    -0.1050 C.3   1 <1>  -0.0550 
  6 C       -0.2950    -2.8010     0.0010 C.3   1 <1>   0.1160 
  7 C       -1.8230    -1.5660    -1.3770 C.3   1 <1>   0.1160 
  8 C        2.2140     1.2680     0.5500 C.3   1 <1>  -0.0800 
  9 C        3.6690     1.4670     0.1580 C.3   1 <1>   0.2200 
 10 C        2.3170     1.1310     2.0730 C.3   1 <1>   0.1200 
 11 N        4.0340     2.8890     0.3430 N.am  1 <1>  -0.7300 
 12 C        4.3920     0.6170     1.1980 C.3   1 <1>   0.1200 
 13 O        3.5980     0.6440     2.3470 O.3   1 <1>  -0.5600 
 14 C        4.4550     3.7440    -0.6320 C.2   1 <1>   0.7150 
 15 O        4.5070     3.3270    -1.7720 O.2   1 <1>  -0.5700 
 16 C        4.8290     5.0970    -0.3010 C.2   1 <1>  -0.0450 
 17 S        4.7320     5.6060     1.3750 S.3   1 <1>  -0.0800 
 18 C        5.2730     6.1660    -1.0070 C.2   1 <1>   0.0460 
 19 C        5.3000     7.1910     0.9290 C.2   1 <1>   0.1980 
 20 N        5.5330     7.3290    -0.3100 N.2   1 <1>  -0.5650 
 21 C        5.5260     6.2470    -2.5000 C.3   1 <1>  -0.0590 
 22 C        5.4550     8.2160     2.0270 C.3   1 <1>  -0.0600 
 23 H        2.1110    -0.8690     0.3020 H     1 <1>   0.0800 
 24 H        1.8460     0.0290    -1.1550 H     1 <1>   0.0800 
 25 H       -0.4280    -3.6680    -0.6240 H     1 <1>   0.0800 
 26 H       -1.0060    -2.8400     0.8110 H     1 <1>   0.0800 
 27 H        0.6990    -2.8310     0.4140 H     1 <1>   0.0800 
 28 H       -1.9960    -2.4710    -1.9320 H     1 <1>   0.0800 
 29 H       -1.9210    -0.7340    -2.0550 H     1 <1>   0.0800 
 30 H       -2.5710    -1.4730    -0.6060 H     1 <1>   0.0800 
 31 H        1.6140     2.1170     0.2670 H     1 <1>   0.0800 
 32 H        3.8860     1.1460    -0.8470 H     1 <1>   0.0800 
 33 H        1.5920     0.4610     2.5000 H     1 <1>   0.0800 
 34 H        2.2290     2.0930     2.5480 H     1 <1>   0.0800 
 35 H        4.0320     3.2150     1.3110 H     1 <1>   0.3700 
 36 H        5.3750     0.9900     1.4270 H     1 <1>   0.0800 
 37 H        4.4590    -0.4060     0.8730 H     1 <1>   0.0800 
 38 H        5.3180     5.3180    -2.9950 H     1 <1>   0.0800 
 39 H        6.5550     6.5050    -2.6750 H     1 <1>   0.0800 
 40 H        4.9020     7.0100    -2.9280 H     1 <1>   0.0800 
 41 H        5.8110     9.1410     1.6110 H     1 <1>   0.0800 
 42 H        6.1620     7.8660     2.7560 H     1 <1>   0.0800 
 43 H        4.5080     8.3880     2.5030 H     1 <1>   0.0800 
@<TRIPOS>BOND
  1   1   2  2   
  2   1   3  2   
  3   1   4  am  
  4   1   5  1   
  5   4   6  1   
  6   4   7  1   
  7   5   8  1   
  8   5  23  1   
  9   5  24  1   
 10   6  25  1   
 11   6  26  1   
 12   6  27  1   
 13   7  28  1   
 14   7  29  1   
 15   7  30  1   
 16   8   9  1   
 17   8  10  1   
 18   8  31  1   
 19   9  11  1   
 20   9  12  1   
 21   9  32  1   
 22  10  13  1   
 23  10  33  1   
 24  10  34  1   
 25  11  14  am  
 26  11  35  1   
 27  12  13  1   
 28  12  36  1   
 29  12  37  1   
 30  14  15  2   
 31  14  16  1   
 32  16  17  1   
 33  16  18  2   
 34  17  19  1   
 35  18  20  1   
 36  18  21  1   
 37  19  20  2   
 38  19  22  1   
 39  21  38  1   
 40  21  39  1   
 41  21  40  1   
 42  22  41  1   
 43  22  42  1   
 44  22  43  1   
@<TRIPOS>SUBSTRUCTURE
  1 ****  11 GROUP 4 **** **** 0

# MOE 2024.06 (io_trps.svl 2023.06)
