@<TRIPOS>MOLECULE
NONAME
58 62 1 0 0 
SMALL
USER_CHARGES


@<TRIPOS>ATOM
  1 F        0.1150    -2.7770     0.2610 F     1 <1>  -0.1900 
  2 C       -0.9470    -3.5270     0.3840 C.ar  1 <1>   0.1900 
  3 C       -2.1910    -2.9320     0.3370 C.ar  1 <1>  -0.1500 
  4 C       -0.7820    -4.8870     0.5560 C.ar  1 <1>  -0.1500 
  5 C       -3.3320    -3.7200     0.4710 C.ar  1 <1>  -0.0230 
  6 C       -1.9110    -5.6770     0.6840 C.ar  1 <1>  -0.1500 
  7 N       -4.6270    -3.1230     0.4340 N.pl3 1 <1>   0.5930 
  8 C       -3.1710    -5.0970     0.6400 C.ar  1 <1>  -0.1500 
  9 N       -4.9110    -1.9940    -0.2650 N.2   1 <1>  -0.7070 
 10 C       -5.7520    -3.5450     1.0690 C.2   1 <1>  -0.3020 
 11 C       -6.1580    -1.7360    -0.0500 C.2   1 <1>   0.1390 
 12 C       -6.7510    -2.6830     0.7750 C.2   1 <1>  -0.1810 
 13 C       -8.1990    -2.6920     1.2180 C.3   1 <1>   0.5240 
 14 N       -9.0420    -3.1370     0.0770 N.4   1 <1>  -0.9590 
 15 C      -10.5020    -2.9890     0.4050 C.3   1 <1>   0.3430 
 16 C       -8.7170    -4.5380    -0.3300 C.3   1 <1>   0.3430 
 17 C      -11.4090    -3.3660    -0.7800 C.3   1 <1>   0.1440 
 18 C       -9.5490    -4.9340    -1.5530 C.3   1 <1>  -0.1600 
 19 C      -12.8390    -3.3280    -0.3000 C.ar  1 <1>   0.1670 
 20 C      -11.0590    -4.7750    -1.3000 C.3   1 <1>  -0.1600 
 21 C      -11.4100    -2.3070    -1.9160 C.3   1 <1>  -0.1600 
 22 N      -13.2530    -3.8680     0.8160 N.ar  1 <1>  -0.6200 
 23 C      -13.6450    -2.6450    -1.1560 C.ar  1 <1>  -0.1430 
 24 C      -12.8790    -2.1250    -2.3470 C.3   1 <1>  -0.0170 
 25 C      -14.5580    -3.7090     1.0630 C.ar  1 <1>   0.7200 
 26 C      -14.9700    -2.5310    -0.8190 C.ar  1 <1>   0.1600 
 27 N      -15.4330    -3.0570     0.2910 N.ar  1 <1>  -0.6200 
 28 N      -15.0390    -4.2610     2.2310 N.pl3 1 <1>  -0.8380 
 29 C      -14.4070    -5.4460     2.8740 C.3   1 <1>   0.1290 
 30 C      -16.3650    -3.8710     2.7880 C.3   1 <1>   0.1290 
 31 H       -2.2670    -1.8680     0.1970 H     1 <1>   0.1500 
 32 H        0.2060    -5.3120     0.5870 H     1 <1>   0.1500 
 33 H       -1.8080    -6.7410     0.8160 H     1 <1>   0.1500 
 34 H       -4.0310    -5.7360     0.7350 H     1 <1>   0.1500 
 35 H       -5.7510    -4.4220     1.6900 H     1 <1>   0.1500 
 36 H       -6.6510    -0.8760    -0.4760 H     1 <1>   0.1500 
 37 H       -8.4840    -1.7010     1.5310 H     1 <1>   0.0800 
 38 H       -8.3210    -3.3630     2.0530 H     1 <1>   0.0800 
 39 H       -8.8200    -2.5320    -0.7220 H     1 <1>   0.4500 
 40 H      -10.7210    -1.9760     0.7010 H     1 <1>   0.0800 
 41 H      -10.7510    -3.6330     1.2340 H     1 <1>   0.0800 
 42 H       -8.9340    -5.2140     0.4830 H     1 <1>   0.0800 
 43 H       -7.6690    -4.6230    -0.5700 H     1 <1>   0.0800 
 44 H       -9.3410    -5.9630    -1.7940 H     1 <1>   0.0800 
 45 H       -9.2430    -4.3450    -2.4000 H     1 <1>   0.0800 
 46 H      -11.6110    -4.9860    -2.2010 H     1 <1>   0.0800 
 47 H      -11.3640    -5.5020    -0.5660 H     1 <1>   0.0800 
 48 H      -10.7950    -2.5850    -2.7540 H     1 <1>   0.0800 
 49 H      -11.0610    -1.3630    -1.5340 H     1 <1>   0.0800 
 50 H      -13.1040    -2.7290    -3.2100 H     1 <1>   0.0800 
 51 H      -13.1120    -1.0940    -2.5530 H     1 <1>   0.0800 
 52 H      -15.6570    -2.0040    -1.4590 H     1 <1>   0.1500 
 53 H      -13.7120    -5.9210     2.2030 H     1 <1>   0.0800 
 54 H      -15.1610    -6.1650     3.1400 H     1 <1>   0.0800 
 55 H      -13.8830    -5.1370     3.7610 H     1 <1>   0.0800 
 56 H      -16.5790    -2.8410     2.5620 H     1 <1>   0.0800 
 57 H      -16.3680    -3.9920     3.8570 H     1 <1>   0.0800 
 58 H      -17.1330    -4.4890     2.3560 H     1 <1>   0.0800 
@<TRIPOS>BOND
  1   1   2  1   
  2   2   3  ar  
  3   2   4  ar  
  4   3   5  ar  
  5   3  31  1   
  6   4   6  ar  
  7   4  32  1   
  8   5   7  1   
  9   5   8  ar  
 10   6   8  ar  
 11   6  33  1   
 12   7   9  1   
 13   7  10  1   
 14   8  34  1   
 15   9  11  2   
 16  10  12  2   
 17  10  35  1   
 18  11  12  1   
 19  11  36  1   
 20  12  13  1   
 21  13  14  1   
 22  13  37  1   
 23  13  38  1   
 24  14  15  1   
 25  14  16  1   
 26  14  39  1   
 27  15  17  1   
 28  15  40  1   
 29  15  41  1   
 30  16  18  1   
 31  16  42  1   
 32  16  43  1   
 33  17  19  1   
 34  17  20  1   
 35  17  21  1   
 36  18  20  1   
 37  18  44  1   
 38  18  45  1   
 39  19  22  ar  
 40  19  23  ar  
 41  20  46  1   
 42  20  47  1   
 43  21  24  1   
 44  21  48  1   
 45  21  49  1   
 46  22  25  ar  
 47  23  24  1   
 48  23  26  ar  
 49  24  50  1   
 50  24  51  1   
 51  25  27  ar  
 52  25  28  1   
 53  26  27  ar  
 54  26  52  1   
 55  28  29  1   
 56  28  30  1   
 57  29  53  1   
 58  29  54  1   
 59  29  55  1   
 60  30  56  1   
 61  30  57  1   
 62  30  58  1   
@<TRIPOS>SUBSTRUCTURE
  1 ****  14 GROUP 4 **** **** 0

# MOE 2024.06 (io_trps.svl 2023.06)
