@<TRIPOS>MOLECULE
NONAME
42 43 1 0 0 
SMALL
USER_CHARGES


@<TRIPOS>ATOM
  1 S        0.5520     0.2580    -1.4740 S.o2  1 <1>   1.3330 
  2 O        0.8720    -1.0650    -1.9640 O.2   1 <1>  -0.6500 
  3 O       -0.3120     1.1200    -2.2490 O.2   1 <1>  -0.6500 
  4 N       -0.1590     0.0860     0.0610 N.am  1 <1>  -0.8490 
  5 C        2.0910     1.1120    -1.1300 C.3   1 <1>  -0.0550 
  6 C       -0.8900     1.2810     0.4980 C.3   1 <1>   0.1160 
  7 C       -1.0390    -1.0850     0.1340 C.3   1 <1>   0.1160 
  8 C        3.1410     0.2540    -0.3920 C.3   1 <1>  -0.0800 
  9 C        4.5020     0.9110    -0.2220 C.3   1 <1>   0.2200 
 10 C        2.7780    -0.1410     1.0460 C.3   1 <1>   0.1200 
 11 N        4.3580     2.3220     0.2130 N.am  1 <1>  -0.7300 
 12 C        5.0540     0.0980     0.9400 C.3   1 <1>   0.1200 
 13 O        3.9630    -0.0940     1.7890 O.3   1 <1>  -0.5600 
 14 C        4.4740     3.4160    -0.5950 C.2   1 <1>   0.5440 
 15 O        4.6260     3.2220    -1.7850 O.2   1 <1>  -0.5700 
 16 C        4.4050     4.7660    -0.0570 C.ar  1 <1>   0.0860 
 17 C        4.8940     5.8480    -0.7960 C.ar  1 <1>  -0.1500 
 18 C        3.8500     5.0370     1.2020 C.ar  1 <1>  -0.1500 
 19 C        4.8420     7.1390    -0.3040 C.ar  1 <1>   0.0820 
 20 C        3.7910     6.3250     1.7110 C.ar  1 <1>  -0.1500 
 21 O        5.3260     8.1560    -1.0430 O.3   1 <1>  -0.5330 
 22 C        4.2900     7.3620     0.9490 C.ar  1 <1>   0.1900 
 23 F        4.2370     8.5790     1.4230 F     1 <1>  -0.1900 
 24 H        2.5190     1.4220    -2.0650 H     1 <1>   0.0800 
 25 H        1.8840     2.0010    -0.5680 H     1 <1>   0.0800 
 26 H       -1.2380     1.1520     1.5090 H     1 <1>   0.0800 
 27 H       -1.7380     1.4600    -0.1430 H     1 <1>   0.0800 
 28 H       -0.2460     2.1430     0.4670 H     1 <1>   0.0800 
 29 H       -1.4650    -1.1710     1.1190 H     1 <1>   0.0800 
 30 H       -0.4770    -1.9820    -0.0680 H     1 <1>   0.0800 
 31 H       -1.8320    -1.0030    -0.5910 H     1 <1>   0.0800 
 32 H        3.2840    -0.6560    -0.9500 H     1 <1>   0.0800 
 33 H        5.1170     0.8400    -1.1040 H     1 <1>   0.0800 
 34 H        2.3700    -1.1370     1.0960 H     1 <1>   0.0800 
 35 H        2.0900     0.5560     1.4910 H     1 <1>   0.0800 
 36 H        4.2460     2.4230     1.2240 H     1 <1>   0.3700 
 37 H        5.8440     0.6020     1.4680 H     1 <1>   0.0800 
 38 H        5.3900    -0.8680     0.6070 H     1 <1>   0.0800 
 39 H        5.3210     5.6790    -1.7690 H     1 <1>   0.1500 
 40 H        3.4520     4.2340     1.7960 H     1 <1>   0.1500 
 41 H        3.3650     6.5250     2.6790 H     1 <1>   0.1500 
 42 H        5.2290     9.0170    -0.5920 H     1 <1>   0.4500 
@<TRIPOS>BOND
  1   1   2  2   
  2   1   3  2   
  3   1   4  am  
  4   1   5  1   
  5   4   6  1   
  6   4   7  1   
  7   5   8  1   
  8   5  24  1   
  9   5  25  1   
 10   6  26  1   
 11   6  27  1   
 12   6  28  1   
 13   7  29  1   
 14   7  30  1   
 15   7  31  1   
 16   8   9  1   
 17   8  10  1   
 18   8  32  1   
 19   9  11  1   
 20   9  12  1   
 21   9  33  1   
 22  10  13  1   
 23  10  34  1   
 24  10  35  1   
 25  11  14  am  
 26  11  36  1   
 27  12  13  1   
 28  12  37  1   
 29  12  38  1   
 30  14  15  2   
 31  14  16  1   
 32  16  17  ar  
 33  16  18  ar  
 34  17  19  ar  
 35  17  39  1   
 36  18  20  ar  
 37  18  40  1   
 38  19  21  1   
 39  19  22  ar  
 40  20  22  ar  
 41  20  41  1   
 42  21  42  1   
 43  22  23  1   
@<TRIPOS>SUBSTRUCTURE
  1 ****  11 GROUP 4 **** **** 0

# MOE 2024.06 (io_trps.svl 2023.06)
