@<TRIPOS>MOLECULE
NONAME
60 62 1 0 0 
SMALL
USER_CHARGES


@<TRIPOS>ATOM
  1 O        0.6800     3.1650    -1.2070 O.2   1 <1>  -0.5700 
  2 C       -0.5360     3.0950    -1.2300 C.2   1 <1>   0.5440 
  3 N       -1.0830     1.8360    -1.3940 N.am  1 <1>  -0.6600 
  4 C       -1.3610     4.2860    -1.0490 C.ar  1 <1>   0.3960 
  5 C       -0.2760     0.7580    -2.0450 C.3   1 <1>   0.1400 
  6 C       -2.1190     1.3180    -0.4490 C.3   1 <1>   0.1400 
  7 N       -0.9730     5.2380    -0.1860 N.ar  1 <1>  -0.6200 
  8 C       -2.5460     4.3960    -1.7780 C.ar  1 <1>   0.1600 
  9 C        0.3920    -0.1220    -0.9740 C.3   1 <1>   0.3430 
 10 C       -1.4710     0.3930     0.6070 C.3   1 <1>   0.3430 
 11 C       -1.8070     6.2630    -0.0940 C.ar  1 <1>   0.4100 
 12 N       -3.4080     5.3930    -1.6850 N.ar  1 <1>  -0.6200 
 13 N       -0.6200    -0.6900    -0.0090 N.4   1 <1>  -0.9590 
 14 N       -1.3930     7.2840     0.7650 N.pl3 1 <1>  -0.8380 
 15 C       -3.0060     6.3110    -0.8300 C.ar  1 <1>   0.1600 
 16 C        0.0580    -1.5020     1.0470 C.3   1 <1>   0.2630 
 17 C       -0.5820     6.9670     1.9940 C.3   1 <1>   0.2090 
 18 C       -2.0990     8.6010     0.8080 C.3   1 <1>   0.1290 
 19 C        0.9260     7.2540     1.8040 C.3   1 <1>   0.3430 
 20 N        1.4310     6.7590     0.4820 N.4   1 <1>  -0.9590 
 21 C        2.6930     5.9830     0.5750 C.3   1 <1>   0.4230 
 22 C        1.4870     7.8720    -0.5110 C.3   1 <1>   0.2630 
 23 C        3.1550     5.4570    -0.7830 C.3   1 <1>  -0.1600 
 24 C        2.5140     4.7250     1.4170 C.3   1 <1>  -0.1600 
 25 C        3.8820     4.1350    -0.5110 C.3   1 <1>  -0.1600 
 26 C        3.6390     3.7980     0.9620 C.3   1 <1>  -0.1600 
 27 H        0.4840     1.1930    -2.6730 H     1 <1>   0.0800 
 28 H       -0.9110     0.1590    -2.6740 H     1 <1>   0.0800 
 29 H       -2.8680     0.7750    -1.0000 H     1 <1>   0.0800 
 30 H       -2.6100     2.1330     0.0540 H     1 <1>   0.0800 
 31 H       -2.7940     3.6140    -2.4740 H     1 <1>   0.1500 
 32 H        1.1070     0.4830    -0.4400 H     1 <1>   0.0800 
 33 H        0.9300    -0.9210    -1.4570 H     1 <1>   0.0800 
 34 H       -2.2460    -0.0500     1.2110 H     1 <1>   0.0800 
 35 H       -0.8590     1.0000     1.2550 H     1 <1>   0.0800 
 36 H       -1.2440    -1.3100    -0.5470 H     1 <1>   0.4500 
 37 H       -3.6570     7.1540    -0.6970 H     1 <1>   0.1500 
 38 H        0.7230    -0.8830     1.6270 H     1 <1>   0.0800 
 39 H        0.6320    -2.2970     0.5990 H     1 <1>   0.0800 
 40 H       -0.6710    -1.9410     1.7110 H     1 <1>   0.0800 
 41 H       -0.7060     5.9290     2.2510 H     1 <1>   0.0800 
 42 H       -0.9470     7.5360     2.8310 H     1 <1>   0.0800 
 43 H       -2.3550     8.9240    -0.1870 H     1 <1>   0.0800 
 44 H       -1.4660     9.3520     1.2490 H     1 <1>   0.0800 
 45 H       -2.9990     8.5180     1.3950 H     1 <1>   0.0800 
 46 H        1.4640     6.7830     2.6080 H     1 <1>   0.0800 
 47 H        1.0920     8.3150     1.8810 H     1 <1>   0.0800 
 48 H        0.6880     6.1110     0.1440 H     1 <1>   0.4500 
 49 H        3.4780     6.5850     1.0020 H     1 <1>   0.0800 
 50 H        2.2380     8.5910    -0.2280 H     1 <1>   0.0800 
 51 H        0.5300     8.3640    -0.5630 H     1 <1>   0.0800 
 52 H        1.7230     7.4880    -1.4890 H     1 <1>   0.0800 
 53 H        3.8100     6.1590    -1.2690 H     1 <1>   0.0800 
 54 H        2.3080     5.2560    -1.4160 H     1 <1>   0.0800 
 55 H        1.5700     4.2610     1.1880 H     1 <1>   0.0800 
 56 H        2.5840     4.9230     2.4710 H     1 <1>   0.0800 
 57 H        4.9380     4.2230    -0.7060 H     1 <1>   0.0800 
 58 H        3.4800     3.3610    -1.1440 H     1 <1>   0.0800 
 59 H        3.3810     2.7610     1.0960 H     1 <1>   0.0800 
 60 H        4.5320     4.0070     1.5280 H     1 <1>   0.0800 
@<TRIPOS>BOND
  1   1   2  2   
  2   2   3  am  
  3   2   4  1   
  4   3   5  1   
  5   3   6  1   
  6   4   7  ar  
  7   4   8  ar  
  8   5   9  1   
  9   5  27  1   
 10   5  28  1   
 11   6  10  1   
 12   6  29  1   
 13   6  30  1   
 14   7  11  ar  
 15   8  12  ar  
 16   8  31  1   
 17   9  13  1   
 18   9  32  1   
 19   9  33  1   
 20  10  13  1   
 21  10  34  1   
 22  10  35  1   
 23  11  14  1   
 24  11  15  ar  
 25  12  15  ar  
 26  13  16  1   
 27  13  36  1   
 28  14  17  1   
 29  14  18  1   
 30  15  37  1   
 31  16  38  1   
 32  16  39  1   
 33  16  40  1   
 34  17  19  1   
 35  17  41  1   
 36  17  42  1   
 37  18  43  1   
 38  18  44  1   
 39  18  45  1   
 40  19  20  1   
 41  19  46  1   
 42  19  47  1   
 43  20  21  1   
 44  20  22  1   
 45  20  48  1   
 46  21  23  1   
 47  21  24  1   
 48  21  49  1   
 49  22  50  1   
 50  22  51  1   
 51  22  52  1   
 52  23  25  1   
 53  23  53  1   
 54  23  54  1   
 55  24  26  1   
 56  24  55  1   
 57  24  56  1   
 58  25  26  1   
 59  25  57  1   
 60  25  58  1   
 61  26  59  1   
 62  26  60  1   
@<TRIPOS>SUBSTRUCTURE
  1 ****   7 GROUP 4 **** **** 0

# MOE 2024.06 (io_trps.svl 2023.06)
