@<TRIPOS>MOLECULE
NONAME
45 47 1 0 0 
SMALL
USER_CHARGES


@<TRIPOS>ATOM
  1 O       -2.0800     0.5060    -2.1840 O.2   1 <1>  -0.5700 
  2 C       -2.0040     0.7060    -0.9970 C.2   1 <1>   0.5690 
  3 N       -1.9720    -0.3080    -0.1010 N.am  1 <1>  -0.7300 
  4 C       -1.9430     2.1260    -0.4870 C.3   1 <1>  -0.0990 
  5 C       -1.9830    -1.7480    -0.4480 C.3   1 <1>   0.2200 
  6 C       -0.5000     2.6380    -0.4590 C.3   1 <1>  -0.0170 
  7 C       -3.3340    -2.3800    -0.1440 C.3   1 <1>  -0.0800 
  8 C       -1.0990    -2.4930     0.5420 C.3   1 <1>   0.1200 
  9 C       -0.4510     4.0440     0.1150 C.ar  1 <1>  -0.1440 
 10 C       -3.2300    -2.7240     1.3470 C.3   1 <1>   0.1200 
 11 C       -4.5700    -1.5400    -0.5180 C.3   1 <1>  -0.0170 
 12 O       -1.8780    -2.6190     1.6920 O.3   1 <1>  -0.5600 
 13 C       -0.6530     5.1400    -0.7090 C.ar  1 <1>  -0.1500 
 14 C       -0.2110     4.2430     1.4650 C.ar  1 <1>  -0.1500 
 15 C       -5.8520    -2.3150    -0.2560 C.ar  1 <1>  -0.1440 
 16 C       -0.6170     6.4220    -0.1890 C.ar  1 <1>  -0.1500 
 17 C       -0.1740     5.5250     1.9870 C.ar  1 <1>  -0.1500 
 18 C       -6.3280    -3.2510    -1.1510 C.ar  1 <1>  -0.1500 
 19 C       -6.6040    -2.1260     0.8860 C.ar  1 <1>  -0.1500 
 20 C       -0.3770     6.6150     1.1600 C.ar  1 <1>  -0.1500 
 21 C       -7.4970    -3.9380    -0.8670 C.ar  1 <1>   0.1600 
 22 C       -7.7590    -2.8660     1.0750 C.ar  1 <1>   0.1600 
 23 N       -8.2230    -3.7700     0.2270 N.ar  1 <1>  -0.6200 
 24 H       -1.9280    -0.1260     0.9040 H     1 <1>   0.3700 
 25 H       -2.5340     2.7510    -1.1320 H     1 <1>   0.0800 
 26 H       -2.3660     2.1730     0.4990 H     1 <1>   0.0800 
 27 H       -1.6720    -1.8970    -1.4690 H     1 <1>   0.0800 
 28 H       -0.0980     2.6380    -1.4580 H     1 <1>   0.0800 
 29 H        0.1100     1.9810     0.1360 H     1 <1>   0.0800 
 30 H       -3.3880    -3.3100    -0.6830 H     1 <1>   0.0800 
 31 H       -0.1900    -1.9670     0.7710 H     1 <1>   0.0800 
 32 H       -0.8720    -3.4830     0.1840 H     1 <1>   0.0800 
 33 H       -3.5670    -3.7260     1.5490 H     1 <1>   0.0800 
 34 H       -3.7760    -2.0270     1.9580 H     1 <1>   0.0800 
 35 H       -4.5190    -1.2760    -1.5610 H     1 <1>   0.0800 
 36 H       -4.5880    -0.6240     0.0450 H     1 <1>   0.0800 
 37 H       -0.8410     4.9990    -1.7600 H     1 <1>   0.1500 
 38 H       -0.0520     3.4030     2.1180 H     1 <1>   0.1500 
 39 H       -0.7740     7.2680    -0.8340 H     1 <1>   0.1500 
 40 H        0.0130     5.6730     3.0360 H     1 <1>   0.1500 
 41 H       -5.8030    -3.4510    -2.0670 H     1 <1>   0.1500 
 42 H       -6.3050    -1.4120     1.6310 H     1 <1>   0.1500 
 43 H       -0.3480     7.6110     1.5650 H     1 <1>   0.1500 
 44 H       -7.8540    -4.6640    -1.5770 H     1 <1>   0.1500 
 45 H       -8.3330    -2.7070     1.9720 H     1 <1>   0.1500 
@<TRIPOS>BOND
  1   1   2  2   
  2   2   3  am  
  3   2   4  1   
  4   3   5  1   
  5   3  24  1   
  6   4   6  1   
  7   4  25  1   
  8   4  26  1   
  9   5   7  1   
 10   5   8  1   
 11   5  27  1   
 12   6   9  1   
 13   6  28  1   
 14   6  29  1   
 15   7  10  1   
 16   7  11  1   
 17   7  30  1   
 18   8  12  1   
 19   8  31  1   
 20   8  32  1   
 21   9  13  ar  
 22   9  14  ar  
 23  10  12  1   
 24  10  33  1   
 25  10  34  1   
 26  11  15  1   
 27  11  35  1   
 28  11  36  1   
 29  13  16  ar  
 30  13  37  1   
 31  14  17  ar  
 32  14  38  1   
 33  15  18  ar  
 34  15  19  ar  
 35  16  20  ar  
 36  16  39  1   
 37  17  20  ar  
 38  17  40  1   
 39  18  21  ar  
 40  18  41  1   
 41  19  22  ar  
 42  19  42  1   
 43  20  43  1   
 44  21  23  ar  
 45  21  44  1   
 46  22  23  ar  
 47  22  45  1   
@<TRIPOS>SUBSTRUCTURE
  1 ****   3 GROUP 4 **** **** 0

# MOE 2024.06 (io_trps.svl 2023.06)
