@<TRIPOS>MOLECULE
NONAME
50 53 1 0 0 
SMALL
USER_CHARGES


@<TRIPOS>ATOM
  1 O        0.2340     0.1630     0.9530 O.3   1 <1>  -0.3630 
  2 C        1.1960    -0.6880     0.5170 C.ar  1 <1>   0.0830 
  3 C        0.2370     1.4720     0.4110 C.3   1 <1>   0.1200 
  4 C        2.2940    -0.2310    -0.2090 C.ar  1 <1>   0.0830 
  5 C        1.0690    -2.0340     0.7960 C.ar  1 <1>  -0.1500 
  6 C        1.6750     1.9940     0.2760 C.3   1 <1>   0.1200 
  7 O        2.4560     1.0870    -0.4790 O.3   1 <1>  -0.3630 
  8 C        3.2440    -1.1310    -0.6570 C.ar  1 <1>  -0.1500 
  9 C        2.0170    -2.9410     0.3380 C.ar  1 <1>  -0.1430 
 10 C        3.1190    -2.4870    -0.3860 C.ar  1 <1>  -0.1430 
 11 C        1.8050    -4.4120     0.6430 C.3   1 <1>   0.4870 
 12 C        4.2120    -3.4230    -0.8890 C.3   1 <1>  -0.0960 
 13 N        1.2710    -5.0700    -0.5800 N.4   1 <1>  -0.9590 
 14 C       -0.1370    -4.6300    -0.8520 C.3   1 <1>   0.3430 
 15 C        1.2360    -6.5560    -0.4140 C.3   1 <1>   0.3430 
 16 C       -1.0310    -5.7310    -0.2770 C.3   1 <1>   0.2000 
 17 C       -0.2240    -6.9890    -0.5930 C.3   1 <1>  -0.0800 
 18 O       -1.1100    -5.5580     1.1030 O.3   1 <1>  -0.6800 
 19 C       -0.5800    -8.2600     0.2030 C.3   1 <1>   0.0200 
 20 C        0.4410    -9.3490    -0.0650 C.2   1 <1>  -0.0400 
 21 O        0.8060    -9.6090    -1.2910 O.3   1 <1>  -0.0190 
 22 C        1.1290   -10.1610     0.7520 C.2   1 <1>  -0.1500 
 23 N        1.7140   -10.5370    -1.3390 N.2   1 <1>  -0.4100 
 24 C        1.9220   -10.8980    -0.1230 C.2   1 <1>   0.1080 
 25 C        2.8970   -11.9800     0.2870 C.3   1 <1>  -0.0590 
 26 H       -0.2380     1.4370    -0.5530 H     1 <1>   0.0800 
 27 H       -0.3380     2.1030     1.0650 H     1 <1>   0.0800 
 28 H        0.2180    -2.3540     1.3720 H     1 <1>   0.1500 
 29 H        2.1280     2.0990     1.2460 H     1 <1>   0.0800 
 30 H        1.6910     2.9440    -0.2270 H     1 <1>   0.0800 
 31 H        4.0820    -0.7480    -1.2130 H     1 <1>   0.1500 
 32 H        1.1100    -4.5250     1.4610 H     1 <1>   0.0800 
 33 H        2.7430    -4.8560     0.9290 H     1 <1>   0.0800 
 34 H        5.0700    -2.8610    -1.2130 H     1 <1>   0.0800 
 35 H        3.8610    -4.0000    -1.7250 H     1 <1>   0.0800 
 36 H        4.5380    -4.0840    -0.1070 H     1 <1>   0.0800 
 37 H        1.8740    -4.7830    -1.3600 H     1 <1>   0.4500 
 38 H       -0.3650    -3.6730    -0.4160 H     1 <1>   0.0800 
 39 H       -0.2920    -4.5740    -1.9160 H     1 <1>   0.0800 
 40 H        1.8680    -7.0500    -1.1360 H     1 <1>   0.0800 
 41 H        1.5660    -6.8240     0.5770 H     1 <1>   0.0800 
 42 H       -2.0240    -5.7220    -0.6960 H     1 <1>   0.0800 
 43 H       -0.3580    -7.2100    -1.6380 H     1 <1>   0.0800 
 44 H       -1.9180    -5.9800     1.4690 H     1 <1>   0.4000 
 45 H       -1.5540    -8.6130    -0.0930 H     1 <1>   0.0800 
 46 H       -0.6000    -8.0670     1.2610 H     1 <1>   0.0800 
 47 H        1.1080   -10.2540     1.8230 H     1 <1>   0.1500 
 48 H        3.6310   -11.5780     0.9610 H     1 <1>   0.0800 
 49 H        3.3990   -12.3720    -0.5800 H     1 <1>   0.0800 
 50 H        2.3700   -12.7810     0.7730 H     1 <1>   0.0800 
@<TRIPOS>BOND
  1   1   2  1   
  2   1   3  1   
  3   2   4  ar  
  4   2   5  ar  
  5   3   6  1   
  6   3  26  1   
  7   3  27  1   
  8   4   7  1   
  9   4   8  ar  
 10   5   9  ar  
 11   5  28  1   
 12   6   7  1   
 13   6  29  1   
 14   6  30  1   
 15   8  10  ar  
 16   8  31  1   
 17   9  10  ar  
 18   9  11  1   
 19  10  12  1   
 20  11  13  1   
 21  11  32  1   
 22  11  33  1   
 23  12  34  1   
 24  12  35  1   
 25  12  36  1   
 26  13  14  1   
 27  13  15  1   
 28  13  37  1   
 29  14  16  1   
 30  14  38  1   
 31  14  39  1   
 32  15  17  1   
 33  15  40  1   
 34  15  41  1   
 35  16  17  1   
 36  16  18  1   
 37  16  42  1   
 38  17  19  1   
 39  17  43  1   
 40  18  44  1   
 41  19  20  1   
 42  19  45  1   
 43  19  46  1   
 44  20  21  1   
 45  20  22  2   
 46  21  23  1   
 47  22  24  1   
 48  22  47  1   
 49  23  24  2   
 50  24  25  1   
 51  25  48  1   
 52  25  49  1   
 53  25  50  1   
@<TRIPOS>SUBSTRUCTURE
  1 ****  13 GROUP 4 **** **** 0

# MOE 2024.06 (io_trps.svl 2023.06)
