@<TRIPOS>MOLECULE
NONAME
55 58 1 0 0 
SMALL
USER_CHARGES


@<TRIPOS>ATOM
  1 O        0.7370    -0.3370    -1.4760 O.2   1 <1>  -0.5700 
  2 C        1.8070    -0.4150    -0.9200 C.2   1 <1>   0.5690 
  3 N        2.5790     0.6630    -0.5970 N.am  1 <1>  -0.4940 
  4 C        2.3300    -1.8040    -0.5640 C.3   1 <1>  -0.0190 
  5 C        2.3880     2.0390    -0.8740 C.2   1 <1>  -0.0880 
  6 C        2.5190    -2.6550    -1.8340 C.3   1 <1>  -0.1600 
  7 C        1.3770    -2.5130     0.4170 C.3   1 <1>  -0.1600 
  8 N        3.1990     3.0600    -0.4560 N.pl3 1 <1>   0.3140 
  9 C        1.4050     2.6100    -1.6080 C.2   1 <1>  -0.1500 
 10 C        2.9160    -4.0930    -1.5110 C.3   1 <1>   0.3430 
 11 C        1.7940    -3.9560     0.6910 C.3   1 <1>   0.3430 
 12 N        2.7520     4.2520    -0.9310 N.2   1 <1>  -0.7070 
 13 C        4.4220     3.0330     0.4130 C.3   1 <1>   0.3190 
 14 C        1.6840     3.9680    -1.6080 C.2   1 <1>   0.1390 
 15 N        1.9070    -4.6970    -0.6000 N.4   1 <1>  -0.9590 
 16 C        5.0270     1.6260     0.5440 C.ar  1 <1>  -0.1440 
 17 C        4.1260     3.6990     1.7680 C.3   1 <1>  -0.2400 
 18 C        2.1690    -6.1510    -0.3830 C.3   1 <1>   0.5230 
 19 C        5.7940     1.1380    -0.5060 C.ar  1 <1>  -0.1500 
 20 C        4.8200     0.8100     1.6520 C.ar  1 <1>  -0.1500 
 21 C        0.9190    -6.8350     0.1410 C.2   1 <1>  -0.0400 
 22 C        6.3430    -0.1310    -0.4530 C.ar  1 <1>  -0.1500 
 23 C        5.3720    -0.4580     1.7080 C.ar  1 <1>  -0.1500 
 24 O        0.5240    -6.6000     1.3790 O.3   1 <1>  -0.2800 
 25 C        0.0810    -7.7070    -0.4630 C.2   1 <1>  -0.1500 
 26 C        6.1340    -0.9310     0.6560 C.ar  1 <1>  -0.1500 
 27 C       -0.5660    -7.3090     1.5920 C.2   1 <1>  -0.0100 
 28 C       -0.8960    -8.0160     0.4920 C.2   1 <1>  -0.1500 
 29 H        3.4660     0.4480    -0.1280 H     1 <1>   0.3700 
 30 H        3.2880    -1.6960    -0.0850 H     1 <1>   0.0800 
 31 H        3.2790    -2.2080    -2.4510 H     1 <1>   0.0800 
 32 H        1.6080    -2.6640    -2.4090 H     1 <1>   0.0800 
 33 H        0.3740    -2.5090     0.0240 H     1 <1>   0.0800 
 34 H        1.3530    -1.9710     1.3470 H     1 <1>   0.0800 
 35 H        0.5770     2.1350    -2.1020 H     1 <1>   0.1500 
 36 H        3.8870    -4.1020    -1.0420 H     1 <1>   0.0800 
 37 H        2.9760    -4.6590    -2.4280 H     1 <1>   0.0800 
 38 H        1.0550    -4.4170     1.3260 H     1 <1>   0.0800 
 39 H        2.7400    -3.9710     1.2080 H     1 <1>   0.0800 
 40 H        5.1520     3.6480    -0.0820 H     1 <1>   0.0800 
 41 H        1.0860     4.7090    -2.1120 H     1 <1>   0.1500 
 42 H        0.9840    -4.6390    -1.0520 H     1 <1>   0.4500 
 43 H        3.3030     3.2140     2.2610 H     1 <1>   0.0800 
 44 H        3.8720     4.7330     1.6150 H     1 <1>   0.0800 
 45 H        4.9950     3.6560     2.3990 H     1 <1>   0.0800 
 46 H        2.9780    -6.2890     0.3150 H     1 <1>   0.0800 
 47 H        2.4420    -6.6130    -1.3170 H     1 <1>   0.0800 
 48 H        5.9700     1.7480    -1.3780 H     1 <1>   0.1500 
 49 H        4.2330     1.1470     2.4900 H     1 <1>   0.1500 
 50 H        6.9430    -0.4900    -1.2730 H     1 <1>   0.1500 
 51 H        5.2180    -1.0720     2.5800 H     1 <1>   0.1500 
 52 H        0.1080    -8.1140    -1.4600 H     1 <1>   0.1500 
 53 H        6.5770    -1.9110     0.7040 H     1 <1>   0.1500 
 54 H       -1.0470    -7.2570     2.5560 H     1 <1>   0.1500 
 55 H       -1.7260    -8.6870     0.3470 H     1 <1>   0.1500 
@<TRIPOS>BOND
  1   1   2  2   
  2   2   3  am  
  3   2   4  1   
  4   3   5  1   
  5   3  29  1   
  6   4   6  1   
  7   4   7  1   
  8   4  30  1   
  9   5   8  1   
 10   5   9  2   
 11   6  10  1   
 12   6  31  1   
 13   6  32  1   
 14   7  11  1   
 15   7  33  1   
 16   7  34  1   
 17   8  12  1   
 18   8  13  1   
 19   9  14  1   
 20   9  35  1   
 21  10  15  1   
 22  10  36  1   
 23  10  37  1   
 24  11  15  1   
 25  11  38  1   
 26  11  39  1   
 27  12  14  2   
 28  13  16  1   
 29  13  17  1   
 30  13  40  1   
 31  14  41  1   
 32  15  18  1   
 33  15  42  1   
 34  16  19  ar  
 35  16  20  ar  
 36  17  43  1   
 37  17  44  1   
 38  17  45  1   
 39  18  21  1   
 40  18  46  1   
 41  18  47  1   
 42  19  22  ar  
 43  19  48  1   
 44  20  23  ar  
 45  20  49  1   
 46  21  24  1   
 47  21  25  2   
 48  22  26  ar  
 49  22  50  1   
 50  23  26  ar  
 51  23  51  1   
 52  24  27  1   
 53  25  28  1   
 54  25  52  1   
 55  26  53  1   
 56  27  28  2   
 57  27  54  1   
 58  28  55  1   
@<TRIPOS>SUBSTRUCTURE
  1 ****   4 GROUP 4 **** **** 0

# MOE 2024.06 (io_trps.svl 2023.06)
