@<TRIPOS>MOLECULE
NONAME
56 58 1 0 0 
SMALL
USER_CHARGES


@<TRIPOS>ATOM
  1 O       -1.0200     0.1320     2.5560 O.2   1 <1>  -0.5700 
  2 C       -1.4780     0.9320     1.7740 C.2   1 <1>   0.5690 
  3 N       -2.4000     0.5340     0.8290 N.am  1 <1>  -0.6600 
  4 C       -1.0210     2.3840     1.9080 C.3   1 <1>   0.1810 
  5 C       -2.6610    -0.9170     0.5900 C.3   1 <1>   0.1400 
  6 C       -3.1840     1.4690    -0.0300 C.3   1 <1>   0.1400 
  7 O       -0.6090     2.9120     0.6560 O.3   1 <1>  -0.3620 
  8 C       -4.1640    -1.2070     0.7610 C.3   1 <1>   0.4230 
  9 C       -4.6830     1.1350     0.0670 C.3   1 <1>  -0.1600 
 10 C       -0.3630     4.2360     0.5020 C.ar  1 <1>   0.0820 
 11 N       -4.5130    -2.6840     0.8530 N.4   1 <1>  -0.9590 
 12 C       -5.0260    -0.3520    -0.2200 C.3   1 <1>   0.0000 
 13 C       -0.1630     4.6880    -0.7910 C.ar  1 <1>  -0.1500 
 14 C       -0.3120     5.1410     1.5560 C.ar  1 <1>  -0.1500 
 15 C       -5.9490    -2.9750     0.5420 C.3   1 <1>   0.3430 
 16 C       -3.6440    -3.5880     0.0330 C.3   1 <1>   0.2630 
 17 C       -6.5440    -0.5600     0.0700 C.3   1 <1>  -0.1600 
 18 C       -4.7220    -0.5980    -1.7280 C.3   1 <1>   0.1200 
 19 C        0.0760     6.0280    -1.0510 C.ar  1 <1>  -0.1440 
 20 C       -0.0740     6.4790     1.3010 C.ar  1 <1>  -0.1500 
 21 C       -6.8440    -1.8010     0.9310 C.3   1 <1>  -0.1600 
 22 O       -5.0440    -1.8850    -2.1310 O.3   1 <1>  -0.6800 
 23 C        0.1190     6.9330     0.0040 C.ar  1 <1>  -0.1440 
 24 C        0.2890     6.4740    -2.4910 C.3   1 <1>  -0.0970 
 25 C        0.3770     8.4150    -0.2290 C.3   1 <1>  -0.0970 
 26 H       -0.1860     2.4400     2.5830 H     1 <1>   0.0800 
 27 H       -1.8330     2.9780     2.2820 H     1 <1>   0.0800 
 28 H       -2.3310    -1.1700    -0.4010 H     1 <1>   0.0800 
 29 H       -2.1060    -1.5140     1.2920 H     1 <1>   0.0800 
 30 H       -3.0410     2.4890     0.2820 H     1 <1>   0.0800 
 31 H       -2.8350     1.3930    -1.0450 H     1 <1>   0.0800 
 32 H       -4.3980    -0.8080     1.7330 H     1 <1>   0.0800 
 33 H       -5.0040     1.3980     1.0610 H     1 <1>   0.0800 
 34 H       -5.2220     1.7750    -0.6110 H     1 <1>   0.0800 
 35 H       -4.3700    -2.9380     1.8390 H     1 <1>   0.4500 
 36 H       -0.1950     3.9740    -1.5930 H     1 <1>   0.1500 
 37 H       -0.4470     4.8300     2.5740 H     1 <1>   0.1500 
 38 H       -6.0650    -3.1560    -0.5140 H     1 <1>   0.0800 
 39 H       -6.2630    -3.8640     1.0650 H     1 <1>   0.0800 
 40 H       -3.7130    -3.3350    -1.0110 H     1 <1>   0.0800 
 41 H       -3.9520    -4.6140     0.1550 H     1 <1>   0.0800 
 42 H       -2.6140    -3.5050     0.3400 H     1 <1>   0.0800 
 43 H       -6.9670     0.2950     0.5710 H     1 <1>   0.0800 
 44 H       -7.0780    -0.6530    -0.8600 H     1 <1>   0.0800 
 45 H       -3.6840    -0.4360    -1.9620 H     1 <1>   0.0800 
 46 H       -5.3070     0.0800    -2.3280 H     1 <1>   0.0800 
 47 H       -0.0380     7.1700     2.1240 H     1 <1>   0.1500 
 48 H       -7.8740    -2.0810     0.7890 H     1 <1>   0.0800 
 49 H       -6.7140    -1.5790     1.9760 H     1 <1>   0.0800 
 50 H       -5.0510    -1.9420    -3.1110 H     1 <1>   0.4000 
 51 H        0.2250     5.6410    -3.1670 H     1 <1>   0.0800 
 52 H        1.2620     6.9200    -2.5980 H     1 <1>   0.0800 
 53 H       -0.4600     7.1930    -2.7690 H     1 <1>   0.0800 
 54 H        0.3690     8.9600     0.6970 H     1 <1>   0.0800 
 55 H       -0.3850     8.8250    -0.8670 H     1 <1>   0.0800 
 56 H        1.3360     8.5530    -0.6940 H     1 <1>   0.0800 
@<TRIPOS>BOND
  1   1   2  2   
  2   2   3  am  
  3   2   4  1   
  4   3   5  1   
  5   3   6  1   
  6   4   7  1   
  7   4  26  1   
  8   4  27  1   
  9   5   8  1   
 10   5  28  1   
 11   5  29  1   
 12   6   9  1   
 13   6  30  1   
 14   6  31  1   
 15   7  10  1   
 16   8  11  1   
 17   8  12  1   
 18   8  32  1   
 19   9  12  1   
 20   9  33  1   
 21   9  34  1   
 22  10  13  ar  
 23  10  14  ar  
 24  11  15  1   
 25  11  16  1   
 26  11  35  1   
 27  12  17  1   
 28  12  18  1   
 29  13  19  ar  
 30  13  36  1   
 31  14  20  ar  
 32  14  37  1   
 33  15  21  1   
 34  15  38  1   
 35  15  39  1   
 36  16  40  1   
 37  16  41  1   
 38  16  42  1   
 39  17  21  1   
 40  17  43  1   
 41  17  44  1   
 42  18  22  1   
 43  18  45  1   
 44  18  46  1   
 45  19  23  ar  
 46  19  24  1   
 47  20  23  ar  
 48  20  47  1   
 49  21  48  1   
 50  21  49  1   
 51  22  50  1   
 52  23  25  1   
 53  24  51  1   
 54  24  52  1   
 55  24  53  1   
 56  25  54  1   
 57  25  55  1   
 58  25  56  1   
@<TRIPOS>SUBSTRUCTURE
  1 ****   6 GROUP 4 **** **** 0

# MOE 2024.06 (io_trps.svl 2023.06)
