@<TRIPOS>MOLECULE
NONAME
57 60 1 0 0 
SMALL
USER_CHARGES


@<TRIPOS>ATOM
  1 O       -0.1030    -3.1550     2.3620 O.co2 1 <1>  -0.9000 
  2 C       -0.2500    -2.3540     1.4200 C.2   1 <1>   1.0330 
  3 O       -1.0250    -1.3980     1.5600 O.co2 1 <1>  -0.9000 
  4 C        0.3250    -2.6380     0.1480 C.2   1 <1>  -0.2330 
  5 C       -0.1830    -3.6030    -0.7150 C.2   1 <1>   0.3720 
  6 C        1.4050    -2.1550    -0.5130 C.2   1 <1>   0.0870 
  7 N        0.5350    -3.7230    -1.7700 N.2   1 <1>  -0.4100 
  8 N       -1.3160    -4.3850    -0.4900 N.pl3 1 <1>  -0.8210 
  9 O        1.4890    -2.8350    -1.6370 O.3   1 <1>  -0.0190 
 10 C        2.3720    -1.1290    -0.2010 C.ar  1 <1>   0.0530 
 11 C       -1.1390    -5.2630     0.7220 C.3   1 <1>   0.2090 
 12 C       -2.5610    -3.5660    -0.3930 C.3   1 <1>   0.2090 
 13 C        2.1050    -0.1260     0.7320 C.ar  1 <1>  -0.1500 
 14 C        3.6190    -1.1000    -0.8280 C.ar  1 <1>  -0.1500 
 15 C       -1.5320    -6.7210     0.3730 C.3   1 <1>   0.5030 
 16 C       -3.7730    -4.4130    -0.8060 C.3   1 <1>  -0.1600 
 17 C        3.0370     0.8510     1.0310 C.ar  1 <1>  -0.1500 
 18 C        4.5550    -0.1250    -0.5360 C.ar  1 <1>  -0.1500 
 19 N       -2.6830    -6.6120    -0.6040 N.4   1 <1>  -0.9590 
 20 C       -1.8990    -7.4810     1.6610 C.3   1 <1>  -0.1600 
 21 C       -0.3050    -7.3660    -0.3080 C.3   1 <1>  -0.1600 
 22 C       -3.8390    -5.7860    -0.1270 C.3   1 <1>   0.3430 
 23 C        4.2660     0.8550     0.3970 C.ar  1 <1>  -0.1500 
 24 C       -3.1300    -7.7560    -1.4520 C.3   1 <1>   0.2630 
 25 C       -1.9260    -8.9970     1.4970 C.3   1 <1>   0.3430 
 26 C       -0.3220    -8.8900    -0.3850 C.3   1 <1>   0.3430 
 27 N       -0.6210    -9.4660     0.9550 N.4   1 <1>  -0.9590 
 28 C       -0.5660   -10.9650     0.9130 C.3   1 <1>   0.2630 
 29 H       -1.7430    -4.8990     1.5370 H     1 <1>   0.0800 
 30 H       -0.1200    -5.2300     1.0710 H     1 <1>   0.0800 
 31 H       -2.4820    -2.7040    -1.0380 H     1 <1>   0.0800 
 32 H       -2.6890    -3.1960     0.6130 H     1 <1>   0.0800 
 33 H        1.1530    -0.1030     1.2330 H     1 <1>   0.1500 
 34 H        3.8590    -1.8560    -1.5540 H     1 <1>   0.1500 
 35 H       -3.7790    -4.5270    -1.8750 H     1 <1>   0.0800 
 36 H       -4.6580    -3.8590    -0.5480 H     1 <1>   0.0800 
 37 H        2.8000     1.6080     1.7580 H     1 <1>   0.1500 
 38 H        5.5090    -0.1280    -1.0340 H     1 <1>   0.1500 
 39 H       -2.2340    -5.9100    -1.2400 H     1 <1>   0.4500 
 40 H       -2.8430    -7.1460     2.0460 H     1 <1>   0.0800 
 41 H       -1.1680    -7.2520     2.4180 H     1 <1>   0.0800 
 42 H        0.5820    -7.1020     0.2420 H     1 <1>   0.0800 
 43 H       -0.1720    -6.9490    -1.2920 H     1 <1>   0.0800 
 44 H       -4.7710    -6.2650    -0.3800 H     1 <1>   0.0800 
 45 H       -3.8050    -5.6540     0.9420 H     1 <1>   0.0800 
 46 H        4.9920     1.6140     0.6290 H     1 <1>   0.1500 
 47 H       -3.5530    -8.5370    -0.8440 H     1 <1>   0.0800 
 48 H       -2.3050    -8.1490    -2.0220 H     1 <1>   0.0800 
 49 H       -3.8820    -7.4220    -2.1490 H     1 <1>   0.0800 
 50 H       -2.7250    -9.2820     0.8330 H     1 <1>   0.0800 
 51 H       -2.1100    -9.4550     2.4570 H     1 <1>   0.0800 
 52 H        0.6420    -9.2370    -0.7270 H     1 <1>   0.0800 
 53 H       -1.0600    -9.2190    -1.0950 H     1 <1>   0.0800 
 54 H        0.1230    -9.1600     1.6050 H     1 <1>   0.4500 
 55 H       -1.3210   -11.3540     0.2490 H     1 <1>   0.0800 
 56 H       -0.7310   -11.3740     1.8970 H     1 <1>   0.0800 
 57 H        0.4000   -11.2950     0.5660 H     1 <1>   0.0800 
@<TRIPOS>BOND
  1   1   2  ar  
  2   2   3  ar  
  3   2   4  1   
  4   4   5  1   
  5   4   6  2   
  6   5   7  2   
  7   5   8  1   
  8   6   9  1   
  9   6  10  1   
 10   7   9  1   
 11   8  11  1   
 12   8  12  1   
 13  10  13  ar  
 14  10  14  ar  
 15  11  15  1   
 16  11  29  1   
 17  11  30  1   
 18  12  16  1   
 19  12  31  1   
 20  12  32  1   
 21  13  17  ar  
 22  13  33  1   
 23  14  18  ar  
 24  14  34  1   
 25  15  19  1   
 26  15  20  1   
 27  15  21  1   
 28  16  22  1   
 29  16  35  1   
 30  16  36  1   
 31  17  23  ar  
 32  17  37  1   
 33  18  23  ar  
 34  18  38  1   
 35  19  22  1   
 36  19  24  1   
 37  19  39  1   
 38  20  25  1   
 39  20  40  1   
 40  20  41  1   
 41  21  26  1   
 42  21  42  1   
 43  21  43  1   
 44  22  44  1   
 45  22  45  1   
 46  23  46  1   
 47  24  47  1   
 48  24  48  1   
 49  24  49  1   
 50  25  27  1   
 51  25  50  1   
 52  25  51  1   
 53  26  27  1   
 54  26  52  1   
 55  26  53  1   
 56  27  28  1   
 57  27  54  1   
 58  28  55  1   
 59  28  56  1   
 60  28  57  1   
@<TRIPOS>SUBSTRUCTURE
  1 ****   5 GROUP 4 **** **** 0

# MOE 2024.06 (io_trps.svl 2023.06)
