@<TRIPOS>MOLECULE
NONAME
45 47 1 0 0 
SMALL
USER_CHARGES


@<TRIPOS>ATOM
  1 CL      -1.7670    -0.0030    -2.5740 Cl    1 <1>  -0.1770 
  2 C       -2.0520    -0.7740    -1.0330 C.ar  1 <1>   0.1770 
  3 C       -2.0400    -0.0310     0.1380 C.ar  1 <1>  -0.1440 
  4 C       -2.2920    -2.1350    -1.0250 C.ar  1 <1>  -0.1500 
  5 C       -2.2730    -0.6880     1.3370 C.ar  1 <1>  -0.1500 
  6 C       -1.7730     1.4670     0.1190 C.3   1 <1>  -0.0960 
  7 C       -2.5370    -2.7830     0.1770 C.ar  1 <1>  -0.1430 
  8 C       -2.5180    -2.0510     1.3570 C.ar  1 <1>  -0.1500 
  9 C       -2.8280    -4.2700     0.1970 C.3   1 <1>   0.4870 
 10 N       -4.2130    -4.5310    -0.3000 N.4   1 <1>  -0.9590 
 11 C       -5.2480    -4.0250     0.6670 C.3   1 <1>   0.4230 
 12 C       -4.3180    -5.9710    -0.6980 C.3   1 <1>   0.2630 
 13 C       -6.5420    -4.8510     0.7070 C.3   1 <1>  -0.1600 
 14 C       -5.7710    -2.6750     0.1670 C.3   1 <1>  -0.1600 
 15 C       -7.3520    -4.4150    -0.5230 C.3   1 <1>  -0.0800 
 16 C       -6.8510    -3.0090    -0.8720 C.3   1 <1>  -0.0800 
 17 C       -8.8680    -4.3040    -0.3090 C.3   1 <1>  -0.1600 
 18 C       -8.0770    -2.0870    -0.8650 C.3   1 <1>  -0.1600 
 19 C       -9.2590    -3.0310    -1.0480 C.3   1 <1>   0.2000 
 20 O      -10.3950    -2.4880    -0.4950 O.3   1 <1>  -0.6800 
 21 H       -2.2810    -2.6610    -1.9630 H     1 <1>   0.1500 
 22 H       -2.2610    -0.1360     2.2630 H     1 <1>   0.1500 
 23 H       -1.8010     1.8800     1.1110 H     1 <1>   0.0800 
 24 H       -2.5140     1.9660    -0.4790 H     1 <1>   0.0800 
 25 H       -0.8020     1.6620    -0.3020 H     1 <1>   0.0800 
 26 H       -2.6900    -2.5280     2.3080 H     1 <1>   0.1500 
 27 H       -2.7140    -4.6540     1.1980 H     1 <1>   0.0800 
 28 H       -2.1110    -4.7660    -0.4360 H     1 <1>   0.0800 
 29 H       -4.3310    -3.9540    -1.1430 H     1 <1>   0.4500 
 30 H       -4.8250    -3.9370     1.6550 H     1 <1>   0.0800 
 31 H       -4.2280    -6.6070     0.1680 H     1 <1>   0.0800 
 32 H       -3.5390    -6.2270    -1.3980 H     1 <1>   0.0800 
 33 H       -5.2690    -6.1630    -1.1670 H     1 <1>   0.0800 
 34 H       -6.4060    -5.9140     0.7740 H     1 <1>   0.0800 
 35 H       -7.0690    -4.5530     1.5970 H     1 <1>   0.0800 
 36 H       -6.2180    -2.1720     1.0060 H     1 <1>   0.0800 
 37 H       -5.0180    -2.0240    -0.2350 H     1 <1>   0.0800 
 38 H       -7.1570    -5.0690    -1.3570 H     1 <1>   0.0800 
 39 H       -6.4250    -3.0290    -1.8620 H     1 <1>   0.0800 
 40 H       -9.1010    -4.2020     0.7360 H     1 <1>   0.0800 
 41 H       -9.3870    -5.1570    -0.7100 H     1 <1>   0.0800 
 42 H       -8.0330    -1.3640    -1.6610 H     1 <1>   0.0800 
 43 H       -8.1650    -1.5740     0.0770 H     1 <1>   0.0800 
 44 H       -9.4390    -3.2280    -2.0930 H     1 <1>   0.0800 
 45 H      -10.2590    -2.2930     0.4500 H     1 <1>   0.4000 
@<TRIPOS>BOND
  1   1   2  1   
  2   2   3  ar  
  3   2   4  ar  
  4   3   5  ar  
  5   3   6  1   
  6   4   7  ar  
  7   4  21  1   
  8   5   8  ar  
  9   5  22  1   
 10   6  23  1   
 11   6  24  1   
 12   6  25  1   
 13   7   8  ar  
 14   7   9  1   
 15   8  26  1   
 16   9  10  1   
 17   9  27  1   
 18   9  28  1   
 19  10  11  1   
 20  10  12  1   
 21  10  29  1   
 22  11  13  1   
 23  11  14  1   
 24  11  30  1   
 25  12  31  1   
 26  12  32  1   
 27  12  33  1   
 28  13  15  1   
 29  13  34  1   
 30  13  35  1   
 31  14  16  1   
 32  14  36  1   
 33  14  37  1   
 34  15  16  1   
 35  15  17  1   
 36  15  38  1   
 37  16  18  1   
 38  16  39  1   
 39  17  19  1   
 40  17  40  1   
 41  17  41  1   
 42  18  19  1   
 43  18  42  1   
 44  18  43  1   
 45  19  20  1   
 46  19  44  1   
 47  20  45  1   
@<TRIPOS>SUBSTRUCTURE
  1 ****  14 GROUP 4 **** **** 0

# MOE 2024.06 (io_trps.svl 2023.06)
