@<TRIPOS>MOLECULE
NONAME
54 56 1 0 0 
SMALL
USER_CHARGES


@<TRIPOS>ATOM
  1 S        0.1000     0.1190    -0.0310 S.o2  1 <1>   1.3330 
  2 O        1.5410     0.0060    -0.0850 O.2   1 <1>  -0.6500 
  3 O       -0.6660    -0.0010    -1.2510 O.2   1 <1>  -0.6500 
  4 N       -0.4700    -1.0410     1.0700 N.am  1 <1>  -0.8490 
  5 C       -0.3480     1.6720     0.7390 C.3   1 <1>  -0.0550 
  6 C        0.4260    -1.2500     2.2120 C.3   1 <1>   0.1160 
  7 C       -0.7590    -2.3230     0.4210 C.3   1 <1>   0.1160 
  8 C       -0.0260     2.8950    -0.1420 C.3   1 <1>  -0.0800 
  9 C       -0.5290     4.2260     0.4110 C.3   1 <1>   0.2000 
 10 C        1.4780     3.1210    -0.3780 C.3   1 <1>   0.1100 
 11 O       -0.2710     4.2770     1.7690 O.3   1 <1>  -0.6800 
 12 C        0.4070     5.2200    -0.2620 C.3   1 <1>   0.1100 
 13 N        1.7220     4.5620    -0.1970 N.3   1 <1>  -0.8100 
 14 C        2.7000     5.1010    -1.1600 C.3   1 <1>   0.2900 
 15 C        2.9330     6.5860    -0.9470 C.2   1 <1>  -0.0400 
 16 O        2.1440     7.4600    -1.5130 O.3   1 <1>  -0.0190 
 17 C        3.8590     7.2600    -0.2490 C.2   1 <1>  -0.1500 
 18 N        2.4890     8.6810    -1.2290 N.2   1 <1>  -0.4100 
 19 C        3.5230     8.5950    -0.4650 C.2   1 <1>   0.1080 
 20 C        4.2770     9.7800     0.1270 C.3   1 <1>   0.1010 
 21 C        3.3690    10.5980     1.0620 C.3   1 <1>  -0.1600 
 22 C        4.8610    10.6730    -0.9810 C.3   1 <1>  -0.1600 
 23 C        4.1070    11.8120     1.6480 C.3   1 <1>  -0.1600 
 24 C        5.6020    11.8860    -0.3980 C.3   1 <1>  -0.1600 
 25 C        4.6910    12.6940     0.5360 C.3   1 <1>  -0.1600 
 26 H       -1.4010     1.6650     0.9400 H     1 <1>   0.0800 
 27 H        0.1610     1.7640     1.6780 H     1 <1>   0.0800 
 28 H       -0.0240    -1.9310     2.9140 H     1 <1>   0.0800 
 29 H        0.6100    -0.3170     2.7160 H     1 <1>   0.0800 
 30 H        1.3680    -1.6580     1.8820 H     1 <1>   0.0800 
 31 H       -1.1360    -3.0290     1.1410 H     1 <1>   0.0800 
 32 H        0.1320    -2.7210    -0.0350 H     1 <1>   0.0800 
 33 H       -1.5080    -2.1890    -0.3420 H     1 <1>   0.0800 
 34 H       -0.4860     2.7490    -1.1040 H     1 <1>   0.0800 
 35 H       -1.5750     4.4130     0.2380 H     1 <1>   0.0800 
 36 H        1.7450     2.7950    -1.3710 H     1 <1>   0.0800 
 37 H        2.0740     2.5770     0.3360 H     1 <1>   0.0800 
 38 H        0.6990     4.4140     1.8530 H     1 <1>   0.4000 
 39 H        0.4110     6.1720     0.2410 H     1 <1>   0.0800 
 40 H        0.1100     5.3590    -1.2880 H     1 <1>   0.0800 
 41 H        3.6340     4.5830    -1.0250 H     1 <1>   0.0800 
 42 H        2.3640     4.9340    -2.1690 H     1 <1>   0.0800 
 43 H        4.6720     6.8900     0.3460 H     1 <1>   0.1500 
 44 H        5.0950     9.3950     0.7110 H     1 <1>   0.0800 
 45 H        2.5100    10.9390     0.5090 H     1 <1>   0.0800 
 46 H        3.0160     9.9690     1.8600 H     1 <1>   0.0800 
 47 H        5.5350    10.0950    -1.5890 H     1 <1>   0.0800 
 48 H        4.0610    11.0170    -1.6140 H     1 <1>   0.0800 
 49 H        3.4250    12.3910     2.2460 H     1 <1>   0.0800 
 50 H        4.9020    11.4720     2.2900 H     1 <1>   0.0800 
 51 H        6.4660    11.5500     0.1480 H     1 <1>   0.0800 
 52 H        5.9440    12.5170    -1.2000 H     1 <1>   0.0800 
 53 H        5.2500    13.5030     0.9740 H     1 <1>   0.0800 
 54 H        3.8860    13.1210    -0.0370 H     1 <1>   0.0800 
@<TRIPOS>BOND
  1   1   2  2   
  2   1   3  2   
  3   1   4  am  
  4   1   5  1   
  5   4   6  1   
  6   4   7  1   
  7   5   8  1   
  8   5  26  1   
  9   5  27  1   
 10   6  28  1   
 11   6  29  1   
 12   6  30  1   
 13   7  31  1   
 14   7  32  1   
 15   7  33  1   
 16   8   9  1   
 17   8  10  1   
 18   8  34  1   
 19   9  11  1   
 20   9  12  1   
 21   9  35  1   
 22  10  13  1   
 23  10  36  1   
 24  10  37  1   
 25  11  38  1   
 26  12  13  1   
 27  12  39  1   
 28  12  40  1   
 29  13  14  1   
 30  14  15  1   
 31  14  41  1   
 32  14  42  1   
 33  15  16  1   
 34  15  17  2   
 35  16  18  1   
 36  17  19  1   
 37  17  43  1   
 38  18  19  2   
 39  19  20  1   
 40  20  21  1   
 41  20  22  1   
 42  20  44  1   
 43  21  23  1   
 44  21  45  1   
 45  21  46  1   
 46  22  24  1   
 47  22  47  1   
 48  22  48  1   
 49  23  25  1   
 50  23  49  1   
 51  23  50  1   
 52  24  25  1   
 53  24  51  1   
 54  24  52  1   
 55  25  53  1   
 56  25  54  1   
@<TRIPOS>SUBSTRUCTURE
  1 ****  13 GROUP 4 **** **** 0

# MOE 2024.06 (io_trps.svl 2023.06)
