@<TRIPOS>MOLECULE
NONAME
55 58 1 0 0 
SMALL
USER_CHARGES


@<TRIPOS>ATOM
  1 O       -1.6610    -2.3970    -0.6170 O.co2 1 <1>  -0.9000 
  2 C       -0.7580    -2.6440     0.2020 C.2   1 <1>   1.0330 
  3 O       -1.0950    -2.6900     1.3990 O.co2 1 <1>  -0.9000 
  4 C        0.5430    -3.0640    -0.1980 C.2   1 <1>  -0.2330 
  5 C        0.8770    -4.3150    -0.7270 C.2   1 <1>   0.3720 
  6 C        1.7350    -2.4180    -0.1240 C.2   1 <1>   0.0870 
  7 N        2.1420    -4.4070    -0.9310 N.2   1 <1>  -0.4100 
  8 N        0.0150    -5.3840    -1.0210 N.pl3 1 <1>  -0.8210 
  9 O        2.6430    -3.2540    -0.5700 O.3   1 <1>  -0.0190 
 10 C        2.1230    -1.1020     0.3240 C.ar  1 <1>   0.0530 
 11 C       -1.0590    -5.1290    -2.0220 C.3   1 <1>   0.2090 
 12 C       -0.1490    -6.4350     0.0270 C.3   1 <1>   0.2090 
 13 C        1.4000    -0.3990     1.2890 C.ar  1 <1>  -0.1500 
 14 C        3.2580    -0.4780    -0.1990 C.ar  1 <1>  -0.1500 
 15 C       -2.4630    -5.2570    -1.4220 C.3   1 <1>  -0.1600 
 16 C       -1.6070    -6.5880     0.4940 C.3   1 <1>  -0.1600 
 17 C        1.7800     0.8630     1.7070 C.ar  1 <1>  -0.1500 
 18 C        3.6460     0.7820     0.2140 C.ar  1 <1>  -0.1500 
 19 C       -2.3780    -5.3370     0.1040 C.3   1 <1>   0.4230 
 20 C        2.9120     1.4660     1.1690 C.ar  1 <1>   0.0830 
 21 N       -3.6840    -5.2050     0.7940 N.4   1 <1>  -0.9590 
 22 O        3.3540     2.6980     1.5210 O.3   1 <1>  -0.3630 
 23 C       -4.7680    -6.0770     0.2750 C.3   1 <1>   0.3430 
 24 C       -4.0390    -3.7490     0.7740 C.3   1 <1>   0.3430 
 25 C        2.6580     3.4820     2.4640 C.3   1 <1>   0.0400 
 26 C       -6.0330    -5.8800     1.1120 C.3   1 <1>  -0.1600 
 27 C       -5.3070    -3.5150     1.5980 C.3   1 <1>  -0.1600 
 28 C       -6.4670    -4.4080     1.1400 C.3   1 <1>  -0.1600 
 29 H       -0.9430    -5.8180    -2.8410 H     1 <1>   0.0800 
 30 H       -0.9360    -4.1340    -2.4210 H     1 <1>   0.0800 
 31 H        0.4660    -6.1680     0.8720 H     1 <1>   0.0800 
 32 H        0.2190    -7.3710    -0.3570 H     1 <1>   0.0800 
 33 H        0.5270    -0.8480     1.7270 H     1 <1>   0.1500 
 34 H        3.8400    -0.9910    -0.9440 H     1 <1>   0.1500 
 35 H       -2.9310    -6.1340    -1.8280 H     1 <1>   0.0800 
 36 H       -3.0270    -4.3950    -1.7280 H     1 <1>   0.0800 
 37 H       -1.6090    -6.7170     1.5600 H     1 <1>   0.0800 
 38 H       -2.0370    -7.4590     0.0360 H     1 <1>   0.0800 
 39 H        1.1820     1.3540     2.4500 H     1 <1>   0.1500 
 40 H        4.5220     1.2460    -0.2010 H     1 <1>   0.1500 
 41 H       -1.7780    -4.5290     0.4470 H     1 <1>   0.0800 
 42 H       -3.5110    -5.4170     1.7800 H     1 <1>   0.4500 
 43 H       -4.4610    -7.1100     0.3140 H     1 <1>   0.0800 
 44 H       -4.9760    -5.8200    -0.7510 H     1 <1>   0.0800 
 45 H       -4.1930    -3.4170    -0.2400 H     1 <1>   0.0800 
 46 H       -3.2330    -3.1620     1.1850 H     1 <1>   0.0800 
 47 H        3.1820     4.4140     2.5760 H     1 <1>   0.0800 
 48 H        2.6370     2.9590     3.4040 H     1 <1>   0.0800 
 49 H        1.6620     3.6620     2.1010 H     1 <1>   0.0800 
 50 H       -5.8550    -6.2300     2.1140 H     1 <1>   0.0800 
 51 H       -6.8260    -6.4770     0.6970 H     1 <1>   0.0800 
 52 H       -5.5880    -2.4800     1.5060 H     1 <1>   0.0800 
 53 H       -5.0860    -3.6940     2.6360 H     1 <1>   0.0800 
 54 H       -7.3070    -4.2850     1.8040 H     1 <1>   0.0800 
 55 H       -6.7800    -4.1070     0.1540 H     1 <1>   0.0800 
@<TRIPOS>BOND
  1   1   2  ar  
  2   2   3  ar  
  3   2   4  1   
  4   4   5  1   
  5   4   6  2   
  6   5   7  2   
  7   5   8  1   
  8   6   9  1   
  9   6  10  1   
 10   7   9  1   
 11   8  11  1   
 12   8  12  1   
 13  10  13  ar  
 14  10  14  ar  
 15  11  15  1   
 16  11  29  1   
 17  11  30  1   
 18  12  16  1   
 19  12  31  1   
 20  12  32  1   
 21  13  17  ar  
 22  13  33  1   
 23  14  18  ar  
 24  14  34  1   
 25  15  19  1   
 26  15  35  1   
 27  15  36  1   
 28  16  19  1   
 29  16  37  1   
 30  16  38  1   
 31  17  20  ar  
 32  17  39  1   
 33  18  20  ar  
 34  18  40  1   
 35  19  21  1   
 36  19  41  1   
 37  20  22  1   
 38  21  23  1   
 39  21  24  1   
 40  21  42  1   
 41  22  25  1   
 42  23  26  1   
 43  23  43  1   
 44  23  44  1   
 45  24  27  1   
 46  24  45  1   
 47  24  46  1   
 48  25  47  1   
 49  25  48  1   
 50  25  49  1   
 51  26  28  1   
 52  26  50  1   
 53  26  51  1   
 54  27  28  1   
 55  27  52  1   
 56  27  53  1   
 57  28  54  1   
 58  28  55  1   
@<TRIPOS>SUBSTRUCTURE
  1 ****   2 GROUP 4 **** **** 0

# MOE 2024.06 (io_trps.svl 2023.06)
