@<TRIPOS>MOLECULE
NONAME
39 40 1 0 0 
SMALL
USER_CHARGES


@<TRIPOS>ATOM
  1 F        1.3220     0.5140    -1.2910 F     1 <1>  -0.1900 
  2 C        1.8920    -0.4890    -0.6820 C.ar  1 <1>   0.1900 
  3 C        1.7850    -1.7480    -1.2370 C.ar  1 <1>  -0.1500 
  4 C        2.5760    -0.2580     0.4930 C.ar  1 <1>  -0.1500 
  5 C        2.3790    -2.8250    -0.5910 C.ar  1 <1>  -0.1440 
  6 C        3.1760    -1.3310     1.1260 C.ar  1 <1>  -0.1500 
  7 C        3.0880    -2.6120     0.5940 C.ar  1 <1>  -0.1430 
  8 C        2.2340    -4.2070    -1.2010 C.3   1 <1>   0.4870 
  9 C        3.7920    -3.7430     1.3350 C.3   1 <1>  -0.0970 
 10 N        1.1770    -4.9400    -0.4550 N.4   1 <1>  -0.9590 
 11 C        1.2190    -6.4090    -0.7640 C.3   1 <1>   0.3430 
 12 C       -0.1740    -4.3560    -0.6980 C.3   1 <1>   0.3430 
 13 C        0.1560    -7.2040     0.0160 C.3   1 <1>   0.2000 
 14 C       -1.2200    -5.0980     0.1340 C.3   1 <1>  -0.1600 
 15 O        0.1860    -8.5010    -0.4620 O.3   1 <1>  -0.6800 
 16 C       -1.2510    -6.6120    -0.1780 C.3   1 <1>  -0.0800 
 17 C       -2.2990    -7.3490     0.6750 C.3   1 <1>   0.1200 
 18 O       -3.5330    -6.7580     0.4720 O.3   1 <1>  -0.6800 
 19 H        1.2430    -1.8590    -2.1590 H     1 <1>   0.1500 
 20 H        2.6390     0.7380     0.8960 H     1 <1>   0.1500 
 21 H        3.7170    -1.1540     2.0410 H     1 <1>   0.1500 
 22 H        3.1740    -4.7280    -1.1270 H     1 <1>   0.0800 
 23 H        1.9710    -4.1290    -2.2440 H     1 <1>   0.0800 
 24 H        4.4540    -3.3480     2.0870 H     1 <1>   0.0800 
 25 H        4.3900    -4.3300     0.6610 H     1 <1>   0.0800 
 26 H        3.0780    -4.3770     1.8270 H     1 <1>   0.0800 
 27 H        1.3890    -4.7950     0.5400 H     1 <1>   0.4500 
 28 H        1.0390    -6.5550    -1.8170 H     1 <1>   0.0800 
 29 H        2.1920    -6.8070    -0.5270 H     1 <1>   0.0800 
 30 H       -0.1820    -3.3120    -0.4280 H     1 <1>   0.0800 
 31 H       -0.4270    -4.4370    -1.7430 H     1 <1>   0.0800 
 32 H        0.4200    -7.2340     1.0600 H     1 <1>   0.0800 
 33 H       -1.0350    -4.9330     1.1800 H     1 <1>   0.0800 
 34 H       -2.1810    -4.6670    -0.0890 H     1 <1>   0.0800 
 35 H       -0.4180    -9.0900     0.0350 H     1 <1>   0.4000 
 36 H       -1.5230    -6.7350    -1.2140 H     1 <1>   0.0800 
 37 H       -2.0660    -7.2850     1.7240 H     1 <1>   0.0800 
 38 H       -2.3780    -8.3830     0.3830 H     1 <1>   0.0800 
 39 H       -4.2390    -7.2330     0.9560 H     1 <1>   0.4000 
@<TRIPOS>BOND
  1   1   2  1   
  2   2   3  ar  
  3   2   4  ar  
  4   3   5  ar  
  5   3  19  1   
  6   4   6  ar  
  7   4  20  1   
  8   5   7  ar  
  9   5   8  1   
 10   6   7  ar  
 11   6  21  1   
 12   7   9  1   
 13   8  10  1   
 14   8  22  1   
 15   8  23  1   
 16   9  24  1   
 17   9  25  1   
 18   9  26  1   
 19  10  11  1   
 20  10  12  1   
 21  10  27  1   
 22  11  13  1   
 23  11  28  1   
 24  11  29  1   
 25  12  14  1   
 26  12  30  1   
 27  12  31  1   
 28  13  15  1   
 29  13  16  1   
 30  13  32  1   
 31  14  16  1   
 32  14  33  1   
 33  14  34  1   
 34  15  35  1   
 35  16  17  1   
 36  16  36  1   
 37  17  18  1   
 38  17  37  1   
 39  17  38  1   
 40  18  39  1   
@<TRIPOS>SUBSTRUCTURE
  1 ****  10 GROUP 4 **** **** 0

# MOE 2024.06 (io_trps.svl 2023.06)
