@<TRIPOS>MOLECULE
NONAME
48 49 1 0 0 
SMALL
USER_CHARGES


@<TRIPOS>ATOM
  1 O       -0.1070     0.1170    -0.7460 O.2   1 <1>  -0.5700 
  2 C        0.8170    -0.4770    -0.2230 C.2   1 <1>   0.5440 
  3 N        1.8020     0.2610     0.3700 N.am  1 <1>  -0.7300 
  4 C        0.8730    -1.9280    -0.2260 C.ar  1 <1>   0.0860 
  5 C        1.9050     1.7390     0.3760 C.3   1 <1>   0.1400 
  6 C       -0.2910    -2.6900    -0.3180 C.ar  1 <1>  -0.1500 
  7 C        2.0810    -2.6240    -0.1400 C.ar  1 <1>  -0.1500 
  8 C        3.3200     2.1760    -0.0280 C.3   1 <1>   0.2000 
  9 C       -0.2730    -4.0750    -0.3170 C.ar  1 <1>  -0.1440 
 10 C        2.1210    -4.0050    -0.1330 C.ar  1 <1>  -0.1500 
 11 O        4.2550     1.4840     0.7650 O.3   1 <1>  -0.5600 
 12 C        3.5020     3.6990     0.1280 C.3   1 <1>   0.1400 
 13 C        0.9440    -4.7450    -0.2190 C.ar  1 <1>   0.0830 
 14 C       -1.5920    -4.8310    -0.4190 C.3   1 <1>   0.1220 
 15 C        5.5900     1.7600     0.4400 C.3   1 <1>   0.1200 
 16 N        4.9220     4.0930    -0.1230 N.am  1 <1>  -0.6600 
 17 O        0.9300    -6.1000    -0.2090 O.3   1 <1>  -0.3630 
 18 C       -2.1630    -5.0790     0.9660 C.2   1 <1>  -0.2880 
 19 C        5.9010     3.2530     0.6300 C.3   1 <1>   0.1400 
 20 C        5.3400     5.0860    -0.9690 C.2   1 <1>   0.5690 
 21 C        2.1060    -6.8670    -0.0750 C.3   1 <1>   0.0400 
 22 C       -3.3470    -4.6410     1.4070 C.2   1 <1>  -0.3000 
 23 O        6.5090     5.3140    -1.1610 O.2   1 <1>  -0.5700 
 24 C        4.3360     5.9450    -1.7020 C.3   1 <1>  -0.1790 
 25 H        2.5900    -0.2000     0.8330 H     1 <1>   0.3700 
 26 H        1.6820     2.0990     1.3650 H     1 <1>   0.0800 
 27 H        1.1860     2.1620    -0.3050 H     1 <1>   0.0800 
 28 H       -1.2330    -2.1720    -0.3860 H     1 <1>   0.1500 
 29 H        3.0040    -2.0770    -0.0840 H     1 <1>   0.1500 
 30 H        3.4830     1.9020    -1.0560 H     1 <1>   0.0800 
 31 H        3.0760    -4.4890    -0.0630 H     1 <1>   0.1500 
 32 H        3.2330     3.9880     1.1300 H     1 <1>   0.0800 
 33 H        2.8370     4.2000    -0.5510 H     1 <1>   0.0800 
 34 H       -1.4510    -5.7710    -0.9230 H     1 <1>   0.0800 
 35 H       -2.2910    -4.2590    -1.0040 H     1 <1>   0.0800 
 36 H        5.7670     1.4660    -0.5800 H     1 <1>   0.0800 
 37 H        6.2150     1.1680     1.0840 H     1 <1>   0.0800 
 38 H       -1.4940    -5.6610     1.5780 H     1 <1>   0.1500 
 39 H        6.9050     3.4490     0.2970 H     1 <1>   0.0800 
 40 H        5.8470     3.4980     1.6760 H     1 <1>   0.0800 
 41 H        1.8290    -7.9060    -0.0790 H     1 <1>   0.0800 
 42 H        2.5790    -6.6190     0.8580 H     1 <1>   0.0800 
 43 H        2.7550    -6.6580    -0.9060 H     1 <1>   0.0800 
 44 H       -3.7240    -4.8320     2.3970 H     1 <1>   0.1500 
 45 H       -4.0350    -4.0560     0.8220 H     1 <1>   0.1500 
 46 H        3.6710     6.4110    -1.0020 H     1 <1>   0.0800 
 47 H        3.7800     5.3430    -2.3960 H     1 <1>   0.0800 
 48 H        4.8510     6.7130    -2.2500 H     1 <1>   0.0800 
@<TRIPOS>BOND
  1   1   2  2   
  2   2   3  am  
  3   2   4  1   
  4   3   5  1   
  5   3  25  1   
  6   4   6  ar  
  7   4   7  ar  
  8   5   8  1   
  9   5  26  1   
 10   5  27  1   
 11   6   9  ar  
 12   6  28  1   
 13   7  10  ar  
 14   7  29  1   
 15   8  11  1   
 16   8  12  1   
 17   8  30  1   
 18   9  13  ar  
 19   9  14  1   
 20  10  13  ar  
 21  10  31  1   
 22  11  15  1   
 23  12  16  1   
 24  12  32  1   
 25  12  33  1   
 26  13  17  1   
 27  14  18  1   
 28  14  34  1   
 29  14  35  1   
 30  15  19  1   
 31  15  36  1   
 32  15  37  1   
 33  16  19  1   
 34  16  20  am  
 35  17  21  1   
 36  18  22  2   
 37  18  38  1   
 38  19  39  1   
 39  19  40  1   
 40  20  23  2   
 41  20  24  1   
 42  21  41  1   
 43  21  42  1   
 44  21  43  1   
 45  22  44  1   
 46  22  45  1   
 47  24  46  1   
 48  24  47  1   
 49  24  48  1   
@<TRIPOS>SUBSTRUCTURE
  1 ****   3 GROUP 4 **** **** 0

# MOE 2024.06 (io_trps.svl 2023.06)
