@<TRIPOS>MOLECULE
NONAME
50 53 1 0 0 
SMALL
USER_CHARGES


@<TRIPOS>ATOM
  1 O       -0.1710    -1.6780     1.3860 O.3   1 <1>  -0.6800 
  2 C        0.5650    -2.6260     0.7000 C.3   1 <1>   0.2000 
  3 C        1.9000    -2.0740     0.1700 C.3   1 <1>   0.0000 
  4 C       -0.1930    -3.1240    -0.5270 C.3   1 <1>  -0.1600 
  5 C        2.9450    -2.0200     1.3020 C.3   1 <1>   0.2090 
  6 C        1.7650    -0.6610    -0.4700 C.3   1 <1>  -0.1600 
  7 C        2.2380    -3.1210    -0.9080 C.3   1 <1>  -0.1600 
  8 C        0.8950    -3.5210    -1.5360 C.3   1 <1>  -0.1600 
  9 N        4.2660    -1.5220     0.7750 N.pl3 1 <1>  -0.8380 
 10 C        3.1260    -0.0450    -0.8400 C.3   1 <1>  -0.1600 
 11 C        5.3820    -2.2810     0.6540 C.ar  1 <1>   0.4610 
 12 C        4.1060    -0.0960     0.3360 C.3   1 <1>   0.2090 
 13 N        6.4990    -1.7310     0.1750 N.ar  1 <1>  -0.1790 
 14 C        5.4670    -3.6590     0.9960 C.ar  1 <1>  -0.1500 
 15 C        7.7020    -2.3890    -0.0010 C.ar  1 <1>   0.3610 
 16 C        6.6130    -4.3810     0.8530 C.ar  1 <1>  -0.1440 
 17 C        7.7880    -3.7500     0.3400 C.ar  1 <1>   0.0000 
 18 C        8.8200    -1.7200    -0.5090 C.ar  1 <1>  -0.1500 
 19 C        6.6440    -5.8560     1.2350 C.3   1 <1>  -0.0970 
 20 C        9.0220    -4.3960     0.1530 C.ar  1 <1>  -0.1500 
 21 C       10.0110    -2.3810    -0.6800 C.ar  1 <1>  -0.1500 
 22 C       10.1150    -3.7280    -0.3470 C.ar  1 <1>  -0.1440 
 23 C       11.4450    -4.4360    -0.5450 C.3   1 <1>  -0.0970 
 24 H       -1.0650    -2.0200     1.5780 H     1 <1>   0.4000 
 25 H        0.7450    -3.4550     1.3660 H     1 <1>   0.0800 
 26 H       -0.8190    -3.9630    -0.2810 H     1 <1>   0.0800 
 27 H       -0.7930    -2.3320    -0.9440 H     1 <1>   0.0800 
 28 H        3.0250    -2.9800     1.7710 H     1 <1>   0.0800 
 29 H        2.5920    -1.3410     2.0620 H     1 <1>   0.0800 
 30 H        1.1340    -0.6950    -1.3400 H     1 <1>   0.0800 
 31 H        1.2920     0.0020     0.2350 H     1 <1>   0.0800 
 32 H        2.9300    -2.7620    -1.6470 H     1 <1>   0.0800 
 33 H        2.6660    -3.9910    -0.4410 H     1 <1>   0.0800 
 34 H        0.8700    -4.5770    -1.7430 H     1 <1>   0.0800 
 35 H        0.7430    -2.9870    -2.4590 H     1 <1>   0.0800 
 36 H        2.9770     0.9800    -1.1310 H     1 <1>   0.0800 
 37 H        3.5510    -0.5580    -1.6830 H     1 <1>   0.0800 
 38 H        3.7110     0.4850     1.1540 H     1 <1>   0.0800 
 39 H        5.0380     0.3500     0.0450 H     1 <1>   0.0800 
 40 H        6.4500    -0.7540    -0.0750 H     1 <1>   0.4570 
 41 H        4.5940    -4.1480     1.3750 H     1 <1>   0.1500 
 42 H        8.7570    -0.6790    -0.7710 H     1 <1>   0.1500 
 43 H        5.6870    -6.1850     1.6010 H     1 <1>   0.0800 
 44 H        7.3720    -6.0250     2.0090 H     1 <1>   0.0800 
 45 H        6.8970    -6.4570     0.3790 H     1 <1>   0.0800 
 46 H        9.1170    -5.4370     0.4060 H     1 <1>   0.1500 
 47 H       10.8740    -1.8650    -1.0710 H     1 <1>   0.1500 
 48 H       12.2070    -3.9580     0.0440 H     1 <1>   0.0800 
 49 H       11.7320    -4.3960    -1.5810 H     1 <1>   0.0800 
 50 H       11.3840    -5.4680    -0.2490 H     1 <1>   0.0800 
@<TRIPOS>BOND
  1   1   2  1   
  2   1  24  1   
  3   2   3  1   
  4   2   4  1   
  5   2  25  1   
  6   3   5  1   
  7   3   6  1   
  8   3   7  1   
  9   4   8  1   
 10   4  26  1   
 11   4  27  1   
 12   5   9  1   
 13   5  28  1   
 14   5  29  1   
 15   6  10  1   
 16   6  30  1   
 17   6  31  1   
 18   7   8  1   
 19   7  32  1   
 20   7  33  1   
 21   8  34  1   
 22   8  35  1   
 23   9  11  1   
 24   9  12  1   
 25  10  12  1   
 26  10  36  1   
 27  10  37  1   
 28  11  13  ar  
 29  11  14  ar  
 30  12  38  1   
 31  12  39  1   
 32  13  15  ar  
 33  13  40  1   
 34  14  16  ar  
 35  14  41  1   
 36  15  17  ar  
 37  15  18  ar  
 38  16  17  ar  
 39  16  19  1   
 40  17  20  ar  
 41  18  21  ar  
 42  18  42  1   
 43  19  43  1   
 44  19  44  1   
 45  19  45  1   
 46  20  22  ar  
 47  20  46  1   
 48  21  22  ar  
 49  21  47  1   
 50  22  23  1   
 51  23  48  1   
 52  23  49  1   
 53  23  50  1   
@<TRIPOS>SUBSTRUCTURE
  1 ****  11 GROUP 4 **** **** 0

# MOE 2024.06 (io_trps.svl 2023.06)
