@<TRIPOS>MOLECULE
NONAME
45 47 1 0 0 
SMALL
USER_CHARGES


@<TRIPOS>ATOM
  1 CL      -0.6680     0.0940     0.5750 Cl    1 <1>  -0.1770 
  2 C       -2.2180     0.8890     0.4490 C.ar  1 <1>   0.1770 
  3 C       -3.3590     0.2240     0.8550 C.ar  1 <1>  -0.1500 
  4 C       -2.2820     2.1740    -0.0580 C.ar  1 <1>  -0.1500 
  5 C       -4.5840     0.8590     0.7520 C.ar  1 <1>  -0.1500 
  6 C       -3.5120     2.8010    -0.1560 C.ar  1 <1>  -0.1500 
  7 C       -4.6790     2.1560     0.2490 C.ar  1 <1>   0.1170 
  8 N       -5.9000     2.8320     0.1140 N.am  1 <1>  -0.5470 
  9 C       -7.0900     2.7000     0.7750 C.2   1 <1>   0.6900 
 10 O       -7.2140     1.9040     1.6860 O.2   1 <1>  -0.5700 
 11 N       -8.1500     3.4860     0.3950 N.am  1 <1>  -0.6600 
 12 C       -9.5190     3.1900     0.9340 C.3   1 <1>   0.1400 
 13 C       -8.0330     4.6380    -0.5470 C.3   1 <1>   0.1400 
 14 C      -10.6370     3.5180    -0.0840 C.3   1 <1>   0.0000 
 15 C       -9.1630     5.6450    -0.3210 C.3   1 <1>  -0.1600 
 16 C      -12.0010     3.1240     0.5200 C.3   1 <1>   0.2000 
 17 C      -10.5630     5.0200    -0.4750 C.3   1 <1>  -0.1600 
 18 C      -10.5420     2.5760    -1.3030 C.3   1 <1>  -0.1600 
 19 O      -13.0280     3.7420    -0.2050 O.3   1 <1>  -0.5600 
 20 C      -12.1120     1.6080     0.3140 C.3   1 <1>  -0.1600 
 21 C      -11.2080     1.2640    -0.8780 C.3   1 <1>  -0.1600 
 22 C      -14.2230     3.9090     0.4890 C.3   1 <1>   0.0400 
 23 H       -3.2880    -0.7740     1.2460 H     1 <1>   0.1500 
 24 H       -1.3800     2.6700    -0.3670 H     1 <1>   0.1500 
 25 H       -5.4720     0.3390     1.0630 H     1 <1>   0.1500 
 26 H       -3.5640     3.8010    -0.5450 H     1 <1>   0.1500 
 27 H       -5.9160     3.5700    -0.5770 H     1 <1>   0.3700 
 28 H       -9.5750     2.1530     1.2150 H     1 <1>   0.0800 
 29 H       -9.6640     3.7750     1.8260 H     1 <1>   0.0800 
 30 H       -7.0910     5.1370    -0.3980 H     1 <1>   0.0800 
 31 H       -8.0750     4.2720    -1.5590 H     1 <1>   0.0800 
 32 H       -9.0590     6.0460     0.6720 H     1 <1>   0.0800 
 33 H       -9.0600     6.4650    -1.0090 H     1 <1>   0.0800 
 34 H      -12.0750     3.4120     1.5550 H     1 <1>   0.0800 
 35 H      -10.9050     5.1450    -1.4870 H     1 <1>   0.0800 
 36 H      -11.2360     5.5860     0.1460 H     1 <1>   0.0800 
 37 H      -11.1120     2.9880    -2.1180 H     1 <1>   0.0800 
 38 H       -9.5350     2.4140    -1.6400 H     1 <1>   0.0800 
 39 H      -11.7430     1.1040     1.1900 H     1 <1>   0.0800 
 40 H      -13.1260     1.2960     0.1420 H     1 <1>   0.0800 
 41 H      -10.4600     0.5500    -0.5760 H     1 <1>   0.0800 
 42 H      -11.7790     0.8500    -1.6910 H     1 <1>   0.0800 
 43 H      -14.9350     4.3600    -0.1790 H     1 <1>   0.0800 
 44 H      -14.0560     4.5570     1.3310 H     1 <1>   0.0800 
 45 H      -14.5900     2.9510     0.8140 H     1 <1>   0.0800 
@<TRIPOS>BOND
  1   1   2  1   
  2   2   3  ar  
  3   2   4  ar  
  4   3   5  ar  
  5   3  23  1   
  6   4   6  ar  
  7   4  24  1   
  8   5   7  ar  
  9   5  25  1   
 10   6   7  ar  
 11   6  26  1   
 12   7   8  1   
 13   8   9  am  
 14   8  27  1   
 15   9  10  2   
 16   9  11  am  
 17  11  12  1   
 18  11  13  1   
 19  12  14  1   
 20  12  28  1   
 21  12  29  1   
 22  13  15  1   
 23  13  30  1   
 24  13  31  1   
 25  14  16  1   
 26  14  17  1   
 27  14  18  1   
 28  15  17  1   
 29  15  32  1   
 30  15  33  1   
 31  16  19  1   
 32  16  20  1   
 33  16  34  1   
 34  17  35  1   
 35  17  36  1   
 36  18  21  1   
 37  18  37  1   
 38  18  38  1   
 39  19  22  1   
 40  20  21  1   
 41  20  39  1   
 42  20  40  1   
 43  21  41  1   
 44  21  42  1   
 45  22  43  1   
 46  22  44  1   
 47  22  45  1   
@<TRIPOS>SUBSTRUCTURE
  1 ****   9 GROUP 4 **** **** 0

# MOE 2024.06 (io_trps.svl 2023.06)
