@<TRIPOS>MOLECULE
NONAME
60 63 1 0 0 
SMALL
USER_CHARGES


@<TRIPOS>ATOM
  1 S       -1.0400     0.1010     1.1040 S.o2  1 <1>   1.5760 
  2 O       -1.7480     1.3480     1.2980 O.2   1 <1>  -0.6500 
  3 O       -0.6980    -0.7320     2.2350 O.2   1 <1>  -0.6500 
  4 N       -1.8840    -0.8420    -0.0120 N.am  1 <1>  -0.8490 
  5 N        0.3610     0.4360     0.2250 N.am  1 <1>  -0.8490 
  6 C       -3.2930    -0.9680     0.4050 C.3   1 <1>   0.1960 
  7 C       -1.2400    -2.1480    -0.1920 C.3   1 <1>   0.1960 
  8 C        1.3910     1.0030     1.0940 C.3   1 <1>   0.1960 
  9 C        0.0830     1.3190    -0.9120 C.3   1 <1>   0.1960 
 10 C       -4.1870    -1.7040    -0.6050 C.3   1 <1>   0.2090 
 11 C       -1.6430    -2.7660    -1.5340 C.3   1 <1>  -0.1600 
 12 C        2.7020     1.1780     0.3190 C.3   1 <1>  -0.1600 
 13 C        1.3440     1.4940    -1.7640 C.3   1 <1>  -0.1600 
 14 N       -3.9420    -3.1790    -0.5810 N.pl3 1 <1>  -0.8380 
 15 C       -2.8500    -3.7050    -1.4480 C.3   1 <1>   0.2090 
 16 C        2.5070     2.0450    -0.9300 C.3   1 <1>  -0.1600 
 17 C       -4.6730    -4.0110     0.2400 C.ar  1 <1>   0.7200 
 18 N       -4.6380    -5.3090    -0.0340 N.ar  1 <1>  -0.6200 
 19 N       -5.3500    -3.4380     1.2340 N.ar  1 <1>  -0.6200 
 20 C       -5.3370    -6.1090     0.7460 C.ar  1 <1>   0.3100 
 21 C       -6.0370    -4.2430     2.0040 C.ar  1 <1>   0.1600 
 22 C       -5.3310    -7.5300     0.4860 C.ar  1 <1>   0.0000 
 23 C       -6.0650    -5.5960     1.8000 C.ar  1 <1>  -0.1500 
 24 C       -5.9140    -8.0950    -0.6550 C.ar  1 <1>   0.1670 
 25 C       -4.7310    -8.3940     1.3900 C.ar  1 <1>  -0.1500 
 26 N       -5.9380    -9.3900    -0.9260 N.ar  1 <1>  -0.6200 
 27 C       -6.5860    -7.2160    -1.6960 C.3   1 <1>  -0.0970 
 28 C       -4.7500    -9.7420     1.1130 C.ar  1 <1>  -0.1500 
 29 C       -5.3600   -10.1880    -0.0470 C.ar  1 <1>   0.1670 
 30 C       -5.3930   -11.6650    -0.3760 C.3   1 <1>  -0.0970 
 31 H       -3.7030     0.0210     0.5250 H     1 <1>   0.0800 
 32 H       -3.3560    -1.4620     1.3600 H     1 <1>   0.0800 
 33 H       -1.4720    -2.8070     0.6300 H     1 <1>   0.0800 
 34 H       -0.1710    -2.0160    -0.2070 H     1 <1>   0.0800 
 35 H        1.5670     0.3420     1.9270 H     1 <1>   0.0800 
 36 H        1.0600     1.9530     1.4820 H     1 <1>   0.0800 
 37 H       -0.2580     2.2790    -0.5590 H     1 <1>   0.0800 
 38 H       -0.6940     0.8910    -1.5230 H     1 <1>   0.0800 
 39 H       -4.0230    -1.3120    -1.5930 H     1 <1>   0.0800 
 40 H       -5.2170    -1.5120    -0.3570 H     1 <1>   0.0800 
 41 H       -0.8160    -3.3480    -1.8980 H     1 <1>   0.0800 
 42 H       -1.8190    -1.9920    -2.2590 H     1 <1>   0.0800 
 43 H        3.0650     0.2050     0.0340 H     1 <1>   0.0800 
 44 H        3.4390     1.6270     0.9620 H     1 <1>   0.0800 
 45 H        1.1340     2.1640    -2.5790 H     1 <1>   0.0800 
 46 H        1.6140     0.5400    -2.1810 H     1 <1>   0.0800 
 47 H       -2.5040    -4.6460    -1.0540 H     1 <1>   0.0800 
 48 H       -3.2420    -3.8890    -2.4330 H     1 <1>   0.0800 
 49 H        3.4090     2.0580    -1.5160 H     1 <1>   0.0800 
 50 H        2.2850     3.0560    -0.6310 H     1 <1>   0.0800 
 51 H       -6.5920    -3.8080     2.8180 H     1 <1>   0.1500 
 52 H       -6.6360    -6.2450     2.4360 H     1 <1>   0.1500 
 53 H       -4.2580    -8.0180     2.2800 H     1 <1>   0.1500 
 54 H       -7.1650    -6.4410    -1.2280 H     1 <1>   0.0800 
 55 H       -7.2420    -7.8020    -2.3140 H     1 <1>   0.0800 
 56 H       -5.8360    -6.7660    -2.3200 H     1 <1>   0.0800 
 57 H       -4.2930   -10.4390     1.7910 H     1 <1>   0.1500 
 58 H       -4.8980   -11.8320    -1.3150 H     1 <1>   0.0800 
 59 H       -6.4140   -11.9890    -0.4610 H     1 <1>   0.0800 
 60 H       -4.9050   -12.2450     0.3850 H     1 <1>   0.0800 
@<TRIPOS>BOND
  1   1   2  2   
  2   1   3  2   
  3   1   4  am  
  4   1   5  am  
  5   4   6  1   
  6   4   7  1   
  7   5   8  1   
  8   5   9  1   
  9   6  10  1   
 10   6  31  1   
 11   6  32  1   
 12   7  11  1   
 13   7  33  1   
 14   7  34  1   
 15   8  12  1   
 16   8  35  1   
 17   8  36  1   
 18   9  13  1   
 19   9  37  1   
 20   9  38  1   
 21  10  14  1   
 22  10  39  1   
 23  10  40  1   
 24  11  15  1   
 25  11  41  1   
 26  11  42  1   
 27  12  16  1   
 28  12  43  1   
 29  12  44  1   
 30  13  16  1   
 31  13  45  1   
 32  13  46  1   
 33  14  15  1   
 34  14  17  1   
 35  15  47  1   
 36  15  48  1   
 37  16  49  1   
 38  16  50  1   
 39  17  18  ar  
 40  17  19  ar  
 41  18  20  ar  
 42  19  21  ar  
 43  20  22  1   
 44  20  23  ar  
 45  21  23  ar  
 46  21  51  1   
 47  22  24  ar  
 48  22  25  ar  
 49  23  52  1   
 50  24  26  ar  
 51  24  27  1   
 52  25  28  ar  
 53  25  53  1   
 54  26  29  ar  
 55  27  54  1   
 56  27  55  1   
 57  27  56  1   
 58  28  29  ar  
 59  28  57  1   
 60  29  30  1   
 61  30  58  1   
 62  30  59  1   
 63  30  60  1   
@<TRIPOS>SUBSTRUCTURE
  1 ****  14 GROUP 4 **** **** 0

# MOE 2024.06 (io_trps.svl 2023.06)
