@<TRIPOS>MOLECULE
NONAME
50 52 1 0 0 
SMALL
USER_CHARGES


@<TRIPOS>ATOM
  1 F        1.3030    -2.2030    -2.7520 F     1 <1>  -0.1900 
  2 C        1.5570    -1.9450    -1.4970 C.ar  1 <1>   0.1900 
  3 C        0.6690    -2.3950    -0.5370 C.ar  1 <1>  -0.1440 
  4 C        2.6930    -1.2230    -1.1830 C.ar  1 <1>  -0.1500 
  5 C        0.9700    -2.0830     0.7770 C.ar  1 <1>   0.1900 
  6 C       -0.5650    -3.1890    -0.9020 C.3   1 <1>   0.4860 
  7 C        2.9660    -0.9290     0.1450 C.ar  1 <1>   0.0830 
  8 F        0.1520    -2.4800     1.7140 F     1 <1>  -0.1900 
  9 C        2.0940    -1.3640     1.1410 C.ar  1 <1>  -0.1500 
 10 N       -1.7550    -2.3020    -0.8560 N.4   1 <1>  -0.9590 
 11 O        4.0920    -0.2180     0.3900 O.3   1 <1>  -0.3620 
 12 C       -3.0440    -3.0290    -0.9050 C.3   1 <1>   0.3430 
 13 C       -1.7030    -1.1800    -1.8390 C.3   1 <1>   0.3430 
 14 C        4.4860     0.1160     1.7030 C.3   1 <1>   0.0400 
 15 C       -4.1780    -2.0970    -0.4550 C.3   1 <1>  -0.1600 
 16 C       -2.9990    -0.3590    -1.8090 C.3   1 <1>  -0.1600 
 17 C       -3.8380    -0.5940    -0.5430 C.3   1 <1>   0.2800 
 18 O       -2.9920    -0.3080     0.5490 O.3   1 <1>  -0.5600 
 19 C       -5.1010     0.2960    -0.5560 C.3   1 <1>  -0.1600 
 20 C       -3.4170     0.5720     1.5550 C.3   1 <1>   0.1200 
 21 C       -5.8140     0.3860     0.8060 C.3   1 <1>   0.2800 
 22 C       -4.8410     0.2180     1.9790 C.3   1 <1>  -0.1600 
 23 O       -6.3410     1.6520     0.8880 O.3   1 <1>  -0.6800 
 24 C       -7.0090    -0.5600     0.9240 C.3   1 <1>  -0.2400 
 25 H        3.3620    -0.8890    -1.9560 H     1 <1>   0.1500 
 26 H       -0.6820    -3.9960    -0.1960 H     1 <1>   0.0800 
 27 H       -0.4550    -3.6130    -1.8870 H     1 <1>   0.0800 
 28 H        2.2680    -1.1590     2.1810 H     1 <1>   0.1500 
 29 H       -1.7600    -1.8210     0.0660 H     1 <1>   0.4500 
 30 H       -3.0160    -3.8920    -0.2600 H     1 <1>   0.0800 
 31 H       -3.2270    -3.3630    -1.9140 H     1 <1>   0.0800 
 32 H       -1.5360    -1.5590    -2.8340 H     1 <1>   0.0800 
 33 H       -0.8780    -0.5320    -1.5870 H     1 <1>   0.0800 
 34 H        5.4070     0.6680     1.6450 H     1 <1>   0.0800 
 35 H        4.6390    -0.7880     2.2650 H     1 <1>   0.0800 
 36 H        3.7240     0.7270     2.1540 H     1 <1>   0.0800 
 37 H       -4.4530    -2.3470     0.5530 H     1 <1>   0.0800 
 38 H       -5.0320    -2.3120    -1.0720 H     1 <1>   0.0800 
 39 H       -3.5860    -0.6140    -2.6740 H     1 <1>   0.0800 
 40 H       -2.7520     0.6840    -1.9010 H     1 <1>   0.0800 
 41 H       -5.7880    -0.0550    -1.3040 H     1 <1>   0.0800 
 42 H       -4.7980     1.2820    -0.8610 H     1 <1>   0.0800 
 43 H       -3.3590     1.5790     1.1780 H     1 <1>   0.0800 
 44 H       -2.7390     0.4730     2.3860 H     1 <1>   0.0800 
 45 H       -5.1480     0.8250     2.8130 H     1 <1>   0.0800 
 46 H       -4.8390    -0.8010     2.3210 H     1 <1>   0.0800 
 47 H       -5.6320     2.3190     0.9070 H     1 <1>   0.4000 
 48 H       -6.6990    -1.5850     0.8650 H     1 <1>   0.0800 
 49 H       -7.7150    -0.3710     0.1350 H     1 <1>   0.0800 
 50 H       -7.5030    -0.4130     1.8690 H     1 <1>   0.0800 
@<TRIPOS>BOND
  1   1   2  1   
  2   2   3  ar  
  3   2   4  ar  
  4   3   5  ar  
  5   3   6  1   
  6   4   7  ar  
  7   4  25  1   
  8   5   8  1   
  9   5   9  ar  
 10   6  10  1   
 11   6  26  1   
 12   6  27  1   
 13   7   9  ar  
 14   7  11  1   
 15   9  28  1   
 16  10  12  1   
 17  10  13  1   
 18  10  29  1   
 19  11  14  1   
 20  12  15  1   
 21  12  30  1   
 22  12  31  1   
 23  13  16  1   
 24  13  32  1   
 25  13  33  1   
 26  14  34  1   
 27  14  35  1   
 28  14  36  1   
 29  15  17  1   
 30  15  37  1   
 31  15  38  1   
 32  16  17  1   
 33  16  39  1   
 34  16  40  1   
 35  17  18  1   
 36  17  19  1   
 37  18  20  1   
 38  19  21  1   
 39  19  41  1   
 40  19  42  1   
 41  20  22  1   
 42  20  43  1   
 43  20  44  1   
 44  21  22  1   
 45  21  23  1   
 46  21  24  1   
 47  22  45  1   
 48  22  46  1   
 49  23  47  1   
 50  24  48  1   
 51  24  49  1   
 52  24  50  1   
@<TRIPOS>SUBSTRUCTURE
  1 ****  10 GROUP 4 **** **** 0

# MOE 2024.06 (io_trps.svl 2023.06)
