@<TRIPOS>MOLECULE
NONAME
44 46 1 0 0 
SMALL
USER_CHARGES


@<TRIPOS>ATOM
  1 CL       0.9030    -0.8960    -1.2930 Cl    1 <1>  -0.1770 
  2 C        0.2560    -2.4260    -0.7520 C.ar  1 <1>   0.1770 
  3 C        0.2810    -3.5290    -1.5870 C.ar  1 <1>   0.1600 
  4 C       -0.2790    -2.5320     0.5130 C.ar  1 <1>  -0.1500 
  5 N       -0.1880    -4.7260    -1.2590 N.ar  1 <1>  -0.6200 
  6 C       -0.7680    -3.7710     0.8630 C.ar  1 <1>  -0.1500 
  7 C       -0.7070    -4.8330    -0.0420 C.ar  1 <1>   0.4270 
  8 N       -1.1740    -6.0980     0.2340 N.am  1 <1>  -0.5470 
  9 C       -1.9180    -6.6320     1.2410 C.2   1 <1>   0.5690 
 10 O       -2.3180    -6.0060     2.1920 O.2   1 <1>  -0.5700 
 11 C       -2.2610    -8.1190     1.1270 C.3   1 <1>   0.1710 
 12 N       -2.1860    -8.6530    -0.2680 N.3   1 <1>  -0.8100 
 13 C       -3.3080    -8.1890    -1.1080 C.3   1 <1>   0.1100 
 14 C       -2.2960   -10.1160    -0.2790 C.3   1 <1>   0.1100 
 15 C       -4.4220    -9.2390    -1.0110 C.3   1 <1>   0.2000 
 16 C       -3.7920   -10.4310    -0.2890 C.3   1 <1>  -0.0800 
 17 O       -5.4840    -8.7560    -0.2630 O.3   1 <1>  -0.6800 
 18 C       -4.1230   -11.7810    -0.9430 C.3   1 <1>   0.0210 
 19 C       -3.3500   -12.9180    -0.2990 C.2   1 <1>   0.1080 
 20 N       -3.2790   -13.0930     0.9850 N.2   1 <1>  -0.7070 
 21 C       -2.6360   -13.8850    -0.9990 C.2   1 <1>  -0.1500 
 22 N       -2.5140   -14.1890     1.1390 N.pl3 1 <1>   0.3000 
 23 C       -2.1100   -14.6860    -0.0490 C.2   1 <1>  -0.3320 
 24 C       -1.2350   -15.9160    -0.2050 C.3   1 <1>  -0.0600 
 25 H        0.7060    -3.4150    -2.5680 H     1 <1>   0.1500 
 26 H       -0.3080    -1.6890     1.1810 H     1 <1>   0.1500 
 27 H       -1.1940    -3.9150     1.8380 H     1 <1>   0.1500 
 28 H       -0.9910    -6.7650    -0.5190 H     1 <1>   0.3700 
 29 H       -3.2420    -8.2780     1.5380 H     1 <1>   0.0800 
 30 H       -1.5590    -8.6500     1.7440 H     1 <1>   0.0800 
 31 H       -3.6520    -7.2060    -0.8330 H     1 <1>   0.0800 
 32 H       -2.9650    -8.1530    -2.1280 H     1 <1>   0.0800 
 33 H       -1.8400   -10.4860    -1.1830 H     1 <1>   0.0800 
 34 H       -1.7970   -10.5710     0.5620 H     1 <1>   0.0800 
 35 H       -4.7920    -9.4880    -1.9910 H     1 <1>   0.0800 
 36 H       -4.1210   -10.4630     0.7360 H     1 <1>   0.0800 
 37 H       -5.1910    -8.5670     0.6480 H     1 <1>   0.4000 
 38 H       -3.8900   -11.7470    -1.9920 H     1 <1>   0.0800 
 39 H       -5.1740   -11.9780    -0.8380 H     1 <1>   0.0800 
 40 H       -2.5410   -13.9560    -2.0680 H     1 <1>   0.1500 
 41 H       -2.2890   -14.5730     2.0640 H     1 <1>   0.2700 
 42 H       -1.0510   -16.1100    -1.2480 H     1 <1>   0.0800 
 43 H       -1.7210   -16.7760     0.2210 H     1 <1>   0.0800 
 44 H       -0.2900   -15.7670     0.2860 H     1 <1>   0.0800 
@<TRIPOS>BOND
  1   1   2  1   
  2   2   3  ar  
  3   2   4  ar  
  4   3   5  ar  
  5   3  25  1   
  6   4   6  ar  
  7   4  26  1   
  8   5   7  ar  
  9   6   7  ar  
 10   6  27  1   
 11   7   8  1   
 12   8   9  am  
 13   8  28  1   
 14   9  10  2   
 15   9  11  1   
 16  11  12  1   
 17  11  29  1   
 18  11  30  1   
 19  12  13  1   
 20  12  14  1   
 21  13  15  1   
 22  13  31  1   
 23  13  32  1   
 24  14  16  1   
 25  14  33  1   
 26  14  34  1   
 27  15  16  1   
 28  15  17  1   
 29  15  35  1   
 30  16  18  1   
 31  16  36  1   
 32  17  37  1   
 33  18  19  1   
 34  18  38  1   
 35  18  39  1   
 36  19  20  2   
 37  19  21  1   
 38  20  22  1   
 39  21  23  2   
 40  21  40  1   
 41  22  23  1   
 42  22  41  1   
 43  23  24  1   
 44  24  42  1   
 45  24  43  1   
 46  24  44  1   
@<TRIPOS>SUBSTRUCTURE
  1 ****  12 GROUP 4 **** **** 0

# MOE 2024.06 (io_trps.svl 2023.06)
