@<TRIPOS>MOLECULE
NONAME
49 53 1 0 0 
SMALL
USER_CHARGES


@<TRIPOS>ATOM
  1 S        1.5760     0.0000    -0.0320 S.3   1 <1>  -0.0800 
  2 C        0.9660     1.6260    -0.2500 C.2   1 <1>  -0.1400 
  3 C        3.0790     0.6310     0.6240 C.2   1 <1>  -0.1100 
  4 C        1.8550     2.5500     0.1370 C.2   1 <1>  -0.1810 
  5 C       -0.4030     1.9120    -0.8050 C.3   1 <1>   0.0200 
  6 C        3.0690     1.9780     0.6470 C.2   1 <1>  -0.1500 
  7 C        1.5400     4.0430     0.0180 C.3   1 <1>   0.4610 
  8 C       -0.7470     3.3650    -0.4390 C.3   1 <1>   0.1200 
  9 O        0.3350     4.2270    -0.7050 O.3   1 <1>  -0.5600 
 10 C        2.6260     4.7560    -0.7920 C.3   1 <1>  -0.1600 
 11 C        1.4040     4.6940     1.4000 C.3   1 <1>  -0.1600 
 12 C        2.3840     6.2650    -0.8770 C.3   1 <1>   0.1400 
 13 C        1.1430     6.1960     1.2860 C.3   1 <1>   0.1400 
 14 N        2.2360     6.8370     0.4970 N.am  1 <1>  -0.6600 
 15 C        2.9700     7.8770     1.0290 C.2   1 <1>   0.5690 
 16 O        2.8470     8.1890     2.1920 O.2   1 <1>  -0.5700 
 17 C        3.9660     8.6810     0.1790 C.3   1 <1>   0.1240 
 18 C        5.3880     8.0910     0.1470 C.ar  1 <1>  -0.1430 
 19 C        4.0220    10.1620     0.6030 C.3   1 <1>  -0.0990 
 20 C        6.4360     8.9120    -0.2810 C.ar  1 <1>   0.1170 
 21 C        5.6610     6.7780     0.5090 C.ar  1 <1>  -0.1500 
 22 C        5.0400    10.9040    -0.2330 C.2   1 <1>   0.5690 
 23 N        6.1690    10.2470    -0.5900 N.am  1 <1>  -0.5470 
 24 C        7.7300     8.4110    -0.3790 C.ar  1 <1>  -0.1500 
 25 C        6.9570     6.3090     0.4070 C.ar  1 <1>   0.1900 
 26 O        4.8460    12.0430    -0.5670 O.2   1 <1>  -0.5700 
 27 C        8.0000     7.0990    -0.0350 C.ar  1 <1>  -0.1500 
 28 F        7.2030     5.0680     0.7390 F     1 <1>  -0.1900 
 29 H        3.8230    -0.0840     0.9270 H     1 <1>   0.1500 
 30 H       -1.1300     1.2460    -0.3760 H     1 <1>   0.0800 
 31 H       -0.4010     1.7860    -1.8720 H     1 <1>   0.0800 
 32 H        3.8730     2.5950     1.0070 H     1 <1>   0.1500 
 33 H       -0.9940     3.4400     0.6050 H     1 <1>   0.0800 
 34 H       -1.5880     3.7050    -1.0170 H     1 <1>   0.0800 
 35 H        2.6560     4.3350    -1.7810 H     1 <1>   0.0800 
 36 H        3.5850     4.5840    -0.3420 H     1 <1>   0.0800 
 37 H        2.3120     4.5470     1.9540 H     1 <1>   0.0800 
 38 H        0.6160     4.2230     1.9550 H     1 <1>   0.0800 
 39 H        1.4820     6.4570    -1.4340 H     1 <1>   0.0800 
 40 H        3.2060     6.7100    -1.4060 H     1 <1>   0.0800 
 41 H        1.0760     6.6220     2.2720 H     1 <1>   0.0800 
 42 H        0.2030     6.3690     0.7880 H     1 <1>   0.0800 
 43 H        3.6010     8.6910    -0.8300 H     1 <1>   0.0800 
 44 H        4.3140    10.2420     1.6350 H     1 <1>   0.0800 
 45 H        3.0560    10.6190     0.4870 H     1 <1>   0.0800 
 46 H        4.9000     6.1120     0.8690 H     1 <1>   0.1500 
 47 H        6.8630    10.8070    -1.0860 H     1 <1>   0.3700 
 48 H        8.5270     9.0500    -0.7170 H     1 <1>   0.1500 
 49 H        8.9940     6.6930    -0.1020 H     1 <1>   0.1500 
@<TRIPOS>BOND
  1   1   2  1   
  2   1   3  1   
  3   2   4  2   
  4   2   5  1   
  5   3   6  2   
  6   3  29  1   
  7   4   6  1   
  8   4   7  1   
  9   5   8  1   
 10   5  30  1   
 11   5  31  1   
 12   6  32  1   
 13   7   9  1   
 14   7  10  1   
 15   7  11  1   
 16   8   9  1   
 17   8  33  1   
 18   8  34  1   
 19  10  12  1   
 20  10  35  1   
 21  10  36  1   
 22  11  13  1   
 23  11  37  1   
 24  11  38  1   
 25  12  14  1   
 26  12  39  1   
 27  12  40  1   
 28  13  14  1   
 29  13  41  1   
 30  13  42  1   
 31  14  15  am  
 32  15  16  2   
 33  15  17  1   
 34  17  18  1   
 35  17  19  1   
 36  17  43  1   
 37  18  20  ar  
 38  18  21  ar  
 39  19  22  1   
 40  19  44  1   
 41  19  45  1   
 42  20  23  1   
 43  20  24  ar  
 44  21  25  ar  
 45  21  46  1   
 46  22  23  am  
 47  22  26  2   
 48  23  47  1   
 49  24  27  ar  
 50  24  48  1   
 51  25  27  ar  
 52  25  28  1   
 53  27  49  1   
@<TRIPOS>SUBSTRUCTURE
  1 ****  12 GROUP 4 **** **** 0

# MOE 2024.06 (io_trps.svl 2023.06)
