@<TRIPOS>MOLECULE
NONAME
43 45 1 0 0 
SMALL
USER_CHARGES


@<TRIPOS>ATOM
  1 O       -2.3290     0.5730    -1.9640 O.2   1 <1>  -0.5700 
  2 C       -1.9960     0.5080    -0.8050 C.2   1 <1>   0.5690 
  3 N       -1.8790    -0.6870    -0.1760 N.am  1 <1>  -0.7300 
  4 C       -1.7160     1.7830    -0.0150 C.3   1 <1>  -0.0190 
  5 C       -2.0750    -2.0060    -0.8210 C.3   1 <1>   0.2200 
  6 C       -2.9890     2.6220     0.1830 C.3   1 <1>  -0.1600 
  7 C       -0.6370     2.6520    -0.6830 C.3   1 <1>  -0.1600 
  8 C       -3.4090    -2.6250    -0.4240 C.3   1 <1>  -0.0800 
  9 C       -1.1100    -3.0030    -0.1960 C.3   1 <1>   0.1200 
 10 C       -2.6660     3.9440     0.8890 C.3   1 <1>   0.1200 
 11 C       -0.4540     3.9710     0.0750 C.3   1 <1>   0.1200 
 12 C       -3.0900    -3.3160     0.9070 C.3   1 <1>   0.1200 
 13 C       -4.6090    -1.6620    -0.3700 C.3   1 <1>  -0.0160 
 14 O       -1.6970    -3.3530     1.0200 O.3   1 <1>  -0.5600 
 15 O       -1.6820     4.6250     0.1740 O.3   1 <1>  -0.5600 
 16 C       -5.8970    -2.4180    -0.0810 C.ar  1 <1>  -0.1440 
 17 C       -6.4300    -2.5060     1.1890 C.ar  1 <1>  -0.1500 
 18 C       -6.5980    -3.0600    -1.0820 C.ar  1 <1>  -0.1500 
 19 C       -7.6020    -3.2170     1.3910 C.ar  1 <1>   0.1600 
 20 C       -7.7620    -3.7440    -0.7730 C.ar  1 <1>   0.1600 
 21 N       -8.2800    -3.8400     0.4410 N.ar  1 <1>  -0.6200 
 22 H       -1.6280    -0.7470     0.8140 H     1 <1>   0.3700 
 23 H       -1.3520     1.5020     0.9570 H     1 <1>   0.0800 
 24 H       -1.9520    -1.9300    -1.8890 H     1 <1>   0.0800 
 25 H       -3.7080     2.0700     0.7600 H     1 <1>   0.0800 
 26 H       -3.4330     2.8420    -0.7730 H     1 <1>   0.0800 
 27 H       -0.9220     2.8760    -1.6970 H     1 <1>   0.0800 
 28 H        0.2970     2.1200    -0.7140 H     1 <1>   0.0800 
 29 H       -3.6340    -3.3980    -1.1390 H     1 <1>   0.0800 
 30 H       -0.1320    -2.5900    -0.0250 H     1 <1>   0.0800 
 31 H       -1.0350    -3.8930    -0.7960 H     1 <1>   0.0800 
 32 H       -2.3090     3.7790     1.8910 H     1 <1>   0.0800 
 33 H       -3.5370     4.5740     0.9270 H     1 <1>   0.0800 
 34 H        0.2200     4.6200    -0.4560 H     1 <1>   0.0800 
 35 H       -0.0730     3.8060     1.0680 H     1 <1>   0.0800 
 36 H       -3.4710    -4.3220     0.9340 H     1 <1>   0.0800 
 37 H       -3.4700    -2.7610     1.7480 H     1 <1>   0.0800 
 38 H       -4.7000    -1.1520    -1.3140 H     1 <1>   0.0800 
 39 H       -4.4580    -0.9130     0.3870 H     1 <1>   0.0800 
 40 H       -5.9490    -2.0310     2.0230 H     1 <1>   0.1500 
 41 H       -6.2510    -3.0340    -2.0990 H     1 <1>   0.1500 
 42 H       -8.0040    -3.2760     2.3890 H     1 <1>   0.1500 
 43 H       -8.2960    -4.2380    -1.5670 H     1 <1>   0.1500 
@<TRIPOS>BOND
  1   1   2  2   
  2   2   3  am  
  3   2   4  1   
  4   3   5  1   
  5   3  22  1   
  6   4   6  1   
  7   4   7  1   
  8   4  23  1   
  9   5   8  1   
 10   5   9  1   
 11   5  24  1   
 12   6  10  1   
 13   6  25  1   
 14   6  26  1   
 15   7  11  1   
 16   7  27  1   
 17   7  28  1   
 18   8  12  1   
 19   8  13  1   
 20   8  29  1   
 21   9  14  1   
 22   9  30  1   
 23   9  31  1   
 24  10  15  1   
 25  10  32  1   
 26  10  33  1   
 27  11  15  1   
 28  11  34  1   
 29  11  35  1   
 30  12  14  1   
 31  12  36  1   
 32  12  37  1   
 33  13  16  1   
 34  13  38  1   
 35  13  39  1   
 36  16  17  ar  
 37  16  18  ar  
 38  17  19  ar  
 39  17  40  1   
 40  18  20  ar  
 41  18  41  1   
 42  19  21  ar  
 43  19  42  1   
 44  20  21  ar  
 45  20  43  1   
@<TRIPOS>SUBSTRUCTURE
  1 ****  13 GROUP 4 **** **** 0

# MOE 2024.06 (io_trps.svl 2023.06)
