@<TRIPOS>MOLECULE
NONAME
58 62 1 0 0 
SMALL
USER_CHARGES


@<TRIPOS>ATOM
  1 O        2.9390    -0.8060    -2.2360 O.2   1 <1>  -0.5700 
  2 C        2.2480    -1.4320    -1.4470 C.2   1 <1>   0.5440 
  3 N        1.7180    -0.7210    -0.3820 N.am  1 <1>  -0.6600 
  4 C        2.0570    -2.8700    -1.6640 C.ar  1 <1>   0.3960 
  5 C        2.0190     0.7080    -0.1460 C.3   1 <1>   0.1400 
  6 C        0.9380    -1.2840     0.7460 C.3   1 <1>   0.1400 
  7 N        0.9650    -3.5080    -1.2090 N.ar  1 <1>  -0.6200 
  8 C        3.0530    -3.5580    -2.3670 C.ar  1 <1>   0.1600 
  9 C        1.7350     0.9240     1.3350 C.3   1 <1>  -0.1600 
 10 C        0.6580    -0.1030     1.6700 C.3   1 <1>  -0.1600 
 11 C        0.9400    -4.8020    -1.4790 C.ar  1 <1>   0.4100 
 12 N        3.0510    -4.8540    -2.6510 N.ar  1 <1>  -0.6200 
 13 N       -0.1530    -5.5170    -1.0150 N.pl3 1 <1>  -0.8380 
 14 C        1.9660    -5.4420    -2.1900 C.ar  1 <1>   0.1600 
 15 C       -1.4680    -4.8330    -0.8730 C.3   1 <1>   0.2090 
 16 C        0.0780    -6.5450     0.0320 C.3   1 <1>   0.2090 
 17 C       -2.5820    -5.8720    -0.9890 C.3   1 <1>  -0.1600 
 18 C       -1.0090    -7.6130    -0.0750 C.3   1 <1>  -0.1600 
 19 C       -2.4140    -7.0030     0.0390 C.3   1 <1>   0.4240 
 20 O       -2.4660    -6.4380     1.3290 O.3   1 <1>  -0.5600 
 21 C       -3.4910    -8.0960    -0.1500 C.ar  1 <1>  -0.1430 
 22 C       -3.7240    -6.2190     1.8870 C.3   1 <1>   0.1200 
 23 C       -4.4260    -8.3650     0.8450 C.ar  1 <1>  -0.1430 
 24 C       -3.5500    -8.8310    -1.3290 C.ar  1 <1>  -0.1500 
 25 C       -4.3940    -7.5660     2.1330 C.3   1 <1>  -0.0170 
 26 C       -5.3850    -9.3510     0.6690 C.ar  1 <1>  -0.1500 
 27 C       -4.5080    -9.8130    -1.5070 C.ar  1 <1>  -0.1500 
 28 C       -5.4300   -10.0820    -0.5120 C.ar  1 <1>   0.0830 
 29 O       -6.3340   -11.0620    -0.7640 O.3   1 <1>  -0.3620 
 30 C       -7.3030   -11.4290     0.1920 C.3   1 <1>   0.0400 
 31 H        1.3600     1.3070    -0.7510 H     1 <1>   0.0800 
 32 H        3.0430     0.9380    -0.3910 H     1 <1>   0.0800 
 33 H        1.5280    -2.0310     1.2490 H     1 <1>   0.0800 
 34 H        0.0180    -1.7210     0.3960 H     1 <1>   0.0800 
 35 H        3.9030    -2.9960    -2.7140 H     1 <1>   0.1500 
 36 H        1.4220     1.9320     1.5390 H     1 <1>   0.0800 
 37 H        2.6300     0.7130     1.8940 H     1 <1>   0.0800 
 38 H        0.6760    -0.3940     2.7050 H     1 <1>   0.0800 
 39 H       -0.3120     0.2980     1.4370 H     1 <1>   0.0800 
 40 H        1.8530    -6.4930    -2.3740 H     1 <1>   0.1500 
 41 H       -1.5800    -4.0920    -1.6470 H     1 <1>   0.0800 
 42 H       -1.5130    -4.3380     0.0820 H     1 <1>   0.0800 
 43 H        0.0460    -6.0790     1.0030 H     1 <1>   0.0800 
 44 H        1.0470    -6.9970    -0.0920 H     1 <1>   0.0800 
 45 H       -2.5500    -6.2800    -1.9820 H     1 <1>   0.0800 
 46 H       -3.5390    -5.4010    -0.8720 H     1 <1>   0.0800 
 47 H       -0.8810    -8.3460     0.6990 H     1 <1>   0.0800 
 48 H       -0.8960    -8.1120    -1.0190 H     1 <1>   0.0800 
 49 H       -4.3090    -5.6110     1.2190 H     1 <1>   0.0800 
 50 H       -3.5870    -5.6920     2.8140 H     1 <1>   0.0800 
 51 H       -2.8500    -8.6480    -2.1240 H     1 <1>   0.1500 
 52 H       -5.3920    -7.4040     2.4960 H     1 <1>   0.0800 
 53 H       -3.8440    -8.1080     2.8820 H     1 <1>   0.0800 
 54 H       -6.0880    -9.5370     1.4570 H     1 <1>   0.1500 
 55 H       -4.5460   -10.3780    -2.4200 H     1 <1>   0.1500 
 56 H       -7.8960   -12.2240    -0.2220 H     1 <1>   0.0800 
 57 H       -7.9270   -10.5780     0.4010 H     1 <1>   0.0800 
 58 H       -6.8030   -11.7700     1.0810 H     1 <1>   0.0800 
@<TRIPOS>BOND
  1   1   2  2   
  2   2   3  am  
  3   2   4  1   
  4   3   5  1   
  5   3   6  1   
  6   4   7  ar  
  7   4   8  ar  
  8   5   9  1   
  9   5  31  1   
 10   5  32  1   
 11   6  10  1   
 12   6  33  1   
 13   6  34  1   
 14   7  11  ar  
 15   8  12  ar  
 16   8  35  1   
 17   9  10  1   
 18   9  36  1   
 19   9  37  1   
 20  10  38  1   
 21  10  39  1   
 22  11  13  1   
 23  11  14  ar  
 24  12  14  ar  
 25  13  15  1   
 26  13  16  1   
 27  14  40  1   
 28  15  17  1   
 29  15  41  1   
 30  15  42  1   
 31  16  18  1   
 32  16  43  1   
 33  16  44  1   
 34  17  19  1   
 35  17  45  1   
 36  17  46  1   
 37  18  19  1   
 38  18  47  1   
 39  18  48  1   
 40  19  20  1   
 41  19  21  1   
 42  20  22  1   
 43  21  23  ar  
 44  21  24  ar  
 45  22  25  1   
 46  22  49  1   
 47  22  50  1   
 48  23  25  1   
 49  23  26  ar  
 50  24  27  ar  
 51  24  51  1   
 52  25  52  1   
 53  25  53  1   
 54  26  28  ar  
 55  26  54  1   
 56  27  28  ar  
 57  27  55  1   
 58  28  29  1   
 59  29  30  1   
 60  30  56  1   
 61  30  57  1   
 62  30  58  1   
@<TRIPOS>SUBSTRUCTURE
  1 ****  15 GROUP 4 **** **** 0

# MOE 2024.06 (io_trps.svl 2023.06)
