@<TRIPOS>MOLECULE
NONAME
44 46 1 0 0 
SMALL
USER_CHARGES


@<TRIPOS>ATOM
  1 S       -0.2380     0.4840    -1.8710 S.3   1 <1>  -0.0800 
  2 C       -1.3910     1.1240    -0.7310 C.2   1 <1>  -0.1400 
  3 C       -0.8870    -1.1140    -1.5880 C.2   1 <1>   0.2280 
  4 C       -2.1330     0.1070    -0.2580 C.2   1 <1>   0.0460 
  5 C       -1.3690     2.6210    -0.4840 C.3   1 <1>   0.0200 
  6 N       -1.8410    -1.1550    -0.7480 N.2   1 <1>  -0.5650 
  7 C       -3.2550     0.1790     0.7560 C.3   1 <1>  -0.0590 
  8 C       -0.1500     3.0150     0.3570 C.3   1 <1>  -0.0990 
  9 C       -0.1230     4.5090     0.5920 C.2   1 <1>   0.5690 
 10 O       -0.9150     4.9740     1.3740 O.2   1 <1>  -0.5700 
 11 N        0.7940     5.2520    -0.0970 N.am  1 <1>  -0.4940 
 12 C        0.9690     6.6590    -0.1010 C.2   1 <1>  -0.0880 
 13 N        2.1690     7.2960     0.0050 N.pl3 1 <1>   0.3140 
 14 C        0.0310     7.6310    -0.2170 C.2   1 <1>  -0.1810 
 15 N        2.0180     8.6430    -0.0590 N.2   1 <1>  -0.7070 
 16 C        3.4980     6.6490     0.2140 C.3   1 <1>   0.1760 
 17 C        0.7410     8.8250    -0.1830 C.2   1 <1>   0.1390 
 18 C       -1.4740     7.5080    -0.3600 C.3   1 <1>  -0.0590 
 19 C        4.2450     7.1710     1.4410 C.3   1 <1>  -0.1600 
 20 C        4.4720     6.8920    -0.9400 C.3   1 <1>  -0.1600 
 21 C        5.7070     6.7960     1.1870 C.3   1 <1>  -0.1600 
 22 C        5.8700     6.7140    -0.3360 C.3   1 <1>  -0.1600 
 23 H       -0.4430    -1.9290    -2.1330 H     1 <1>   0.1500 
 24 H       -2.2650     2.9170     0.0330 H     1 <1>   0.0800 
 25 H       -1.3520     3.1370    -1.4280 H     1 <1>   0.0800 
 26 H       -3.4040     1.1840     1.1010 H     1 <1>   0.0800 
 27 H       -3.0180    -0.4460     1.5980 H     1 <1>   0.0800 
 28 H       -4.1660    -0.1750     0.3090 H     1 <1>   0.0800 
 29 H        0.7530     2.7020    -0.1320 H     1 <1>   0.0800 
 30 H       -0.2020     2.5210     1.3100 H     1 <1>   0.0800 
 31 H        1.4270     4.7280    -0.6990 H     1 <1>   0.3700 
 32 H        3.3580     5.5920     0.3330 H     1 <1>   0.0800 
 33 H        0.2910     9.8010    -0.2520 H     1 <1>   0.1500 
 34 H       -1.7330     6.5530    -0.7800 H     1 <1>   0.0800 
 35 H       -1.8520     8.2810    -1.0030 H     1 <1>   0.0800 
 36 H       -1.9350     7.5940     0.6070 H     1 <1>   0.0800 
 37 H        3.8700     6.7410     2.3530 H     1 <1>   0.0800 
 38 H        4.1640     8.2440     1.4900 H     1 <1>   0.0800 
 39 H        4.3710     7.9070    -1.2880 H     1 <1>   0.0800 
 40 H        4.3000     6.2160    -1.7580 H     1 <1>   0.0800 
 41 H        5.9150     5.8340     1.6240 H     1 <1>   0.0800 
 42 H        6.3740     7.5240     1.6180 H     1 <1>   0.0800 
 43 H        6.5320     7.4850    -0.6940 H     1 <1>   0.0800 
 44 H        6.2790     5.7550    -0.6090 H     1 <1>   0.0800 
@<TRIPOS>BOND
  1   1   2  1   
  2   1   3  1   
  3   2   4  2   
  4   2   5  1   
  5   3   6  2   
  6   3  23  1   
  7   4   6  1   
  8   4   7  1   
  9   5   8  1   
 10   5  24  1   
 11   5  25  1   
 12   7  26  1   
 13   7  27  1   
 14   7  28  1   
 15   8   9  1   
 16   8  29  1   
 17   8  30  1   
 18   9  10  2   
 19   9  11  am  
 20  11  12  1   
 21  11  31  1   
 22  12  13  1   
 23  12  14  2   
 24  13  15  1   
 25  13  16  1   
 26  14  17  1   
 27  14  18  1   
 28  15  17  2   
 29  16  19  1   
 30  16  20  1   
 31  16  32  1   
 32  17  33  1   
 33  18  34  1   
 34  18  35  1   
 35  18  36  1   
 36  19  21  1   
 37  19  37  1   
 38  19  38  1   
 39  20  22  1   
 40  20  39  1   
 41  20  40  1   
 42  21  22  1   
 43  21  41  1   
 44  21  42  1   
 45  22  43  1   
 46  22  44  1   
@<TRIPOS>SUBSTRUCTURE
  1 ****  11 GROUP 4 **** **** 0

# MOE 2024.06 (io_trps.svl 2023.06)
