@<TRIPOS>MOLECULE
NONAME
32 33 1 0 0 
SMALL
USER_CHARGES


@<TRIPOS>ATOM
  1 O       -0.1710    -1.1490     1.9280 O.2   1 <1>  -0.5700 
  2 C        0.0840    -1.6470     0.8630 C.2   1 <1>   0.6590 
  3 O       -0.7800    -1.6550    -0.1450 O.3   1 <1>  -0.4300 
  4 C        1.4190    -2.2990     0.6000 C.3   1 <1>  -0.0990 
  5 C       -2.0540    -1.0570    -0.0300 C.3   1 <1>   0.0400 
  6 C        2.5320    -1.2520     0.4720 C.3   1 <1>   0.1590 
  7 C        3.8910    -1.9430     0.3620 C.ar  1 <1>  -0.1440 
  8 C        2.2990    -0.3140    -0.7250 C.3   1 <1>  -0.1950 
  9 C        4.8240    -1.7990     1.3790 C.ar  1 <1>  -0.1500 
 10 C        4.2150    -2.7240    -0.7410 C.ar  1 <1>  -0.1500 
 11 C        2.9690     1.0220    -0.7900 C.3   1 <1>  -0.2000 
 12 C        1.4830     0.9340    -0.5890 C.3   1 <1>  -0.2000 
 13 C        6.0560    -2.4270     1.2890 C.ar  1 <1>   0.0830 
 14 C        5.4470    -3.3510    -0.8290 C.ar  1 <1>  -0.1500 
 15 O        6.9580    -2.2880     2.2720 O.3   1 <1>  -0.5320 
 16 C        6.3710    -3.2030     0.1890 C.ar  1 <1>  -0.1500 
 17 H        1.6410    -2.9530     1.4230 H     1 <1>   0.0800 
 18 H        1.3570    -2.8920    -0.2920 H     1 <1>   0.0800 
 19 H       -2.5770    -1.1850    -0.9610 H     1 <1>   0.0800 
 20 H       -1.9270    -0.0090     0.1850 H     1 <1>   0.0800 
 21 H       -2.5930    -1.5360     0.7690 H     1 <1>   0.0800 
 22 H        2.5260    -0.6550     1.3690 H     1 <1>   0.0800 
 23 H        2.2090    -0.8490    -1.6550 H     1 <1>   0.1000 
 24 H        4.5960    -1.1990     2.2410 H     1 <1>   0.1500 
 25 H        3.5110    -2.8500    -1.5440 H     1 <1>   0.1500 
 26 H        3.5870     1.3360     0.0340 H     1 <1>   0.1000 
 27 H        3.3490     1.3600    -1.7390 H     1 <1>   0.1000 
 28 H        0.8320     1.2130    -1.4000 H     1 <1>   0.1000 
 29 H        1.0790     1.2020     0.3730 H     1 <1>   0.1000 
 30 H        5.6870    -3.9530    -1.6880 H     1 <1>   0.1500 
 31 H        6.6460    -1.7200     2.9970 H     1 <1>   0.4500 
 32 H        7.3320    -3.6830     0.1370 H     1 <1>   0.1500 
@<TRIPOS>BOND
  1   1   2  2   
  2   2   3  1   
  3   2   4  1   
  4   3   5  1   
  5   4   6  1   
  6   4  17  1   
  7   4  18  1   
  8   5  19  1   
  9   5  20  1   
 10   5  21  1   
 11   6   7  1   
 12   6   8  1   
 13   6  22  1   
 14   7   9  ar  
 15   7  10  ar  
 16   8  11  1   
 17   8  12  1   
 18   8  23  1   
 19   9  13  ar  
 20   9  24  1   
 21  10  14  ar  
 22  10  25  1   
 23  11  12  1   
 24  11  26  1   
 25  11  27  1   
 26  12  28  1   
 27  12  29  1   
 28  13  15  1   
 29  13  16  ar  
 30  14  16  ar  
 31  14  30  1   
 32  15  31  1   
 33  16  32  1   
@<TRIPOS>SUBSTRUCTURE
  1 ****   6 GROUP 4 **** **** 0

# MOE 2024.06 (io_trps.svl 2023.06)
