@<TRIPOS>MOLECULE
NONAME
48 51 1 0 0 
SMALL
USER_CHARGES


@<TRIPOS>ATOM
  1 S        1.5750     0.2200     2.3180 S.3   1 <1>  -0.0800 
  2 C        1.1410    -0.4110     0.7290 C.2   1 <1>   0.3250 
  3 C        0.8110    -1.1300     3.0780 C.2   1 <1>  -0.1100 
  4 N        0.4870    -1.5230     0.8270 N.2   1 <1>  -0.5650 
  5 C        1.5430     0.3410    -0.4550 C.ar  1 <1>   0.6730 
  6 C        0.2800    -1.9470     2.1450 C.2   1 <1>   0.1410 
  7 N        1.2890    -0.2010    -1.6580 N.ar  1 <1>  -0.6200 
  8 N        2.1400     1.5310    -0.2820 N.ar  1 <1>  -0.6200 
  9 C       -0.4240    -3.1920     2.4370 C.2   1 <1>   0.7160 
 10 C        1.6510     0.4810    -2.7170 C.ar  1 <1>   0.1600 
 11 C        2.4920     2.1920    -1.3590 C.ar  1 <1>   0.1600 
 12 O        0.0020    -3.9150     3.3220 O.2   1 <1>  -0.5700 
 13 N       -1.5440    -3.6110     1.7430 N.am  1 <1>  -0.6600 
 14 C        2.2670     1.7030    -2.6200 C.ar  1 <1>  -0.1500 
 15 C       -1.9350    -5.0490     1.6790 C.3   1 <1>   0.1400 
 16 C       -2.3610    -2.7390     0.8490 C.3   1 <1>   0.1400 
 17 C       -1.7340    -5.5530     0.2290 C.3   1 <1>   0.4230 
 18 C       -2.2130    -3.2300    -0.5980 C.3   1 <1>  -0.1600 
 19 N       -1.9900    -7.0220     0.0420 N.4   1 <1>  -0.9590 
 20 C       -2.6010    -4.7290    -0.7480 C.3   1 <1>  -0.1060 
 21 C       -1.6570    -7.4770    -1.3320 C.3   1 <1>   0.3430 
 22 C       -1.4250    -7.9120     1.0910 C.3   1 <1>   0.2630 
 23 C       -4.0860    -4.9500    -0.3970 C.2   1 <1>   0.9060 
 24 C       -2.3090    -5.1730    -2.2010 C.3   1 <1>  -0.1600 
 25 C       -2.4650    -6.6920    -2.3670 C.3   1 <1>  -0.1600 
 26 O       -4.4340    -6.0440     0.0770 O.co2 1 <1>  -0.9000 
 27 O       -4.8970    -4.0450    -0.5830 O.co2 1 <1>  -0.9000 
 28 H        0.8290    -1.1960     4.1510 H     1 <1>   0.1500 
 29 H        1.4520     0.0540    -3.6850 H     1 <1>   0.1500 
 30 H        2.9730     3.1480    -1.2300 H     1 <1>   0.1500 
 31 H        2.5590     2.2530    -3.4940 H     1 <1>   0.1500 
 32 H       -1.3260    -5.6180     2.3550 H     1 <1>   0.0800 
 33 H       -2.9640    -5.1480     1.9820 H     1 <1>   0.0800 
 34 H       -3.3950    -2.7910     1.1500 H     1 <1>   0.0800 
 35 H       -2.0580    -1.7090     0.9240 H     1 <1>   0.0800 
 36 H       -0.7020    -5.3680    -0.0160 H     1 <1>   0.0800 
 37 H       -2.8460    -2.6280    -1.2280 H     1 <1>   0.0800 
 38 H       -1.1980    -3.0640    -0.9140 H     1 <1>   0.0800 
 39 H       -3.0450    -7.0410     0.1070 H     1 <1>   0.4500 
 40 H       -0.6040    -7.3330    -1.5130 H     1 <1>   0.0800 
 41 H       -1.8820    -8.5260    -1.4320 H     1 <1>   0.0800 
 42 H       -0.3520    -7.8250     1.1170 H     1 <1>   0.0800 
 43 H       -1.6900    -8.9360     0.8870 H     1 <1>   0.0800 
 44 H       -1.8230    -7.6470     2.0570 H     1 <1>   0.0800 
 45 H       -2.9870    -4.6670    -2.8700 H     1 <1>   0.0800 
 46 H       -1.3070    -4.8900    -2.4740 H     1 <1>   0.0800 
 47 H       -2.1480    -6.9780    -3.3540 H     1 <1>   0.0800 
 48 H       -3.5040    -6.9620    -2.2780 H     1 <1>   0.0800 
@<TRIPOS>BOND
  1   1   2  1   
  2   1   3  1   
  3   2   4  2   
  4   2   5  1   
  5   3   6  2   
  6   3  28  1   
  7   4   6  1   
  8   5   7  ar  
  9   5   8  ar  
 10   6   9  1   
 11   7  10  ar  
 12   8  11  ar  
 13   9  12  2   
 14   9  13  am  
 15  10  14  ar  
 16  10  29  1   
 17  11  14  ar  
 18  11  30  1   
 19  13  15  1   
 20  13  16  1   
 21  14  31  1   
 22  15  17  1   
 23  15  32  1   
 24  15  33  1   
 25  16  18  1   
 26  16  34  1   
 27  16  35  1   
 28  17  19  1   
 29  17  20  1   
 30  17  36  1   
 31  18  20  1   
 32  18  37  1   
 33  18  38  1   
 34  19  21  1   
 35  19  22  1   
 36  19  39  1   
 37  20  23  1   
 38  20  24  1   
 39  21  25  1   
 40  21  40  1   
 41  21  41  1   
 42  22  42  1   
 43  22  43  1   
 44  22  44  1   
 45  23  26  ar  
 46  23  27  ar  
 47  24  25  1   
 48  24  45  1   
 49  24  46  1   
 50  25  47  1   
 51  25  48  1   
@<TRIPOS>SUBSTRUCTURE
  1 ****  18 GROUP 4 **** **** 0

# MOE 2024.06 (io_trps.svl 2023.06)
