@<TRIPOS>MOLECULE
NONAME
57 59 1 0 0 
SMALL
USER_CHARGES


@<TRIPOS>ATOM
  1 O       -2.2560     4.6570    -1.2010 O.2   1 <1>  -0.5700 
  2 C       -1.4890     3.8490    -0.7270 C.2   1 <1>   0.6900 
  3 N       -1.6180     3.2840     0.5050 N.am  1 <1>  -0.4200 
  4 N       -0.3930     3.3980    -1.3650 N.am  1 <1>  -0.7300 
  5 C       -0.5610     2.4570     0.7380 C.2   1 <1>   0.5690 
  6 C       -2.7770     3.4740     1.4170 C.3   1 <1>   0.2010 
  7 C        0.3610     2.4840    -0.4970 C.3   1 <1>   0.3610 
  8 O       -0.3720     1.8120     1.7410 O.2   1 <1>  -0.5700 
  9 C       -3.6130     2.2040     1.5910 C.2   1 <1>   0.5690 
 10 C        0.4690     1.1260    -1.1940 C.3   1 <1>  -0.2400 
 11 C        1.7360     3.0920    -0.2130 C.3   1 <1>  -0.2400 
 12 O       -3.7940     1.8160     2.7230 O.2   1 <1>  -0.5700 
 13 N       -4.1530     1.5270     0.5210 N.am  1 <1>  -0.6600 
 14 C       -4.6590     0.1370     0.7300 C.3   1 <1>   0.1400 
 15 C       -4.3090     2.1140    -0.8430 C.3   1 <1>   0.1400 
 16 C       -6.1300     0.1410     1.1660 C.3   1 <1>   0.1400 
 17 C       -5.6390     1.7690    -1.5270 C.3   1 <1>  -0.1600 
 18 N       -7.0500     0.4560     0.0250 N.am  1 <1>  -0.6600 
 19 C       -6.8530     1.7980    -0.5920 C.3   1 <1>   0.1400 
 20 C       -7.9990    -0.4010    -0.4770 C.2   1 <1>   0.5690 
 21 O       -8.6260    -0.1350    -1.4760 O.2   1 <1>  -0.5700 
 22 C       -8.2770    -1.7320     0.2080 C.3   1 <1>  -0.0990 
 23 C       -9.5090    -2.4670    -0.3400 C.3   1 <1>   0.0200 
 24 C       -9.6950    -3.7910     0.3850 C.2   1 <1>  -0.3320 
 25 N       -9.0360    -4.9380     0.1010 N.pl3 1 <1>   0.3140 
 26 C      -10.5250    -4.0650     1.4140 C.2   1 <1>  -0.1500 
 27 N       -9.4100    -5.9330     0.9240 N.2   1 <1>  -0.7070 
 28 C       -8.0440    -5.1700    -0.9570 C.3   1 <1>   0.0160 
 29 C      -10.3020    -5.4050     1.7030 C.2   1 <1>   0.1390 
 30 H        0.0000     3.8530    -2.1870 H     1 <1>   0.3700 
 31 H       -3.4080     4.2620     1.0500 H     1 <1>   0.0800 
 32 H       -2.4050     3.7680     2.3810 H     1 <1>   0.0800 
 33 H       -0.5110     0.7400    -1.4150 H     1 <1>   0.0800 
 34 H        0.9670     0.4260    -0.5460 H     1 <1>   0.0800 
 35 H        1.0320     1.2100    -2.1060 H     1 <1>   0.0800 
 36 H        1.6310     4.0640     0.2360 H     1 <1>   0.0800 
 37 H        2.3090     3.1770    -1.1180 H     1 <1>   0.0800 
 38 H        2.2730     2.4620     0.4730 H     1 <1>   0.0800 
 39 H       -4.0750    -0.3290     1.5050 H     1 <1>   0.0800 
 40 H       -4.5340    -0.4480    -0.1640 H     1 <1>   0.0800 
 41 H       -3.4920     1.7910    -1.4650 H     1 <1>   0.0800 
 42 H       -4.2620     3.1860    -0.7690 H     1 <1>   0.0800 
 43 H       -6.2680     0.8640     1.9520 H     1 <1>   0.0800 
 44 H       -6.3530    -0.8230     1.5790 H     1 <1>   0.0800 
 45 H       -5.5750     0.8110    -2.0130 H     1 <1>   0.0800 
 46 H       -5.7950     2.4950    -2.3040 H     1 <1>   0.0800 
 47 H       -7.7280     2.0650    -1.1610 H     1 <1>   0.0800 
 48 H       -6.7280     2.5440     0.1750 H     1 <1>   0.0800 
 49 H       -8.4380    -1.5550     1.2550 H     1 <1>   0.0800 
 50 H       -7.4120    -2.3560     0.0950 H     1 <1>   0.0800 
 51 H       -9.4100    -2.6350    -1.3980 H     1 <1>   0.0800 
 52 H      -10.3800    -1.8530    -0.1890 H     1 <1>   0.0800 
 53 H      -11.2150    -3.4160     1.9210 H     1 <1>   0.1500 
 54 H       -7.1400    -4.6440    -0.7150 H     1 <1>   0.0800 
 55 H       -8.4360    -4.8220    -1.8940 H     1 <1>   0.0800 
 56 H       -7.8400    -6.2220    -1.0220 H     1 <1>   0.0800 
 57 H      -10.8060    -5.9530     2.4820 H     1 <1>   0.1500 
@<TRIPOS>BOND
  1   1   2  2   
  2   2   3  am  
  3   2   4  am  
  4   3   5  am  
  5   3   6  1   
  6   4   7  1   
  7   4  30  1   
  8   5   7  1   
  9   5   8  2   
 10   6   9  1   
 11   6  31  1   
 12   6  32  1   
 13   7  10  1   
 14   7  11  1   
 15   9  12  2   
 16   9  13  am  
 17  10  33  1   
 18  10  34  1   
 19  10  35  1   
 20  11  36  1   
 21  11  37  1   
 22  11  38  1   
 23  13  14  1   
 24  13  15  1   
 25  14  16  1   
 26  14  39  1   
 27  14  40  1   
 28  15  17  1   
 29  15  41  1   
 30  15  42  1   
 31  16  18  1   
 32  16  43  1   
 33  16  44  1   
 34  17  19  1   
 35  17  45  1   
 36  17  46  1   
 37  18  19  1   
 38  18  20  am  
 39  19  47  1   
 40  19  48  1   
 41  20  21  2   
 42  20  22  1   
 43  22  23  1   
 44  22  49  1   
 45  22  50  1   
 46  23  24  1   
 47  23  51  1   
 48  23  52  1   
 49  24  25  1   
 50  24  26  2   
 51  25  27  1   
 52  25  28  1   
 53  26  29  1   
 54  26  53  1   
 55  27  29  2   
 56  28  54  1   
 57  28  55  1   
 58  28  56  1   
 59  29  57  1   
@<TRIPOS>SUBSTRUCTURE
  1 ****  14 GROUP 4 **** **** 0

# MOE 2024.06 (io_trps.svl 2023.06)
