@<TRIPOS>MOLECULE
NONAME
51 53 1 0 0 
SMALL
USER_CHARGES


@<TRIPOS>ATOM
  1 CL      -0.9040    -1.1240    -2.1070 Cl    1 <1>  -0.1770 
  2 C       -2.1240    -1.4250    -0.8890 C.ar  1 <1>   0.1770 
  3 C       -2.9540    -0.4030    -0.4430 C.ar  1 <1>   0.0820 
  4 C       -2.2280    -2.7130    -0.3960 C.ar  1 <1>  -0.1500 
  5 O       -2.7930     0.8470    -0.9470 O.3   1 <1>  -0.3630 
  6 C       -3.9330    -0.7040     0.5150 C.ar  1 <1>   0.0820 
  7 C       -3.1860    -3.0070     0.5630 C.ar  1 <1>  -0.1440 
  8 C       -1.8030     1.6390    -0.3290 C.3   1 <1>   0.0400 
  9 O       -4.8450     0.1660     1.0260 O.3   1 <1>  -0.3630 
 10 C       -4.0210    -1.9950     1.0140 C.ar  1 <1>  -0.1500 
 11 C       -3.3240    -4.4180     1.0970 C.3   1 <1>   0.4860 
 12 C       -5.3030     1.2800     0.2870 C.3   1 <1>   0.0400 
 13 N       -4.1150    -5.2000     0.1080 N.4   1 <1>  -0.9590 
 14 C       -3.9860    -6.6780     0.3240 C.3   1 <1>   0.5660 
 15 C       -5.5540    -4.7640     0.0510 C.3   1 <1>   0.3430 
 16 C       -2.5210    -7.0510     0.1480 C.ar  1 <1>  -0.1430 
 17 C       -4.9100    -7.4870    -0.6230 C.3   1 <1>   0.2000 
 18 C       -6.3900    -5.6630    -0.8810 C.3   1 <1>   0.1200 
 19 C       -1.8160    -7.5610     1.2300 C.ar  1 <1>  -0.1500 
 20 C       -1.8680    -6.8790    -1.0680 C.ar  1 <1>  -0.1500 
 21 O       -6.2320    -7.0080    -0.5290 O.3   1 <1>  -0.5600 
 22 C       -4.9020    -8.9860    -0.2890 C.3   1 <1>   0.1200 
 23 C       -0.4780    -7.8850     1.1020 C.ar  1 <1>  -0.1500 
 24 C       -0.5290    -7.2040    -1.1920 C.ar  1 <1>  -0.1500 
 25 O       -5.8090    -9.6400    -1.1040 O.3   1 <1>  -0.6800 
 26 C        0.1660    -7.7050    -0.1080 C.ar  1 <1>  -0.1500 
 27 H       -1.5500    -3.4630    -0.7690 H     1 <1>   0.1500 
 28 H       -1.8010     2.6040    -0.8020 H     1 <1>   0.0800 
 29 H       -0.8440     1.1690    -0.4540 H     1 <1>   0.0800 
 30 H       -2.0390     1.7410     0.7160 H     1 <1>   0.0800 
 31 H       -4.7670    -2.1860     1.7670 H     1 <1>   0.1500 
 32 H       -3.8140    -4.4120     2.0570 H     1 <1>   0.0800 
 33 H       -2.3390    -4.8430     1.2160 H     1 <1>   0.0800 
 34 H       -6.2250     1.6170     0.7240 H     1 <1>   0.0800 
 35 H       -5.4650     0.9860    -0.7350 H     1 <1>   0.0800 
 36 H       -4.5700     2.0640     0.3450 H     1 <1>   0.0800 
 37 H       -3.6880    -5.0050    -0.8030 H     1 <1>   0.4500 
 38 H       -4.2790    -6.9130     1.3330 H     1 <1>   0.0800 
 39 H       -5.9870    -4.8040     1.0370 H     1 <1>   0.0800 
 40 H       -5.6160    -3.7430    -0.2930 H     1 <1>   0.0800 
 41 H       -4.5830    -7.3710    -1.6410 H     1 <1>   0.0800 
 42 H       -6.1020    -5.5340    -1.9110 H     1 <1>   0.0800 
 43 H       -7.4350    -5.4200    -0.7880 H     1 <1>   0.0800 
 44 H       -2.2910    -7.7160     2.1850 H     1 <1>   0.1500 
 45 H       -2.3780    -6.5000    -1.9370 H     1 <1>   0.1500 
 46 H       -5.1860    -9.1580     0.7350 H     1 <1>   0.0800 
 47 H       -3.9320    -9.4200    -0.4640 H     1 <1>   0.0800 
 48 H        0.0680    -8.2830     1.9420 H     1 <1>   0.1500 
 49 H       -0.0220    -7.0730    -2.1340 H     1 <1>   0.1500 
 50 H       -6.6810    -9.1930    -1.0540 H     1 <1>   0.4000 
 51 H        1.2090    -7.9610    -0.2060 H     1 <1>   0.1500 
@<TRIPOS>BOND
  1   1   2  1   
  2   2   3  ar  
  3   2   4  ar  
  4   3   5  1   
  5   3   6  ar  
  6   4   7  ar  
  7   4  27  1   
  8   5   8  1   
  9   6   9  1   
 10   6  10  ar  
 11   7  10  ar  
 12   7  11  1   
 13   8  28  1   
 14   8  29  1   
 15   8  30  1   
 16   9  12  1   
 17  10  31  1   
 18  11  13  1   
 19  11  32  1   
 20  11  33  1   
 21  12  34  1   
 22  12  35  1   
 23  12  36  1   
 24  13  14  1   
 25  13  15  1   
 26  13  37  1   
 27  14  16  1   
 28  14  17  1   
 29  14  38  1   
 30  15  18  1   
 31  15  39  1   
 32  15  40  1   
 33  16  19  ar  
 34  16  20  ar  
 35  17  21  1   
 36  17  22  1   
 37  17  41  1   
 38  18  21  1   
 39  18  42  1   
 40  18  43  1   
 41  19  23  ar  
 42  19  44  1   
 43  20  24  ar  
 44  20  45  1   
 45  22  25  1   
 46  22  46  1   
 47  22  47  1   
 48  23  26  ar  
 49  23  48  1   
 50  24  26  ar  
 51  24  49  1   
 52  25  50  1   
 53  26  51  1   
@<TRIPOS>SUBSTRUCTURE
  1 ****  13 GROUP 4 **** **** 0

# MOE 2024.06 (io_trps.svl 2023.06)
