@<TRIPOS>MOLECULE
NONAME
45 46 1 0 0 
SMALL
USER_CHARGES


@<TRIPOS>ATOM
  1 S        1.2240    -0.1800     0.6570 S.o2  1 <1>   1.3330 
  2 O        0.7220     0.8060     1.5860 O.2   1 <1>  -0.6500 
  3 O        2.1890    -1.1570     1.1080 O.2   1 <1>  -0.6500 
  4 N       -0.1010    -1.0260     0.0160 N.am  1 <1>  -0.8490 
  5 C        1.8550     0.6950    -0.7760 C.3   1 <1>  -0.0550 
  6 C       -1.1470    -1.2590     1.0150 C.3   1 <1>   0.1160 
  7 C        0.2720    -2.2940    -0.6210 C.3   1 <1>   0.1160 
  8 C        3.0350     1.6360    -0.4600 C.3   1 <1>  -0.0800 
  9 C        3.3630     2.5150    -1.6550 C.3   1 <1>   0.2200 
 10 C        4.3460     0.8690    -0.2820 C.3   1 <1>   0.1200 
 11 N        4.0630     3.7300    -1.1850 N.am  1 <1>  -0.7300 
 12 C        4.3220     1.6370    -2.4570 C.3   1 <1>   0.1200 
 13 O        4.8760     0.7140    -1.5630 O.3   1 <1>  -0.5600 
 14 C        3.6200     5.0040    -1.3310 C.2   1 <1>   0.5690 
 15 O        2.5840     5.2520    -1.8980 O.2   1 <1>  -0.5700 
 16 C        4.4410     6.1530    -0.7680 C.3   1 <1>   0.0440 
 17 C        5.7430     5.6940    -0.1160 C.ar  1 <1>  -0.1440 
 18 C        5.7590     5.3230     1.2220 C.ar  1 <1>  -0.1500 
 19 C        6.9140     5.6260    -0.8590 C.ar  1 <1>  -0.1500 
 20 C        6.9330     4.8880     1.8100 C.ar  1 <1>  -0.1500 
 21 C        8.0900     5.1910    -0.2740 C.ar  1 <1>  -0.1500 
 22 C        8.0940     4.8230     1.0610 C.ar  1 <1>   0.0820 
 23 O        9.2260     4.3990     1.6420 O.3   1 <1>  -0.5330 
 24 H        2.1510    -0.0120    -1.5270 H     1 <1>   0.0800 
 25 H        1.0520     1.2820    -1.1780 H     1 <1>   0.0800 
 26 H       -1.9770    -1.7830     0.5730 H     1 <1>   0.0800 
 27 H       -1.5100    -0.3190     1.3960 H     1 <1>   0.0800 
 28 H       -0.7580    -1.8370     1.8370 H     1 <1>   0.0800 
 29 H       -0.5890    -2.7400    -1.0890 H     1 <1>   0.0800 
 30 H        0.6680    -2.9810     0.1100 H     1 <1>   0.0800 
 31 H        1.0200    -2.1260    -1.3760 H     1 <1>   0.0800 
 32 H        2.7960     2.2270     0.4090 H     1 <1>   0.0800 
 33 H        2.4950     2.7890    -2.2310 H     1 <1>   0.0800 
 34 H        4.2290    -0.1000     0.1700 H     1 <1>   0.0800 
 35 H        5.0490     1.4460     0.2940 H     1 <1>   0.0800 
 36 H        4.9630     3.5760    -0.7170 H     1 <1>   0.3700 
 37 H        5.1100     2.2050    -2.9200 H     1 <1>   0.0800 
 38 H        3.7890     1.0780    -3.2050 H     1 <1>   0.0800 
 39 H        4.6540     6.8380    -1.5670 H     1 <1>   0.0800 
 40 H        3.8380     6.6740    -0.0480 H     1 <1>   0.0800 
 41 H        4.8590     5.3690     1.8110 H     1 <1>   0.1500 
 42 H        6.9140     5.9110    -1.8980 H     1 <1>   0.1500 
 43 H        6.9570     4.5990     2.8460 H     1 <1>   0.1500 
 44 H        8.9910     5.1420    -0.8570 H     1 <1>   0.1500 
 45 H        9.9890     4.3940     1.0390 H     1 <1>   0.4500 
@<TRIPOS>BOND
  1   1   2  2   
  2   1   3  2   
  3   1   4  am  
  4   1   5  1   
  5   4   6  1   
  6   4   7  1   
  7   5   8  1   
  8   5  24  1   
  9   5  25  1   
 10   6  26  1   
 11   6  27  1   
 12   6  28  1   
 13   7  29  1   
 14   7  30  1   
 15   7  31  1   
 16   8   9  1   
 17   8  10  1   
 18   8  32  1   
 19   9  11  1   
 20   9  12  1   
 21   9  33  1   
 22  10  13  1   
 23  10  34  1   
 24  10  35  1   
 25  11  14  am  
 26  11  36  1   
 27  12  13  1   
 28  12  37  1   
 29  12  38  1   
 30  14  15  2   
 31  14  16  1   
 32  16  17  1   
 33  16  39  1   
 34  16  40  1   
 35  17  18  ar  
 36  17  19  ar  
 37  18  20  ar  
 38  18  41  1   
 39  19  21  ar  
 40  19  42  1   
 41  20  22  ar  
 42  20  43  1   
 43  21  22  ar  
 44  21  44  1   
 45  22  23  1   
 46  23  45  1   
@<TRIPOS>SUBSTRUCTURE
  1 ****   8 GROUP 4 **** **** 0

# MOE 2024.06 (io_trps.svl 2023.06)
