@<TRIPOS>MOLECULE
NONAME
50 53 1 0 0 
SMALL
USER_CHARGES


@<TRIPOS>ATOM
  1 F       -5.8960    -1.6180    -2.0280 F     1 <1>  -0.1900 
  2 C       -5.6020    -0.5490    -1.3410 C.ar  1 <1>   0.1900 
  3 C       -5.3910     0.6400    -2.0120 C.ar  1 <1>  -0.1500 
  4 C       -5.5140    -0.6410     0.0340 C.ar  1 <1>  -0.1500 
  5 C       -5.0920     1.7720    -1.2740 C.ar  1 <1>  -0.1500 
  6 C       -5.2130     0.5000     0.7560 C.ar  1 <1>  -0.1500 
  7 C       -5.0050     1.7250     0.1190 C.ar  1 <1>   0.0000 
  8 C       -4.7140     2.9160     0.8860 C.ar  1 <1>   0.0000 
  9 C       -5.5390     4.0530     0.8320 C.ar  1 <1>   0.0860 
 10 C       -3.5830     2.9450     1.6980 C.ar  1 <1>  -0.1500 
 11 C       -6.7410     4.0790     0.0250 C.2   1 <1>   0.5440 
 12 C       -5.1850     5.1760     1.5770 C.ar  1 <1>  -0.1500 
 13 C       -3.2550     4.0640     2.4390 C.ar  1 <1>  -0.1500 
 14 O       -6.7830     4.8120    -0.9460 O.2   1 <1>  -0.5700 
 15 N       -7.8340     3.2910     0.3270 N.am  1 <1>  -0.6600 
 16 C       -4.0590     5.1870     2.3760 C.ar  1 <1>  -0.1500 
 17 C       -8.8340     2.9740    -0.7350 C.3   1 <1>   0.2200 
 18 C       -7.9910     2.6600     1.6720 C.3   1 <1>   0.0600 
 19 C       -9.1000     1.4810    -0.9060 C.3   1 <1>  -0.1600 
 20 C      -10.2080     3.5800    -0.4710 C.3   1 <1>  -0.1600 
 21 C      -10.4290     1.4240    -1.6680 C.3   1 <1>  -0.0800 
 22 C      -11.1750     2.7370    -1.3160 C.3   1 <1>  -0.0800 
 23 C      -11.2040     0.1150    -1.4140 C.3   1 <1>   0.1400 
 24 C      -12.5420     2.5230    -0.6380 C.3   1 <1>  -0.0990 
 25 N      -12.6410     0.3160    -1.6940 N.am  1 <1>  -0.7300 
 26 C      -13.3160     1.4280    -1.3370 C.2   1 <1>   0.5690 
 27 O      -14.4950     1.5460    -1.5540 O.2   1 <1>  -0.5700 
 28 H       -5.4620     0.6770    -3.0840 H     1 <1>   0.1500 
 29 H       -5.6760    -1.5850     0.5210 H     1 <1>   0.1500 
 30 H       -4.9280     2.7090    -1.7810 H     1 <1>   0.1500 
 31 H       -5.1420     0.4480     1.8290 H     1 <1>   0.1500 
 32 H       -2.9460     2.0780     1.7430 H     1 <1>   0.1500 
 33 H       -5.8080     6.0520     1.5190 H     1 <1>   0.1500 
 34 H       -2.3750     4.0650     3.0600 H     1 <1>   0.1500 
 35 H       -3.8050     6.0660     2.9450 H     1 <1>   0.1500 
 36 H       -8.4880     3.3480    -1.6850 H     1 <1>   0.0800 
 37 H       -9.0240     2.6490     1.9680 H     1 <1>   0.0800 
 38 H       -7.4380     3.2100     2.4130 H     1 <1>   0.0800 
 39 H       -7.6240     1.6490     1.6440 H     1 <1>   0.0800 
 40 H       -8.3070     1.0040    -1.4530 H     1 <1>   0.0800 
 41 H       -9.2170     1.0070     0.0500 H     1 <1>   0.0800 
 42 H      -10.4580     3.5000     0.5700 H     1 <1>   0.0800 
 43 H      -10.2300     4.6160    -0.7610 H     1 <1>   0.0800 
 44 H      -10.2000     1.4620    -2.7200 H     1 <1>   0.0800 
 45 H      -11.3520     3.2570    -2.2440 H     1 <1>   0.0800 
 46 H      -11.1030    -0.1870    -0.3850 H     1 <1>   0.0800 
 47 H      -10.8140    -0.6700    -2.0390 H     1 <1>   0.0800 
 48 H      -13.1110     3.4340    -0.6560 H     1 <1>   0.0800 
 49 H      -12.4120     2.2260     0.3860 H     1 <1>   0.0800 
 50 H      -13.1700    -0.4380    -2.1380 H     1 <1>   0.3700 
@<TRIPOS>BOND
  1   1   2  1   
  2   2   3  ar  
  3   2   4  ar  
  4   3   5  ar  
  5   3  28  1   
  6   4   6  ar  
  7   4  29  1   
  8   5   7  ar  
  9   5  30  1   
 10   6   7  ar  
 11   6  31  1   
 12   7   8  1   
 13   8   9  ar  
 14   8  10  ar  
 15   9  11  1   
 16   9  12  ar  
 17  10  13  ar  
 18  10  32  1   
 19  11  14  2   
 20  11  15  am  
 21  12  16  ar  
 22  12  33  1   
 23  13  16  ar  
 24  13  34  1   
 25  15  17  1   
 26  15  18  1   
 27  16  35  1   
 28  17  19  1   
 29  17  20  1   
 30  17  36  1   
 31  18  37  1   
 32  18  38  1   
 33  18  39  1   
 34  19  21  1   
 35  19  40  1   
 36  19  41  1   
 37  20  22  1   
 38  20  42  1   
 39  20  43  1   
 40  21  22  1   
 41  21  23  1   
 42  21  44  1   
 43  22  24  1   
 44  22  45  1   
 45  23  25  1   
 46  23  46  1   
 47  23  47  1   
 48  24  26  1   
 49  24  48  1   
 50  24  49  1   
 51  25  26  am  
 52  25  50  1   
 53  26  27  2   
@<TRIPOS>SUBSTRUCTURE
  1 ****  15 GROUP 4 **** **** 0

# MOE 2024.06 (io_trps.svl 2023.06)
