@<TRIPOS>MOLECULE
NONAME
50 54 1 0 0 
SMALL
USER_CHARGES


@<TRIPOS>ATOM
  1 S        1.7350     1.3230     1.5790 S.3   1 <1>  -0.0800 
  2 C        0.0830     1.6860     1.1020 C.2   1 <1>  -0.1400 
  3 C        1.1780     0.0410     2.6470 C.2   1 <1>  -0.1100 
  4 C       -0.7810     0.8840     1.7380 C.2   1 <1>  -0.1810 
  5 C       -0.2650     2.7800     0.0990 C.3   1 <1>   0.4600 
  6 C       -0.1650    -0.0630     2.6160 C.2   1 <1>  -0.1500 
  7 C       -2.2630     1.0390     1.4860 C.3   1 <1>   0.0210 
  8 O       -1.6520     2.7220    -0.1740 O.3   1 <1>  -0.5600 
  9 C        0.4440     2.5340    -1.2380 C.3   1 <1>  -0.1600 
 10 C        0.0760     4.1710     0.6510 C.3   1 <1>  -0.1600 
 11 C       -2.5290     2.4370     0.8920 C.3   1 <1>   0.1200 
 12 C        0.1600     3.6500    -2.2450 C.3   1 <1>   0.1400 
 13 C       -0.1810     5.2710    -0.3810 C.3   1 <1>   0.1400 
 14 N        0.5490     4.9530    -1.6400 N.am  1 <1>  -0.6600 
 15 C        1.4690     5.7920    -2.2340 C.2   1 <1>   0.6160 
 16 O        1.8240     5.5790    -3.3770 O.2   1 <1>  -0.5700 
 17 C        2.0170     6.9270    -1.5310 C.2   1 <1>  -0.0140 
 18 C        2.9040     6.7220    -0.4070 C.ar  1 <1>   0.0280 
 19 C        1.7050     8.2030    -1.8970 C.2   1 <1>  -0.1360 
 20 C        3.3420     7.8430     0.3210 C.ar  1 <1>   0.1170 
 21 C        3.3570     5.4620    -0.0010 C.ar  1 <1>  -0.1500 
 22 C        2.1780     9.3320    -1.1820 C.2   1 <1>   0.6160 
 23 N        2.9560     9.1110    -0.0910 N.am  1 <1>  -0.5470 
 24 C        4.1600     7.6780     1.4340 C.ar  1 <1>  -0.1500 
 25 C        4.1670     5.3040     1.1050 C.ar  1 <1>  -0.1430 
 26 O        1.9080    10.4790    -1.4850 O.2   1 <1>  -0.5700 
 27 C        4.5650     6.4210     1.8270 C.ar  1 <1>  -0.1500 
 28 C        4.6280     3.9240     1.5410 C.3   1 <1>  -0.0970 
 29 H        1.9250    -0.5080     3.1910 H     1 <1>   0.1500 
 30 H       -0.7520    -0.7690     3.1760 H     1 <1>   0.1500 
 31 H       -2.8080     0.9340     2.4060 H     1 <1>   0.0800 
 32 H       -2.5980     0.2810     0.8020 H     1 <1>   0.0800 
 33 H        0.1250     1.5900    -1.6390 H     1 <1>   0.0800 
 34 H        1.5050     2.4790    -1.0840 H     1 <1>   0.0800 
 35 H        1.1120     4.1940     0.9290 H     1 <1>   0.0800 
 36 H       -0.4890     4.3640     1.5430 H     1 <1>   0.0800 
 37 H       -2.4050     3.1920     1.6470 H     1 <1>   0.0800 
 38 H       -3.5340     2.4920     0.5120 H     1 <1>   0.0800 
 39 H       -0.8880     3.6720    -2.4910 H     1 <1>   0.0800 
 40 H        0.7130     3.4670    -3.1510 H     1 <1>   0.0800 
 41 H        0.1240     6.2220     0.0170 H     1 <1>   0.0800 
 42 H       -1.2350     5.3240    -0.5970 H     1 <1>   0.0800 
 43 H        1.0770     8.4080    -2.7430 H     1 <1>   0.1500 
 44 H        3.0670     4.5920    -0.5610 H     1 <1>   0.1500 
 45 H        3.2760     9.9490     0.3920 H     1 <1>   0.3700 
 46 H        4.4790     8.5400     1.9910 H     1 <1>   0.1500 
 47 H        5.1950     6.3030     2.6920 H     1 <1>   0.1500 
 48 H        4.3530     3.1780     0.8170 H     1 <1>   0.0800 
 49 H        4.1760     3.6690     2.4830 H     1 <1>   0.0800 
 50 H        5.6970     3.9110     1.6530 H     1 <1>   0.0800 
@<TRIPOS>BOND
  1   1   2  1   
  2   1   3  1   
  3   2   4  2   
  4   2   5  1   
  5   3   6  2   
  6   3  29  1   
  7   4   6  1   
  8   4   7  1   
  9   5   8  1   
 10   5   9  1   
 11   5  10  1   
 12   6  30  1   
 13   7  11  1   
 14   7  31  1   
 15   7  32  1   
 16   8  11  1   
 17   9  12  1   
 18   9  33  1   
 19   9  34  1   
 20  10  13  1   
 21  10  35  1   
 22  10  36  1   
 23  11  37  1   
 24  11  38  1   
 25  12  14  1   
 26  12  39  1   
 27  12  40  1   
 28  13  14  1   
 29  13  41  1   
 30  13  42  1   
 31  14  15  am  
 32  15  16  2   
 33  15  17  1   
 34  17  18  1   
 35  17  19  2   
 36  18  20  ar  
 37  18  21  ar  
 38  19  22  1   
 39  19  43  1   
 40  20  23  1   
 41  20  24  ar  
 42  21  25  ar  
 43  21  44  1   
 44  22  23  am  
 45  22  26  2   
 46  23  45  1   
 47  24  27  ar  
 48  24  46  1   
 49  25  27  ar  
 50  25  28  1   
 51  27  47  1   
 52  28  48  1   
 53  28  49  1   
 54  28  50  1   
@<TRIPOS>SUBSTRUCTURE
  1 ****  10 GROUP 4 **** **** 0

# MOE 2024.06 (io_trps.svl 2023.06)
