@<TRIPOS>MOLECULE
NONAME
35 35 1 0 0 
SMALL
USER_CHARGES


@<TRIPOS>ATOM
  1 S        0.2790    -0.3130     0.1360 S.o2  1 <1>   1.0900 
  2 O       -0.0930    -0.1500     1.5230 O.2   1 <1>  -0.6500 
  3 O       -0.3240    -1.3640    -0.6470 O.2   1 <1>  -0.6500 
  4 C        2.0520    -0.5110     0.0300 C.3   1 <1>  -0.0550 
  5 C       -0.0550     1.2180    -0.7190 C.3   1 <1>  -0.1350 
  6 C        2.8160     0.0910     1.2160 C.3   1 <1>   0.2200 
  7 N        4.2380    -0.3000     1.1380 N.am  1 <1>  -0.7300 
  8 C        2.7460     1.6170     1.3100 C.3   1 <1>  -0.2400 
  9 C        5.1120    -0.0710     0.1330 C.2   1 <1>   0.7800 
 10 O        4.8090     0.4700    -0.9110 O.2   1 <1>  -0.5700 
 11 O        6.3510    -0.4830     0.3480 O.3   1 <1>  -0.4300 
 12 C        7.3390    -0.2950    -0.6390 C.3   1 <1>   0.2630 
 13 C        8.6410    -0.8930    -0.1350 C.ar  1 <1>  -0.1440 
 14 C        8.8530    -2.2610    -0.2050 C.ar  1 <1>  -0.1500 
 15 C        9.6290    -0.0780     0.3990 C.ar  1 <1>  -0.1500 
 16 C       10.0400    -2.8100     0.2480 C.ar  1 <1>  -0.1500 
 17 C       10.8170    -0.6260     0.8530 C.ar  1 <1>  -0.1500 
 18 C       11.0230    -1.9920     0.7770 C.ar  1 <1>  -0.1500 
 19 H        2.2640    -1.5620     0.0180 H     1 <1>   0.0800 
 20 H        2.4060    -0.0980    -0.8940 H     1 <1>   0.0800 
 21 H        0.4150     2.0480    -0.2320 H     1 <1>   0.0800 
 22 H       -1.1120     1.3970    -0.7400 H     1 <1>   0.0800 
 23 H        0.2960     1.1660    -1.7310 H     1 <1>   0.0800 
 24 H        2.4140    -0.3250     2.1260 H     1 <1>   0.0800 
 25 H        4.6360    -0.7150     1.9810 H     1 <1>   0.3700 
 26 H        3.0190     2.0730     0.3760 H     1 <1>   0.0800 
 27 H        3.4120     1.9680     2.0790 H     1 <1>   0.0800 
 28 H        1.7540     1.9300     1.5780 H     1 <1>   0.0800 
 29 H        7.0200    -0.7880    -1.5410 H     1 <1>   0.0800 
 30 H        7.4410     0.7600    -0.8240 H     1 <1>   0.0800 
 31 H        8.0920    -2.9050    -0.6110 H     1 <1>   0.1500 
 32 H        9.4780     0.9850     0.4660 H     1 <1>   0.1500 
 33 H       10.1990    -3.8730     0.1910 H     1 <1>   0.1500 
 34 H       11.5800     0.0100     1.2660 H     1 <1>   0.1500 
 35 H       11.9460    -2.4180     1.1300 H     1 <1>   0.1500 
@<TRIPOS>BOND
  1   1   2  2   
  2   1   3  2   
  3   1   4  1   
  4   1   5  1   
  5   4   6  1   
  6   4  19  1   
  7   4  20  1   
  8   5  21  1   
  9   5  22  1   
 10   5  23  1   
 11   6   7  1   
 12   6   8  1   
 13   6  24  1   
 14   7   9  am  
 15   7  25  1   
 16   8  26  1   
 17   8  27  1   
 18   8  28  1   
 19   9  10  2   
 20   9  11  1   
 21  11  12  1   
 22  12  13  1   
 23  12  29  1   
 24  12  30  1   
 25  13  14  ar  
 26  13  15  ar  
 27  14  16  ar  
 28  14  31  1   
 29  15  17  ar  
 30  15  32  1   
 31  16  18  ar  
 32  16  33  1   
 33  17  18  ar  
 34  17  34  1   
 35  18  35  1   
@<TRIPOS>SUBSTRUCTURE
  1 ****   9 GROUP 4 **** **** 0

# MOE 2024.06 (io_trps.svl 2023.06)
