@<TRIPOS>MOLECULE
NONAME
51 53 1 0 0 
SMALL
USER_CHARGES


@<TRIPOS>ATOM
  1 F       -0.4510    -0.5230     0.8890 F     1 <1>  -0.1900 
  2 C       -0.7280    -1.6680     0.3240 C.ar  1 <1>   0.1900 
  3 C        0.1750    -2.7150     0.4250 C.ar  1 <1>  -0.1440 
  4 C       -1.9230    -1.7830    -0.3590 C.ar  1 <1>  -0.1500 
  5 C       -0.1530    -3.9170    -0.1830 C.ar  1 <1>  -0.1500 
  6 C        1.4900    -2.5470     1.1750 C.3   1 <1>  -0.0960 
  7 C       -2.2360    -2.9900    -0.9590 C.ar  1 <1>  -0.1500 
  8 C       -1.3560    -4.0620    -0.8660 C.ar  1 <1>  -0.1440 
  9 C       -1.7110    -5.3920    -1.5030 C.3   1 <1>   0.4870 
 10 N       -2.1090    -6.3360    -0.4170 N.4   1 <1>  -0.9590 
 11 C       -2.1880    -7.7550    -0.9240 C.3   1 <1>   0.3430 
 12 C       -3.3940    -5.8870     0.2040 C.3   1 <1>   0.3430 
 13 C       -2.6720    -8.7840     0.1490 C.3   1 <1>   0.4230 
 14 C       -3.7900    -6.8460     1.3310 C.3   1 <1>  -0.1600 
 15 N       -2.7240   -10.2420    -0.3110 N.4   1 <1>  -0.9590 
 16 C       -3.9680    -8.3210     0.8770 C.3   1 <1>   0.0000 
 17 C       -3.5100   -11.1400     0.6060 C.3   1 <1>   0.3430 
 18 C       -3.2080   -10.4490    -1.7190 C.3   1 <1>   0.2630 
 19 C       -4.1590    -9.1990     2.1460 C.3   1 <1>  -0.1600 
 20 C       -5.2540    -8.4380     0.0070 C.3   1 <1>   0.1200 
 21 C       -3.5210   -10.6000     2.0370 C.3   1 <1>  -0.1600 
 22 O       -5.0740    -7.8880    -1.2540 O.3   1 <1>  -0.6800 
 23 H       -2.5870    -0.9380    -0.4170 H     1 <1>   0.1500 
 24 H        0.5470    -4.7340    -0.1220 H     1 <1>   0.1500 
 25 H        2.0700    -3.4510     1.1590 H     1 <1>   0.0800 
 26 H        1.2970    -2.2800     2.1990 H     1 <1>   0.0800 
 27 H        2.0700    -1.7620     0.7220 H     1 <1>   0.0800 
 28 H       -3.1660    -3.0730    -1.4970 H     1 <1>   0.1500 
 29 H       -0.8490    -5.7670    -2.0310 H     1 <1>   0.0800 
 30 H       -2.5160    -5.2630    -2.2080 H     1 <1>   0.0800 
 31 H       -1.3800    -6.2360     0.3030 H     1 <1>   0.4500 
 32 H       -2.8680    -7.7830    -1.7580 H     1 <1>   0.0800 
 33 H       -1.2160    -8.0560    -1.2770 H     1 <1>   0.0800 
 34 H       -3.2810    -4.8920     0.6080 H     1 <1>   0.0800 
 35 H       -4.1740    -5.8560    -0.5400 H     1 <1>   0.0800 
 36 H       -1.9120    -8.7530     0.9130 H     1 <1>   0.0800 
 37 H       -3.0380    -6.7750     2.1000 H     1 <1>   0.0800 
 38 H       -4.7080    -6.4910     1.7690 H     1 <1>   0.0800 
 39 H       -1.7570   -10.6030    -0.2710 H     1 <1>   0.4500 
 40 H       -4.5290   -11.2120     0.2620 H     1 <1>   0.0800 
 41 H       -3.0910   -12.1340     0.5950 H     1 <1>   0.0800 
 42 H       -4.2170   -10.0890    -1.8300 H     1 <1>   0.0800 
 43 H       -3.1950   -11.4990    -1.9670 H     1 <1>   0.0800 
 44 H       -2.5780    -9.9310    -2.4220 H     1 <1>   0.0800 
 45 H       -3.7310    -8.7240     3.0140 H     1 <1>   0.0800 
 46 H       -5.2110    -9.3060     2.3600 H     1 <1>   0.0800 
 47 H       -6.0750    -7.9230     0.4810 H     1 <1>   0.0800 
 48 H       -5.5480    -9.4650    -0.1260 H     1 <1>   0.0800 
 49 H       -4.0660   -11.2830     2.6660 H     1 <1>   0.0800 
 50 H       -2.5100   -10.5770     2.4090 H     1 <1>   0.0800 
 51 H       -5.9400    -7.8310    -1.7240 H     1 <1>   0.4000 
@<TRIPOS>BOND
  1   1   2  1   
  2   2   3  ar  
  3   2   4  ar  
  4   3   5  ar  
  5   3   6  1   
  6   4   7  ar  
  7   4  23  1   
  8   5   8  ar  
  9   5  24  1   
 10   6  25  1   
 11   6  26  1   
 12   6  27  1   
 13   7   8  ar  
 14   7  28  1   
 15   8   9  1   
 16   9  10  1   
 17   9  29  1   
 18   9  30  1   
 19  10  11  1   
 20  10  12  1   
 21  10  31  1   
 22  11  13  1   
 23  11  32  1   
 24  11  33  1   
 25  12  14  1   
 26  12  34  1   
 27  12  35  1   
 28  13  15  1   
 29  13  16  1   
 30  13  36  1   
 31  14  16  1   
 32  14  37  1   
 33  14  38  1   
 34  15  17  1   
 35  15  18  1   
 36  15  39  1   
 37  16  19  1   
 38  16  20  1   
 39  17  21  1   
 40  17  40  1   
 41  17  41  1   
 42  18  42  1   
 43  18  43  1   
 44  18  44  1   
 45  19  21  1   
 46  19  45  1   
 47  19  46  1   
 48  20  22  1   
 49  20  47  1   
 50  20  48  1   
 51  21  49  1   
 52  21  50  1   
 53  22  51  1   
@<TRIPOS>SUBSTRUCTURE
  1 ****  10 GROUP 4 **** **** 0

# MOE 2024.06 (io_trps.svl 2023.06)
