@<TRIPOS>MOLECULE
NONAME
51 53 1 0 0 
SMALL
USER_CHARGES


@<TRIPOS>ATOM
  1 S       -0.6500     0.0220     1.3750 S.o2  1 <1>   1.5760 
  2 O       -1.2720     1.1860     1.9680 O.2   1 <1>  -0.6500 
  3 O       -0.3160    -1.1260     2.1890 O.2   1 <1>  -0.6500 
  4 N       -1.5990    -0.5110     0.0860 N.am  1 <1>  -0.8490 
  5 N        0.7300     0.5360     0.5510 N.am  1 <1>  -0.8490 
  6 C       -2.9940    -0.6820     0.5390 C.3   1 <1>   0.1960 
  7 C       -1.0430    -1.7360    -0.5030 C.3   1 <1>   0.1960 
  8 C        0.4580     1.7250    -0.2610 C.3   1 <1>   0.1960 
  9 C        1.8290     0.7770     1.4860 C.3   1 <1>   0.1960 
 10 C       -3.9860    -1.0900    -0.5620 C.3   1 <1>   0.2090 
 11 C       -1.5230    -1.9080    -1.9480 C.3   1 <1>  -0.1600 
 12 C        1.6900     2.0860    -1.0970 C.3   1 <1>  -0.1600 
 13 C        3.1140     1.1110     0.7210 C.3   1 <1>  -0.1600 
 14 N       -3.7590    -2.5070    -0.9810 N.pl3 1 <1>  -0.8380 
 15 C       -2.8150    -2.7180    -2.1050 C.3   1 <1>   0.2090 
 16 C        2.9180     2.3150    -0.2080 C.3   1 <1>  -0.1600 
 17 C       -4.5440    -3.5280    -0.4940 C.ar  1 <1>   0.4100 
 18 N       -5.8390    -3.2760    -0.3390 N.ar  1 <1>  -0.6200 
 19 C       -3.9900    -4.7660    -0.1760 C.ar  1 <1>  -0.1500 
 20 C       -6.5850    -4.2650     0.1140 C.ar  1 <1>   0.1600 
 21 C       -4.7820    -5.7840     0.2950 C.ar  1 <1>  -0.1500 
 22 C       -6.1460    -5.5480     0.4530 C.ar  1 <1>   0.0860 
 23 C       -7.0260    -6.5820     0.9400 C.2   1 <1>   0.4230 
 24 O       -6.6470    -7.6930     1.2110 O.2   1 <1>  -0.5700 
 25 C       -8.5060    -6.3110     1.1390 C.3   1 <1>  -0.1790 
 26 H       -3.3390     0.2540     0.9420 H     1 <1>   0.0800 
 27 H       -3.0380    -1.4110     1.3310 H     1 <1>   0.0800 
 28 H       -1.2860    -2.5970     0.1000 H     1 <1>   0.0800 
 29 H        0.0310    -1.6570    -0.5310 H     1 <1>   0.0800 
 30 H        0.1900     2.5530     0.3740 H     1 <1>   0.0800 
 31 H       -0.3690     1.5310    -0.9250 H     1 <1>   0.0800 
 32 H        1.9990    -0.1060     2.0810 H     1 <1>   0.0800 
 33 H        1.5720     1.5870     2.1510 H     1 <1>   0.0800 
 34 H       -3.8930    -0.4280    -1.4050 H     1 <1>   0.0800 
 35 H       -4.9820    -0.9770    -0.1740 H     1 <1>   0.0800 
 36 H       -0.7570    -2.4180    -2.5020 H     1 <1>   0.0800 
 37 H       -1.6390    -0.9400    -2.4030 H     1 <1>   0.0800 
 38 H        1.4850     2.9740    -1.6690 H     1 <1>   0.0800 
 39 H        1.8840     1.2850    -1.7900 H     1 <1>   0.0800 
 40 H        3.4040     0.2500     0.1450 H     1 <1>   0.0800 
 41 H        3.9030     1.3190     1.4220 H     1 <1>   0.0800 
 42 H       -2.5670    -3.7630    -2.1730 H     1 <1>   0.0800 
 43 H       -3.3010    -2.4440    -3.0260 H     1 <1>   0.0800 
 44 H        2.7700     3.2030     0.3830 H     1 <1>   0.0800 
 45 H        3.7940     2.4580    -0.8170 H     1 <1>   0.0800 
 46 H       -2.9340    -4.9120    -0.2930 H     1 <1>   0.1500 
 47 H       -7.6290    -4.0360     0.2230 H     1 <1>   0.1500 
 48 H       -4.3660    -6.7450     0.5430 H     1 <1>   0.1500 
 49 H       -8.6450    -5.5110     1.8420 H     1 <1>   0.0800 
 50 H       -8.9880    -7.1910     1.5270 H     1 <1>   0.0800 
 51 H       -8.9650    -6.0590     0.2010 H     1 <1>   0.0800 
@<TRIPOS>BOND
  1   1   2  2   
  2   1   3  2   
  3   1   4  am  
  4   1   5  am  
  5   4   6  1   
  6   4   7  1   
  7   5   8  1   
  8   5   9  1   
  9   6  10  1   
 10   6  26  1   
 11   6  27  1   
 12   7  11  1   
 13   7  28  1   
 14   7  29  1   
 15   8  12  1   
 16   8  30  1   
 17   8  31  1   
 18   9  13  1   
 19   9  32  1   
 20   9  33  1   
 21  10  14  1   
 22  10  34  1   
 23  10  35  1   
 24  11  15  1   
 25  11  36  1   
 26  11  37  1   
 27  12  16  1   
 28  12  38  1   
 29  12  39  1   
 30  13  16  1   
 31  13  40  1   
 32  13  41  1   
 33  14  15  1   
 34  14  17  1   
 35  15  42  1   
 36  15  43  1   
 37  16  44  1   
 38  16  45  1   
 39  17  18  ar  
 40  17  19  ar  
 41  18  20  ar  
 42  19  21  ar  
 43  19  46  1   
 44  20  22  ar  
 45  20  47  1   
 46  21  22  ar  
 47  21  48  1   
 48  22  23  1   
 49  23  24  2   
 50  23  25  1   
 51  25  49  1   
 52  25  50  1   
 53  25  51  1   
@<TRIPOS>SUBSTRUCTURE
  1 ****   6 GROUP 4 **** **** 0

# MOE 2024.06 (io_trps.svl 2023.06)
