@<TRIPOS>MOLECULE
NONAME
44 46 1 0 0 
SMALL
USER_CHARGES


@<TRIPOS>ATOM
  1 O       -2.0450    -0.0800    -2.7420 O.2   1 <1>  -0.5700 
  2 C       -2.1980    -0.5650    -1.6450 C.2   1 <1>   0.5690 
  3 N       -2.1690     0.1890    -0.5090 N.am  1 <1>  -0.6600 
  4 C       -2.4180    -2.0570    -1.5610 C.3   1 <1>  -0.0190 
  5 C       -2.4700    -0.3990     0.8270 C.3   1 <1>   0.2200 
  6 C       -1.9180     1.6580    -0.5410 C.3   1 <1>   0.0600 
  7 C       -1.2990    -2.7370    -0.7540 C.3   1 <1>   0.1200 
  8 C       -3.8720    -2.3940    -1.1800 C.3   1 <1>   0.1400 
  9 C       -1.4020    -1.4340     1.2560 C.3   1 <1>   0.1200 
 10 C       -3.9360    -0.8790     0.9020 C.3   1 <1>   0.1400 
 11 O       -1.4880    -2.6820     0.6250 O.3   1 <1>  -0.5600 
 12 N       -4.2440    -2.2050     0.2630 N.am  1 <1>  -0.6600 
 13 C       -4.8880    -3.1960     0.9870 C.2   1 <1>   0.5440 
 14 O       -5.1630    -2.9950     2.1570 O.2   1 <1>  -0.5700 
 15 C       -5.2820    -4.4580     0.3810 C.ar  1 <1>   0.0860 
 16 C       -4.4860    -5.6050     0.5040 C.ar  1 <1>  -0.1440 
 17 C       -6.4700    -4.5520    -0.3580 C.ar  1 <1>  -0.1440 
 18 C       -4.8550    -6.7870    -0.1150 C.ar  1 <1>  -0.1500 
 19 C       -3.2000    -5.5810     1.3200 C.3   1 <1>  -0.0970 
 20 C       -6.8260    -5.7410    -0.9710 C.ar  1 <1>  -0.1500 
 21 C       -7.3970    -3.3490    -0.4900 C.3   1 <1>  -0.0970 
 22 C       -6.0200    -6.8570    -0.8540 C.ar  1 <1>  -0.1500 
 23 H       -2.2970    -2.4130    -2.5680 H     1 <1>   0.0800 
 24 H       -2.3930     0.4040     1.5380 H     1 <1>   0.0800 
 25 H       -1.0810     1.8990     0.0920 H     1 <1>   0.0800 
 26 H       -2.7900     2.1850    -0.1960 H     1 <1>   0.0800 
 27 H       -1.6930     1.9870    -1.5410 H     1 <1>   0.0800 
 28 H       -0.3410    -2.3030    -0.9860 H     1 <1>   0.0800 
 29 H       -1.2650    -3.7800    -1.0140 H     1 <1>   0.0800 
 30 H       -4.0420    -3.4150    -1.4660 H     1 <1>   0.0800 
 31 H       -4.5310    -1.7880    -1.7780 H     1 <1>   0.0800 
 32 H       -1.5180    -1.6260     2.3070 H     1 <1>   0.0800 
 33 H       -0.4140    -1.0390     1.0950 H     1 <1>   0.0800 
 34 H       -4.5690    -0.1300     0.4590 H     1 <1>   0.0800 
 35 H       -4.1930    -0.9170     1.9450 H     1 <1>   0.0800 
 36 H       -4.2390    -7.6630    -0.0240 H     1 <1>   0.1500 
 37 H       -2.8770    -6.5780     1.5610 H     1 <1>   0.0800 
 38 H       -3.3450    -5.0490     2.2440 H     1 <1>   0.0800 
 39 H       -2.4210    -5.0960     0.7630 H     1 <1>   0.0800 
 40 H       -7.7360    -5.8100    -1.5410 H     1 <1>   0.1500 
 41 H       -8.3110    -3.6160    -0.9890 H     1 <1>   0.0800 
 42 H       -6.9170    -2.5690    -1.0520 H     1 <1>   0.0800 
 43 H       -7.6470    -2.9700     0.4850 H     1 <1>   0.0800 
 44 H       -6.3020    -7.7790    -1.3330 H     1 <1>   0.1500 
@<TRIPOS>BOND
  1   1   2  2   
  2   2   3  am  
  3   2   4  1   
  4   3   5  1   
  5   3   6  1   
  6   4   7  1   
  7   4   8  1   
  8   4  23  1   
  9   5   9  1   
 10   5  10  1   
 11   5  24  1   
 12   6  25  1   
 13   6  26  1   
 14   6  27  1   
 15   7  11  1   
 16   7  28  1   
 17   7  29  1   
 18   8  12  1   
 19   8  30  1   
 20   8  31  1   
 21   9  11  1   
 22   9  32  1   
 23   9  33  1   
 24  10  12  1   
 25  10  34  1   
 26  10  35  1   
 27  12  13  am  
 28  13  14  2   
 29  13  15  1   
 30  15  16  ar  
 31  15  17  ar  
 32  16  18  ar  
 33  16  19  1   
 34  17  20  ar  
 35  17  21  1   
 36  18  22  ar  
 37  18  36  1   
 38  19  37  1   
 39  19  38  1   
 40  19  39  1   
 41  20  22  ar  
 42  20  40  1   
 43  21  41  1   
 44  21  42  1   
 45  21  43  1   
 46  22  44  1   
@<TRIPOS>SUBSTRUCTURE
  1 ****  12 GROUP 4 **** **** 0

# MOE 2024.06 (io_trps.svl 2023.06)
