@<TRIPOS>MOLECULE
NONAME
45 47 1 0 0 
SMALL
USER_CHARGES


@<TRIPOS>ATOM
  1 O       -2.3620     1.3290     2.0010 O.2   1 <1>  -0.5700 
  2 C       -2.5330     1.6690     0.8520 C.2   1 <1>   0.5690 
  3 N       -2.8570     0.7580    -0.1180 N.am  1 <1>  -0.6600 
  4 C       -2.3720     3.1330     0.5180 C.3   1 <1>   0.1570 
  5 C       -2.8930     1.0220    -1.5830 C.3   1 <1>   0.1400 
  6 C       -2.9310    -0.7020     0.1410 C.3   1 <1>   0.1400 
  7 N       -1.0570     3.3280    -0.0940 N.pl3 1 <1>   0.3140 
  8 C       -3.4410    -0.2680    -2.1880 C.3   1 <1>   0.2000 
  9 C       -2.9160    -1.3570    -1.2450 C.3   1 <1>  -0.0800 
 10 N       -0.9090     3.6930    -1.3930 N.2   1 <1>  -0.7070 
 11 C        0.1430     3.1710     0.5250 C.2   1 <1>  -0.0680 
 12 O       -4.8260    -0.2230    -2.1200 O.3   1 <1>  -0.6800 
 13 C       -3.6680    -2.6990    -1.2980 C.3   1 <1>   0.0200 
 14 C        0.3730     3.7790    -1.5560 C.2   1 <1>   0.1080 
 15 N        0.3260     2.7720     1.8580 N.pl3 1 <1>  -0.8840 
 16 C        1.0820     3.4670    -0.4010 C.2   1 <1>  -0.1500 
 17 C       -3.0490    -3.6990    -0.3370 C.2   1 <1>  -0.3320 
 18 C        0.9940     4.1810    -2.8740 C.3   1 <1>  -0.0590 
 19 N       -1.8690    -4.3230    -0.5380 N.pl3 1 <1>   0.3000 
 20 C       -3.5200    -4.1450     0.8470 C.2   1 <1>  -0.1500 
 21 N       -1.5610    -5.1460     0.4800 N.2   1 <1>  -0.7070 
 22 C       -2.5540    -5.0350     1.3040 C.2   1 <1>   0.1080 
 23 C       -2.6170    -5.8020     2.6030 C.3   1 <1>  -0.0590 
 24 H       -2.4230     3.7210     1.4140 H     1 <1>   0.0800 
 25 H       -3.1340     3.4560    -0.1630 H     1 <1>   0.0800 
 26 H       -3.5060     1.8710    -1.8320 H     1 <1>   0.0800 
 27 H       -1.8890     1.1900    -1.9350 H     1 <1>   0.0800 
 28 H       -2.0990    -1.0320     0.7420 H     1 <1>   0.0800 
 29 H       -3.8490    -0.9200     0.6610 H     1 <1>   0.0800 
 30 H       -3.1520    -0.4100    -3.2150 H     1 <1>   0.0800 
 31 H       -1.8860    -1.5350    -1.5000 H     1 <1>   0.0800 
 32 H       -5.0870     0.0420    -1.2150 H     1 <1>   0.4000 
 33 H       -3.6460    -3.0930    -2.3000 H     1 <1>   0.0800 
 34 H       -4.7000    -2.5560    -1.0290 H     1 <1>   0.0800 
 35 H       -0.4120     2.1530     2.2380 H     1 <1>   0.4000 
 36 H        1.2500     2.3790     2.0670 H     1 <1>   0.4000 
 37 H        2.1490     3.4670    -0.2850 H     1 <1>   0.1500 
 38 H        2.0650     4.1860    -2.7990 H     1 <1>   0.0800 
 39 H        0.6550     5.1650    -3.1420 H     1 <1>   0.0800 
 40 H        0.6950     3.4890    -3.6390 H     1 <1>   0.0800 
 41 H       -1.2530    -4.2150    -1.3520 H     1 <1>   0.2700 
 42 H       -4.4330    -3.8870     1.3550 H     1 <1>   0.1500 
 43 H       -3.5370    -5.5970     3.1180 H     1 <1>   0.0800 
 44 H       -1.7900    -5.5170     3.2260 H     1 <1>   0.0800 
 45 H       -2.5530    -6.8550     2.3990 H     1 <1>   0.0800 
@<TRIPOS>BOND
  1   1   2  2   
  2   2   3  am  
  3   2   4  1   
  4   3   5  1   
  5   3   6  1   
  6   4   7  1   
  7   4  24  1   
  8   4  25  1   
  9   5   8  1   
 10   5  26  1   
 11   5  27  1   
 12   6   9  1   
 13   6  28  1   
 14   6  29  1   
 15   7  10  1   
 16   7  11  1   
 17   8   9  1   
 18   8  12  1   
 19   8  30  1   
 20   9  13  1   
 21   9  31  1   
 22  10  14  2   
 23  11  15  1   
 24  11  16  2   
 25  12  32  1   
 26  13  17  1   
 27  13  33  1   
 28  13  34  1   
 29  14  16  1   
 30  14  18  1   
 31  15  35  1   
 32  15  36  1   
 33  16  37  1   
 34  17  19  1   
 35  17  20  2   
 36  18  38  1   
 37  18  39  1   
 38  18  40  1   
 39  19  21  1   
 40  19  41  1   
 41  20  22  1   
 42  20  42  1   
 43  21  22  2   
 44  22  23  1   
 45  23  43  1   
 46  23  44  1   
 47  23  45  1   
@<TRIPOS>SUBSTRUCTURE
  1 ****   3 GROUP 4 **** **** 0

# MOE 2024.06 (io_trps.svl 2023.06)
