@<TRIPOS>MOLECULE
NONAME
25 24 1 0 0 
SMALL
USER_CHARGES


@<TRIPOS>ATOM
  1 N        2.4740     3.8040    -0.1570 N.pl3 1 <1>  -0.7940 
  2 C        3.4220     4.4430     0.4810 C.cat 1 <1>   0.5590 
  3 C        1.6220     2.7720     0.2700 C.3   1 <1>   0.7600 
  4 N        4.1580     5.3970    -0.0660 N.pl3 1 <1>  -0.8330 
  5 N        0.6610     2.8770    -0.7290 N.3   1 <1>  -0.9900 
  6 C        0.9880     3.0520     1.6200 C.3   1 <1>  -0.2400 
  7 C        2.3130     1.4290     0.1620 C.3   1 <1>  -0.2400 
  8 C        5.2300     6.0950     0.7060 C.3   1 <1>   0.2490 
  9 C        4.0360     5.8920    -1.4750 C.3   1 <1>   0.2490 
 10 H        2.2330     3.9750    -1.1290 H     1 <1>   0.4500 
 11 H        3.6130     4.1750     1.5120 H     1 <1>   0.1500 
 12 H        0.0500     3.6560    -0.4660 H     1 <1>   0.3600 
 13 H        0.0800     2.0350    -0.6750 H     1 <1>   0.3600 
 14 H        0.5450     4.0310     1.6430 H     1 <1>   0.0800 
 15 H        1.7250     2.9820     2.3990 H     1 <1>   0.0800 
 16 H        0.2290     2.3190     1.8270 H     1 <1>   0.0800 
 17 H        2.7060     1.2810    -0.8280 H     1 <1>   0.0800 
 18 H        1.6210     0.6370     0.3840 H     1 <1>   0.0800 
 19 H        3.1200     1.3700     0.8700 H     1 <1>   0.0800 
 20 H        5.2900     5.7140     1.7110 H     1 <1>   0.0800 
 21 H        5.0220     7.1510     0.7530 H     1 <1>   0.0800 
 22 H        6.1840     5.9480     0.2280 H     1 <1>   0.0800 
 23 H        3.2570     5.3780    -2.0100 H     1 <1>   0.0800 
 24 H        4.9640     5.7380    -1.9990 H     1 <1>   0.0800 
 25 H        3.8070     6.9450    -1.4750 H     1 <1>   0.0800 
@<TRIPOS>BOND
  1   1   2  ar  
  2   1   3  1   
  3   1  10  1   
  4   2   4  ar  
  5   2  11  1   
  6   3   5  1   
  7   3   6  1   
  8   3   7  1   
  9   4   8  1   
 10   4   9  1   
 11   5  12  1   
 12   5  13  1   
 13   6  14  1   
 14   6  15  1   
 15   6  16  1   
 16   7  17  1   
 17   7  18  1   
 18   7  19  1   
 19   8  20  1   
 20   8  21  1   
 21   8  22  1   
 22   9  23  1   
 23   9  24  1   
 24   9  25  1   
@<TRIPOS>SUBSTRUCTURE
  1 ****   1 GROUP 4 **** **** 0

# MOE 2024.06 (io_trps.svl 2023.06)
