@<TRIPOS>MOLECULE
NONAME
59 62 1 0 0 
SMALL
USER_CHARGES


@<TRIPOS>ATOM
  1 O        0.4940     0.1260     0.7570 O.3   1 <1>  -0.6800 
  2 C        1.2680    -0.2860    -0.3220 C.3   1 <1>   0.2000 
  3 C        1.9090    -1.6230     0.0370 C.3   1 <1>  -0.0800 
  4 C        2.4740     0.6490    -0.4040 C.3   1 <1>   0.3430 
  5 C        3.0840    -1.2320     0.9510 C.3   1 <1>   0.3430 
  6 C        2.3820    -2.3720    -1.2280 C.3   1 <1>  -0.0170 
  7 N        3.3240     0.2380     0.7580 N.4   1 <1>  -0.9590 
  8 C        3.2160    -3.5930    -0.8830 C.ar  1 <1>   0.1670 
  9 C        4.7580     0.6370     0.7780 C.3   1 <1>   0.4230 
 10 N        4.5010    -3.4270    -0.7800 N.ar  1 <1>  -0.6200 
 11 C        2.5650    -4.8210    -0.6850 C.ar  1 <1>  -0.1500 
 12 C        4.8750     2.1560     0.9050 C.3   1 <1>  -0.1600 
 13 C        5.5190     0.1480    -0.4610 C.3   1 <1>  -0.1600 
 14 C        5.2510    -4.5250    -0.4840 C.ar  1 <1>   0.3100 
 15 C        3.2900    -5.9270    -0.3650 C.ar  1 <1>  -0.1500 
 16 C        6.3430     2.5810     0.9530 C.3   1 <1>   0.3430 
 17 C        6.9810     0.5880    -0.3960 C.3   1 <1>   0.3430 
 18 C        4.6830    -5.7980    -0.2520 C.ar  1 <1>   0.0000 
 19 C        6.6470    -4.3950    -0.4010 C.ar  1 <1>  -0.1500 
 20 N        7.0650     2.0720    -0.2540 N.4   1 <1>  -0.9590 
 21 C        5.5270    -6.8780     0.0740 C.ar  1 <1>  -0.1500 
 22 C        7.4510    -5.4580    -0.0860 C.ar  1 <1>  -0.1500 
 23 C        8.4980     2.4940    -0.2490 C.3   1 <1>   0.3430 
 24 C        6.8830    -6.7120     0.1570 C.ar  1 <1>  -0.1500 
 25 C        8.6170     3.9930    -0.5320 C.3   1 <1>  -0.1600 
 26 C       10.0870     4.4090    -0.6480 C.3   1 <1>  -0.2400 
 27 H       -0.3830    -0.3170     0.7590 H     1 <1>   0.4000 
 28 H        0.6650    -0.2930    -1.2150 H     1 <1>   0.0800 
 29 H        1.2230    -2.2600     0.5690 H     1 <1>   0.0800 
 30 H        2.1670     1.6800    -0.3420 H     1 <1>   0.0800 
 31 H        2.9920     0.4770    -1.3310 H     1 <1>   0.0800 
 32 H        3.9650    -1.8030     0.7210 H     1 <1>   0.0800 
 33 H        2.8180    -1.4220     1.9780 H     1 <1>   0.0800 
 34 H        2.9740    -1.7300    -1.8560 H     1 <1>   0.0800 
 35 H        1.5290    -2.6800    -1.8070 H     1 <1>   0.0800 
 36 H        2.8440     0.6690     1.5650 H     1 <1>   0.4500 
 37 H        5.2170     0.1940     1.6490 H     1 <1>   0.0800 
 38 H        1.4960    -4.8820    -0.7880 H     1 <1>   0.1500 
 39 H        4.3970     2.6530     0.0810 H     1 <1>   0.0800 
 40 H        4.4010     2.4790     1.8150 H     1 <1>   0.0800 
 41 H        5.5000    -0.9250    -0.5060 H     1 <1>   0.0800 
 42 H        5.0860     0.5310    -1.3660 H     1 <1>   0.0800 
 43 H        2.8290    -6.8860    -0.2030 H     1 <1>   0.1500 
 44 H        6.8070     2.1910     1.8450 H     1 <1>   0.0800 
 45 H        6.4000     3.6580     0.9920 H     1 <1>   0.0800 
 46 H        7.4890     0.2750    -1.2960 H     1 <1>   0.0800 
 47 H        7.4660     0.1130     0.4420 H     1 <1>   0.0800 
 48 H        7.0730    -3.4320    -0.5980 H     1 <1>   0.1500 
 49 H        6.6490     2.5020    -1.0930 H     1 <1>   0.4500 
 50 H        5.0860    -7.8420     0.2550 H     1 <1>   0.1500 
 51 H        8.5210    -5.3500    -0.0250 H     1 <1>   0.1500 
 52 H        8.9570     2.2620     0.7000 H     1 <1>   0.0800 
 53 H        9.0360     1.9610    -1.0180 H     1 <1>   0.0800 
 54 H        7.5260    -7.5400     0.4060 H     1 <1>   0.1500 
 55 H        8.1230     4.2330    -1.4570 H     1 <1>   0.0800 
 56 H        8.1690     4.5660     0.2610 H     1 <1>   0.0800 
 57 H       10.5740     3.8840    -1.4520 H     1 <1>   0.0800 
 58 H       10.6180     4.2090     0.2680 H     1 <1>   0.0800 
 59 H       10.1560     5.4650    -0.8500 H     1 <1>   0.0800 
@<TRIPOS>BOND
  1   1   2  1   
  2   1  27  1   
  3   2   3  1   
  4   2   4  1   
  5   2  28  1   
  6   3   5  1   
  7   3   6  1   
  8   3  29  1   
  9   4   7  1   
 10   4  30  1   
 11   4  31  1   
 12   5   7  1   
 13   5  32  1   
 14   5  33  1   
 15   6   8  1   
 16   6  34  1   
 17   6  35  1   
 18   7   9  1   
 19   7  36  1   
 20   8  10  ar  
 21   8  11  ar  
 22   9  12  1   
 23   9  13  1   
 24   9  37  1   
 25  10  14  ar  
 26  11  15  ar  
 27  11  38  1   
 28  12  16  1   
 29  12  39  1   
 30  12  40  1   
 31  13  17  1   
 32  13  41  1   
 33  13  42  1   
 34  14  18  ar  
 35  14  19  ar  
 36  15  18  ar  
 37  15  43  1   
 38  16  20  1   
 39  16  44  1   
 40  16  45  1   
 41  17  20  1   
 42  17  46  1   
 43  17  47  1   
 44  18  21  ar  
 45  19  22  ar  
 46  19  48  1   
 47  20  23  1   
 48  20  49  1   
 49  21  24  ar  
 50  21  50  1   
 51  22  24  ar  
 52  22  51  1   
 53  23  25  1   
 54  23  52  1   
 55  23  53  1   
 56  24  54  1   
 57  25  26  1   
 58  25  55  1   
 59  25  56  1   
 60  26  57  1   
 61  26  58  1   
 62  26  59  1   
@<TRIPOS>SUBSTRUCTURE
  1 ****  13 GROUP 4 **** **** 0

# MOE 2024.06 (io_trps.svl 2023.06)
