@<TRIPOS>MOLECULE
NONAME
49 51 1 0 0 
SMALL
USER_CHARGES


@<TRIPOS>ATOM
  1 CL      -3.9880    -1.0360    -2.8870 Cl    1 <1>  -0.1770 
  2 C       -3.5220     0.1330    -1.6740 C.ar  1 <1>   0.1770 
  3 C       -3.3220    -0.2630    -0.3550 C.ar  1 <1>   0.0860 
  4 C       -3.3760     1.4490    -2.0680 C.ar  1 <1>  -0.1500 
  5 C       -3.4760    -1.6390     0.0570 C.2   1 <1>   0.5440 
  6 C       -2.9660     0.7260     0.5630 C.ar  1 <1>  -0.1500 
  7 C       -3.0210     2.4100    -1.1380 C.ar  1 <1>  -0.1500 
  8 O       -2.7410    -2.4970    -0.3950 O.2   1 <1>  -0.5700 
  9 N       -4.4490    -2.0260     0.9540 N.am  1 <1>  -0.6600 
 10 C       -2.8100     2.0590     0.1940 C.ar  1 <1>  -0.1430 
 11 C       -4.4770    -3.4140     1.4970 C.3   1 <1>   0.1400 
 12 C       -5.6950    -1.2250     1.2040 C.3   1 <1>   0.1400 
 13 C       -2.4170     3.1060     1.2520 C.3   1 <1>   1.1640 
 14 C       -5.6520    -4.2350     0.9060 C.3   1 <1>   0.4230 
 15 C       -6.9420    -2.1360     1.3020 C.3   1 <1>  -0.1600 
 16 F       -3.4220     3.3640     2.0780 F     1 <1>  -0.3400 
 17 F       -2.0490     4.2710     0.7310 F     1 <1>  -0.3400 
 18 F       -1.4070     2.6990     2.0080 F     1 <1>  -0.3400 
 19 N       -5.2790    -5.3690    -0.0250 N.4   1 <1>  -0.9590 
 20 C       -6.8320    -3.3710     0.3660 C.3   1 <1>   0.0000 
 21 C       -6.4800    -6.0060    -0.6720 C.3   1 <1>   0.3430 
 22 C       -4.2360    -5.0020    -1.0470 C.3   1 <1>   0.2630 
 23 C       -8.0840    -4.2820     0.4460 C.3   1 <1>  -0.1600 
 24 C       -6.6460    -2.8790    -1.1040 C.3   1 <1>   0.1200 
 25 C       -7.7680    -5.7720     0.1420 C.3   1 <1>  -0.1600 
 26 O       -7.6090    -1.9400    -1.4490 O.3   1 <1>  -0.6800 
 27 H       -3.5400     1.7170    -3.0970 H     1 <1>   0.1500 
 28 H       -2.8050     0.4320     1.5880 H     1 <1>   0.1500 
 29 H       -2.9130     3.4330    -1.4630 H     1 <1>   0.1500 
 30 H       -3.5370    -3.9150     1.3530 H     1 <1>   0.0800 
 31 H       -4.6250    -3.3350     2.5600 H     1 <1>   0.0800 
 32 H       -5.5840    -0.6540     2.1110 H     1 <1>   0.0800 
 33 H       -5.8430    -0.5310     0.3930 H     1 <1>   0.0800 
 34 H       -6.0620    -4.7200     1.7760 H     1 <1>   0.0800 
 35 H       -7.0560    -2.4560     2.3240 H     1 <1>   0.0800 
 36 H       -7.8170    -1.5520     1.0700 H     1 <1>   0.0800 
 37 H       -4.8510    -6.0890     0.5720 H     1 <1>   0.4500 
 38 H       -6.6190    -5.5940    -1.6580 H     1 <1>   0.0800 
 39 H       -6.3120    -7.0650    -0.7890 H     1 <1>   0.0800 
 40 H       -4.5590    -4.1690    -1.6480 H     1 <1>   0.0800 
 41 H       -4.0340    -5.8370    -1.6970 H     1 <1>   0.0800 
 42 H       -3.3140    -4.7240    -0.5620 H     1 <1>   0.0800 
 43 H       -8.5120    -4.2290     1.4330 H     1 <1>   0.0800 
 44 H       -8.8440    -3.9280    -0.2300 H     1 <1>   0.0800 
 45 H       -6.7190    -3.6750    -1.8190 H     1 <1>   0.0800 
 46 H       -5.6930    -2.4060    -1.2410 H     1 <1>   0.0800 
 47 H       -8.5990    -6.2040    -0.3900 H     1 <1>   0.0800 
 48 H       -7.6840    -6.3140     1.0670 H     1 <1>   0.0800 
 49 H       -8.4970    -2.3400    -1.5350 H     1 <1>   0.4000 
@<TRIPOS>BOND
  1   1   2  1   
  2   2   3  ar  
  3   2   4  ar  
  4   3   5  1   
  5   3   6  ar  
  6   4   7  ar  
  7   4  27  1   
  8   5   8  2   
  9   5   9  am  
 10   6  10  ar  
 11   6  28  1   
 12   7  10  ar  
 13   7  29  1   
 14   9  11  1   
 15   9  12  1   
 16  10  13  1   
 17  11  14  1   
 18  11  30  1   
 19  11  31  1   
 20  12  15  1   
 21  12  32  1   
 22  12  33  1   
 23  13  16  1   
 24  13  17  1   
 25  13  18  1   
 26  14  19  1   
 27  14  20  1   
 28  14  34  1   
 29  15  20  1   
 30  15  35  1   
 31  15  36  1   
 32  19  21  1   
 33  19  22  1   
 34  19  37  1   
 35  20  23  1   
 36  20  24  1   
 37  21  25  1   
 38  21  38  1   
 39  21  39  1   
 40  22  40  1   
 41  22  41  1   
 42  22  42  1   
 43  23  25  1   
 44  23  43  1   
 45  23  44  1   
 46  24  26  1   
 47  24  45  1   
 48  24  46  1   
 49  25  47  1   
 50  25  48  1   
 51  26  49  1   
@<TRIPOS>SUBSTRUCTURE
  1 ****   5 GROUP 4 **** **** 0

# MOE 2024.06 (io_trps.svl 2023.06)
