@<TRIPOS>MOLECULE
NONAME
55 56 1 0 0 
SMALL
USER_CHARGES


@<TRIPOS>ATOM
  1 O        0.9880    -0.9030     1.8670 O.co2 1 <1>  -0.9000 
  2 C        1.9180    -0.0970     1.8700 C.2   1 <1>   0.9060 
  3 O        2.6160     0.0960     2.8750 O.co2 1 <1>  -0.9000 
  4 C        2.3500     0.6020     0.5680 C.3   1 <1>  -0.1060 
  5 C        3.6710    -0.0960     0.1590 C.3   1 <1>   0.2000 
  6 C        2.6440     2.1140     0.8150 C.3   1 <1>  -0.1600 
  7 C        1.2970     0.4280    -0.5790 C.3   1 <1>  -0.1600 
  8 O        4.6000     0.0160     1.1950 O.3   1 <1>  -0.6800 
  9 C        4.3100     0.5990    -1.0500 C.3   1 <1>   0.3430 
 10 C        3.3690     2.7810    -0.3550 C.3   1 <1>   0.3430 
 11 C       -0.0630     1.1110    -0.3420 C.3   1 <1>  -0.1600 
 12 N        4.6100     2.0100    -0.6640 N.4   1 <1>  -0.9590 
 13 C       -1.0540     0.7530    -1.4520 C.3   1 <1>  -0.2400 
 14 C        5.5440     2.6940    -1.5870 C.3   1 <1>   0.4860 
 15 C        5.9120     4.0460    -1.0080 C.ar  1 <1>  -0.1430 
 16 C        6.6790     4.1320     0.1450 C.ar  1 <1>  -0.1500 
 17 C        5.4760     5.2110    -1.6220 C.ar  1 <1>  -0.1500 
 18 C        6.9980     5.3670     0.6790 C.ar  1 <1>  -0.1500 
 19 C        5.7980     6.4450    -1.0850 C.ar  1 <1>  -0.1500 
 20 C        6.5580     6.5300     0.0700 C.ar  1 <1>  -0.1430 
 21 C        6.9120     7.8870     0.6590 C.3   1 <1>  -0.0170 
 22 C        8.2380     8.3950     0.0820 C.3   1 <1>  -0.1600 
 23 C        8.6180     9.7630     0.6620 C.3   1 <1>  -0.1600 
 24 C        9.9430    10.2590     0.0780 C.3   1 <1>  -0.2400 
 25 H        3.5030    -1.1440    -0.0280 H     1 <1>   0.0800 
 26 H        3.2580     2.2280     1.6920 H     1 <1>   0.0800 
 27 H        1.7360     2.6430     1.0330 H     1 <1>   0.0800 
 28 H        1.6760     0.7900    -1.5150 H     1 <1>   0.0800 
 29 H        1.1150    -0.6280    -0.7000 H     1 <1>   0.0800 
 30 H        4.0780    -0.0600     2.0570 H     1 <1>   0.4000 
 31 H        3.6480     0.5660    -1.8980 H     1 <1>   0.0800 
 32 H        5.2170     0.0760    -1.3010 H     1 <1>   0.0800 
 33 H        3.6190     3.7940    -0.0790 H     1 <1>   0.0800 
 34 H        2.7240     2.8090    -1.2170 H     1 <1>   0.0800 
 35 H       -0.4720     0.7900     0.6030 H     1 <1>   0.0800 
 36 H        0.0440     2.1800    -0.3120 H     1 <1>   0.0800 
 37 H        5.0810     1.8940     0.2510 H     1 <1>   0.4500 
 38 H       -1.2170    -0.3110    -1.4740 H     1 <1>   0.0800 
 39 H       -0.6870     1.0710    -2.4110 H     1 <1>   0.0800 
 40 H       -1.9980     1.2340    -1.2680 H     1 <1>   0.0800 
 41 H        6.4380     2.1050    -1.7090 H     1 <1>   0.0800 
 42 H        5.0820     2.8230    -2.5510 H     1 <1>   0.0800 
 43 H        7.0370     3.2440     0.6400 H     1 <1>   0.1500 
 44 H        4.8860     5.1750    -2.5220 H     1 <1>   0.1500 
 45 H        7.5950     5.4230     1.5740 H     1 <1>   0.1500 
 46 H        5.4590     7.3440    -1.5700 H     1 <1>   0.1500 
 47 H        6.1280     8.5910     0.4410 H     1 <1>   0.0800 
 48 H        6.9890     7.8060     1.7290 H     1 <1>   0.0800 
 49 H        9.0140     7.6820     0.3020 H     1 <1>   0.0800 
 50 H        8.1510     8.4690    -0.9890 H     1 <1>   0.0800 
 51 H        7.8440    10.4790     0.4400 H     1 <1>   0.0800 
 52 H        8.7090     9.6910     1.7330 H     1 <1>   0.0800 
 53 H        9.8690    10.3600    -0.9910 H     1 <1>   0.0800 
 54 H       10.7370     9.5690     0.3070 H     1 <1>   0.0800 
 55 H       10.1930    11.2180     0.4950 H     1 <1>   0.0800 
@<TRIPOS>BOND
  1   1   2  ar  
  2   2   3  ar  
  3   2   4  1   
  4   4   5  1   
  5   4   6  1   
  6   4   7  1   
  7   5   8  1   
  8   5   9  1   
  9   5  25  1   
 10   6  10  1   
 11   6  26  1   
 12   6  27  1   
 13   7  11  1   
 14   7  28  1   
 15   7  29  1   
 16   8  30  1   
 17   9  12  1   
 18   9  31  1   
 19   9  32  1   
 20  10  12  1   
 21  10  33  1   
 22  10  34  1   
 23  11  13  1   
 24  11  35  1   
 25  11  36  1   
 26  12  14  1   
 27  12  37  1   
 28  13  38  1   
 29  13  39  1   
 30  13  40  1   
 31  14  15  1   
 32  14  41  1   
 33  14  42  1   
 34  15  16  ar  
 35  15  17  ar  
 36  16  18  ar  
 37  16  43  1   
 38  17  19  ar  
 39  17  44  1   
 40  18  20  ar  
 41  18  45  1   
 42  19  20  ar  
 43  19  46  1   
 44  20  21  1   
 45  21  22  1   
 46  21  47  1   
 47  21  48  1   
 48  22  23  1   
 49  22  49  1   
 50  22  50  1   
 51  23  24  1   
 52  23  51  1   
 53  23  52  1   
 54  24  53  1   
 55  24  54  1   
 56  24  55  1   
@<TRIPOS>SUBSTRUCTURE
  1 ****  10 GROUP 4 **** **** 0

# MOE 2024.06 (io_trps.svl 2023.06)
