@<TRIPOS>MOLECULE
NONAME
43 45 1 0 0 
SMALL
USER_CHARGES


@<TRIPOS>ATOM
  1 F       -0.1700    -0.4360    -0.1330 F     1 <1>  -0.1900 
  2 C       -0.6990    -1.6280    -0.0180 C.ar  1 <1>   0.1900 
  3 C       -0.0580    -2.7750    -0.4990 C.ar  1 <1>   0.0830 
  4 C       -1.9270    -1.6970     0.6120 C.ar  1 <1>  -0.1500 
  5 O        1.1490    -2.8350    -1.1350 O.3   1 <1>  -0.3630 
  6 C       -0.6970    -3.9910    -0.3200 C.ar  1 <1>  -0.1500 
  7 C       -2.5350    -2.9280     0.7740 C.ar  1 <1>  -0.1500 
  8 C        1.8820    -1.6870    -1.4980 C.3   1 <1>   0.0400 
  9 C       -1.9390    -4.1020     0.3120 C.ar  1 <1>   0.0530 
 10 C       -2.5560    -5.3950     0.4910 C.2   1 <1>   0.0870 
 11 O       -1.7860    -6.4320     0.7270 O.3   1 <1>  -0.0190 
 12 C       -3.8380    -5.8510     0.4830 C.2   1 <1>  -0.2330 
 13 N       -2.4590    -7.5390     0.8920 N.2   1 <1>  -0.4100 
 14 C       -3.6940    -7.2100     0.7640 C.2   1 <1>   0.3720 
 15 C       -5.0900    -5.2070     0.2130 C.2   1 <1>   1.0330 
 16 N       -4.7480    -8.1050     0.8850 N.pl3 1 <1>  -0.8520 
 17 O       -5.1400    -4.0390    -0.1980 O.co2 1 <1>  -0.9000 
 18 O       -6.1640    -5.8220     0.3600 O.co2 1 <1>  -0.9000 
 19 C       -4.8340    -9.0960    -0.2060 C.3   1 <1>   0.2890 
 20 C       -6.2690    -9.5950    -0.4170 C.3   1 <1>  -0.0800 
 21 C       -4.0930   -10.3680     0.2050 C.3   1 <1>  -0.1600 
 22 C       -6.4830   -10.6640     0.6650 C.3   1 <1>  -0.1600 
 23 C       -7.3620    -8.5140    -0.4300 C.3   1 <1>   0.1200 
 24 C       -5.0910   -11.2050     1.0120 C.3   1 <1>  -0.1600 
 25 O       -8.5630    -9.0980    -0.8190 O.3   1 <1>  -0.6800 
 26 H       -2.4050    -0.8020     0.9670 H     1 <1>   0.1500 
 27 H       -0.2170    -4.8810    -0.6850 H     1 <1>   0.1500 
 28 H       -3.4930    -2.9840     1.2620 H     1 <1>   0.1500 
 29 H        2.7560    -2.0060    -2.0380 H     1 <1>   0.0800 
 30 H        2.1770    -1.1630    -0.6070 H     1 <1>   0.0800 
 31 H        1.2710    -1.0660    -2.1290 H     1 <1>   0.0800 
 32 H       -5.6020    -7.5110     0.8480 H     1 <1>   0.4000 
 33 H       -4.4270    -8.6760    -1.1120 H     1 <1>   0.0800 
 34 H       -6.2730   -10.0860    -1.3740 H     1 <1>   0.0800 
 35 H       -3.8220   -10.9060    -0.6850 H     1 <1>   0.0800 
 36 H       -3.1990   -10.1540     0.7630 H     1 <1>   0.0800 
 37 H       -6.9110   -10.2090     1.5420 H     1 <1>   0.0800 
 38 H       -7.1450   -11.4390     0.3200 H     1 <1>   0.0800 
 39 H       -7.1260    -7.7220    -1.1210 H     1 <1>   0.0800 
 40 H       -7.4980    -8.0880     0.5500 H     1 <1>   0.0800 
 41 H       -5.0000   -12.2500     0.7730 H     1 <1>   0.0800 
 42 H       -4.9080   -11.0660     2.0640 H     1 <1>   0.0800 
 43 H       -8.5420    -9.2940    -1.7730 H     1 <1>   0.4000 
@<TRIPOS>BOND
  1   1   2  1   
  2   2   3  ar  
  3   2   4  ar  
  4   3   5  1   
  5   3   6  ar  
  6   4   7  ar  
  7   4  26  1   
  8   5   8  1   
  9   6   9  ar  
 10   6  27  1   
 11   7   9  ar  
 12   7  28  1   
 13   8  29  1   
 14   8  30  1   
 15   8  31  1   
 16   9  10  1   
 17  10  11  1   
 18  10  12  2   
 19  11  13  1   
 20  12  14  1   
 21  12  15  1   
 22  13  14  2   
 23  14  16  1   
 24  15  17  ar  
 25  15  18  ar  
 26  16  19  1   
 27  16  32  1   
 28  19  20  1   
 29  19  21  1   
 30  19  33  1   
 31  20  22  1   
 32  20  23  1   
 33  20  34  1   
 34  21  24  1   
 35  21  35  1   
 36  21  36  1   
 37  22  24  1   
 38  22  37  1   
 39  22  38  1   
 40  23  25  1   
 41  23  39  1   
 42  23  40  1   
 43  24  41  1   
 44  24  42  1   
 45  25  43  1   
@<TRIPOS>SUBSTRUCTURE
  1 ****  12 GROUP 4 **** **** 0

# MOE 2024.06 (io_trps.svl 2023.06)
