@<TRIPOS>MOLECULE
NONAME
56 59 1 0 0 
SMALL
USER_CHARGES


@<TRIPOS>ATOM
  1 O       -0.0750     2.2770     2.3900 O.2   1 <1>  -0.5700 
  2 C       -0.1010     3.1510     1.5560 C.2   1 <1>   0.5690 
  3 N       -1.2520     3.7910     1.1610 N.am  1 <1>  -0.5090 
  4 C        1.2360     3.5540     0.9350 C.3   1 <1>   0.1810 
  5 C       -1.1890     4.9820     0.2500 C.3   1 <1>   0.3640 
  6 C       -2.5060     3.6680     1.9580 C.3   1 <1>   0.0490 
  7 O        1.2550     4.8990     0.5190 O.3   1 <1>  -0.5600 
  8 C       -2.1900     4.8610    -0.8940 C.ar  1 <1>  -0.1440 
  9 C        0.2110     5.2160    -0.3770 C.3   1 <1>   0.2610 
 10 C       -3.0660     2.3100     2.2520 C.3   1 <1>  -0.2000 
 11 C       -3.7910     3.2270     1.3240 C.3   1 <1>  -0.2000 
 12 C       -2.2430     3.7140    -1.6770 C.ar  1 <1>   0.1600 
 13 C       -3.0460     5.9040    -1.1910 C.ar  1 <1>  -0.1500 
 14 C        0.3840     6.6620    -0.8690 C.2   1 <1>   0.5690 
 15 N       -3.0440     3.5400    -2.7130 N.ar  1 <1>  -0.6200 
 16 C       -3.8980     5.7320    -2.2600 C.ar  1 <1>  -0.1500 
 17 O       -0.2320     7.5510    -0.3180 O.2   1 <1>  -0.5700 
 18 N        1.2860     6.9780    -1.8640 N.am  1 <1>  -0.6600 
 19 C       -3.8560     4.5500    -2.9780 C.ar  1 <1>   0.1600 
 20 C        1.3900     8.3810    -2.3850 C.3   1 <1>   0.1400 
 21 C        2.1580     5.9800    -2.5530 C.3   1 <1>   0.0600 
 22 C        2.3260     9.2780    -1.5410 C.3   1 <1>   0.3430 
 23 N        2.0520     9.1540    -0.0770 N.4   1 <1>  -0.9590 
 24 C        2.1100    10.4130     0.6960 C.3   1 <1>   0.3430 
 25 C        2.9260     8.1870     0.6260 C.3   1 <1>   0.3430 
 26 C        2.2400     9.9600     2.1450 C.3   1 <1>  -0.1600 
 27 C        2.7010     8.4990     2.0970 C.3   1 <1>  -0.1600 
 28 H        1.4490     2.9240     0.0910 H     1 <1>   0.0800 
 29 H        2.0150     3.4270     1.6660 H     1 <1>   0.0800 
 30 H       -1.4500     5.8390     0.8470 H     1 <1>   0.0800 
 31 H       -2.5540     4.3990     2.7480 H     1 <1>   0.1000 
 32 H        0.3120     4.5650    -1.2250 H     1 <1>   0.0800 
 33 H       -2.5710     1.4460     1.8450 H     1 <1>   0.1000 
 34 H       -3.4830     2.1260     3.2260 H     1 <1>   0.1000 
 35 H       -4.7120     3.6650     1.6650 H     1 <1>   0.1000 
 36 H       -3.8410     2.9250     0.2940 H     1 <1>   0.1000 
 37 H       -1.5930     2.8890    -1.4380 H     1 <1>   0.1500 
 38 H       -3.0540     6.8180    -0.6200 H     1 <1>   0.1500 
 39 H       -4.5910     6.5060    -2.5380 H     1 <1>   0.1500 
 40 H       -4.5260     4.4280    -3.8130 H     1 <1>   0.1500 
 41 H        1.7350     8.3660    -3.4050 H     1 <1>   0.0800 
 42 H        0.4080     8.8240    -2.3970 H     1 <1>   0.0800 
 43 H        3.0840     6.4380    -2.8550 H     1 <1>   0.0800 
 44 H        1.6570     5.6030    -3.4290 H     1 <1>   0.0800 
 45 H        2.3940     5.1560    -1.9020 H     1 <1>   0.0800 
 46 H        2.1800    10.2990    -1.8520 H     1 <1>   0.0800 
 47 H        3.3510     9.0170    -1.7450 H     1 <1>   0.0800 
 48 H        1.0880     8.7670     0.0120 H     1 <1>   0.4500 
 49 H        2.9840    10.9770     0.4140 H     1 <1>   0.0800 
 50 H        1.2260    11.0130     0.5440 H     1 <1>   0.0800 
 51 H        2.6670     7.1660     0.3910 H     1 <1>   0.0800 
 52 H        3.9570     8.3680     0.3690 H     1 <1>   0.0800 
 53 H        2.9470    10.5830     2.6660 H     1 <1>   0.0800 
 54 H        1.2870    10.0370     2.6410 H     1 <1>   0.0800 
 55 H        1.9320     7.8510     2.4820 H     1 <1>   0.0800 
 56 H        3.6010     8.3380     2.6640 H     1 <1>   0.0800 
@<TRIPOS>BOND
  1   1   2  2   
  2   2   3  am  
  3   2   4  1   
  4   3   5  1   
  5   3   6  1   
  6   4   7  1   
  7   4  28  1   
  8   4  29  1   
  9   5   8  1   
 10   5   9  1   
 11   5  30  1   
 12   6  10  1   
 13   6  11  1   
 14   6  31  1   
 15   7   9  1   
 16   8  12  ar  
 17   8  13  ar  
 18   9  14  1   
 19   9  32  1   
 20  10  11  1   
 21  10  33  1   
 22  10  34  1   
 23  11  35  1   
 24  11  36  1   
 25  12  15  ar  
 26  12  37  1   
 27  13  16  ar  
 28  13  38  1   
 29  14  17  2   
 30  14  18  am  
 31  15  19  ar  
 32  16  19  ar  
 33  16  39  1   
 34  18  20  1   
 35  18  21  1   
 36  19  40  1   
 37  20  22  1   
 38  20  41  1   
 39  20  42  1   
 40  21  43  1   
 41  21  44  1   
 42  21  45  1   
 43  22  23  1   
 44  22  46  1   
 45  22  47  1   
 46  23  24  1   
 47  23  25  1   
 48  23  48  1   
 49  24  26  1   
 50  24  49  1   
 51  24  50  1   
 52  25  27  1   
 53  25  51  1   
 54  25  52  1   
 55  26  27  1   
 56  26  53  1   
 57  26  54  1   
 58  27  55  1   
 59  27  56  1   
@<TRIPOS>SUBSTRUCTURE
  1 ****   9 GROUP 4 **** **** 0

# MOE 2024.06 (io_trps.svl 2023.06)
