@<TRIPOS>MOLECULE
NONAME
46 49 1 0 0 
SMALL
USER_CHARGES


@<TRIPOS>ATOM
  1 CL      -1.0660     0.8390    -4.0010 Cl    1 <1>  -0.1240 
  2 C       -1.7100     2.2710    -3.2510 C.2   1 <1>   0.1640 
  3 S       -2.6540     2.0460    -1.8000 S.3   1 <1>  -0.0800 
  4 C       -1.6140     3.5670    -3.5910 C.2   1 <1>  -0.1500 
  5 C       -2.9270     3.7910    -1.6480 C.2   1 <1>  -0.0450 
  6 C       -2.3060     4.4230    -2.6830 C.2   1 <1>  -0.1500 
  7 C       -3.7130     4.2800    -0.5400 C.2   1 <1>   0.7150 
  8 O       -4.4140     3.5230     0.1070 O.2   1 <1>  -0.5700 
  9 N       -3.6740     5.6120    -0.1960 N.am  1 <1>  -0.6600 
 10 C       -4.8250     6.2840     0.5030 C.3   1 <1>   0.2200 
 11 C       -2.3440     6.2810    -0.0310 C.3   1 <1>   0.1400 
 12 C       -4.5860     7.8130     0.7160 C.3   1 <1>   0.1380 
 13 C       -6.2100     6.0260    -0.1150 C.3   1 <1>  -0.1600 
 14 C       -2.2180     6.9720     1.3380 C.3   1 <1>  -0.1600 
 15 C       -4.2620     8.6420    -0.5660 C.2   1 <1>  -0.2760 
 16 C       -5.8700     8.4320     1.3340 C.3   1 <1>   0.1200 
 17 C       -3.4100     7.8810     1.7220 C.3   1 <1>  -0.1600 
 18 C       -7.3120     6.6760     0.7410 C.3   1 <1>   0.1200 
 19 C       -4.2920     8.2050    -1.8350 C.2   1 <1>  -0.2880 
 20 C       -3.8730    10.1070    -0.3380 C.3   1 <1>  -0.0220 
 21 O       -6.7670     7.4530     1.7700 O.3   1 <1>  -0.5600 
 22 C       -3.9540     9.0580    -3.0510 C.3   1 <1>   0.2580 
 23 C       -3.9690    10.9240    -1.6340 C.3   1 <1>   0.1200 
 24 O       -3.3210    10.2390    -2.6600 O.3   1 <1>  -0.5600 
 25 H       -1.0840     3.9460    -4.4460 H     1 <1>   0.1500 
 26 H       -2.3200     5.4880    -2.8390 H     1 <1>   0.1500 
 27 H       -4.8680     5.8370     1.4830 H     1 <1>   0.0800 
 28 H       -1.5530     5.5560    -0.1250 H     1 <1>   0.0800 
 29 H       -2.2110     7.0070    -0.8120 H     1 <1>   0.0800 
 30 H       -6.4150     4.9740    -0.1700 H     1 <1>   0.0800 
 31 H       -6.2750     6.4200    -1.1100 H     1 <1>   0.0800 
 32 H       -2.1100     6.2050     2.0860 H     1 <1>   0.0800 
 33 H       -1.3110     7.5500     1.3490 H     1 <1>   0.0800 
 34 H       -6.3860     9.0380     0.6090 H     1 <1>   0.0800 
 35 H       -5.6280     9.0520     2.1780 H     1 <1>   0.0800 
 36 H       -3.0720     8.8890     1.8640 H     1 <1>   0.0800 
 37 H       -3.7700     7.5510     2.6820 H     1 <1>   0.0800 
 38 H       -7.9170     5.9160     1.2050 H     1 <1>   0.0800 
 39 H       -7.9480     7.3030     0.1400 H     1 <1>   0.0800 
 40 H       -4.5490     7.2050    -2.1260 H     1 <1>   0.1500 
 41 H       -2.8600    10.1630     0.0170 H     1 <1>   0.0800 
 42 H       -4.5080    10.5710     0.3940 H     1 <1>   0.0800 
 43 H       -4.8430     9.3110    -3.6020 H     1 <1>   0.0800 
 44 H       -3.2750     8.5340    -3.7000 H     1 <1>   0.0800 
 45 H       -3.4880    11.8790    -1.5160 H     1 <1>   0.0800 
 46 H       -4.9960    11.0780    -1.9190 H     1 <1>   0.0800 
@<TRIPOS>BOND
  1   1   2  1   
  2   2   3  1   
  3   2   4  2   
  4   3   5  1   
  5   4   6  1   
  6   4  25  1   
  7   5   6  2   
  8   5   7  1   
  9   6  26  1   
 10   7   8  2   
 11   7   9  am  
 12   9  10  1   
 13   9  11  1   
 14  10  12  1   
 15  10  13  1   
 16  10  27  1   
 17  11  14  1   
 18  11  28  1   
 19  11  29  1   
 20  12  15  1   
 21  12  16  1   
 22  12  17  1   
 23  13  18  1   
 24  13  30  1   
 25  13  31  1   
 26  14  17  1   
 27  14  32  1   
 28  14  33  1   
 29  15  19  2   
 30  15  20  1   
 31  16  21  1   
 32  16  34  1   
 33  16  35  1   
 34  17  36  1   
 35  17  37  1   
 36  18  21  1   
 37  18  38  1   
 38  18  39  1   
 39  19  22  1   
 40  19  40  1   
 41  20  23  1   
 42  20  41  1   
 43  20  42  1   
 44  22  24  1   
 45  22  43  1   
 46  22  44  1   
 47  23  24  1   
 48  23  45  1   
 49  23  46  1   
@<TRIPOS>SUBSTRUCTURE
  1 ****   9 GROUP 4 **** **** 0

# MOE 2024.06 (io_trps.svl 2023.06)
