@<TRIPOS>MOLECULE
NONAME
59 62 1 0 0 
SMALL
USER_CHARGES


@<TRIPOS>ATOM
  1 O        0.3350     0.1700     0.2730 O.2   1 <1>  -0.5700 
  2 C        1.2260    -0.5570    -0.1240 C.2   1 <1>   0.5440 
  3 N        0.9120    -1.8080    -0.6200 N.am  1 <1>  -0.6600 
  4 C        2.5980    -0.0870    -0.0730 C.ar  1 <1>   0.0860 
  5 C        1.9180    -2.7350    -1.2080 C.3   1 <1>   0.1400 
  6 C       -0.4800    -2.3350    -0.5890 C.3   1 <1>   0.1400 
  7 C        3.4180    -0.3020     1.0410 C.ar  1 <1>  -0.1440 
  8 C        3.1370     0.5880    -1.1670 C.ar  1 <1>  -0.1500 
  9 C        1.8970    -4.0680    -0.4550 C.3   1 <1>  -0.1600 
 10 C       -0.5100    -3.6610     0.1750 C.3   1 <1>  -0.1600 
 11 C        4.7330     0.1360     1.0350 C.ar  1 <1>  -0.1500 
 12 C        2.8690    -1.0120     2.2720 C.3   1 <1>  -0.0970 
 13 C        4.4480     1.0240    -1.1690 C.ar  1 <1>  -0.1500 
 14 C        0.4830    -4.6810    -0.4130 C.3   1 <1>  -0.0190 
 15 C        5.2490     0.7950    -0.0660 C.ar  1 <1>  -0.1500 
 16 C        0.4430    -5.9970     0.3720 C.2   1 <1>   0.5690 
 17 O        1.1220    -6.1040     1.3670 O.2   1 <1>  -0.5700 
 18 N       -0.3570    -7.0290    -0.0380 N.am  1 <1>  -0.6600 
 19 C       -1.3740    -7.0150    -1.1190 C.3   1 <1>   0.1400 
 20 C       -0.4170    -8.3130     0.7060 C.3   1 <1>   0.1400 
 21 C       -2.3460    -8.1310    -0.7390 C.3   1 <1>   0.2000 
 22 C       -1.4810    -9.1620    -0.0080 C.3   1 <1>  -0.0800 
 23 O       -3.2600    -7.6190     0.1670 O.3   1 <1>  -0.6800 
 24 C       -0.8420   -10.1490    -1.0030 C.3   1 <1>   0.0200 
 25 C       -0.0490   -11.2530    -0.3250 C.2   1 <1>  -0.0400 
 26 O        0.6190   -12.0920    -1.0710 O.3   1 <1>  -0.0190 
 27 C        0.1440   -11.6050     0.9570 C.2   1 <1>  -0.1500 
 28 N        1.2490   -12.9820    -0.3610 N.2   1 <1>  -0.4100 
 29 C        0.9820   -12.7130     0.8660 C.2   1 <1>   0.1080 
 30 C        1.5120   -13.4990     2.0440 C.3   1 <1>  -0.0590 
 31 H        1.6770    -2.8960    -2.2440 H     1 <1>   0.0800 
 32 H        2.9090    -2.3170    -1.1600 H     1 <1>   0.0800 
 33 H       -1.1450    -1.6340    -0.1130 H     1 <1>   0.0800 
 34 H       -0.8210    -2.4790    -1.6000 H     1 <1>   0.0800 
 35 H        2.5100     0.7690    -2.0220 H     1 <1>   0.1500 
 36 H        2.5740    -4.7560    -0.9300 H     1 <1>   0.0800 
 37 H        2.2550    -3.9040     0.5460 H     1 <1>   0.0800 
 38 H       -0.2650    -3.4710     1.2060 H     1 <1>   0.0800 
 39 H       -1.5080    -4.0610     0.1470 H     1 <1>   0.0800 
 40 H        5.3640    -0.0310     1.8900 H     1 <1>   0.1500 
 41 H        3.6140    -1.0850     3.0440 H     1 <1>   0.0800 
 42 H        2.5450    -2.0040     2.0170 H     1 <1>   0.0800 
 43 H        2.0290    -0.4660     2.6630 H     1 <1>   0.0800 
 44 H        4.8440     1.5430    -2.0250 H     1 <1>   0.1500 
 45 H        0.2000    -4.8830    -1.4290 H     1 <1>   0.0800 
 46 H        6.2710     1.1330    -0.0620 H     1 <1>   0.1500 
 47 H       -1.8770    -6.0670    -1.1950 H     1 <1>   0.0800 
 48 H       -0.8950    -7.2470    -2.0540 H     1 <1>   0.0800 
 49 H        0.5510    -8.7840     0.7140 H     1 <1>   0.0800 
 50 H       -0.7140    -8.1140     1.7220 H     1 <1>   0.0800 
 51 H       -2.8900    -8.5290    -1.5780 H     1 <1>   0.0800 
 52 H       -2.0710    -9.7220     0.6970 H     1 <1>   0.0800 
 53 H       -2.7760    -7.1730     0.8920 H     1 <1>   0.4000 
 54 H       -0.1860    -9.6230    -1.6740 H     1 <1>   0.0800 
 55 H       -1.6130   -10.6130    -1.5920 H     1 <1>   0.0800 
 56 H       -0.2330   -11.1710     1.8640 H     1 <1>   0.1500 
 57 H        2.0820   -12.8540     2.6870 H     1 <1>   0.0800 
 58 H        2.1460   -14.2950     1.6980 H     1 <1>   0.0800 
 59 H        0.6940   -13.9220     2.5980 H     1 <1>   0.0800 
@<TRIPOS>BOND
  1   1   2  2   
  2   2   3  am  
  3   2   4  1   
  4   3   5  1   
  5   3   6  1   
  6   4   7  ar  
  7   4   8  ar  
  8   5   9  1   
  9   5  31  1   
 10   5  32  1   
 11   6  10  1   
 12   6  33  1   
 13   6  34  1   
 14   7  11  ar  
 15   7  12  1   
 16   8  13  ar  
 17   8  35  1   
 18   9  14  1   
 19   9  36  1   
 20   9  37  1   
 21  10  14  1   
 22  10  38  1   
 23  10  39  1   
 24  11  15  ar  
 25  11  40  1   
 26  12  41  1   
 27  12  42  1   
 28  12  43  1   
 29  13  15  ar  
 30  13  44  1   
 31  14  16  1   
 32  14  45  1   
 33  15  46  1   
 34  16  17  2   
 35  16  18  am  
 36  18  19  1   
 37  18  20  1   
 38  19  21  1   
 39  19  47  1   
 40  19  48  1   
 41  20  22  1   
 42  20  49  1   
 43  20  50  1   
 44  21  22  1   
 45  21  23  1   
 46  21  51  1   
 47  22  24  1   
 48  22  52  1   
 49  23  53  1   
 50  24  25  1   
 51  24  54  1   
 52  24  55  1   
 53  25  26  1   
 54  25  27  2   
 55  26  28  1   
 56  27  29  1   
 57  27  56  1   
 58  28  29  2   
 59  29  30  1   
 60  30  57  1   
 61  30  58  1   
 62  30  59  1   
@<TRIPOS>SUBSTRUCTURE
  1 ****  16 GROUP 4 **** **** 0

# MOE 2024.06 (io_trps.svl 2023.06)
