@<TRIPOS>MOLECULE
NONAME
32 33 1 0 0 
SMALL
USER_CHARGES


@<TRIPOS>ATOM
  1 CL       0.2340    -0.2500    -1.3880 Cl    1 <1>  -0.1230 
  2 C        1.7940    -0.4930    -0.6190 C.2   1 <1>   0.1230 
  3 C        2.7520     0.4790    -0.3120 C.2   1 <1>   0.2030 
  4 C        2.2820    -1.6760    -0.2160 C.2   1 <1>  -0.3020 
  5 N        3.7940    -0.1090     0.2640 N.2   1 <1>  -0.7070 
  6 C        2.6550     1.9040    -0.5670 C.2   1 <1>   0.7160 
  7 N        3.4920    -1.4170     0.3140 N.pl3 1 <1>   0.3140 
  8 O        1.6840     2.4170    -1.0980 O.2   1 <1>  -0.5700 
  9 N        3.7120     2.6840    -0.1840 N.am  1 <1>  -0.4930 
 10 C        4.4090    -2.4090     0.8910 C.3   1 <1>   0.0160 
 11 C        3.9170     4.0820    -0.2930 C.2   1 <1>   0.0630 
 12 C        3.0830     5.0640    -0.8290 C.2   1 <1>   0.1390 
 13 C        5.0090     4.7570     0.1210 C.2   1 <1>  -0.3020 
 14 N        3.6080     6.2520    -0.7570 N.2   1 <1>  -0.7070 
 15 N        4.8070     6.0640    -0.1660 N.pl3 1 <1>   0.3140 
 16 C        5.7610     7.1750     0.1190 C.3   1 <1>   0.1760 
 17 C        5.1360     8.1920     1.0850 C.3   1 <1>  -0.2400 
 18 C        6.2010     7.8600    -1.1830 C.3   1 <1>  -0.2400 
 19 H        1.8480    -2.6560    -0.2760 H     1 <1>   0.1500 
 20 H        4.4620     2.1410     0.2480 H     1 <1>   0.3700 
 21 H        4.6690    -3.1300     0.1390 H     1 <1>   0.0800 
 22 H        3.9280    -2.8980     1.7170 H     1 <1>   0.0800 
 23 H        5.2970    -1.9120     1.2350 H     1 <1>   0.0800 
 24 H        2.1140     4.8680    -1.2560 H     1 <1>   0.1500 
 25 H        5.8990     4.3910     0.5930 H     1 <1>   0.1500 
 26 H        6.6270     6.7460     0.5890 H     1 <1>   0.0800 
 27 H        4.2660     8.6440     0.6390 H     1 <1>   0.0800 
 28 H        5.8430     8.9670     1.3190 H     1 <1>   0.0800 
 29 H        4.8460     7.7050     1.9990 H     1 <1>   0.0800 
 30 H        5.3540     8.3040    -1.6750 H     1 <1>   0.0800 
 31 H        6.6520     7.1410    -1.8440 H     1 <1>   0.0800 
 32 H        6.9210     8.6300    -0.9740 H     1 <1>   0.0800 
@<TRIPOS>BOND
  1   1   2  1   
  2   2   3  1   
  3   2   4  2   
  4   3   5  2   
  5   3   6  1   
  6   4   7  1   
  7   4  19  1   
  8   5   7  1   
  9   6   8  2   
 10   6   9  am  
 11   7  10  1   
 12   9  11  1   
 13   9  20  1   
 14  10  21  1   
 15  10  22  1   
 16  10  23  1   
 17  11  12  1   
 18  11  13  2   
 19  12  14  2   
 20  12  24  1   
 21  13  15  1   
 22  13  25  1   
 23  14  15  1   
 24  15  16  1   
 25  16  17  1   
 26  16  18  1   
 27  16  26  1   
 28  17  27  1   
 29  17  28  1   
 30  17  29  1   
 31  18  30  1   
 32  18  31  1   
 33  18  32  1   
@<TRIPOS>SUBSTRUCTURE
  1 ****   9 GROUP 4 **** **** 0

# MOE 2024.06 (io_trps.svl 2023.06)
