@<TRIPOS>MOLECULE
NONAME
43 46 1 0 0 
SMALL
USER_CHARGES


@<TRIPOS>ATOM
  1 S       -1.3920    -0.4200     1.6050 S.3   1 <1>  -0.0800 
  2 C       -1.6730    -1.2100     0.0570 C.2   1 <1>  -0.1400 
  3 C       -1.3820     1.1640     0.8520 C.2   1 <1>  -0.1100 
  4 C       -1.7380    -0.2900    -0.9260 C.2   1 <1>  -0.1500 
  5 C       -1.7850    -2.7300     0.0660 C.3   1 <1>   0.3800 
  6 C       -1.5760     1.0590    -0.4750 C.2   1 <1>  -0.1500 
  7 O       -1.9370    -3.1560    -1.2410 O.3   1 <1>  -0.6800 
  8 C       -2.9740    -3.2430     0.9130 C.3   1 <1>  -0.0800 
  9 C       -3.0560    -4.7850     0.9220 C.3   1 <1>  -0.1600 
 10 C       -4.3350    -2.6470     0.4860 C.3   1 <1>  -0.1600 
 11 C       -4.2120    -5.2920     1.7880 C.3   1 <1>   0.2090 
 12 C       -5.4760    -3.1610     1.3670 C.3   1 <1>   0.2090 
 13 N       -5.4730    -4.6440     1.3480 N.pl3 1 <1>  -0.8220 
 14 C       -6.5040    -5.3790     0.7850 C.2   1 <1>   0.5620 
 15 O       -7.5730    -4.8100     0.3000 O.3   1 <1>  -0.0190 
 16 N       -6.5580    -6.6500     0.6620 N.2   1 <1>  -0.5650 
 17 N       -8.3700    -5.7080    -0.1640 N.2   1 <1>  -0.4100 
 18 C       -7.7550    -6.8190     0.0570 C.2   1 <1>   0.4620 
 19 C       -8.2620    -8.1370    -0.2940 C.ar  1 <1>   0.0540 
 20 C       -9.5050    -8.2950    -0.9130 C.ar  1 <1>  -0.1500 
 21 C       -7.5350    -9.3000    -0.0300 C.ar  1 <1>  -0.1500 
 22 C       -9.9950    -9.5430    -1.2500 C.ar  1 <1>  -0.1500 
 23 C       -8.0180   -10.5520    -0.3640 C.ar  1 <1>  -0.1500 
 24 C       -9.2520   -10.6760    -0.9760 C.ar  1 <1>  -0.1500 
 25 H       -1.2290     2.0160     1.4900 H     1 <1>   0.1500 
 26 H       -1.8890    -0.5010    -1.9710 H     1 <1>   0.1500 
 27 H       -0.8640    -3.1510     0.4330 H     1 <1>   0.0800 
 28 H       -1.6100     1.8810    -1.1690 H     1 <1>   0.1500 
 29 H       -2.7580    -2.7730    -1.5940 H     1 <1>   0.4000 
 30 H       -2.7910    -2.9320     1.9260 H     1 <1>   0.0800 
 31 H       -2.1350    -5.1980     1.2930 H     1 <1>   0.0800 
 32 H       -3.1990    -5.1570    -0.0780 H     1 <1>   0.0800 
 33 H       -4.5550    -2.9080    -0.5340 H     1 <1>   0.0800 
 34 H       -4.3090    -1.5740     0.5550 H     1 <1>   0.0800 
 35 H       -4.0340    -5.0480     2.8220 H     1 <1>   0.0800 
 36 H       -4.2830    -6.3640     1.7070 H     1 <1>   0.0800 
 37 H       -6.4150    -2.7730     1.0110 H     1 <1>   0.0800 
 38 H       -5.3390    -2.8230     2.3810 H     1 <1>   0.0800 
 39 H      -10.0980    -7.4250    -1.1340 H     1 <1>   0.1500 
 40 H       -6.5730    -9.2240     0.4460 H     1 <1>   0.1500 
 41 H      -10.9560    -9.6340    -1.7270 H     1 <1>   0.1500 
 42 H       -7.4350   -11.4300    -0.1480 H     1 <1>   0.1500 
 43 H       -9.6310   -11.6490    -1.2370 H     1 <1>   0.1500 
@<TRIPOS>BOND
  1   1   2  1   
  2   1   3  1   
  3   2   4  2   
  4   2   5  1   
  5   3   6  2   
  6   3  25  1   
  7   4   6  1   
  8   4  26  1   
  9   5   7  1   
 10   5   8  1   
 11   5  27  1   
 12   6  28  1   
 13   7  29  1   
 14   8   9  1   
 15   8  10  1   
 16   8  30  1   
 17   9  11  1   
 18   9  31  1   
 19   9  32  1   
 20  10  12  1   
 21  10  33  1   
 22  10  34  1   
 23  11  13  1   
 24  11  35  1   
 25  11  36  1   
 26  12  13  1   
 27  12  37  1   
 28  12  38  1   
 29  13  14  1   
 30  14  15  1   
 31  14  16  2   
 32  15  17  1   
 33  16  18  1   
 34  17  18  2   
 35  18  19  1   
 36  19  20  ar  
 37  19  21  ar  
 38  20  22  ar  
 39  20  39  1   
 40  21  23  ar  
 41  21  40  1   
 42  22  24  ar  
 43  22  41  1   
 44  23  24  ar  
 45  23  42  1   
 46  24  43  1   
@<TRIPOS>SUBSTRUCTURE
  1 ****  13 GROUP 4 **** **** 0

# MOE 2024.06 (io_trps.svl 2023.06)
