@<TRIPOS>MOLECULE
NONAME
41 43 1 0 0 
SMALL
USER_CHARGES


@<TRIPOS>ATOM
  1 O        3.3430    -0.6060     1.2150 O.2   1 <1>  -0.5700 
  2 C        2.2770    -0.8860     0.6990 C.2   1 <1>   0.5440 
  3 N        1.5440     0.1240     0.1230 N.am  1 <1>  -0.4940 
  4 C        1.8060    -2.2660     0.6980 C.ar  1 <1>   0.0860 
  5 C        1.7660     1.5190     0.0230 C.2   1 <1>  -0.0880 
  6 C        0.5060    -2.6650     0.3380 C.ar  1 <1>   0.0830 
  7 C        2.6940    -3.2830     1.0740 C.ar  1 <1>  -0.1500 
  8 N        2.9280     2.1750    -0.2660 N.pl3 1 <1>   0.3140 
  9 C        0.8200     2.4760     0.1670 C.2   1 <1>  -0.1500 
 10 O       -0.4170    -1.7440    -0.0570 O.3   1 <1>  -0.3630 
 11 C        0.1390    -4.0160     0.3790 C.ar  1 <1>   0.0830 
 12 C        2.3330    -4.6160     1.0980 C.ar  1 <1>  -0.1500 
 13 N        2.7290     3.5170    -0.3200 N.2   1 <1>  -0.7070 
 14 C        4.2430     1.6130    -0.6440 C.3   1 <1>   0.0960 
 15 C        1.4750     3.6800    -0.0500 C.2   1 <1>   0.1080 
 16 C       -1.6040    -2.1920    -0.6840 C.3   1 <1>   0.1200 
 17 O       -1.1180    -4.4240     0.0660 O.3   1 <1>  -0.3630 
 18 C        1.0490    -4.9850     0.7490 C.ar  1 <1>  -0.1500 
 19 C        5.3010     1.8910     0.4360 C.3   1 <1>  -0.1600 
 20 C        0.8360     5.0470     0.0060 C.3   1 <1>  -0.0590 
 21 C       -2.1300    -3.4410     0.0270 C.3   1 <1>   0.1200 
 22 C        6.6540     1.2740     0.0640 C.3   1 <1>  -0.2400 
 23 H        0.6000    -0.1810    -0.1310 H     1 <1>   0.3700 
 24 H        3.7010    -3.0210     1.3560 H     1 <1>   0.1500 
 25 H       -0.2200     2.3540     0.4000 H     1 <1>   0.1500 
 26 H        3.0470    -5.3670     1.3900 H     1 <1>   0.1500 
 27 H        4.5420     2.0710    -1.5680 H     1 <1>   0.0800 
 28 H        4.1410     0.5590    -0.8100 H     1 <1>   0.0800 
 29 H       -1.3790    -2.4150    -1.7130 H     1 <1>   0.0800 
 30 H       -2.3260    -1.3970    -0.6440 H     1 <1>   0.0800 
 31 H        0.7490    -6.0180     0.7660 H     1 <1>   0.1500 
 32 H        4.9690     1.4780     1.3730 H     1 <1>   0.0800 
 33 H        5.4130     2.9550     0.5550 H     1 <1>   0.0800 
 34 H       -0.2070     4.9660     0.2500 H     1 <1>   0.0800 
 35 H        0.9420     5.5300    -0.9470 H     1 <1>   0.0800 
 36 H        1.3290     5.6400     0.7540 H     1 <1>   0.0800 
 37 H       -2.9750    -3.8550    -0.4930 H     1 <1>   0.0800 
 38 H       -2.4130    -3.2090     1.0390 H     1 <1>   0.0800 
 39 H        6.5620     0.2060    -0.0330 H     1 <1>   0.0800 
 40 H        7.3750     1.4850     0.8340 H     1 <1>   0.0800 
 41 H        7.0130     1.6820    -0.8640 H     1 <1>   0.0800 
@<TRIPOS>BOND
  1   1   2  2   
  2   2   3  am  
  3   2   4  1   
  4   3   5  1   
  5   3  23  1   
  6   4   6  ar  
  7   4   7  ar  
  8   5   8  1   
  9   5   9  2   
 10   6  10  1   
 11   6  11  ar  
 12   7  12  ar  
 13   7  24  1   
 14   8  13  1   
 15   8  14  1   
 16   9  15  1   
 17   9  25  1   
 18  10  16  1   
 19  11  17  1   
 20  11  18  ar  
 21  12  18  ar  
 22  12  26  1   
 23  13  15  2   
 24  14  19  1   
 25  14  27  1   
 26  14  28  1   
 27  15  20  1   
 28  16  21  1   
 29  16  29  1   
 30  16  30  1   
 31  17  21  1   
 32  18  31  1   
 33  19  22  1   
 34  19  32  1   
 35  19  33  1   
 36  20  34  1   
 37  20  35  1   
 38  20  36  1   
 39  21  37  1   
 40  21  38  1   
 41  22  39  1   
 42  22  40  1   
 43  22  41  1   
@<TRIPOS>SUBSTRUCTURE
  1 ****   3 GROUP 4 **** **** 0

# MOE 2024.06 (io_trps.svl 2023.06)
