@<TRIPOS>MOLECULE
NONAME
55 58 1 0 0 
SMALL
USER_CHARGES


@<TRIPOS>ATOM
  1 S        0.1630    -0.1470    -0.1490 S.3   1 <1>  -0.0800 
  2 C        0.0050     1.5510     0.2480 C.2   1 <1>  -0.1400 
  3 C        1.7630     0.1390    -0.8180 C.2   1 <1>  -0.1100 
  4 C        1.0950     2.2490    -0.0960 C.2   1 <1>  -0.1810 
  5 C       -1.2290     2.1220     0.8910 C.3   1 <1>   0.0200 
  6 C        2.1050     1.4390    -0.7160 C.2   1 <1>  -0.1500 
  7 C        1.1850     3.7520     0.1750 C.3   1 <1>   0.4610 
  8 C       -1.1900     3.6440     0.6750 C.3   1 <1>   0.1200 
  9 O        0.0850     4.1680     0.9660 O.3   1 <1>  -0.5600 
 10 C        2.4340     4.0730     1.0040 C.3   1 <1>  -0.1600 
 11 C        1.1930     4.5560    -1.1330 C.3   1 <1>  -0.1600 
 12 C        2.5850     5.5800     1.2250 C.3   1 <1>   0.1400 
 13 C        1.3780     6.0510    -0.8710 C.3   1 <1>   0.1400 
 14 N        2.6420     6.2580    -0.1010 N.am  1 <1>  -0.6600 
 15 C        3.6910     6.9850    -0.6500 C.2   1 <1>   0.5690 
 16 O        3.5510     7.4660    -1.7590 O.2   1 <1>  -0.5700 
 17 C        5.0840     7.2420     0.0440 C.3   1 <1>   0.4300 
 18 N        6.0000     7.9310    -0.9270 N.pl3 1 <1>  -0.8690 
 19 C        5.8310     5.9400     0.3670 C.3   1 <1>  -0.2400 
 20 C        4.9270     8.1120     1.3070 C.3   1 <1>  -0.2400 
 21 C        6.6720     9.1130    -0.6420 C.ar  1 <1>   0.1000 
 22 C        7.8680     9.1050     0.0630 C.ar  1 <1>  -0.1500 
 23 C        6.1590    10.3280    -1.0740 C.ar  1 <1>  -0.1500 
 24 C        8.5290    10.2870     0.3450 C.ar  1 <1>  -0.1500 
 25 C        6.8180    11.5110    -0.7940 C.ar  1 <1>  -0.1500 
 26 C        8.0060    11.4990    -0.0790 C.ar  1 <1>  -0.1430 
 27 C        8.7310    12.7970     0.2290 C.3   1 <1>  -0.0970 
 28 H        2.2850    -0.7100    -1.2230 H     1 <1>   0.1500 
 29 H       -1.2350     1.8940     1.9420 H     1 <1>   0.0800 
 30 H       -2.1130     1.7120     0.4400 H     1 <1>   0.0800 
 31 H        3.0330     1.8620    -1.0570 H     1 <1>   0.1500 
 32 H       -1.9000     4.1290     1.3210 H     1 <1>   0.0800 
 33 H       -1.4330     3.8830    -0.3450 H     1 <1>   0.0800 
 34 H        3.3100     3.7090     0.5010 H     1 <1>   0.0800 
 35 H        2.3650     3.5670     1.9490 H     1 <1>   0.0800 
 36 H        0.2860     4.3850    -1.6800 H     1 <1>   0.0800 
 37 H        2.0030     4.2180    -1.7520 H     1 <1>   0.0800 
 38 H        3.4520     5.7690     1.8190 H     1 <1>   0.0800 
 39 H        1.7350     5.9530     1.7720 H     1 <1>   0.0800 
 40 H        0.5490     6.4320    -0.2990 H     1 <1>   0.0800 
 41 H        1.3960     6.5790    -1.8100 H     1 <1>   0.0800 
 42 H        5.4320     8.0190    -1.7850 H     1 <1>   0.4000 
 43 H        5.8930     5.3340    -0.5180 H     1 <1>   0.0800 
 44 H        5.3520     5.3690     1.1340 H     1 <1>   0.0800 
 45 H        6.8270     6.1630     0.7020 H     1 <1>   0.0800 
 46 H        4.5070     9.0660     1.0410 H     1 <1>   0.0800 
 47 H        5.8760     8.2660     1.7860 H     1 <1>   0.0800 
 48 H        4.2740     7.6620     2.0250 H     1 <1>   0.0800 
 49 H        8.2750     8.1650     0.3820 H     1 <1>   0.1500 
 50 H        5.2390    10.3400    -1.6280 H     1 <1>   0.1500 
 51 H        9.4540    10.2580     0.8930 H     1 <1>   0.1500 
 52 H        6.4030    12.4430    -1.1360 H     1 <1>   0.1500 
 53 H        9.2810    12.7110     1.1480 H     1 <1>   0.0800 
 54 H        8.0280    13.6040     0.3270 H     1 <1>   0.0800 
 55 H        9.4160    13.0260    -0.5670 H     1 <1>   0.0800 
@<TRIPOS>BOND
  1   1   2  1   
  2   1   3  1   
  3   2   4  2   
  4   2   5  1   
  5   3   6  2   
  6   3  28  1   
  7   4   6  1   
  8   4   7  1   
  9   5   8  1   
 10   5  29  1   
 11   5  30  1   
 12   6  31  1   
 13   7   9  1   
 14   7  10  1   
 15   7  11  1   
 16   8   9  1   
 17   8  32  1   
 18   8  33  1   
 19  10  12  1   
 20  10  34  1   
 21  10  35  1   
 22  11  13  1   
 23  11  36  1   
 24  11  37  1   
 25  12  14  1   
 26  12  38  1   
 27  12  39  1   
 28  13  14  1   
 29  13  40  1   
 30  13  41  1   
 31  14  15  am  
 32  15  16  2   
 33  15  17  1   
 34  17  18  1   
 35  17  19  1   
 36  17  20  1   
 37  18  21  1   
 38  18  42  1   
 39  19  43  1   
 40  19  44  1   
 41  19  45  1   
 42  20  46  1   
 43  20  47  1   
 44  20  48  1   
 45  21  22  ar  
 46  21  23  ar  
 47  22  24  ar  
 48  22  49  1   
 49  23  25  ar  
 50  23  50  1   
 51  24  26  ar  
 52  24  51  1   
 53  25  26  ar  
 54  25  52  1   
 55  26  27  1   
 56  27  53  1   
 57  27  54  1   
 58  27  55  1   
@<TRIPOS>SUBSTRUCTURE
  1 ****  14 GROUP 4 **** **** 0

# MOE 2024.06 (io_trps.svl 2023.06)
