@<TRIPOS>MOLECULE
NONAME
53 56 1 0 0 
SMALL
USER_CHARGES


@<TRIPOS>ATOM
  1 N        0.6130     0.2870     0.6160 N.ar  1 <1>  -0.6200 
  2 C       -0.4880     0.9380     1.0060 C.ar  1 <1>   0.7200 
  3 C        1.1630     0.7500    -0.4750 C.ar  1 <1>   0.1660 
  4 N       -1.0410     1.9890     0.3930 N.ar  1 <1>  -0.6200 
  5 N       -1.1000     0.4860     2.1550 N.pl3 1 <1>  -0.8380 
  6 C        0.6820     1.8120    -1.1740 C.ar  1 <1>  -0.1430 
  7 C        2.4210     0.1900    -1.0910 C.3   1 <1>   0.1430 
  8 C       -0.4530     2.4180    -0.6990 C.ar  1 <1>   0.1600 
  9 C       -1.0370    -0.9370     2.5840 C.3   1 <1>   0.1290 
 10 C       -2.0860     1.3260     2.8920 C.3   1 <1>   0.1290 
 11 C        1.5380     2.1210    -2.3770 C.3   1 <1>  -0.0160 
 12 C        3.4540     0.0010     0.0350 C.3   1 <1>   0.3430 
 13 C        2.1240    -1.1570    -1.7810 C.3   1 <1>  -0.1600 
 14 C        2.8130     1.2950    -2.1110 C.3   1 <1>  -0.1600 
 15 N        4.7120    -0.6810    -0.4430 N.4   1 <1>  -0.9590 
 16 C        3.4150    -1.8920    -2.1800 C.3   1 <1>  -0.1600 
 17 C        4.3820    -2.0320    -1.0010 C.3   1 <1>   0.3430 
 18 C        5.6980    -0.7440     0.6880 C.3   1 <1>   0.3430 
 19 C        7.0970    -1.1950     0.2450 C.3   1 <1>   0.0960 
 20 N        7.9800    -1.1730     1.4210 N.pl3 1 <1>   0.0480 
 21 C        8.7140    -0.1720     1.9210 C.2   1 <1>   0.0060 
 22 C        8.1860    -2.1570     2.2990 C.2   1 <1>   0.0360 
 23 N        9.2970    -0.5220     3.0120 N.2   1 <1>  -0.3380 
 24 C        8.8610     1.2070     1.3050 C.3   1 <1>  -0.0600 
 25 N        8.9600    -1.7890     3.2540 N.2   1 <1>  -0.3380 
 26 H       -0.8820     3.2620    -1.2120 H     1 <1>   0.1500 
 27 H       -0.6370    -1.5570     1.8000 H     1 <1>   0.0800 
 28 H       -2.0240    -1.2930     2.8220 H     1 <1>   0.0800 
 29 H       -0.4110    -1.0230     3.4540 H     1 <1>   0.0800 
 30 H       -1.8360     2.3690     2.7960 H     1 <1>   0.0800 
 31 H       -2.0810     1.0710     3.9370 H     1 <1>   0.0800 
 32 H       -3.0700     1.1650     2.4890 H     1 <1>   0.0800 
 33 H        1.7510     3.1730    -2.4560 H     1 <1>   0.0800 
 34 H        1.0390     1.7830    -3.2690 H     1 <1>   0.0800 
 35 H        2.9960    -0.5920     0.8110 H     1 <1>   0.0800 
 36 H        3.6850     0.9650     0.4570 H     1 <1>   0.0800 
 37 H        1.4990    -1.0030    -2.6450 H     1 <1>   0.0800 
 38 H        1.5680    -1.7800    -1.0980 H     1 <1>   0.0800 
 39 H        3.2130     0.9010    -3.0280 H     1 <1>   0.0800 
 40 H        3.5440     1.9520    -1.6720 H     1 <1>   0.0800 
 41 H        5.0920    -0.1050    -1.2080 H     1 <1>   0.4500 
 42 H        3.9050    -1.3810    -2.9900 H     1 <1>   0.0800 
 43 H        3.1590    -2.8750    -2.5360 H     1 <1>   0.0800 
 44 H        3.9230    -2.6390    -0.2360 H     1 <1>   0.0800 
 45 H        5.2780    -2.5290    -1.3360 H     1 <1>   0.0800 
 46 H        5.3320    -1.4210     1.4440 H     1 <1>   0.0800 
 47 H        5.7850     0.2330     1.1350 H     1 <1>   0.0800 
 48 H        7.4950    -0.5290    -0.4990 H     1 <1>   0.0800 
 49 H        7.0760    -2.1960    -0.1440 H     1 <1>   0.0800 
 50 H        7.7530    -3.1380     2.2180 H     1 <1>   0.1500 
 51 H        9.2690     1.1310     0.3130 H     1 <1>   0.0800 
 52 H        9.5360     1.7950     1.9010 H     1 <1>   0.0800 
 53 H        7.9140     1.7110     1.2720 H     1 <1>   0.0800 
@<TRIPOS>BOND
  1   1   2  ar  
  2   1   3  ar  
  3   2   4  ar  
  4   2   5  1   
  5   3   6  ar  
  6   3   7  1   
  7   4   8  ar  
  8   5   9  1   
  9   5  10  1   
 10   6   8  ar  
 11   6  11  1   
 12   7  12  1   
 13   7  13  1   
 14   7  14  1   
 15   8  26  1   
 16   9  27  1   
 17   9  28  1   
 18   9  29  1   
 19  10  30  1   
 20  10  31  1   
 21  10  32  1   
 22  11  14  1   
 23  11  33  1   
 24  11  34  1   
 25  12  15  1   
 26  12  35  1   
 27  12  36  1   
 28  13  16  1   
 29  13  37  1   
 30  13  38  1   
 31  14  39  1   
 32  14  40  1   
 33  15  17  1   
 34  15  18  1   
 35  15  41  1   
 36  16  17  1   
 37  16  42  1   
 38  16  43  1   
 39  17  44  1   
 40  17  45  1   
 41  18  19  1   
 42  18  46  1   
 43  18  47  1   
 44  19  20  1   
 45  19  48  1   
 46  19  49  1   
 47  20  21  1   
 48  20  22  1   
 49  21  23  2   
 50  21  24  1   
 51  22  25  2   
 52  22  50  1   
 53  23  25  1   
 54  24  51  1   
 55  24  52  1   
 56  24  53  1   
@<TRIPOS>SUBSTRUCTURE
  1 ****  12 GROUP 4 **** **** 0

# MOE 2024.06 (io_trps.svl 2023.06)
