@<TRIPOS>MOLECULE
NONAME
57 60 1 0 0 
SMALL
USER_CHARGES


@<TRIPOS>ATOM
  1 O        0.3190     0.3060    -0.3520 O.2   1 <1>  -0.5700 
  2 C        0.3600     1.4570    -0.7210 C.2   1 <1>   0.5690 
  3 N       -0.7790     2.2260    -0.8880 N.am  1 <1>  -0.4770 
  4 C        1.7550     2.0350    -1.0150 C.3   1 <1>   0.2700 
  5 C       -2.0810     1.7360    -0.6800 C.ar  1 <1>   0.1170 
  6 C       -0.6610     3.6900    -1.1630 C.3   1 <1>   0.1400 
  7 N        1.8190     3.5300    -1.2430 N.pl3 1 <1>  -0.8380 
  8 C       -2.4470     1.1870     0.5420 C.ar  1 <1>  -0.1500 
  9 C       -3.0310     1.8020    -1.6950 C.ar  1 <1>  -0.1500 
 10 C        0.6050     4.0410    -1.9540 C.3   1 <1>   0.2090 
 11 C        2.7920     4.3410    -0.7460 C.ar  1 <1>   0.4100 
 12 C       -3.7390     0.7210     0.7550 C.ar  1 <1>   0.0830 
 13 C       -4.3210     1.3470    -1.4890 C.ar  1 <1>  -0.1500 
 14 N        2.4970     5.6120    -0.5530 N.ar  1 <1>  -0.6200 
 15 C        4.0760     3.8410    -0.4510 C.ar  1 <1>  -0.1500 
 16 O       -4.1580     0.1670     1.9210 O.3   1 <1>  -0.3630 
 17 C       -4.6740     0.8100    -0.2640 C.ar  1 <1>  -0.1500 
 18 C        3.4260     6.4170    -0.0550 C.ar  1 <1>   0.7710 
 19 C        5.0160     4.6750     0.0530 C.ar  1 <1>   0.2180 
 20 C       -3.2370    -0.1460     2.9430 C.3   1 <1>   0.0400 
 21 N        4.6560     5.9650     0.2430 N.ar  1 <1>  -0.1790 
 22 N        3.1330     7.7310     0.1520 N.pl3 1 <1>  -0.8380 
 23 C        6.4350     4.2400     0.4010 C.3   1 <1>  -0.0170 
 24 C        1.8060     8.3260    -0.2620 C.3   1 <1>   0.2090 
 25 C        4.0120     8.7830     0.7780 C.3   1 <1>   0.2090 
 26 C        7.4880     4.9580    -0.4550 C.3   1 <1>  -0.2400 
 27 C        1.1760     9.1430     0.8800 C.3   1 <1>   0.1200 
 28 C        3.2570     9.5670     1.8680 C.3   1 <1>   0.1200 
 29 O        2.0760    10.1020     1.3540 O.3   1 <1>  -0.5600 
 30 H        2.1340     1.5360    -1.8880 H     1 <1>   0.0800 
 31 H        2.3810     1.7670    -0.1840 H     1 <1>   0.0800 
 32 H       -0.6470     4.2180    -0.2260 H     1 <1>   0.0800 
 33 H       -1.5200     4.0260    -1.7150 H     1 <1>   0.0800 
 34 H       -1.7020     1.1310     1.3110 H     1 <1>   0.1500 
 35 H       -2.7590     2.2060    -2.6520 H     1 <1>   0.1500 
 36 H        0.6540     5.1070    -2.0930 H     1 <1>   0.0800 
 37 H        0.5500     3.5930    -2.9320 H     1 <1>   0.0800 
 38 H       -5.0490     1.4050    -2.2790 H     1 <1>   0.1500 
 39 H        4.2930     2.8080    -0.6460 H     1 <1>   0.1500 
 40 H       -5.6720     0.4500    -0.0910 H     1 <1>   0.1500 
 41 H       -3.7690    -0.6520     3.7290 H     1 <1>   0.0800 
 42 H       -2.8100     0.7660     3.3200 H     1 <1>   0.0800 
 43 H       -2.4750    -0.7910     2.5410 H     1 <1>   0.0800 
 44 H        5.3110     6.6510     0.5880 H     1 <1>   0.4570 
 45 H        6.5320     3.1790     0.2450 H     1 <1>   0.0800 
 46 H        6.6270     4.4270     1.4440 H     1 <1>   0.0800 
 47 H        1.1010     7.5720    -0.5630 H     1 <1>   0.0800 
 48 H        1.9590     8.9770    -1.1060 H     1 <1>   0.0800 
 49 H        4.3270     9.4800     0.0180 H     1 <1>   0.0800 
 50 H        4.8920     8.3560     1.2210 H     1 <1>   0.0800 
 51 H        7.3080     4.7800    -1.5010 H     1 <1>   0.0800 
 52 H        8.4680     4.5800    -0.2170 H     1 <1>   0.0800 
 53 H        7.4900     6.0190    -0.2770 H     1 <1>   0.0800 
 54 H        0.8890     8.5010     1.6950 H     1 <1>   0.0800 
 55 H        0.3020     9.6620     0.5260 H     1 <1>   0.0800 
 56 H        3.8570    10.3880     2.2210 H     1 <1>   0.0800 
 57 H        3.0140     8.9330     2.7040 H     1 <1>   0.0800 
@<TRIPOS>BOND
  1   1   2  2   
  2   2   3  am  
  3   2   4  1   
  4   3   5  1   
  5   3   6  1   
  6   4   7  1   
  7   4  30  1   
  8   4  31  1   
  9   5   8  ar  
 10   5   9  ar  
 11   6  10  1   
 12   6  32  1   
 13   6  33  1   
 14   7  10  1   
 15   7  11  1   
 16   8  12  ar  
 17   8  34  1   
 18   9  13  ar  
 19   9  35  1   
 20  10  36  1   
 21  10  37  1   
 22  11  14  ar  
 23  11  15  ar  
 24  12  16  1   
 25  12  17  ar  
 26  13  17  ar  
 27  13  38  1   
 28  14  18  ar  
 29  15  19  ar  
 30  15  39  1   
 31  16  20  1   
 32  17  40  1   
 33  18  21  ar  
 34  18  22  1   
 35  19  21  ar  
 36  19  23  1   
 37  20  41  1   
 38  20  42  1   
 39  20  43  1   
 40  21  44  1   
 41  22  24  1   
 42  22  25  1   
 43  23  26  1   
 44  23  45  1   
 45  23  46  1   
 46  24  27  1   
 47  24  47  1   
 48  24  48  1   
 49  25  28  1   
 50  25  49  1   
 51  25  50  1   
 52  26  51  1   
 53  26  52  1   
 54  26  53  1   
 55  27  29  1   
 56  27  54  1   
 57  27  55  1   
 58  28  29  1   
 59  28  56  1   
 60  28  57  1   
@<TRIPOS>SUBSTRUCTURE
  1 ****   7 GROUP 4 **** **** 0

# MOE 2024.06 (io_trps.svl 2023.06)
