@<TRIPOS>MOLECULE
NONAME
52 55 1 0 0 
SMALL
USER_CHARGES


@<TRIPOS>ATOM
  1 O        1.2910     2.6020    -1.9820 O.2   1 <1>  -0.5700 
  2 C        0.5520     3.5390    -1.7880 C.2   1 <1>   0.5690 
  3 N        0.0200     3.8460    -0.5630 N.am  1 <1>  -0.5090 
  4 C        0.1970     4.4340    -2.9680 C.3   1 <1>   0.1810 
  5 C       -0.8890     5.0270    -0.3910 C.3   1 <1>   0.3640 
  6 C        0.5190     3.2140     0.6850 C.3   1 <1>   0.0490 
  7 O        0.1000     5.7740    -2.5630 O.3   1 <1>  -0.5600 
  8 C       -2.3210     4.5550    -0.1350 C.ar  1 <1>  -0.1440 
  9 C       -0.8990     6.0270    -1.5860 C.3   1 <1>   0.2610 
 10 C        0.4230     1.7270     0.8240 C.3   1 <1>  -0.2000 
 11 C       -0.4290     2.6090     1.6770 C.3   1 <1>  -0.2000 
 12 C       -2.8590     3.4590    -0.7990 C.ar  1 <1>   0.1600 
 13 C       -3.1200     5.2320     0.7670 C.ar  1 <1>  -0.1500 
 14 C       -0.7710     7.4600    -1.0540 C.2   1 <1>   0.5690 
 15 N       -4.0930     3.0090    -0.6490 N.ar  1 <1>  -0.6200 
 16 C       -4.4070     4.7720     0.9410 C.ar  1 <1>  -0.1500 
 17 O       -1.5390     7.8490    -0.2060 O.2   1 <1>  -0.5700 
 18 N        0.2060     8.2670    -1.5360 N.am  1 <1>  -0.7300 
 19 C       -4.8380     3.6730     0.2190 C.ar  1 <1>   0.1600 
 20 C        0.4920     9.6420    -1.0890 C.3   1 <1>   0.3200 
 21 C        1.9850     9.7990    -0.8900 C.2   1 <1>  -0.0400 
 22 O        2.7880     9.7200    -1.9160 O.3   1 <1>  -0.0190 
 23 C        2.7310    10.0180     0.2030 C.2   1 <1>  -0.1500 
 24 N        4.0330     9.8750    -1.5690 N.2   1 <1>  -0.4100 
 25 C        4.0300    10.0560    -0.2960 C.2   1 <1>   0.1080 
 26 C        5.2780    10.2780     0.5370 C.3   1 <1>   0.0210 
 27 C        5.6850     8.9950     1.2750 C.3   1 <1>  -0.1600 
 28 C        6.9460     9.2030     2.1200 C.3   1 <1>  -0.2400 
 29 H       -0.7370     4.1280    -3.4040 H     1 <1>   0.0800 
 30 H        0.9720     4.3700    -3.7110 H     1 <1>   0.0800 
 31 H       -0.5540     5.5550     0.4850 H     1 <1>   0.0800 
 32 H        1.4130     3.6900     1.0540 H     1 <1>   0.1000 
 33 H       -1.8470     5.9630    -2.0900 H     1 <1>   0.0800 
 34 H       -0.0360     1.1660     0.0290 H     1 <1>   0.1000 
 35 H        1.2410     1.2000     1.2820 H     1 <1>   0.1000 
 36 H       -0.1950     2.6720     2.7240 H     1 <1>   0.1000 
 37 H       -1.4890     2.5790     1.4980 H     1 <1>   0.1000 
 38 H       -2.2450     2.9130    -1.4950 H     1 <1>   0.1500 
 39 H       -2.7660     6.0910     1.3140 H     1 <1>   0.1500 
 40 H       -5.0730     5.2600     1.6290 H     1 <1>   0.1500 
 41 H        0.8560     7.8800    -2.2300 H     1 <1>   0.3700 
 42 H       -5.8460     3.3240     0.3620 H     1 <1>   0.1500 
 43 H        0.1520    10.3400    -1.8350 H     1 <1>   0.0800 
 44 H       -0.0230     9.8460    -0.1660 H     1 <1>   0.0800 
 45 H        2.4370    10.1380     1.2300 H     1 <1>   0.1500 
 46 H        6.0780    10.5920    -0.1110 H     1 <1>   0.0800 
 47 H        5.0930    11.0660     1.2440 H     1 <1>   0.0800 
 48 H        4.8780     8.6750     1.9110 H     1 <1>   0.0800 
 49 H        5.8630     8.2160     0.5520 H     1 <1>   0.0800 
 50 H        6.7830     9.9640     2.8630 H     1 <1>   0.0800 
 51 H        7.7720     9.4980     1.4960 H     1 <1>   0.0800 
 52 H        7.2090     8.2880     2.6200 H     1 <1>   0.0800 
@<TRIPOS>BOND
  1   1   2  2   
  2   2   3  am  
  3   2   4  1   
  4   3   5  1   
  5   3   6  1   
  6   4   7  1   
  7   4  29  1   
  8   4  30  1   
  9   5   8  1   
 10   5   9  1   
 11   5  31  1   
 12   6  10  1   
 13   6  11  1   
 14   6  32  1   
 15   7   9  1   
 16   8  12  ar  
 17   8  13  ar  
 18   9  14  1   
 19   9  33  1   
 20  10  11  1   
 21  10  34  1   
 22  10  35  1   
 23  11  36  1   
 24  11  37  1   
 25  12  15  ar  
 26  12  38  1   
 27  13  16  ar  
 28  13  39  1   
 29  14  17  2   
 30  14  18  am  
 31  15  19  ar  
 32  16  19  ar  
 33  16  40  1   
 34  18  20  1   
 35  18  41  1   
 36  19  42  1   
 37  20  21  1   
 38  20  43  1   
 39  20  44  1   
 40  21  22  1   
 41  21  23  2   
 42  22  24  1   
 43  23  25  1   
 44  23  45  1   
 45  24  25  2   
 46  25  26  1   
 47  26  27  1   
 48  26  46  1   
 49  26  47  1   
 50  27  28  1   
 51  27  48  1   
 52  27  49  1   
 53  28  50  1   
 54  28  51  1   
 55  28  52  1   
@<TRIPOS>SUBSTRUCTURE
  1 ****   9 GROUP 4 **** **** 0

# MOE 2024.06 (io_trps.svl 2023.06)
