@<TRIPOS>MOLECULE
NONAME
52 54 1 0 0 
SMALL
USER_CHARGES


@<TRIPOS>ATOM
  1 O       -1.3900     0.9230    -1.2580 O.2   1 <1>  -0.5700 
  2 C       -0.8680     1.8920    -0.7590 C.2   1 <1>   0.5690 
  3 N       -1.5720     2.8770    -0.1050 N.am  1 <1>  -0.6600 
  4 C        0.6530     2.0010    -0.9030 C.3   1 <1>   0.1810 
  5 C       -0.8490     4.0550     0.4870 C.3   1 <1>   0.3640 
  6 C       -3.0060     2.7540     0.2900 C.3   1 <1>   0.2200 
  7 O        1.2440     2.8900     0.0120 O.3   1 <1>  -0.5600 
  8 C       -1.5700     5.3600     0.1310 C.ar  1 <1>  -0.1440 
  9 C        0.6260     4.1580     0.0320 C.3   1 <1>   0.2610 
 10 C       -3.2030     1.5570     1.2200 C.3   1 <1>  -0.2400 
 11 C       -3.9140     2.6810    -0.9380 C.3   1 <1>  -0.2400 
 12 C       -1.8870     5.6710    -1.1850 C.ar  1 <1>  -0.1500 
 13 C       -1.9080     6.2570     1.1340 C.ar  1 <1>  -0.1500 
 14 C        1.4130     5.1570     0.8960 C.2   1 <1>   0.5690 
 15 C       -2.5290     6.8570    -1.4920 C.ar  1 <1>  -0.1500 
 16 C       -2.5530     7.4430     0.8290 C.ar  1 <1>  -0.1500 
 17 O        1.0420     5.3770     2.0300 O.2   1 <1>  -0.5700 
 18 N        2.4870     5.8300     0.3700 N.am  1 <1>  -0.6600 
 19 C       -2.8640     7.7450    -0.4840 C.ar  1 <1>  -0.1500 
 20 C        2.9540     7.1040     0.9960 C.3   1 <1>   0.2840 
 21 C        3.1290     5.5200    -0.9380 C.3   1 <1>   0.0600 
 22 C        2.3420     8.2940     0.2670 C.ar  1 <1>   0.1670 
 23 N        3.1210     8.9560    -0.5800 N.ar  1 <1>  -0.6200 
 24 C        1.0130     8.6130     0.5070 C.ar  1 <1>  -0.1500 
 25 C        2.5500     9.9740    -1.2060 C.ar  1 <1>   0.1600 
 26 C        0.4320     9.6720    -0.1550 C.ar  1 <1>  -0.1500 
 27 C        1.2340    10.3670    -1.0340 C.ar  1 <1>  -0.1500 
 28 H        0.8940     2.3250    -1.8980 H     1 <1>   0.0800 
 29 H        1.0910     1.0330    -0.7410 H     1 <1>   0.0800 
 30 H       -0.8630     3.9290     1.5560 H     1 <1>   0.0800 
 31 H       -3.2930     3.6320     0.8440 H     1 <1>   0.0800 
 32 H        0.6340     4.5330    -0.9750 H     1 <1>   0.0800 
 33 H       -3.0230     0.6320     0.7030 H     1 <1>   0.0800 
 34 H       -4.2150     1.5430     1.5840 H     1 <1>   0.0800 
 35 H       -2.5400     1.6280     2.0630 H     1 <1>   0.0800 
 36 H       -3.7480     1.7750    -1.4920 H     1 <1>   0.0800 
 37 H       -3.7420     3.5260    -1.5780 H     1 <1>   0.0800 
 38 H       -4.9420     2.6970    -0.6280 H     1 <1>   0.0800 
 39 H       -1.6410     4.9850    -1.9770 H     1 <1>   0.1500 
 40 H       -1.6660     6.0390     2.1610 H     1 <1>   0.1500 
 41 H       -2.7710     7.0890    -2.5140 H     1 <1>   0.1500 
 42 H       -2.8120     8.1310     1.6160 H     1 <1>   0.1500 
 43 H       -3.3660     8.6660    -0.7230 H     1 <1>   0.1500 
 44 H        2.6740     7.1400     2.0340 H     1 <1>   0.0800 
 45 H        4.0270     7.1600     0.9470 H     1 <1>   0.0800 
 46 H        4.1890     5.6970    -0.8750 H     1 <1>   0.0800 
 47 H        2.7180     6.1560    -1.7040 H     1 <1>   0.0800 
 48 H        2.9770     4.4890    -1.2060 H     1 <1>   0.0800 
 49 H        0.4360     8.0290     1.2030 H     1 <1>   0.1500 
 50 H        3.1660    10.5260    -1.8950 H     1 <1>   0.1500 
 51 H       -0.5980     9.9380     0.0080 H     1 <1>   0.1500 
 52 H        0.8440    11.2040    -1.5830 H     1 <1>   0.1500 
@<TRIPOS>BOND
  1   1   2  2   
  2   2   3  am  
  3   2   4  1   
  4   3   5  1   
  5   3   6  1   
  6   4   7  1   
  7   4  28  1   
  8   4  29  1   
  9   5   8  1   
 10   5   9  1   
 11   5  30  1   
 12   6  10  1   
 13   6  11  1   
 14   6  31  1   
 15   7   9  1   
 16   8  12  ar  
 17   8  13  ar  
 18   9  14  1   
 19   9  32  1   
 20  10  33  1   
 21  10  34  1   
 22  10  35  1   
 23  11  36  1   
 24  11  37  1   
 25  11  38  1   
 26  12  15  ar  
 27  12  39  1   
 28  13  16  ar  
 29  13  40  1   
 30  14  17  2   
 31  14  18  am  
 32  15  19  ar  
 33  15  41  1   
 34  16  19  ar  
 35  16  42  1   
 36  18  20  1   
 37  18  21  1   
 38  19  43  1   
 39  20  22  1   
 40  20  44  1   
 41  20  45  1   
 42  21  46  1   
 43  21  47  1   
 44  21  48  1   
 45  22  23  ar  
 46  22  24  ar  
 47  23  25  ar  
 48  24  26  ar  
 49  24  49  1   
 50  25  27  ar  
 51  25  50  1   
 52  26  27  ar  
 53  26  51  1   
 54  27  52  1   
@<TRIPOS>SUBSTRUCTURE
  1 ****   8 GROUP 4 **** **** 0

# MOE 2024.06 (io_trps.svl 2023.06)
