@<TRIPOS>MOLECULE
NONAME
42 44 1 0 0 
SMALL
USER_CHARGES


@<TRIPOS>ATOM
  1 O        3.4750    -2.1710     1.6670 O.2   1 <1>  -0.5700 
  2 C        2.6480    -1.2900     1.6460 C.2   1 <1>   0.5690 
  3 N        3.0350     0.0290     1.5310 N.am  1 <1>  -0.6600 
  4 C        1.1970    -1.7250     1.6680 C.3   1 <1>   0.0440 
  5 C        4.4970     0.2910     1.2660 C.3   1 <1>   0.2200 
  6 C        2.0810     1.1650     1.3030 C.3   1 <1>   0.1400 
  7 C        0.7350    -2.0580     0.2560 C.ar  1 <1>   0.1660 
  8 C        5.0010     1.6570     1.7610 C.3   1 <1>   0.1200 
  9 C        4.7860     0.0870    -0.2390 C.3   1 <1>   0.3430 
 10 C        2.5190     2.1660     0.2130 C.3   1 <1>  -0.0800 
 11 N        0.7960    -1.0890    -0.6560 N.ar  1 <1>  -0.6200 
 12 C        0.2680    -3.3370    -0.0090 C.ar  1 <1>  -0.1500 
 13 O        4.8080     2.6430     0.7920 O.3   1 <1>  -0.5600 
 14 N        3.5530     0.2050    -1.1040 N.4   1 <1>  -0.9590 
 15 C        3.5350     3.1880     0.7420 C.3   1 <1>   0.1200 
 16 C        2.9540     1.5760    -1.1490 C.3   1 <1>   0.3430 
 17 C        0.3320    -1.4090    -1.8570 C.ar  1 <1>   0.1600 
 18 C       -0.1860    -3.6560    -1.2700 C.ar  1 <1>  -0.1500 
 19 C        3.8010    -0.3400    -2.4650 C.3   1 <1>   0.2630 
 20 C       -0.1560    -2.6530    -2.2120 C.ar  1 <1>  -0.1500 
 21 H        1.1220    -2.5940     2.2950 H     1 <1>   0.0800 
 22 H        0.5690    -0.9730     2.1000 H     1 <1>   0.0800 
 23 H        5.0760    -0.4350     1.8120 H     1 <1>   0.0800 
 24 H        1.1150     0.7900     1.0220 H     1 <1>   0.0800 
 25 H        1.9480     1.6890     2.2350 H     1 <1>   0.0800 
 26 H        6.0640     1.5970     1.9220 H     1 <1>   0.0800 
 27 H        4.5390     1.9440     2.6900 H     1 <1>   0.0800 
 28 H        5.1960    -0.9030    -0.3530 H     1 <1>   0.0800 
 29 H        5.5370     0.7900    -0.5590 H     1 <1>   0.0800 
 30 H        1.6440     2.7560     0.0040 H     1 <1>   0.0800 
 31 H        0.2530    -4.0880     0.7620 H     1 <1>   0.1500 
 32 H        2.8310    -0.3910    -0.6470 H     1 <1>   0.4500 
 33 H        3.2680     3.5520     1.7210 H     1 <1>   0.0800 
 34 H        3.5850     4.0330     0.0760 H     1 <1>   0.0800 
 35 H        3.6500     2.2550    -1.6130 H     1 <1>   0.0800 
 36 H        2.0780     1.5320    -1.7760 H     1 <1>   0.0800 
 37 H        0.3330    -0.6370    -2.6080 H     1 <1>   0.1500 
 38 H       -0.5550    -4.6410    -1.5040 H     1 <1>   0.1500 
 39 H        4.5480     0.2480    -2.9740 H     1 <1>   0.0800 
 40 H        2.8920    -0.3250    -3.0430 H     1 <1>   0.0800 
 41 H        4.1450    -1.3590    -2.3980 H     1 <1>   0.0800 
 42 H       -0.5110    -2.8350    -3.2110 H     1 <1>   0.1500 
@<TRIPOS>BOND
  1   1   2  2   
  2   2   3  am  
  3   2   4  1   
  4   3   5  1   
  5   3   6  1   
  6   4   7  1   
  7   4  21  1   
  8   4  22  1   
  9   5   8  1   
 10   5   9  1   
 11   5  23  1   
 12   6  10  1   
 13   6  24  1   
 14   6  25  1   
 15   7  11  ar  
 16   7  12  ar  
 17   8  13  1   
 18   8  26  1   
 19   8  27  1   
 20   9  14  1   
 21   9  28  1   
 22   9  29  1   
 23  10  15  1   
 24  10  16  1   
 25  10  30  1   
 26  11  17  ar  
 27  12  18  ar  
 28  12  31  1   
 29  13  15  1   
 30  14  16  1   
 31  14  19  1   
 32  14  32  1   
 33  15  33  1   
 34  15  34  1   
 35  16  35  1   
 36  16  36  1   
 37  17  20  ar  
 38  17  37  1   
 39  18  20  ar  
 40  18  38  1   
 41  19  39  1   
 42  19  40  1   
 43  19  41  1   
 44  20  42  1   
@<TRIPOS>SUBSTRUCTURE
  1 ****   3 GROUP 4 **** **** 0

# MOE 2024.06 (io_trps.svl 2023.06)
