@<TRIPOS>MOLECULE
NONAME
47 50 1 0 0 
SMALL
USER_CHARGES


@<TRIPOS>ATOM
  1 F       -2.8380    -0.1510    -1.1120 F     1 <1>  -0.1900 
  2 C       -2.7330     0.5590    -0.0200 C.ar  1 <1>   0.1900 
  3 C       -2.7320    -0.1080     1.2020 C.ar  1 <1>   0.0860 
  4 C       -2.6440     1.9410    -0.1410 C.ar  1 <1>  -0.1440 
  5 C       -2.6430     0.7060     2.3250 C.ar  1 <1>   0.1900 
  6 C       -2.8180    -1.5420     1.2950 C.2   1 <1>   0.5440 
  7 C       -2.5510     2.7030     1.0150 C.ar  1 <1>  -0.1500 
  8 C       -2.6460     2.6150    -1.5060 C.3   1 <1>  -0.0970 
  9 F       -2.6580     0.1620     3.5100 F     1 <1>  -0.1900 
 10 C       -2.5510     2.0850     2.2550 C.ar  1 <1>  -0.1500 
 11 O       -1.8010    -2.1850     1.4680 O.2   1 <1>  -0.5700 
 12 N       -4.0200    -2.2080     1.1750 N.am  1 <1>  -0.6600 
 13 C       -4.1100    -3.7030     1.1940 C.3   1 <1>   0.1400 
 14 C       -5.3120    -1.5710     0.7770 C.3   1 <1>   0.1400 
 15 C       -4.7110    -4.2290    -0.1230 C.3   1 <1>   0.3440 
 16 C       -5.8360    -2.1940    -0.5370 C.3   1 <1>   0.2950 
 17 O       -5.9290    -3.5830    -0.3980 O.3   1 <1>  -0.5600 
 18 C       -4.9360    -5.7370    -0.0460 C.ar  1 <1>  -0.1440 
 19 C       -7.2250    -1.6960    -0.9760 C.3   1 <1>  -0.1950 
 20 C       -6.1290    -6.2700     0.4260 C.ar  1 <1>  -0.1500 
 21 C       -3.9240    -6.6010    -0.4420 C.ar  1 <1>  -0.1500 
 22 C       -7.7310    -0.3080    -0.7200 C.3   1 <1>  -0.2000 
 23 C       -8.3720    -1.4850    -0.0370 C.3   1 <1>  -0.2000 
 24 C       -6.3060    -7.6400     0.5010 C.ar  1 <1>  -0.1500 
 25 C       -4.1000    -7.9720    -0.3680 C.ar  1 <1>  -0.1500 
 26 C       -5.2920    -8.4930     0.1040 C.ar  1 <1>  -0.1500 
 27 H       -2.4770     3.7770     0.9580 H     1 <1>   0.1500 
 28 H       -2.5510     3.6820    -1.4120 H     1 <1>   0.0800 
 29 H       -3.5640     2.3990    -2.0230 H     1 <1>   0.0800 
 30 H       -1.8240     2.2510    -2.0960 H     1 <1>   0.0800 
 31 H       -2.4800     2.6630     3.1590 H     1 <1>   0.1500 
 32 H       -3.1400    -4.1460     1.3380 H     1 <1>   0.0800 
 33 H       -4.7330    -4.0110     2.0140 H     1 <1>   0.0800 
 34 H       -6.0310    -1.7280     1.5610 H     1 <1>   0.0800 
 35 H       -5.1930    -0.5130     0.6450 H     1 <1>   0.0800 
 36 H       -4.0350    -4.0160    -0.9340 H     1 <1>   0.0800 
 37 H       -5.1350    -1.9840    -1.3270 H     1 <1>   0.0800 
 38 H       -7.4730    -2.1130    -1.9370 H     1 <1>   0.1000 
 39 H       -6.9250    -5.6140     0.7340 H     1 <1>   0.1500 
 40 H       -2.9910    -6.2100    -0.8100 H     1 <1>   0.1500 
 41 H       -7.1750     0.3840    -0.1130 H     1 <1>   0.1000 
 42 H       -8.2790     0.1900    -1.5020 H     1 <1>   0.1000 
 43 H       -9.3500    -1.8040    -0.3540 H     1 <1>   0.1000 
 44 H       -8.2260    -1.6200     1.0200 H     1 <1>   0.1000 
 45 H       -7.2350    -8.0410     0.8670 H     1 <1>   0.1500 
 46 H       -3.3100    -8.6330    -0.6770 H     1 <1>   0.1500 
 47 H       -5.4300    -9.5580     0.1620 H     1 <1>   0.1500 
@<TRIPOS>BOND
  1   1   2  1   
  2   2   3  ar  
  3   2   4  ar  
  4   3   5  ar  
  5   3   6  1   
  6   4   7  ar  
  7   4   8  1   
  8   5   9  1   
  9   5  10  ar  
 10   6  11  2   
 11   6  12  am  
 12   7  10  ar  
 13   7  27  1   
 14   8  28  1   
 15   8  29  1   
 16   8  30  1   
 17  10  31  1   
 18  12  13  1   
 19  12  14  1   
 20  13  15  1   
 21  13  32  1   
 22  13  33  1   
 23  14  16  1   
 24  14  34  1   
 25  14  35  1   
 26  15  17  1   
 27  15  18  1   
 28  15  36  1   
 29  16  17  1   
 30  16  19  1   
 31  16  37  1   
 32  18  20  ar  
 33  18  21  ar  
 34  19  22  1   
 35  19  23  1   
 36  19  38  1   
 37  20  24  ar  
 38  20  39  1   
 39  21  25  ar  
 40  21  40  1   
 41  22  23  1   
 42  22  41  1   
 43  22  42  1   
 44  23  43  1   
 45  23  44  1   
 46  24  26  ar  
 47  24  45  1   
 48  25  26  ar  
 49  25  46  1   
 50  26  47  1   
@<TRIPOS>SUBSTRUCTURE
  1 ****  12 GROUP 4 **** **** 0

# MOE 2024.06 (io_trps.svl 2023.06)
