@<TRIPOS>MOLECULE
NONAME
38 39 1 0 0 
SMALL
USER_CHARGES


@<TRIPOS>ATOM
  1 O       -0.8120    -0.6420     0.4250 O.2   1 <1>  -0.5700 
  2 C       -1.3410    -1.7210     0.5540 C.2   1 <1>   0.5690 
  3 N       -0.7150    -2.8990     0.7590 N.am  1 <1>  -0.6600 
  4 C       -2.8320    -1.9140     0.5050 C.3   1 <1>  -0.0990 
  5 C       -1.6680    -4.0190     0.9060 C.3   1 <1>   0.1400 
  6 C        0.7310    -3.1110     0.9480 C.3   1 <1>   0.1400 
  7 C       -2.9930    -3.4420     0.3770 C.3   1 <1>  -0.0800 
  8 C        1.3080    -3.8030    -0.2830 C.3   1 <1>  -0.2400 
  9 C       -3.2280    -3.8370    -1.0910 C.3   1 <1>   0.2090 
 10 N       -3.3920    -5.3030    -1.2330 N.pl3 1 <1>  -0.8380 
 11 C       -4.4120    -5.9670    -0.5820 C.ar  1 <1>   0.4100 
 12 C       -2.3840    -6.0540    -2.0270 C.3   1 <1>   0.1290 
 13 N       -5.6340    -5.5600    -0.9250 N.ar  1 <1>  -0.6200 
 14 C       -4.1650    -6.9700     0.3670 C.ar  1 <1>  -0.1790 
 15 C       -6.6410    -6.1870    -0.3500 C.ar  1 <1>   0.1600 
 16 C       -2.8290    -7.3160     0.7690 C.2   1 <1>   0.9790 
 17 C       -5.2510    -7.6070     0.9480 C.ar  1 <1>  -0.1500 
 18 C       -6.5130    -7.2050     0.5750 C.ar  1 <1>  -0.1500 
 19 O       -2.1550    -8.1460     0.1300 O.co2 1 <1>  -0.9000 
 20 O       -2.3420    -6.8340     1.8090 O.co2 1 <1>  -0.9000 
 21 H       -3.2640    -1.3750    -0.3170 H     1 <1>   0.0800 
 22 H       -3.2510    -1.5670     1.4310 H     1 <1>   0.0800 
 23 H       -1.7600    -4.2850     1.9460 H     1 <1>   0.0800 
 24 H       -1.3470    -4.8860     0.3570 H     1 <1>   0.0800 
 25 H        0.8900    -3.7140     1.8260 H     1 <1>   0.0800 
 26 H        1.2140    -2.1590     1.0920 H     1 <1>   0.0800 
 27 H       -3.8200    -3.7910     0.9700 H     1 <1>   0.0800 
 28 H        0.8690    -4.7780    -0.4040 H     1 <1>   0.0800 
 29 H        2.3700    -3.9210    -0.1670 H     1 <1>   0.0800 
 30 H        1.1200    -3.2110    -1.1600 H     1 <1>   0.0800 
 31 H       -2.4000    -3.5060    -1.6940 H     1 <1>   0.0800 
 32 H       -4.1220    -3.3600    -1.4550 H     1 <1>   0.0800 
 33 H       -2.2580    -5.5960    -2.9900 H     1 <1>   0.0800 
 34 H       -2.7120    -7.0710    -2.1660 H     1 <1>   0.0800 
 35 H       -1.4420    -6.0720    -1.5070 H     1 <1>   0.0800 
 36 H       -7.6290    -5.8720    -0.6330 H     1 <1>   0.1500 
 37 H       -5.0910    -8.3850     1.6740 H     1 <1>   0.1500 
 38 H       -7.3820    -7.6710     0.9990 H     1 <1>   0.1500 
@<TRIPOS>BOND
  1   1   2  2   
  2   2   3  am  
  3   2   4  1   
  4   3   5  1   
  5   3   6  1   
  6   4   7  1   
  7   4  21  1   
  8   4  22  1   
  9   5   7  1   
 10   5  23  1   
 11   5  24  1   
 12   6   8  1   
 13   6  25  1   
 14   6  26  1   
 15   7   9  1   
 16   7  27  1   
 17   8  28  1   
 18   8  29  1   
 19   8  30  1   
 20   9  10  1   
 21   9  31  1   
 22   9  32  1   
 23  10  11  1   
 24  10  12  1   
 25  11  13  ar  
 26  11  14  ar  
 27  12  33  1   
 28  12  34  1   
 29  12  35  1   
 30  13  15  ar  
 31  14  16  1   
 32  14  17  ar  
 33  15  18  ar  
 34  15  36  1   
 35  16  19  ar  
 36  16  20  ar  
 37  17  18  ar  
 38  17  37  1   
 39  18  38  1   
@<TRIPOS>SUBSTRUCTURE
  1 ****  10 GROUP 4 **** **** 0

# MOE 2024.06 (io_trps.svl 2023.06)
