@<TRIPOS>MOLECULE
NONAME
51 54 1 0 0 
SMALL
USER_CHARGES


@<TRIPOS>ATOM
  1 O       -0.9880     0.6090    -1.6080 O.co2 1 <1>  -0.9000 
  2 C       -1.4320     1.0480    -0.5410 C.2   1 <1>   0.9060 
  3 O       -2.2020     0.3720     0.1600 O.co2 1 <1>  -0.9000 
  4 C       -1.0280     2.4400    -0.0460 C.3   1 <1>  -0.1060 
  5 C       -2.3190     3.1650     0.3850 C.3   1 <1>   0.2000 
  6 C       -0.4710     3.2480    -1.2430 C.3   1 <1>   0.1100 
  7 C       -0.0310     2.2490     1.1440 C.3   1 <1>  -0.0170 
  8 O       -2.8360     2.5600     1.5160 O.3   1 <1>  -0.6800 
  9 C       -2.1510     4.6700     0.6500 C.3   1 <1>  -0.1600 
 10 N       -0.3260     4.7170    -1.0330 N.3   1 <1>  -0.8100 
 11 C        1.4580     2.2370     0.7990 C.ar  1 <1>  -0.1430 
 12 C       -0.7690     5.2170     0.2770 C.3   1 <1>   0.1100 
 13 C        1.0430     5.1360    -1.3850 C.3   1 <1>   0.2900 
 14 C        2.3150     3.1670     1.3700 C.ar  1 <1>  -0.1500 
 15 C        1.9760     1.2900    -0.0720 C.ar  1 <1>  -0.1500 
 16 C        1.2710     6.6310    -1.2250 C.2   1 <1>  -0.0400 
 17 C        3.6660     3.1620     1.0640 C.ar  1 <1>  -0.1500 
 18 C        3.3250     1.2840    -0.3820 C.ar  1 <1>  -0.1500 
 19 O        0.6400     7.4860    -1.9810 O.3   1 <1>  -0.0190 
 20 C        2.0590     7.3260    -0.3960 C.2   1 <1>  -0.1500 
 21 C        4.1710     2.2210     0.1840 C.ar  1 <1>  -0.1500 
 22 N        0.9610     8.7140    -1.7020 N.2   1 <1>  -0.4100 
 23 C        1.8280     8.6650    -0.7370 C.2   1 <1>   0.2350 
 24 C        2.4450     9.8240    -0.1220 C.ar  1 <1>   0.0540 
 25 C        2.0100    11.1160    -0.3870 C.ar  1 <1>  -0.1500 
 26 C        3.5060     9.7460     0.7700 C.ar  1 <1>  -0.1500 
 27 C        2.6150    12.2010     0.2180 C.ar  1 <1>   0.1600 
 28 C        4.0440    10.8930     1.3230 C.ar  1 <1>   0.1600 
 29 N        3.6230    12.1210     1.0700 N.ar  1 <1>  -0.6200 
 30 H       -3.0510     3.0390    -0.3960 H     1 <1>   0.0800 
 31 H       -1.1550     3.1210    -2.0660 H     1 <1>   0.0800 
 32 H        0.4550     2.8090    -1.5700 H     1 <1>   0.0800 
 33 H       -0.2050     3.0050     1.8850 H     1 <1>   0.0800 
 34 H       -0.2580     1.3220     1.6410 H     1 <1>   0.0800 
 35 H       -2.8250     1.5810     1.3070 H     1 <1>   0.4000 
 36 H       -2.8820     5.1950     0.0620 H     1 <1>   0.0800 
 37 H       -2.3430     4.8940     1.6830 H     1 <1>   0.0800 
 38 H       -0.0480     4.9520     1.0270 H     1 <1>   0.0800 
 39 H       -0.8280     6.2920     0.2490 H     1 <1>   0.0800 
 40 H        1.7460     4.6060    -0.7670 H     1 <1>   0.0800 
 41 H        1.2370     4.8670    -2.4090 H     1 <1>   0.0800 
 42 H        1.9310     3.8980     2.0580 H     1 <1>   0.1500 
 43 H        1.3250     0.5540    -0.5160 H     1 <1>   0.1500 
 44 H        4.3220     3.8850     1.5120 H     1 <1>   0.1500 
 45 H        3.7070     0.5450    -1.0640 H     1 <1>   0.1500 
 46 H        2.7190     6.9570     0.3640 H     1 <1>   0.1500 
 47 H        5.2190     2.2120    -0.0570 H     1 <1>   0.1500 
 48 H        1.1940    11.2750    -1.0690 H     1 <1>   0.1500 
 49 H        3.9240     8.7960     1.0390 H     1 <1>   0.1500 
 50 H        2.2510    13.1880    -0.0110 H     1 <1>   0.1500 
 51 H        4.8670    10.7990     2.0120 H     1 <1>   0.1500 
@<TRIPOS>BOND
  1   1   2  ar  
  2   2   3  ar  
  3   2   4  1   
  4   4   5  1   
  5   4   6  1   
  6   4   7  1   
  7   5   8  1   
  8   5   9  1   
  9   5  30  1   
 10   6  10  1   
 11   6  31  1   
 12   6  32  1   
 13   7  11  1   
 14   7  33  1   
 15   7  34  1   
 16   8  35  1   
 17   9  12  1   
 18   9  36  1   
 19   9  37  1   
 20  10  12  1   
 21  10  13  1   
 22  11  14  ar  
 23  11  15  ar  
 24  12  38  1   
 25  12  39  1   
 26  13  16  1   
 27  13  40  1   
 28  13  41  1   
 29  14  17  ar  
 30  14  42  1   
 31  15  18  ar  
 32  15  43  1   
 33  16  19  1   
 34  16  20  2   
 35  17  21  ar  
 36  17  44  1   
 37  18  21  ar  
 38  18  45  1   
 39  19  22  1   
 40  20  23  1   
 41  20  46  1   
 42  21  47  1   
 43  22  23  2   
 44  23  24  1   
 45  24  25  ar  
 46  24  26  ar  
 47  25  27  ar  
 48  25  48  1   
 49  26  28  ar  
 50  26  49  1   
 51  27  29  ar  
 52  27  50  1   
 53  28  29  ar  
 54  28  51  1   
@<TRIPOS>SUBSTRUCTURE
  1 ****  13 GROUP 4 **** **** 0

# MOE 2024.06 (io_trps.svl 2023.06)
