@<TRIPOS>MOLECULE
NONAME
39 40 1 0 0 
SMALL
USER_CHARGES


@<TRIPOS>ATOM
  1 O       -2.2620     1.2860     0.5590 O.3   1 <1>  -0.5600 
  2 C       -1.9180     1.5800    -0.7690 C.3   1 <1>   0.1200 
  3 C       -1.1360     1.3700     1.3930 C.3   1 <1>   0.1200 
  4 C       -0.3930     1.5590    -0.8350 C.3   1 <1>   0.2000 
  5 C       -0.0190     2.0140     0.5700 C.3   1 <1>   0.2890 
  6 O        0.0300     0.2460    -1.0430 O.3   1 <1>  -0.6800 
  7 N       -0.1040     3.5040     0.6790 N.pl3 1 <1>  -0.8690 
  8 C        0.8840     4.3770     0.3950 C.ar  1 <1>   0.4100 
  9 N        1.9920     3.8670    -0.0940 N.ar  1 <1>  -0.6200 
 10 C        0.7120     5.7680     0.6040 C.ar  1 <1>  -0.1440 
 11 C        2.9770     4.6900    -0.4100 C.ar  1 <1>   0.7710 
 12 C        1.7370     6.5940     0.2460 C.ar  1 <1>   0.2180 
 13 C       -0.6030     6.2600     1.2240 C.3   1 <1>  -0.0960 
 14 N        2.8560     6.0160    -0.2520 N.ar  1 <1>  -0.1790 
 15 N        4.1360     4.1840    -0.9180 N.pl3 1 <1>  -0.8380 
 16 C        1.7480     8.1150     0.3490 C.3   1 <1>  -0.0970 
 17 C        5.4250     4.9170    -1.1280 C.3   1 <1>   0.1290 
 18 C        4.2530     2.7280    -1.2720 C.3   1 <1>   0.1290 
 19 H       -2.3750     0.8660    -1.4330 H     1 <1>   0.0800 
 20 H       -2.2870     2.5660    -0.9880 H     1 <1>   0.0800 
 21 H       -1.3800     1.9360     2.2750 H     1 <1>   0.0800 
 22 H       -0.8650     0.3670     1.6720 H     1 <1>   0.0800 
 23 H        0.0240     2.1810    -1.6070 H     1 <1>   0.0800 
 24 H        0.9580     1.6720     0.8640 H     1 <1>   0.0800 
 25 H       -0.5570    -0.3660    -0.5550 H     1 <1>   0.4000 
 26 H       -1.0320     3.8350     0.9580 H     1 <1>   0.4000 
 27 H       -0.5550     7.2810     1.5500 H     1 <1>   0.0800 
 28 H       -0.8460     5.6690     2.0900 H     1 <1>   0.0800 
 29 H       -1.4030     6.1670     0.5100 H     1 <1>   0.0800 
 30 H        3.6550     6.5550    -0.5540 H     1 <1>   0.4570 
 31 H        0.7530     8.5200     0.3330 H     1 <1>   0.0800 
 32 H        2.2760     8.5490    -0.4810 H     1 <1>   0.0800 
 33 H        2.2280     8.4190     1.2630 H     1 <1>   0.0800 
 34 H        6.2490     4.3050    -0.7970 H     1 <1>   0.0800 
 35 H        5.4610     5.8360    -0.5720 H     1 <1>   0.0800 
 36 H        5.5600     5.1270    -2.1760 H     1 <1>   0.0800 
 37 H        4.8690     2.6050    -2.1470 H     1 <1>   0.0800 
 38 H        3.2910     2.2940    -1.4860 H     1 <1>   0.0800 
 39 H        4.6990     2.1880    -0.4530 H     1 <1>   0.0800 
@<TRIPOS>BOND
  1   1   2  1   
  2   1   3  1   
  3   2   4  1   
  4   2  19  1   
  5   2  20  1   
  6   3   5  1   
  7   3  21  1   
  8   3  22  1   
  9   4   5  1   
 10   4   6  1   
 11   4  23  1   
 12   5   7  1   
 13   5  24  1   
 14   6  25  1   
 15   7   8  1   
 16   7  26  1   
 17   8   9  ar  
 18   8  10  ar  
 19   9  11  ar  
 20  10  12  ar  
 21  10  13  1   
 22  11  14  ar  
 23  11  15  1   
 24  12  14  ar  
 25  12  16  1   
 26  13  27  1   
 27  13  28  1   
 28  13  29  1   
 29  14  30  1   
 30  15  17  1   
 31  15  18  1   
 32  16  31  1   
 33  16  32  1   
 34  16  33  1   
 35  17  34  1   
 36  17  35  1   
 37  17  36  1   
 38  18  37  1   
 39  18  38  1   
 40  18  39  1   
@<TRIPOS>SUBSTRUCTURE
  1 ****   8 GROUP 4 **** **** 0

# MOE 2024.06 (io_trps.svl 2023.06)
