@<TRIPOS>MOLECULE
NONAME
57 60 1 0 0 
SMALL
USER_CHARGES


@<TRIPOS>ATOM
  1 O       -0.0310    -0.4690     1.3650 O.2   1 <1>  -0.5700 
  2 C        1.0220    -0.8660     0.9170 C.2   1 <1>   0.5690 
  3 N        2.0340    -0.0250     0.5540 N.am  1 <1>  -0.4930 
  4 C        1.2420    -2.3800     0.7290 C.3   1 <1>   0.1710 
  5 C        2.0790     1.3920     0.6070 C.2   1 <1>   0.0630 
  6 N        0.0120    -3.1970     0.4960 N.3   1 <1>  -0.8100 
  7 C        3.0910     2.1770     0.1750 C.2   1 <1>  -0.3320 
  8 C        1.1260     2.2860     1.1000 C.2   1 <1>   0.1390 
  9 C       -0.7640    -2.7690    -0.6970 C.3   1 <1>   0.1100 
 10 C        0.2610    -4.6550     0.4740 C.3   1 <1>   0.1100 
 11 N        2.7160     3.4590     0.4170 N.pl3 1 <1>   0.3140 
 12 C        4.4190     1.7950    -0.4670 C.3   1 <1>  -0.0600 
 13 N        1.5040     3.5230     0.9870 N.2   1 <1>  -0.7070 
 14 C       -2.0960    -3.5470    -0.8260 C.3   1 <1>   0.3430 
 15 C       -1.0580    -5.4600     0.3470 C.3   1 <1>   0.3430 
 16 C        3.4770     4.6810     0.1240 C.3   1 <1>   0.0160 
 17 N       -2.2450    -4.5420     0.2930 N.4   1 <1>  -0.9590 
 18 C       -3.5610    -5.2370     0.4040 C.3   1 <1>   0.4230 
 19 C       -3.9010    -6.0710    -0.8400 C.3   1 <1>  -0.0170 
 20 C       -4.6690    -4.2210     0.6810 C.3   1 <1>  -0.1600 
 21 C       -5.3060    -6.6460    -0.7560 C.ar  1 <1>  -0.1440 
 22 C       -5.9610    -4.9580     1.0500 C.3   1 <1>  -0.0170 
 23 C       -6.2600    -6.1210     0.1110 C.ar  1 <1>  -0.1440 
 24 C       -5.6390    -7.7120    -1.5780 C.ar  1 <1>  -0.1500 
 25 C       -7.5300    -6.6750     0.1430 C.ar  1 <1>  -0.1500 
 26 C       -6.9090    -8.2580    -1.5400 C.ar  1 <1>  -0.1500 
 27 C       -7.8560    -7.7390    -0.6790 C.ar  1 <1>  -0.1500 
 28 H        2.8940    -0.4400     0.2050 H     1 <1>   0.3700 
 29 H        1.7230    -2.7380     1.6220 H     1 <1>   0.0800 
 30 H        1.9200    -2.5290    -0.0930 H     1 <1>   0.0800 
 31 H        0.1830     1.9920     1.5280 H     1 <1>   0.1500 
 32 H       -0.1780    -2.9110    -1.5890 H     1 <1>   0.0800 
 33 H       -0.9970    -1.7200    -0.6270 H     1 <1>   0.0800 
 34 H        0.7570    -4.9460     1.3850 H     1 <1>   0.0800 
 35 H        0.9130    -4.9060    -0.3460 H     1 <1>   0.0800 
 36 H        4.5020     0.7300    -0.5720 H     1 <1>   0.0800 
 37 H        5.2350     2.1410     0.1420 H     1 <1>   0.0800 
 38 H        4.4990     2.2400    -1.4430 H     1 <1>   0.0800 
 39 H       -2.1240    -4.0490    -1.7780 H     1 <1>   0.0800 
 40 H       -2.9080    -2.8400    -0.8020 H     1 <1>   0.0800 
 41 H       -1.1450    -6.1220     1.1930 H     1 <1>   0.0800 
 42 H       -1.0200    -6.0680    -0.5420 H     1 <1>   0.0800 
 43 H        4.4080     4.6530     0.6570 H     1 <1>   0.0800 
 44 H        2.9060     5.5340     0.4410 H     1 <1>   0.0800 
 45 H        3.6550     4.7400    -0.9330 H     1 <1>   0.0800 
 46 H       -2.1120    -3.9480     1.1290 H     1 <1>   0.4500 
 47 H       -3.5230    -5.9080     1.2470 H     1 <1>   0.0800 
 48 H       -3.2000    -6.8800    -0.9340 H     1 <1>   0.0800 
 49 H       -3.8540    -5.4650    -1.7260 H     1 <1>   0.0800 
 50 H       -4.8580    -3.6260    -0.1960 H     1 <1>   0.0800 
 51 H       -4.3960    -3.5710     1.4940 H     1 <1>   0.0800 
 52 H       -6.7830    -4.2630     1.0380 H     1 <1>   0.0800 
 53 H       -5.8790    -5.3470     2.0510 H     1 <1>   0.0800 
 54 H       -4.9150    -8.1270    -2.2580 H     1 <1>   0.1500 
 55 H       -8.2780    -6.2820     0.8090 H     1 <1>   0.1500 
 56 H       -7.1610    -9.0860    -2.1810 H     1 <1>   0.1500 
 57 H       -8.8450    -8.1620    -0.6480 H     1 <1>   0.1500 
@<TRIPOS>BOND
  1   1   2  2   
  2   2   3  am  
  3   2   4  1   
  4   3   5  1   
  5   3  28  1   
  6   4   6  1   
  7   4  29  1   
  8   4  30  1   
  9   5   7  2   
 10   5   8  1   
 11   6   9  1   
 12   6  10  1   
 13   7  11  1   
 14   7  12  1   
 15   8  13  2   
 16   8  31  1   
 17   9  14  1   
 18   9  32  1   
 19   9  33  1   
 20  10  15  1   
 21  10  34  1   
 22  10  35  1   
 23  11  13  1   
 24  11  16  1   
 25  12  36  1   
 26  12  37  1   
 27  12  38  1   
 28  14  17  1   
 29  14  39  1   
 30  14  40  1   
 31  15  17  1   
 32  15  41  1   
 33  15  42  1   
 34  16  43  1   
 35  16  44  1   
 36  16  45  1   
 37  17  18  1   
 38  17  46  1   
 39  18  19  1   
 40  18  20  1   
 41  18  47  1   
 42  19  21  1   
 43  19  48  1   
 44  19  49  1   
 45  20  22  1   
 46  20  50  1   
 47  20  51  1   
 48  21  23  ar  
 49  21  24  ar  
 50  22  23  1   
 51  22  52  1   
 52  22  53  1   
 53  23  25  ar  
 54  24  26  ar  
 55  24  54  1   
 56  25  27  ar  
 57  25  55  1   
 58  26  27  ar  
 59  26  56  1   
 60  27  57  1   
@<TRIPOS>SUBSTRUCTURE
  1 ****   9 GROUP 4 **** **** 0

# MOE 2024.06 (io_trps.svl 2023.06)
