@<TRIPOS>MOLECULE
NONAME
49 51 1 0 0 
SMALL
USER_CHARGES


@<TRIPOS>ATOM
  1 O        0.8420     0.1160     0.6890 O.2   1 <1>  -0.5700 
  2 C        1.8060    -0.6240     0.6650 C.2   1 <1>   0.5440 
  3 N        3.0690    -0.0740     0.5780 N.am  1 <1>  -0.6600 
  4 C        1.5910    -2.0570     0.7220 C.ar  1 <1>   0.0860 
  5 C        4.2590    -0.8290     0.0660 C.3   1 <1>   0.1400 
  6 C        3.2830     1.3700     0.8850 C.3   1 <1>   0.1400 
  7 C        0.6850    -2.7000    -0.1030 C.ar  1 <1>  -0.1500 
  8 C        2.2650    -2.8840     1.6100 C.ar  1 <1>  -0.1500 
  9 C        4.8430    -0.2110    -1.2130 C.3   1 <1>   0.1400 
 10 C        3.2630     2.1950    -0.4080 C.3   1 <1>  -0.1600 
 11 C        0.5140    -4.0700    -0.0290 C.ar  1 <1>   0.3920 
 12 C        2.0270    -4.2450     1.6130 C.ar  1 <1>   0.1600 
 13 N        5.4850     1.1060    -0.9260 N.am  1 <1>  -0.6600 
 14 C        4.6120     2.2990    -1.1370 C.3   1 <1>   0.1400 
 15 O       -0.3830    -4.6210    -0.8730 O.3   1 <1>  -0.3630 
 16 N        1.1750    -4.8600     0.8120 N.ar  1 <1>  -0.6200 
 17 C        6.7670     1.1400    -0.4390 C.2   1 <1>   0.5690 
 18 C       -0.6470    -6.0110    -0.8490 C.3   1 <1>   0.0400 
 19 O        7.3860     0.1220    -0.2300 O.2   1 <1>  -0.5700 
 20 C        7.4470     2.4640    -0.1430 C.3   1 <1>  -0.0990 
 21 C        8.8710     2.2900     0.4040 C.3   1 <1>   0.0960 
 22 N        9.5110     3.6020     0.6200 N.pl3 1 <1>   0.3140 
 23 N        8.9580     4.5510     1.4000 N.2   1 <1>  -0.7070 
 24 C       10.6770     4.0250     0.0920 C.2   1 <1>  -0.3020 
 25 C        9.7870     5.5490     1.3500 C.2   1 <1>   0.1390 
 26 C       10.8860     5.2790     0.5440 C.2   1 <1>  -0.1500 
 27 H        3.9840    -1.8410    -0.1620 H     1 <1>   0.0800 
 28 H        5.0200    -0.8610     0.8270 H     1 <1>   0.0800 
 29 H        4.2110     1.5040     1.4140 H     1 <1>   0.0800 
 30 H        2.4900     1.7120     1.5300 H     1 <1>   0.0800 
 31 H        0.1040    -2.1330    -0.8070 H     1 <1>   0.1500 
 32 H        2.9710    -2.4590     2.2990 H     1 <1>   0.1500 
 33 H        4.0710    -0.1020    -1.9540 H     1 <1>   0.0800 
 34 H        5.5850    -0.8820    -1.6130 H     1 <1>   0.0800 
 35 H        2.9480     3.1940    -0.1670 H     1 <1>   0.0800 
 36 H        2.5170     1.7940    -1.0720 H     1 <1>   0.0800 
 37 H        2.5660    -4.8630     2.3120 H     1 <1>   0.1500 
 38 H        5.1080     3.1880    -0.7930 H     1 <1>   0.0800 
 39 H        4.4370     2.4230    -2.1920 H     1 <1>   0.0800 
 40 H       -1.3920    -6.2270    -1.5930 H     1 <1>   0.0800 
 41 H       -1.0090    -6.2790     0.1270 H     1 <1>   0.0800 
 42 H        0.2630    -6.5410    -1.0710 H     1 <1>   0.0800 
 43 H        6.8620     2.9900     0.5890 H     1 <1>   0.0800 
 44 H        7.4850     3.0390    -1.0490 H     1 <1>   0.0800 
 45 H        9.4680     1.7230    -0.2870 H     1 <1>   0.0800 
 46 H        8.8440     1.7690     1.3440 H     1 <1>   0.0800 
 47 H       11.2820     3.4230    -0.5610 H     1 <1>   0.1500 
 48 H        9.6310     6.4750     1.8770 H     1 <1>   0.1500 
 49 H       11.7060     5.9450     0.3450 H     1 <1>   0.1500 
@<TRIPOS>BOND
  1   1   2  2   
  2   2   3  am  
  3   2   4  1   
  4   3   5  1   
  5   3   6  1   
  6   4   7  ar  
  7   4   8  ar  
  8   5   9  1   
  9   5  27  1   
 10   5  28  1   
 11   6  10  1   
 12   6  29  1   
 13   6  30  1   
 14   7  11  ar  
 15   7  31  1   
 16   8  12  ar  
 17   8  32  1   
 18   9  13  1   
 19   9  33  1   
 20   9  34  1   
 21  10  14  1   
 22  10  35  1   
 23  10  36  1   
 24  11  15  1   
 25  11  16  ar  
 26  12  16  ar  
 27  12  37  1   
 28  13  14  1   
 29  13  17  am  
 30  14  38  1   
 31  14  39  1   
 32  15  18  1   
 33  17  19  2   
 34  17  20  1   
 35  18  40  1   
 36  18  41  1   
 37  18  42  1   
 38  20  21  1   
 39  20  43  1   
 40  20  44  1   
 41  21  22  1   
 42  21  45  1   
 43  21  46  1   
 44  22  23  1   
 45  22  24  1   
 46  23  25  2   
 47  24  26  2   
 48  24  47  1   
 49  25  26  1   
 50  25  48  1   
 51  26  49  1   
@<TRIPOS>SUBSTRUCTURE
  1 ****   5 GROUP 4 **** **** 0

# MOE 2024.06 (io_trps.svl 2023.06)
