@<TRIPOS>MOLECULE
NONAME
44 46 1 0 0 
SMALL
USER_CHARGES


@<TRIPOS>ATOM
  1 F        2.4230     1.2680    -1.9030 F     1 <1>  -0.1900 
  2 C        2.6360     0.3700    -0.9750 C.ar  1 <1>   0.1900 
  3 C        3.4760     0.6340     0.1160 C.ar  1 <1>   0.0830 
  4 C        2.0030    -0.8480    -1.1400 C.ar  1 <1>  -0.1500 
  5 O        4.1330     1.8020     0.3670 O.3   1 <1>  -0.3630 
  6 C        3.6790    -0.3770     1.0480 C.ar  1 <1>  -0.1500 
  7 C        2.2310    -1.8180    -0.1850 C.ar  1 <1>   0.1900 
  8 C        3.7200     3.0380    -0.1990 C.3   1 <1>   0.1810 
  9 C        3.0570    -1.6080     0.9040 C.ar  1 <1>  -0.1500 
 10 F        1.6460    -2.9790    -0.3170 F     1 <1>  -0.1900 
 11 C        4.4360     4.2180     0.4580 C.2   1 <1>   0.5690 
 12 O        3.7650     5.1760     0.7670 O.2   1 <1>  -0.5700 
 13 N        5.7990     4.2460     0.6500 N.am  1 <1>  -0.6600 
 14 C        6.4030     5.1890     1.6490 C.3   1 <1>   0.1400 
 15 C        6.7750     3.3750    -0.0680 C.3   1 <1>   0.1400 
 16 C        7.3560     6.2660     1.0600 C.3   1 <1>   0.4230 
 17 C        7.6880     4.2080    -0.9950 C.3   1 <1>  -0.0800 
 18 N        7.0940     6.6610    -0.3820 N.4   1 <1>  -0.9590 
 19 C        8.8400     5.9020     1.2850 C.3   1 <1>   0.1200 
 20 C        9.1300     4.3370    -0.4800 C.3   1 <1>   0.1200 
 21 C        7.0590     5.5520    -1.4030 C.3   1 <1>   0.3430 
 22 C        5.8150     7.4370    -0.4650 C.3   1 <1>   0.2630 
 23 O        9.1510     4.6050     0.8830 O.3   1 <1>  -0.5600 
 24 H        1.3600    -1.0360    -1.9800 H     1 <1>   0.1500 
 25 H        4.3240    -0.1950     1.8900 H     1 <1>   0.1500 
 26 H        3.9430     3.0280    -1.2490 H     1 <1>   0.0800 
 27 H        2.6590     3.1380    -0.0510 H     1 <1>   0.0800 
 28 H        3.2080    -2.3940     1.6230 H     1 <1>   0.1500 
 29 H        5.6190     5.6980     2.1820 H     1 <1>   0.0800 
 30 H        6.9320     4.6120     2.3890 H     1 <1>   0.0800 
 31 H        7.3570     2.8200     0.6490 H     1 <1>   0.0800 
 32 H        6.2500     2.6530    -0.6680 H     1 <1>   0.0800 
 33 H        7.2020     7.1490     1.6580 H     1 <1>   0.0800 
 34 H        7.7690     3.6430    -1.9060 H     1 <1>   0.0800 
 35 H        7.8590     7.2910    -0.6520 H     1 <1>   0.4500 
 36 H        9.0490     5.9450     2.3400 H     1 <1>   0.0800 
 37 H        9.4990     6.5930     0.7900 H     1 <1>   0.0800 
 38 H        9.6890     5.0940    -1.0050 H     1 <1>   0.0800 
 39 H        9.6390     3.3960    -0.6100 H     1 <1>   0.0800 
 40 H        6.0310     5.3540    -1.6620 H     1 <1>   0.0800 
 41 H        7.5460     5.8980    -2.3000 H     1 <1>   0.0800 
 42 H        4.9800     6.8150    -0.1910 H     1 <1>   0.0800 
 43 H        5.6570     7.7980    -1.4680 H     1 <1>   0.0800 
 44 H        5.8420     8.2830     0.2030 H     1 <1>   0.0800 
@<TRIPOS>BOND
  1   1   2  1   
  2   2   3  ar  
  3   2   4  ar  
  4   3   5  1   
  5   3   6  ar  
  6   4   7  ar  
  7   4  24  1   
  8   5   8  1   
  9   6   9  ar  
 10   6  25  1   
 11   7   9  ar  
 12   7  10  1   
 13   8  11  1   
 14   8  26  1   
 15   8  27  1   
 16   9  28  1   
 17  11  12  2   
 18  11  13  am  
 19  13  14  1   
 20  13  15  1   
 21  14  16  1   
 22  14  29  1   
 23  14  30  1   
 24  15  17  1   
 25  15  31  1   
 26  15  32  1   
 27  16  18  1   
 28  16  19  1   
 29  16  33  1   
 30  17  20  1   
 31  17  21  1   
 32  17  34  1   
 33  18  21  1   
 34  18  22  1   
 35  18  35  1   
 36  19  23  1   
 37  19  36  1   
 38  19  37  1   
 39  20  23  1   
 40  20  38  1   
 41  20  39  1   
 42  21  40  1   
 43  21  41  1   
 44  22  42  1   
 45  22  43  1   
 46  22  44  1   
@<TRIPOS>SUBSTRUCTURE
  1 ****   8 GROUP 4 **** **** 0

# MOE 2024.06 (io_trps.svl 2023.06)
