@<TRIPOS>MOLECULE
NONAME
52 55 1 0 0 
SMALL
USER_CHARGES


@<TRIPOS>ATOM
  1 O        0.5390    -1.0330    -1.6610 O.2   1 <1>  -0.5700 
  2 C        1.3120    -1.7650    -1.0670 C.2   1 <1>   0.6900 
  3 N        2.5740    -1.4280    -0.6620 N.am  1 <1>  -0.4770 
  4 N        1.0430    -3.0390    -0.7130 N.am  1 <1>  -0.5470 
  5 C        3.1130    -2.5520    -0.0230 C.ar  1 <1>   0.1170 
  6 C        3.1620    -0.0980    -0.9050 C.3   1 <1>   0.2200 
  7 C        2.1500    -3.5510    -0.0610 C.ar  1 <1>   0.1170 
  8 C        4.3410    -2.7990     0.5810 C.ar  1 <1>  -0.1500 
  9 C        4.4050    -0.2140    -1.7910 C.3   1 <1>  -0.1600 
 10 C        3.4590     0.6080     0.4200 C.3   1 <1>  -0.1600 
 11 C        2.3810    -4.7990     0.4940 C.ar  1 <1>  -0.1500 
 12 C        4.5780    -4.0450     1.1370 C.ar  1 <1>  -0.1500 
 13 C        5.0500     1.1530    -1.9880 C.3   1 <1>   0.3430 
 14 C        4.1290     1.9550     0.1700 C.3   1 <1>   0.3430 
 15 C        3.6040    -5.0400     1.0940 C.ar  1 <1>  -0.1500 
 16 N        5.3530     1.7440    -0.6600 N.4   1 <1>  -0.9590 
 17 C        6.1960     2.9520    -0.7920 C.3   1 <1>   0.5230 
 18 C        6.4260     3.5690     0.5680 C.2   1 <1>  -0.3320 
 19 N        6.9650     3.0060     1.6830 N.pl3 1 <1>   0.0480 
 20 C        6.1170     4.8450     0.8910 C.2   1 <1>   0.0770 
 21 C        6.9260     4.0020     2.5990 C.2   1 <1>   0.0360 
 22 C        7.4360     1.6380     2.0330 C.3   1 <1>   0.0960 
 23 N        6.4260     5.1090     2.1650 N.2   1 <1>  -0.5650 
 24 C        8.4280     1.0300     1.0380 C.3   1 <1>   0.1200 
 25 O        7.7370     0.5180    -0.0630 O.3   1 <1>  -0.5600 
 26 C        8.5550    -0.2120    -0.9290 C.3   1 <1>   0.0400 
 27 H        0.1570    -3.4950    -0.9190 H     1 <1>   0.3700 
 28 H        2.4360     0.4970    -1.4370 H     1 <1>   0.0800 
 29 H        5.0980    -2.0420     0.6210 H     1 <1>   0.1500 
 30 H        4.1180    -0.6070    -2.7510 H     1 <1>   0.0800 
 31 H        5.1270    -0.8820    -1.3610 H     1 <1>   0.0800 
 32 H        4.0960     0.0090     1.0430 H     1 <1>   0.0800 
 33 H        2.5350     0.7720     0.9470 H     1 <1>   0.0800 
 34 H        1.6210    -5.5590     0.4540 H     1 <1>   0.1500 
 35 H        5.5230    -4.2550     1.6100 H     1 <1>   0.1500 
 36 H        4.3790     1.7970    -2.5340 H     1 <1>   0.0800 
 37 H        5.9580     1.0400    -2.5590 H     1 <1>   0.0800 
 38 H        4.3860     2.4060     1.1150 H     1 <1>   0.0800 
 39 H        3.4480     2.6140    -0.3430 H     1 <1>   0.0800 
 40 H        3.8070    -6.0020     1.5320 H     1 <1>   0.1500 
 41 H        5.9830     1.0770    -0.1770 H     1 <1>   0.4500 
 42 H        5.7100     3.6710    -1.4320 H     1 <1>   0.0800 
 43 H        7.1450     2.6900    -1.2310 H     1 <1>   0.0800 
 44 H        5.6800     5.6120     0.2700 H     1 <1>   0.1500 
 45 H        7.2800     3.8700     3.6080 H     1 <1>   0.1500 
 46 H        6.5890     0.9880     2.1540 H     1 <1>   0.0800 
 47 H        7.9300     1.7010     2.9870 H     1 <1>   0.0800 
 48 H        8.9480     0.2140     1.5140 H     1 <1>   0.0800 
 49 H        9.1460     1.7630     0.7080 H     1 <1>   0.0800 
 50 H        7.9610    -0.5580    -1.7560 H     1 <1>   0.0800 
 51 H        8.9650    -1.0600    -0.4050 H     1 <1>   0.0800 
 52 H        9.3490     0.4190    -1.2930 H     1 <1>   0.0800 
@<TRIPOS>BOND
  1   1   2  2   
  2   2   3  am  
  3   2   4  am  
  4   3   5  1   
  5   3   6  1   
  6   4   7  1   
  7   4  27  1   
  8   5   7  ar  
  9   5   8  ar  
 10   6   9  1   
 11   6  10  1   
 12   6  28  1   
 13   7  11  ar  
 14   8  12  ar  
 15   8  29  1   
 16   9  13  1   
 17   9  30  1   
 18   9  31  1   
 19  10  14  1   
 20  10  32  1   
 21  10  33  1   
 22  11  15  ar  
 23  11  34  1   
 24  12  15  ar  
 25  12  35  1   
 26  13  16  1   
 27  13  36  1   
 28  13  37  1   
 29  14  16  1   
 30  14  38  1   
 31  14  39  1   
 32  15  40  1   
 33  16  17  1   
 34  16  41  1   
 35  17  18  1   
 36  17  42  1   
 37  17  43  1   
 38  18  19  1   
 39  18  20  2   
 40  19  21  1   
 41  19  22  1   
 42  20  23  1   
 43  20  44  1   
 44  21  23  2   
 45  21  45  1   
 46  22  24  1   
 47  22  46  1   
 48  22  47  1   
 49  24  25  1   
 50  24  48  1   
 51  24  49  1   
 52  25  26  1   
 53  26  50  1   
 54  26  51  1   
 55  26  52  1   
@<TRIPOS>SUBSTRUCTURE
  1 ****  10 GROUP 4 **** **** 0

# MOE 2024.06 (io_trps.svl 2023.06)
