@<TRIPOS>MOLECULE
NONAME
48 50 1 0 0 
SMALL
USER_CHARGES


@<TRIPOS>ATOM
  1 CL       1.1880     3.8410    -1.6000 Cl    1 <1>  -0.1770 
  2 C       -0.4510     3.2540    -1.3830 C.ar  1 <1>   0.1770 
  3 C       -0.9430     3.0000    -0.1070 C.ar  1 <1>  -0.1440 
  4 C       -1.2310     3.0670    -2.5090 C.ar  1 <1>  -0.1500 
  5 C       -2.2520     2.5580     0.0200 C.ar  1 <1>  -0.1500 
  6 C       -0.0780     3.1940     1.1310 C.3   1 <1>  -0.0160 
  7 C       -2.5340     2.6230    -2.3670 C.ar  1 <1>  -0.1500 
  8 C       -3.0410     2.3710    -1.1040 C.ar  1 <1>  -0.1500 
  9 C        0.0910     4.6890     1.4470 C.3   1 <1>  -0.1600 
 10 C        1.4470     4.9810     2.0940 C.3   1 <1>   0.2090 
 11 N        1.7760     6.4140     1.9200 N.pl3 1 <1>  -0.8690 
 12 C        2.2460     7.0880     0.8640 C.ar  1 <1>   0.7710 
 13 N        2.5500     8.3530     1.0670 N.ar  1 <1>  -0.6200 
 14 N        2.3810     6.4830    -0.3290 N.ar  1 <1>  -0.1790 
 15 C        3.0280     9.0470     0.0500 C.ar  1 <1>   0.4100 
 16 C        2.8420     7.1640    -1.4040 C.ar  1 <1>   0.2110 
 17 N        3.3720    10.3430     0.2740 N.pl3 1 <1>  -0.8380 
 18 C        3.1720     8.4650    -1.2270 C.ar  1 <1>  -0.1500 
 19 C        4.4580    11.0760    -0.4560 C.3   1 <1>   0.2090 
 20 C        2.7510    11.1650     1.3590 C.3   1 <1>   0.2090 
 21 C        3.9030    12.3680    -1.0780 C.3   1 <1>   0.2000 
 22 C        2.1770    12.4560     0.7590 C.3   1 <1>  -0.1600 
 23 O        4.9330    13.0840    -1.6620 O.3   1 <1>  -0.6800 
 24 C        3.2300    13.2570    -0.0270 C.3   1 <1>  -0.1600 
 25 H       -0.8270     3.2650    -3.4860 H     1 <1>   0.1500 
 26 H       -2.6680     2.3530     0.9920 H     1 <1>   0.1500 
 27 H        0.8730     2.7230     0.9490 H     1 <1>   0.0800 
 28 H       -0.5160     2.6930     1.9780 H     1 <1>   0.0800 
 29 H       -3.1530     2.4730    -3.2360 H     1 <1>   0.1500 
 30 H       -4.0560     2.0260    -0.9940 H     1 <1>   0.1500 
 31 H       -0.7000     5.0050     2.1040 H     1 <1>   0.0800 
 32 H       -0.0090     5.2550     0.5390 H     1 <1>   0.0800 
 33 H        2.2230     4.3850     1.6410 H     1 <1>   0.0800 
 34 H        1.4160     4.7370     3.1440 H     1 <1>   0.0800 
 35 H        1.6810     6.9820     2.7700 H     1 <1>   0.4000 
 36 H        2.0810     5.5130    -0.3860 H     1 <1>   0.4570 
 37 H        2.9230     6.6580    -2.3540 H     1 <1>   0.1500 
 38 H        3.5240     9.0640    -2.0440 H     1 <1>   0.1500 
 39 H        4.8980    10.4650    -1.2230 H     1 <1>   0.0800 
 40 H        5.2300    11.3270     0.2510 H     1 <1>   0.0800 
 41 H        3.4980    11.4000     2.0980 H     1 <1>   0.0800 
 42 H        1.9580    10.6250     1.8480 H     1 <1>   0.0800 
 43 H        3.2050    12.1140    -1.8570 H     1 <1>   0.0800 
 44 H        1.7790    13.0650     1.5500 H     1 <1>   0.0800 
 45 H        1.3600    12.1960     0.1070 H     1 <1>   0.0800 
 46 H        5.4670    13.5350    -0.9800 H     1 <1>   0.4000 
 47 H        2.7570    14.0940    -0.5110 H     1 <1>   0.0800 
 48 H        3.9670    13.6270     0.6640 H     1 <1>   0.0800 
@<TRIPOS>BOND
  1   1   2  1   
  2   2   3  ar  
  3   2   4  ar  
  4   3   5  ar  
  5   3   6  1   
  6   4   7  ar  
  7   4  25  1   
  8   5   8  ar  
  9   5  26  1   
 10   6   9  1   
 11   6  27  1   
 12   6  28  1   
 13   7   8  ar  
 14   7  29  1   
 15   8  30  1   
 16   9  10  1   
 17   9  31  1   
 18   9  32  1   
 19  10  11  1   
 20  10  33  1   
 21  10  34  1   
 22  11  12  1   
 23  11  35  1   
 24  12  13  ar  
 25  12  14  ar  
 26  13  15  ar  
 27  14  16  ar  
 28  14  36  1   
 29  15  17  1   
 30  15  18  ar  
 31  16  18  ar  
 32  16  37  1   
 33  17  19  1   
 34  17  20  1   
 35  18  38  1   
 36  19  21  1   
 37  19  39  1   
 38  19  40  1   
 39  20  22  1   
 40  20  41  1   
 41  20  42  1   
 42  21  23  1   
 43  21  24  1   
 44  21  43  1   
 45  22  24  1   
 46  22  44  1   
 47  22  45  1   
 48  23  46  1   
 49  24  47  1   
 50  24  48  1   
@<TRIPOS>SUBSTRUCTURE
  1 ****  14 GROUP 4 **** **** 0

# MOE 2024.06 (io_trps.svl 2023.06)
