@<TRIPOS>MOLECULE
NONAME
56 57 1 0 0 
SMALL
USER_CHARGES


@<TRIPOS>ATOM
  1 O       -0.0970    -3.3430     3.9040 O.2   1 <1>  -0.5700 
  2 C        0.8780    -2.7490     3.4900 C.2   1 <1>   0.7150 
  3 N        1.1760    -1.5700     4.0760 N.am  1 <1>  -0.8000 
  4 C        1.6800    -3.2830     2.4150 C.2   1 <1>   0.0550 
  5 O        2.7440    -2.6450     1.9480 O.3   1 <1>  -0.2800 
  6 C        1.5420    -4.4350     1.7120 C.2   1 <1>  -0.1500 
  7 C        3.3010    -3.3440     0.9780 C.2   1 <1>  -0.0400 
  8 C        2.5870    -4.4860     0.7850 C.2   1 <1>  -0.1810 
  9 C        4.5600    -2.7330     0.3380 C.3   1 <1>   0.1800 
 10 C        2.7760    -5.6430    -0.1830 C.3   1 <1>   0.5240 
 11 C        5.1420    -3.5890    -0.7950 C.3   1 <1>  -0.2400 
 12 C        5.6400    -2.5710     1.4170 C.3   1 <1>  -0.2400 
 13 C        4.2130    -1.3520    -0.2370 C.3   1 <1>  -0.2400 
 14 N        1.5220    -5.9280    -0.9380 N.4   1 <1>  -0.9590 
 15 C        1.7820    -6.9170    -2.0190 C.3   1 <1>   0.3430 
 16 C        0.8280    -4.6880    -1.4190 C.3   1 <1>   0.2630 
 17 C        0.4900    -7.5610    -2.5450 C.3   1 <1>  -0.1600 
 18 C       -0.0930    -8.6520    -1.6260 C.3   1 <1>   0.0960 
 19 N       -0.4160    -8.1480    -0.2760 N.pl3 1 <1>   0.3140 
 20 N        0.5330    -8.0870     0.6810 N.2   1 <1>  -0.7070 
 21 C       -1.6040    -7.7030     0.1860 C.2   1 <1>  -0.3320 
 22 C       -0.0900    -7.6840     1.7450 C.2   1 <1>   0.1080 
 23 C       -1.4250    -7.4030     1.4900 C.2   1 <1>  -0.1500 
 24 C       -2.8870    -7.6020    -0.6230 C.3   1 <1>  -0.0600 
 25 C        0.5720    -7.5610     3.1000 C.3   1 <1>  -0.0590 
 26 H        0.5990    -1.2230     4.8410 H     1 <1>   0.3700 
 27 H        1.9890    -1.0210     3.7980 H     1 <1>   0.3700 
 28 H        0.7620    -5.1590     1.8470 H     1 <1>   0.1500 
 29 H        3.0620    -6.5220     0.3740 H     1 <1>   0.0800 
 30 H        3.5650    -5.4170    -0.8750 H     1 <1>   0.0800 
 31 H        5.4310    -4.5570    -0.4270 H     1 <1>   0.0800 
 32 H        6.0210    -3.1180    -1.2000 H     1 <1>   0.0800 
 33 H        4.4310    -3.6950    -1.5930 H     1 <1>   0.0800 
 34 H        5.8830    -3.5250     1.8490 H     1 <1>   0.0800 
 35 H        5.2910    -1.9260     2.2050 H     1 <1>   0.0800 
 36 H        6.5350    -2.1420     1.0030 H     1 <1>   0.0800 
 37 H        3.4420    -1.4390    -0.9810 H     1 <1>   0.0800 
 38 H        5.0770    -0.8980    -0.6890 H     1 <1>   0.0800 
 39 H        3.8580    -0.6990     0.5400 H     1 <1>   0.0800 
 40 H        0.9200    -6.4150    -0.2360 H     1 <1>   0.4500 
 41 H        2.4260    -7.6980    -1.6460 H     1 <1>   0.0800 
 42 H        2.2920    -6.4260    -2.8330 H     1 <1>   0.0800 
 43 H        1.4510    -4.1570    -2.1190 H     1 <1>   0.0800 
 44 H        0.6070    -4.0330    -0.5920 H     1 <1>   0.0800 
 45 H       -0.1020    -4.9390    -1.9000 H     1 <1>   0.0800 
 46 H        0.7290    -8.0370    -3.4790 H     1 <1>   0.0800 
 47 H       -0.2590    -6.8220    -2.7640 H     1 <1>   0.0800 
 48 H        0.6140    -9.4550    -1.5140 H     1 <1>   0.0800 
 49 H       -0.9860    -9.0630    -2.0610 H     1 <1>   0.0800 
 50 H       -2.1420    -7.0380     2.2060 H     1 <1>   0.1500 
 51 H       -2.7510    -6.9540    -1.4700 H     1 <1>   0.0800 
 52 H       -3.6770    -7.2020    -0.0120 H     1 <1>   0.0800 
 53 H       -3.1890    -8.5760    -0.9680 H     1 <1>   0.0800 
 54 H        1.6040    -7.2840     2.9870 H     1 <1>   0.0800 
 55 H        0.5220    -8.5060     3.6080 H     1 <1>   0.0800 
 56 H        0.0720    -6.8180     3.6950 H     1 <1>   0.0800 
@<TRIPOS>BOND
  1   1   2  2   
  2   2   3  am  
  3   2   4  1   
  4   3  26  1   
  5   3  27  1   
  6   4   5  1   
  7   4   6  2   
  8   5   7  1   
  9   6   8  1   
 10   6  28  1   
 11   7   8  2   
 12   7   9  1   
 13   8  10  1   
 14   9  11  1   
 15   9  12  1   
 16   9  13  1   
 17  10  14  1   
 18  10  29  1   
 19  10  30  1   
 20  11  31  1   
 21  11  32  1   
 22  11  33  1   
 23  12  34  1   
 24  12  35  1   
 25  12  36  1   
 26  13  37  1   
 27  13  38  1   
 28  13  39  1   
 29  14  15  1   
 30  14  16  1   
 31  14  40  1   
 32  15  17  1   
 33  15  41  1   
 34  15  42  1   
 35  16  43  1   
 36  16  44  1   
 37  16  45  1   
 38  17  18  1   
 39  17  46  1   
 40  17  47  1   
 41  18  19  1   
 42  18  48  1   
 43  18  49  1   
 44  19  20  1   
 45  19  21  1   
 46  20  22  2   
 47  21  23  2   
 48  21  24  1   
 49  22  23  1   
 50  22  25  1   
 51  23  50  1   
 52  24  51  1   
 53  24  52  1   
 54  24  53  1   
 55  25  54  1   
 56  25  55  1   
 57  25  56  1   
@<TRIPOS>SUBSTRUCTURE
  1 ****   6 GROUP 4 **** **** 0

# MOE 2024.06 (io_trps.svl 2023.06)
