@<TRIPOS>MOLECULE
NONAME
42 44 1 0 0 
SMALL
USER_CHARGES


@<TRIPOS>ATOM
  1 S       -4.4090    -0.0960     0.8600 S.3   1 <1>  -0.0800 
  2 C       -3.1490    -1.0950     0.1830 C.2   1 <1>  -0.1400 
  3 C       -3.5840     1.3210     0.2680 C.2   1 <1>   0.2280 
  4 C       -2.2510    -0.2860    -0.4190 C.2   1 <1>   0.0460 
  5 C       -3.3640    -2.5840     0.4310 C.3   1 <1>   0.0200 
  6 N       -2.5070     1.0740    -0.3570 N.2   1 <1>  -0.5650 
  7 C       -0.9800    -0.6230    -1.1750 C.3   1 <1>  -0.0590 
  8 C       -2.1640    -3.4730     0.0990 C.3   1 <1>   0.1400 
  9 N       -2.3970    -4.8700     0.5730 N.am  1 <1>  -0.6600 
 10 C       -3.0330    -5.7840    -0.2400 C.2   1 <1>   0.5690 
 11 C       -1.9250    -5.1470     1.9620 C.3   1 <1>   0.0600 
 12 O       -3.5380    -5.4270    -1.2830 O.2   1 <1>  -0.5700 
 13 C       -3.1440    -7.2570     0.1630 C.3   1 <1>   0.3800 
 14 N       -3.0880    -8.1360    -1.0190 N.pl3 1 <1>   0.3140 
 15 C       -4.3820    -7.5770     1.0080 C.ar  1 <1>  -0.1440 
 16 N       -2.0960    -8.9770    -1.2360 N.2   1 <1>  -0.4180 
 17 C       -3.9590    -8.2980    -1.9980 C.2   1 <1>   0.0360 
 18 C       -4.3200    -8.6180     1.9250 C.ar  1 <1>  -0.1500 
 19 C       -5.5660    -6.8600     0.8830 C.ar  1 <1>  -0.1500 
 20 N       -2.3830    -9.6070    -2.3190 N.2   1 <1>   0.0000 
 21 N       -3.5470    -9.1950    -2.8090 N.2   1 <1>  -0.3380 
 22 C       -5.4160    -8.9320     2.7080 C.ar  1 <1>  -0.1500 
 23 C       -6.6620    -7.1740     1.6670 C.ar  1 <1>  -0.1500 
 24 C       -6.5880    -8.2090     2.5800 C.ar  1 <1>  -0.1500 
 25 H       -4.0360     2.2760     0.4720 H     1 <1>   0.1500 
 26 H       -4.2100    -2.9090    -0.1490 H     1 <1>   0.0800 
 27 H       -3.6040    -2.7120     1.4710 H     1 <1>   0.0800 
 28 H       -0.8410    -1.6750    -1.3030 H     1 <1>   0.0800 
 29 H       -0.1340    -0.2210    -0.6480 H     1 <1>   0.0800 
 30 H       -1.0190    -0.1700    -2.1490 H     1 <1>   0.0800 
 31 H       -1.2760    -3.0800     0.5630 H     1 <1>   0.0800 
 32 H       -2.0150    -3.4810    -0.9680 H     1 <1>   0.0800 
 33 H       -2.0240    -4.2640     2.5700 H     1 <1>   0.0800 
 34 H       -0.8890    -5.4390     1.9430 H     1 <1>   0.0800 
 35 H       -2.5070    -5.9280     2.4200 H     1 <1>   0.0800 
 36 H       -2.2750    -7.4900     0.7470 H     1 <1>   0.0800 
 37 H       -4.8750    -7.7430    -2.0810 H     1 <1>   0.1500 
 38 H       -3.4200    -9.2010     2.0350 H     1 <1>   0.1500 
 39 H       -5.6580    -6.0500     0.1760 H     1 <1>   0.1500 
 40 H       -5.3610    -9.7420     3.4150 H     1 <1>   0.1500 
 41 H       -7.5760    -6.6130     1.5650 H     1 <1>   0.1500 
 42 H       -7.4420    -8.4530     3.1890 H     1 <1>   0.1500 
@<TRIPOS>BOND
  1   1   2  1   
  2   1   3  1   
  3   2   4  2   
  4   2   5  1   
  5   3   6  2   
  6   3  25  1   
  7   4   6  1   
  8   4   7  1   
  9   5   8  1   
 10   5  26  1   
 11   5  27  1   
 12   7  28  1   
 13   7  29  1   
 14   7  30  1   
 15   8   9  1   
 16   8  31  1   
 17   8  32  1   
 18   9  10  am  
 19   9  11  1   
 20  10  12  2   
 21  10  13  1   
 22  11  33  1   
 23  11  34  1   
 24  11  35  1   
 25  13  14  1   
 26  13  15  1   
 27  13  36  1   
 28  14  16  1   
 29  14  17  1   
 30  15  18  ar  
 31  15  19  ar  
 32  16  20  2   
 33  17  21  2   
 34  17  37  1   
 35  18  22  ar  
 36  18  38  1   
 37  19  23  ar  
 38  19  39  1   
 39  20  21  1   
 40  22  24  ar  
 41  22  40  1   
 42  23  24  ar  
 43  23  41  1   
 44  24  42  1   
@<TRIPOS>SUBSTRUCTURE
  1 ****  10 GROUP 4 **** **** 0

# MOE 2024.06 (io_trps.svl 2023.06)
