@<TRIPOS>MOLECULE
NONAME
33 35 1 0 0 
SMALL
USER_CHARGES


@<TRIPOS>ATOM
  1 S       -2.4940    -0.1110    -1.5580 S.3   1 <1>  -0.0800 
  2 C       -2.0750     0.3220     0.0880 C.2   1 <1>   0.1980 
  3 C       -0.9940     0.5820    -2.0990 C.2   1 <1>  -0.1100 
  4 N       -0.9450     0.9050     0.2000 N.2   1 <1>  -0.5650 
  5 C       -3.0530    -0.0390     1.1980 C.3   1 <1>   0.3200 
  6 C       -0.3320     1.0570    -1.0340 C.2   1 <1>   0.0770 
  7 N       -4.4260     0.5060     0.9680 N.am  1 <1>  -0.5090 
  8 C       -5.4490    -0.2390     0.4150 C.2   1 <1>   0.7150 
  9 C       -4.6720     1.8660     1.5150 C.3   1 <1>   0.0490 
 10 O       -6.5200     0.2930     0.1820 O.2   1 <1>  -0.5700 
 11 C       -5.2930    -1.6330     0.0870 C.2   1 <1>  -0.2370 
 12 C       -5.0860     2.9490     0.5670 C.3   1 <1>  -0.2000 
 13 C       -3.7400     3.0010     1.2100 C.3   1 <1>  -0.2000 
 14 N       -5.5030    -2.1260    -1.1760 N.pl3 1 <1>   0.0480 
 15 C       -4.9580    -2.6940     0.8920 C.2   1 <1>  -0.1500 
 16 C       -5.2740    -3.4610    -1.1520 C.2   1 <1>  -0.3020 
 17 C       -5.9440    -1.3560    -2.3550 C.3   1 <1>   0.0160 
 18 C       -4.9370    -3.8420     0.1070 C.2   1 <1>  -0.1500 
 19 H       -0.7710     0.5580    -3.1500 H     1 <1>   0.1500 
 20 H       -2.6750     0.3530     2.1250 H     1 <1>   0.0800 
 21 H       -3.0710    -1.1050     1.2910 H     1 <1>   0.0800 
 22 H        0.6290     1.5430    -1.0590 H     1 <1>   0.1500 
 23 H       -5.1540     1.8380     2.4790 H     1 <1>   0.1000 
 24 H       -5.8390     3.6470     0.8850 H     1 <1>   0.1000 
 25 H       -5.1590     2.7080    -0.4790 H     1 <1>   0.1000 
 26 H       -2.8870     2.8680     0.5700 H     1 <1>   0.1000 
 27 H       -3.5710     3.7490     1.9640 H     1 <1>   0.1000 
 28 H       -4.7540    -2.6710     1.9480 H     1 <1>   0.1500 
 29 H       -5.3690    -4.0800    -2.0270 H     1 <1>   0.1500 
 30 H       -5.3120    -0.4970    -2.4820 H     1 <1>   0.0800 
 31 H       -6.9580    -1.0320    -2.2030 H     1 <1>   0.0800 
 32 H       -5.8920    -1.9740    -3.2320 H     1 <1>   0.0800 
 33 H       -4.7030    -4.8350     0.4530 H     1 <1>   0.1500 
@<TRIPOS>BOND
  1   1   2  1   
  2   1   3  1   
  3   2   4  2   
  4   2   5  1   
  5   3   6  2   
  6   3  19  1   
  7   4   6  1   
  8   5   7  1   
  9   5  20  1   
 10   5  21  1   
 11   6  22  1   
 12   7   8  am  
 13   7   9  1   
 14   8  10  2   
 15   8  11  1   
 16   9  12  1   
 17   9  13  1   
 18   9  23  1   
 19  11  14  1   
 20  11  15  2   
 21  12  13  1   
 22  12  24  1   
 23  12  25  1   
 24  13  26  1   
 25  13  27  1   
 26  14  16  1   
 27  14  17  1   
 28  15  18  1   
 29  15  28  1   
 30  16  18  2   
 31  16  29  1   
 32  17  30  1   
 33  17  31  1   
 34  17  32  1   
 35  18  33  1   
@<TRIPOS>SUBSTRUCTURE
  1 ****   7 GROUP 4 **** **** 0

# MOE 2024.06 (io_trps.svl 2023.06)
