@<TRIPOS>MOLECULE
NONAME
54 57 1 0 0 
SMALL
USER_CHARGES


@<TRIPOS>ATOM
  1 O        2.4530     0.5660    -1.9420 O.2   1 <1>  -0.5700 
  2 C        2.8680    -0.3510    -1.2760 C.2   1 <1>   0.5690 
  3 N        2.7680    -0.3920     0.0870 N.am  1 <1>  -0.6600 
  4 C        3.5770    -1.5000    -1.9650 C.3   1 <1>  -0.0990 
  5 C        3.2870    -1.5600     0.8390 C.3   1 <1>   0.1400 
  6 C        2.2190     0.7320     0.8890 C.3   1 <1>   0.0600 
  7 C        3.1640    -2.8710    -1.3860 C.3   1 <1>  -0.0800 
  8 C        2.8750    -2.8610     0.1300 C.3   1 <1>  -0.0800 
  9 C        4.2150    -3.9570    -1.6430 C.3   1 <1>  -0.1600 
 10 C        3.5600    -4.0970     0.7340 C.3   1 <1>  -0.1600 
 11 C        4.2060    -4.8670    -0.4170 C.3   1 <1>   0.2200 
 12 N        5.5600    -5.4150    -0.0910 N.am  1 <1>  -0.6600 
 13 C        6.7330    -4.6870     0.0650 C.2   1 <1>   0.5440 
 14 C        5.6390    -6.8990    -0.2340 C.3   1 <1>   0.0600 
 15 O        7.7870    -5.2150    -0.2300 O.2   1 <1>  -0.5700 
 16 C        6.7770    -3.3330     0.5870 C.ar  1 <1>   0.0860 
 17 C        6.9360    -2.2300    -0.2480 C.ar  1 <1>  -0.1500 
 18 C        6.6940    -3.0950     1.9580 C.ar  1 <1>  -0.1500 
 19 C        6.9410    -0.9370     0.2480 C.ar  1 <1>   0.0820 
 20 C        6.7180    -1.8110     2.4720 C.ar  1 <1>  -0.1500 
 21 O        7.0360     0.0710    -0.6570 O.3   1 <1>  -0.1650 
 22 C        6.8310    -0.7280     1.6200 C.ar  1 <1>  -0.1500 
 23 C        6.9490     1.3640    -0.2730 C.ar  1 <1>   0.0820 
 24 C        5.7520     2.0450    -0.4350 C.ar  1 <1>  -0.1500 
 25 C        8.0540     2.0070     0.2640 C.ar  1 <1>  -0.1500 
 26 C        5.6560     3.3690    -0.0450 C.ar  1 <1>  -0.1500 
 27 C        7.9550     3.3320     0.6540 C.ar  1 <1>  -0.1500 
 28 C        6.7570     4.0100     0.5020 C.ar  1 <1>  -0.1500 
 29 H        3.3700    -1.4680    -3.0190 H     1 <1>   0.0800 
 30 H        4.6280    -1.3330    -1.8300 H     1 <1>   0.0800 
 31 H        4.3560    -1.4880     0.8870 H     1 <1>   0.0800 
 32 H        2.9000    -1.5550     1.8440 H     1 <1>   0.0800 
 33 H        1.3830     0.3890     1.4720 H     1 <1>   0.0800 
 34 H        1.8860     1.5280     0.2450 H     1 <1>   0.0800 
 35 H        2.9810     1.1150     1.5450 H     1 <1>   0.0800 
 36 H        2.2500    -3.1700    -1.8740 H     1 <1>   0.0800 
 37 H        1.8120    -2.9660     0.2660 H     1 <1>   0.0800 
 38 H        5.1820    -3.5230    -1.7870 H     1 <1>   0.0800 
 39 H        3.9710    -4.5170    -2.5270 H     1 <1>   0.0800 
 40 H        2.8270    -4.7220     1.2120 H     1 <1>   0.0800 
 41 H        4.2780    -3.8160     1.4750 H     1 <1>   0.0800 
 42 H        3.5460    -5.6870    -0.6490 H     1 <1>   0.0800 
 43 H        4.8340    -7.3640     0.3070 H     1 <1>   0.0800 
 44 H        6.5690    -7.2710     0.1610 H     1 <1>   0.0800 
 45 H        5.5750    -7.1660    -1.2740 H     1 <1>   0.0800 
 46 H        7.0580    -2.3830    -1.3040 H     1 <1>   0.1500 
 47 H        6.6100    -3.9370     2.6240 H     1 <1>   0.1500 
 48 H        6.6480    -1.6530     3.5350 H     1 <1>   0.1500 
 49 H        6.8340     0.2660     2.0320 H     1 <1>   0.1500 
 50 H        4.9030     1.5430    -0.8660 H     1 <1>   0.1500 
 51 H        8.9800     1.4710     0.3720 H     1 <1>   0.1500 
 52 H        4.7280     3.8990    -0.1700 H     1 <1>   0.1500 
 53 H        8.8090     3.8360     1.0740 H     1 <1>   0.1500 
 54 H        6.6800     5.0400     0.8040 H     1 <1>   0.1500 
@<TRIPOS>BOND
  1   1   2  2   
  2   2   3  am  
  3   2   4  1   
  4   3   5  1   
  5   3   6  1   
  6   4   7  1   
  7   4  29  1   
  8   4  30  1   
  9   5   8  1   
 10   5  31  1   
 11   5  32  1   
 12   6  33  1   
 13   6  34  1   
 14   6  35  1   
 15   7   8  1   
 16   7   9  1   
 17   7  36  1   
 18   8  10  1   
 19   8  37  1   
 20   9  11  1   
 21   9  38  1   
 22   9  39  1   
 23  10  11  1   
 24  10  40  1   
 25  10  41  1   
 26  11  12  1   
 27  11  42  1   
 28  12  13  am  
 29  12  14  1   
 30  13  15  2   
 31  13  16  1   
 32  14  43  1   
 33  14  44  1   
 34  14  45  1   
 35  16  17  ar  
 36  16  18  ar  
 37  17  19  ar  
 38  17  46  1   
 39  18  20  ar  
 40  18  47  1   
 41  19  21  1   
 42  19  22  ar  
 43  20  22  ar  
 44  20  48  1   
 45  21  23  1   
 46  22  49  1   
 47  23  24  ar  
 48  23  25  ar  
 49  24  26  ar  
 50  24  50  1   
 51  25  27  ar  
 52  25  51  1   
 53  26  28  ar  
 54  26  52  1   
 55  27  28  ar  
 56  27  53  1   
 57  28  54  1   
@<TRIPOS>SUBSTRUCTURE
  1 ****  19 GROUP 4 **** **** 0

# MOE 2024.06 (io_trps.svl 2023.06)
