@<TRIPOS>MOLECULE
NONAME
52 53 1 0 0 
SMALL
USER_CHARGES


@<TRIPOS>ATOM
  1 S        0.4810     0.0130     0.6750 S.o2  1 <1>   1.3330 
  2 O       -0.4700    -0.3690     1.6910 O.2   1 <1>  -0.6500 
  3 O        1.8190     0.4090     1.0520 O.2   1 <1>  -0.6500 
  4 N        0.5630    -1.1890    -0.5140 N.am  1 <1>  -0.8490 
  5 C       -0.2030     1.4130    -0.2130 C.3   1 <1>  -0.0550 
  6 C        1.6980    -2.1000    -0.3150 C.3   1 <1>   0.1160 
  7 C       -0.6740    -1.9710    -0.6410 C.3   1 <1>   0.1160 
  8 C       -0.4830     2.6290     0.6990 C.3   1 <1>  -0.0800 
  9 C       -1.0400     3.8090    -0.1020 C.3   1 <1>   0.2000 
 10 C        0.7990     3.1740     1.3640 C.3   1 <1>   0.3430 
 11 O       -1.8580     4.5490     0.7430 O.3   1 <1>  -0.6800 
 12 C        0.1990     4.6530    -0.3970 C.3   1 <1>   0.3430 
 13 N        0.9730     4.5650     0.8690 N.4   1 <1>  -0.9590 
 14 C        2.3840     5.0180     0.7630 C.3   1 <1>   0.5230 
 15 C        2.4190     6.4910     0.4120 C.2   1 <1>  -0.1400 
 16 S        3.9220     7.0580    -0.2930 S.3   1 <1>  -0.0800 
 17 C        1.5390     7.5080     0.5180 C.2   1 <1>  -0.1500 
 18 C        3.3000     8.6940    -0.4320 C.2   1 <1>  -0.1400 
 19 C        2.0410     8.7570     0.0350 C.2   1 <1>  -0.1500 
 20 C        4.2110     9.7510    -1.0290 C.3   1 <1>   0.0200 
 21 C        5.3730    10.0800    -0.0840 C.3   1 <1>  -0.1600 
 22 C        6.2770    11.1760    -0.6620 C.3   1 <1>  -0.1600 
 23 C        7.4320    11.4940     0.2900 C.3   1 <1>  -0.2400 
 24 H        0.4750     1.6870    -0.9980 H     1 <1>   0.0800 
 25 H       -1.1240     1.1070    -0.6710 H     1 <1>   0.0800 
 26 H        1.7300    -2.8350    -1.1010 H     1 <1>   0.0800 
 27 H        1.6140    -2.6020     0.6350 H     1 <1>   0.0800 
 28 H        2.6240    -1.5490    -0.3340 H     1 <1>   0.0800 
 29 H       -0.5940    -2.6610    -1.4640 H     1 <1>   0.0800 
 30 H       -1.5110    -1.3200    -0.8260 H     1 <1>   0.0800 
 31 H       -0.8630    -2.5270     0.2630 H     1 <1>   0.0800 
 32 H       -1.1810     2.3180     1.4590 H     1 <1>   0.0800 
 33 H       -1.5950     3.5410    -0.9860 H     1 <1>   0.0800 
 34 H        1.6540     2.5830     1.0820 H     1 <1>   0.0800 
 35 H        0.7080     3.1620     2.4390 H     1 <1>   0.0800 
 36 H       -2.7350     4.1240     0.8610 H     1 <1>   0.4000 
 37 H       -0.0670     5.6680    -0.6440 H     1 <1>   0.0800 
 38 H        0.7580     4.2160    -1.2070 H     1 <1>   0.0800 
 39 H        0.4820     5.1870     1.5280 H     1 <1>   0.4500 
 40 H        2.9000     4.8630     1.6960 H     1 <1>   0.0800 
 41 H        2.8910     4.4560    -0.0050 H     1 <1>   0.0800 
 42 H        0.5410     7.4600     0.9200 H     1 <1>   0.1500 
 43 H        1.4340     9.6460     0.0640 H     1 <1>   0.1500 
 44 H        4.5910     9.4000    -1.9730 H     1 <1>   0.0800 
 45 H        3.6380    10.6430    -1.2120 H     1 <1>   0.0800 
 46 H        4.9750    10.4040     0.8620 H     1 <1>   0.0800 
 47 H        5.9560     9.1920     0.0880 H     1 <1>   0.0800 
 48 H        6.6780    10.8540    -1.6090 H     1 <1>   0.0800 
 49 H        5.7020    12.0710    -0.8300 H     1 <1>   0.0800 
 50 H        8.0350    10.6180     0.4570 H     1 <1>   0.0800 
 51 H        7.0560    11.8410     1.2370 H     1 <1>   0.0800 
 52 H        8.0560    12.2620    -0.1320 H     1 <1>   0.0800 
@<TRIPOS>BOND
  1   1   2  2   
  2   1   3  2   
  3   1   4  am  
  4   1   5  1   
  5   4   6  1   
  6   4   7  1   
  7   5   8  1   
  8   5  24  1   
  9   5  25  1   
 10   6  26  1   
 11   6  27  1   
 12   6  28  1   
 13   7  29  1   
 14   7  30  1   
 15   7  31  1   
 16   8   9  1   
 17   8  10  1   
 18   8  32  1   
 19   9  11  1   
 20   9  12  1   
 21   9  33  1   
 22  10  13  1   
 23  10  34  1   
 24  10  35  1   
 25  11  36  1   
 26  12  13  1   
 27  12  37  1   
 28  12  38  1   
 29  13  14  1   
 30  13  39  1   
 31  14  15  1   
 32  14  40  1   
 33  14  41  1   
 34  15  16  1   
 35  15  17  2   
 36  16  18  1   
 37  17  19  1   
 38  17  42  1   
 39  18  19  2   
 40  18  20  1   
 41  19  43  1   
 42  20  21  1   
 43  20  44  1   
 44  20  45  1   
 45  21  22  1   
 46  21  46  1   
 47  21  47  1   
 48  22  23  1   
 49  22  48  1   
 50  22  49  1   
 51  23  50  1   
 52  23  51  1   
 53  23  52  1   
@<TRIPOS>SUBSTRUCTURE
  1 ****  14 GROUP 4 **** **** 0

# MOE 2024.06 (io_trps.svl 2023.06)
