@<TRIPOS>MOLECULE
NONAME
46 49 1 0 0 
SMALL
USER_CHARGES


@<TRIPOS>ATOM
  1 S       -0.2270    -0.3670     0.3290 S.3   1 <1>  -0.0800 
  2 C       -0.3550    -2.0700    -0.0710 C.2   1 <1>  -0.1100 
  3 C       -1.9360    -0.1240     0.0240 C.2   1 <1>  -0.1100 
  4 C       -1.6220    -2.3940    -0.3960 C.2   1 <1>  -0.1810 
  5 C       -2.5230    -1.2760    -0.3490 C.2   1 <1>  -0.1500 
  6 C       -2.0920    -3.7810    -0.7850 C.3   1 <1>   0.5240 
  7 N       -2.4510    -4.5180     0.4540 N.4   1 <1>  -0.9590 
  8 C       -3.7020    -3.9730     1.0610 C.3   1 <1>   0.3430 
  9 C       -2.6530    -5.9690     0.1730 C.3   1 <1>   0.3430 
 10 C       -4.7480    -5.0780     0.9970 C.3   1 <1>  -0.0800 
 11 C       -3.9440    -6.3800     0.8780 C.3   1 <1>  -0.0800 
 12 C       -5.7540    -4.8590    -0.1540 C.3   1 <1>   0.4240 
 13 C       -4.6920    -7.5090     0.1330 C.3   1 <1>  -0.1600 
 14 O       -5.0450    -4.8710    -1.3480 O.3   1 <1>  -0.6800 
 15 C       -6.4540    -3.4920    -0.0160 C.ar  1 <1>  -0.1440 
 16 C       -6.7580    -6.0340    -0.2250 C.3   1 <1>  -0.1600 
 17 C       -6.2120    -7.3830     0.3010 C.3   1 <1>  -0.1600 
 18 C       -7.2400    -3.2430     1.1060 C.ar  1 <1>  -0.1500 
 19 C       -6.3200    -2.4720    -0.9570 C.ar  1 <1>  -0.1500 
 20 C       -7.8630    -2.0210     1.2870 C.ar  1 <1>  -0.1500 
 21 C       -6.9440    -1.2500    -0.7780 C.ar  1 <1>  -0.1500 
 22 C       -7.7150    -1.0220     0.3450 C.ar  1 <1>  -0.1500 
 23 H        0.5540    -2.6440    -0.0140 H     1 <1>   0.1500 
 24 H       -2.3220     0.8730     0.1540 H     1 <1>   0.1500 
 25 H       -3.5660    -1.3680    -0.5990 H     1 <1>   0.1500 
 26 H       -1.2900    -4.2930    -1.2920 H     1 <1>   0.0800 
 27 H       -2.9360    -3.7210    -1.4520 H     1 <1>   0.0800 
 28 H       -1.6810    -4.3800     1.1200 H     1 <1>   0.4500 
 29 H       -3.5180    -3.7140     2.0910 H     1 <1>   0.0800 
 30 H       -4.0480    -3.0940     0.5440 H     1 <1>   0.0800 
 31 H       -2.7810    -6.1140    -0.8880 H     1 <1>   0.0800 
 32 H       -1.8170    -6.5610     0.5110 H     1 <1>   0.0800 
 33 H       -5.2980    -5.0840     1.9200 H     1 <1>   0.0800 
 34 H       -3.6960    -6.7200     1.8700 H     1 <1>   0.0800 
 35 H       -4.4700    -7.4770    -0.9210 H     1 <1>   0.0800 
 36 H       -4.3640    -8.4670     0.4990 H     1 <1>   0.0800 
 37 H       -5.6990    -4.8260    -2.0740 H     1 <1>   0.4000 
 38 H       -7.6310    -5.8010     0.3580 H     1 <1>   0.0800 
 39 H       -7.1000    -6.1530    -1.2380 H     1 <1>   0.0800 
 40 H       -6.4490    -7.4760     1.3480 H     1 <1>   0.0800 
 41 H       -6.7050    -8.1930    -0.2090 H     1 <1>   0.0800 
 42 H       -7.3830    -3.9970     1.8590 H     1 <1>   0.1500 
 43 H       -5.7320    -2.5970    -1.8490 H     1 <1>   0.1500 
 44 H       -8.4680    -1.8470     2.1600 H     1 <1>   0.1500 
 45 H       -6.8330    -0.4720    -1.5150 H     1 <1>   0.1500 
 46 H       -8.2010    -0.0710     0.4840 H     1 <1>   0.1500 
@<TRIPOS>BOND
  1   1   2  1   
  2   1   3  1   
  3   2   4  2   
  4   2  23  1   
  5   3   5  2   
  6   3  24  1   
  7   4   5  1   
  8   4   6  1   
  9   5  25  1   
 10   6   7  1   
 11   6  26  1   
 12   6  27  1   
 13   7   8  1   
 14   7   9  1   
 15   7  28  1   
 16   8  10  1   
 17   8  29  1   
 18   8  30  1   
 19   9  11  1   
 20   9  31  1   
 21   9  32  1   
 22  10  11  1   
 23  10  12  1   
 24  10  33  1   
 25  11  13  1   
 26  11  34  1   
 27  12  14  1   
 28  12  15  1   
 29  12  16  1   
 30  13  17  1   
 31  13  35  1   
 32  13  36  1   
 33  14  37  1   
 34  15  18  ar  
 35  15  19  ar  
 36  16  17  1   
 37  16  38  1   
 38  16  39  1   
 39  17  40  1   
 40  17  41  1   
 41  18  20  ar  
 42  18  42  1   
 43  19  21  ar  
 44  19  43  1   
 45  20  22  ar  
 46  20  44  1   
 47  21  22  ar  
 48  21  45  1   
 49  22  46  1   
@<TRIPOS>SUBSTRUCTURE
  1 ****   8 GROUP 4 **** **** 0

# MOE 2024.06 (io_trps.svl 2023.06)
