@<TRIPOS>MOLECULE
NONAME
66 67 1 0 0 
SMALL
USER_CHARGES


@<TRIPOS>ATOM
  1 O        0.0610     1.1860     1.4890 O.2   1 <1>  -0.5700 
  2 C        0.0130     1.4850     0.2970 C.2   1 <1>   0.5690 
  3 N       -1.1850     1.6020    -0.3420 N.am  1 <1>  -0.7300 
  4 C        1.3190     1.6640    -0.5250 C.3   1 <1>   0.2810 
  5 C       -2.5210     1.4300     0.2750 C.3   1 <1>   0.1400 
  6 N        2.1420     0.4600    -0.4160 N.am  1 <1>  -0.7300 
  7 C        2.1510     2.9170    -0.1350 C.3   1 <1>  -0.0800 
  8 C       -2.9250    -0.0470     0.2610 C.3   1 <1>  -0.1600 
  9 C        3.0220     0.0360    -1.3260 C.2   1 <1>   0.5690 
 10 C        2.7100     2.8960     1.3020 C.3   1 <1>  -0.2400 
 11 C        1.3110     4.2010    -0.2670 C.3   1 <1>  -0.2400 
 12 C       -2.6620    -0.7330     1.6100 C.3   1 <1>   0.1400 
 13 O        3.2720     0.7060    -2.3220 O.2   1 <1>  -0.5700 
 14 C        3.7170    -1.3350    -1.0840 C.3   1 <1>   0.2810 
 15 N       -2.6220    -2.2130     1.4420 N.am  1 <1>  -0.6600 
 16 N        3.0120    -2.1590    -0.0940 N.am  1 <1>  -0.7300 
 17 C        5.1520    -1.1550    -0.5820 C.3   1 <1>  -0.2400 
 18 C       -3.7500    -2.9150     1.0750 C.2   1 <1>   0.5690 
 19 C       -1.2980    -2.8460     1.7030 C.3   1 <1>   0.1400 
 20 C        1.9310    -2.9060    -0.4250 C.2   1 <1>   0.5690 
 21 O       -4.8410    -2.3910     1.0520 O.2   1 <1>  -0.5700 
 22 C       -3.6820    -4.3950     0.7020 C.3   1 <1>   0.1810 
 23 C       -0.3240    -2.5130     0.5730 C.3   1 <1>  -0.1600 
 24 O        1.6760    -3.1920    -1.5680 O.2   1 <1>  -0.5700 
 25 C        0.9750    -3.3310     0.6690 C.3   1 <1>  -0.0990 
 26 O       -2.7680    -4.6040    -0.3660 O.3   1 <1>  -0.3630 
 27 C       -2.1440    -5.7920    -0.5400 C.ar  1 <1>   0.0820 
 28 C       -2.5990    -6.9870     0.0090 C.ar  1 <1>  -0.1500 
 29 C       -0.9880    -5.7850    -1.3050 C.ar  1 <1>  -0.1500 
 30 C       -1.8850    -8.1550    -0.1950 C.ar  1 <1>  -0.1500 
 31 C       -0.2760    -6.9530    -1.5070 C.ar  1 <1>  -0.1500 
 32 C       -0.7230    -8.1390    -0.9490 C.ar  1 <1>  -0.1500 
 33 H       -1.1970     1.7300    -1.3560 H     1 <1>   0.3700 
 34 H        1.0300     1.7800    -1.5700 H     1 <1>   0.0800 
 35 H       -2.5120     1.8130     1.2830 H     1 <1>   0.0800 
 36 H       -3.2350     2.0040    -0.2910 H     1 <1>   0.0800 
 37 H        1.9640    -0.1270     0.3820 H     1 <1>   0.3700 
 38 H        2.9920     2.9870    -0.8280 H     1 <1>   0.0800 
 39 H       -2.4110    -0.5620    -0.5310 H     1 <1>   0.0800 
 40 H       -3.9810    -0.1080     0.0650 H     1 <1>   0.0800 
 41 H        1.9020     2.8950     2.0350 H     1 <1>   0.0800 
 42 H        3.3320     3.7760     1.4700 H     1 <1>   0.0800 
 43 H        3.3270     2.0100     1.4520 H     1 <1>   0.0800 
 44 H        0.4890     4.2020     0.4510 H     1 <1>   0.0800 
 45 H        0.9060     4.2780    -1.2770 H     1 <1>   0.0800 
 46 H        1.9380     5.0740    -0.0820 H     1 <1>   0.0800 
 47 H       -3.4410    -0.4750     2.3070 H     1 <1>   0.0800 
 48 H       -1.7290    -0.3950     2.0230 H     1 <1>   0.0800 
 49 H        3.7480    -1.8580    -2.0420 H     1 <1>   0.0800 
 50 H        3.2650    -2.0460     0.8710 H     1 <1>   0.3700 
 51 H        5.1530    -0.6140     0.3650 H     1 <1>   0.0800 
 52 H        5.7180    -0.5820    -1.3180 H     1 <1>   0.0800 
 53 H        5.6220    -2.1300    -0.4530 H     1 <1>   0.0800 
 54 H       -0.9100    -2.4830     2.6400 H     1 <1>   0.0800 
 55 H       -1.3990    -3.9130     1.7860 H     1 <1>   0.0800 
 56 H       -4.6490    -4.7390     0.3830 H     1 <1>   0.0800 
 57 H       -3.3620    -4.9570     1.5590 H     1 <1>   0.0800 
 58 H       -0.7950    -2.7220    -0.3720 H     1 <1>   0.0800 
 59 H       -0.0880    -1.4650     0.6040 H     1 <1>   0.0800 
 60 H        0.7600    -4.3770     0.5480 H     1 <1>   0.0800 
 61 H        1.4340    -3.1880     1.6300 H     1 <1>   0.0800 
 62 H       -3.5030    -7.0250     0.5860 H     1 <1>   0.1500 
 63 H       -0.6430    -4.8620    -1.7390 H     1 <1>   0.1500 
 64 H       -2.2330    -9.0800     0.2310 H     1 <1>   0.1500 
 65 H        0.6230    -6.9360    -2.0980 H     1 <1>   0.1500 
 66 H       -0.1700    -9.0480    -1.1060 H     1 <1>   0.1500 
@<TRIPOS>BOND
  1   1   2  2   
  2   2   3  am  
  3   2   4  1   
  4   3   5  1   
  5   3  33  1   
  6   4   6  1   
  7   4   7  1   
  8   4  34  1   
  9   5   8  1   
 10   5  35  1   
 11   5  36  1   
 12   6   9  am  
 13   6  37  1   
 14   7  10  1   
 15   7  11  1   
 16   7  38  1   
 17   8  12  1   
 18   8  39  1   
 19   8  40  1   
 20   9  13  2   
 21   9  14  1   
 22  10  41  1   
 23  10  42  1   
 24  10  43  1   
 25  11  44  1   
 26  11  45  1   
 27  11  46  1   
 28  12  15  1   
 29  12  47  1   
 30  12  48  1   
 31  14  16  1   
 32  14  17  1   
 33  14  49  1   
 34  15  18  am  
 35  15  19  1   
 36  16  20  am  
 37  16  50  1   
 38  17  51  1   
 39  17  52  1   
 40  17  53  1   
 41  18  21  2   
 42  18  22  1   
 43  19  23  1   
 44  19  54  1   
 45  19  55  1   
 46  20  24  2   
 47  20  25  1   
 48  22  26  1   
 49  22  56  1   
 50  22  57  1   
 51  23  25  1   
 52  23  58  1   
 53  23  59  1   
 54  25  60  1   
 55  25  61  1   
 56  26  27  1   
 57  27  28  ar  
 58  27  29  ar  
 59  28  30  ar  
 60  28  62  1   
 61  29  31  ar  
 62  29  63  1   
 63  30  32  ar  
 64  30  64  1   
 65  31  32  ar  
 66  31  65  1   
 67  32  66  1   
@<TRIPOS>SUBSTRUCTURE
  1 ****  23 GROUP 4 **** **** 0

# MOE 2024.06 (io_trps.svl 2023.06)
