@<TRIPOS>MOLECULE
NONAME
32 33 1 0 0 
SMALL
USER_CHARGES


@<TRIPOS>ATOM
  1 O        0.5830     0.5320     0.7070 O.co2 1 <1>  -0.9000 
  2 C       -0.0740     1.5510     0.9960 C.2   1 <1>   1.0330 
  3 O       -1.1530     1.3990     1.6050 O.co2 1 <1>  -0.9000 
  4 C        0.3580     2.9080     0.6540 C.2   1 <1>  -0.0060 
  5 N        1.5070     3.3110     0.0090 N.2   1 <1>  -0.5650 
  6 C       -0.3450     4.0220     0.9330 C.2   1 <1>  -0.0100 
  7 C        1.4050     4.5930    -0.0470 C.2   1 <1>   0.5620 
  8 O        0.3040     5.0690     0.4970 O.3   1 <1>  -0.2800 
  9 N        2.3220     5.4600    -0.6140 N.pl3 1 <1>  -0.8220 
 10 C        2.1530     6.9430    -0.5230 C.3   1 <1>   0.3890 
 11 C        3.5880     4.9370    -1.1980 C.3   1 <1>   0.1290 
 12 C        3.3820     7.6590     0.0270 C.2   1 <1>   0.2980 
 13 O        3.7290     7.4440     1.2710 O.3   1 <1>  -0.0190 
 14 N        4.1240     8.4760    -0.6140 N.2   1 <1>  -0.5650 
 15 N        4.7800     8.1880     1.4370 N.2   1 <1>  -0.4100 
 16 C        5.0030     8.7830     0.3320 C.2   1 <1>   0.3350 
 17 C        6.1390     9.7700     0.0530 C.3   1 <1>   0.1010 
 18 C        7.3640     9.5290     0.9490 C.3   1 <1>  -0.2400 
 19 C        5.6490    11.2160     0.2120 C.3   1 <1>  -0.2400 
 20 H       -1.2930     4.1290     1.4290 H     1 <1>   0.1500 
 21 H        1.3160     7.1910     0.1020 H     1 <1>   0.0800 
 22 H        1.9490     7.3220    -1.5080 H     1 <1>   0.0800 
 23 H        3.4670     3.9110    -1.5020 H     1 <1>   0.0800 
 24 H        4.3730     4.9880    -0.4640 H     1 <1>   0.0800 
 25 H        3.8660     5.5190    -2.0590 H     1 <1>   0.0800 
 26 H        6.4440     9.6270    -0.9690 H     1 <1>   0.0800 
 27 H        7.1090     9.6830     1.9830 H     1 <1>   0.0800 
 28 H        8.1620    10.1990     0.6850 H     1 <1>   0.0800 
 29 H        7.7100     8.5170     0.8310 H     1 <1>   0.0800 
 30 H        5.3260    11.3900     1.2230 H     1 <1>   0.0800 
 31 H        4.8180    11.3960    -0.4480 H     1 <1>   0.0800 
 32 H        6.4350    11.9100    -0.0290 H     1 <1>   0.0800 
@<TRIPOS>BOND
  1   1   2  ar  
  2   2   3  ar  
  3   2   4  1   
  4   4   5  1   
  5   4   6  2   
  6   5   7  2   
  7   6   8  1   
  8   6  20  1   
  9   7   8  1   
 10   7   9  1   
 11   9  10  1   
 12   9  11  1   
 13  10  12  1   
 14  10  21  1   
 15  10  22  1   
 16  11  23  1   
 17  11  24  1   
 18  11  25  1   
 19  12  13  1   
 20  12  14  2   
 21  13  15  1   
 22  14  16  1   
 23  15  16  2   
 24  16  17  1   
 25  17  18  1   
 26  17  19  1   
 27  17  26  1   
 28  18  27  1   
 29  18  28  1   
 30  18  29  1   
 31  19  30  1   
 32  19  31  1   
 33  19  32  1   
@<TRIPOS>SUBSTRUCTURE
  1 ****   9 GROUP 4 **** **** 0

# MOE 2024.06 (io_trps.svl 2023.06)
