@<TRIPOS>MOLECULE
NONAME
49 52 1 0 0 
SMALL
USER_CHARGES


@<TRIPOS>ATOM
  1 N        0.4580     0.2860     1.1930 N.ar  1 <1>  -0.6200 
  2 C       -0.1430     1.3740     1.6540 C.ar  1 <1>   0.4760 
  3 C        1.4150     0.5210     0.3220 C.ar  1 <1>   0.1660 
  4 N        0.1070     2.6400     1.3450 N.ar  1 <1>  -0.6200 
  5 C       -1.2530     1.1470     2.6500 C.3   1 <1>  -0.0960 
  6 C        1.7660     1.7790    -0.0680 C.ar  1 <1>  -0.1430 
  7 C        2.2720    -0.5300    -0.3600 C.3   1 <1>   0.1430 
  8 C        1.0760     2.8350     0.4740 C.ar  1 <1>   0.1600 
  9 C        2.9010     1.7630    -1.0610 C.3   1 <1>  -0.0160 
 10 C        3.2960    -1.0600     0.6620 C.3   1 <1>   0.2090 
 11 C        1.4400    -1.7060    -0.9200 C.3   1 <1>  -0.1600 
 12 C        2.9600     0.2870    -1.4860 C.3   1 <1>  -0.1600 
 13 N        4.1520    -2.1300     0.0520 N.pl3 1 <1>  -0.8380 
 14 C        2.3450    -2.8150    -1.4890 C.3   1 <1>  -0.1600 
 15 C        5.5240    -2.0250    -0.0480 C.ar  1 <1>   0.7200 
 16 C        3.3850    -3.2960    -0.4680 C.3   1 <1>   0.2090 
 17 N        6.2040    -3.1440    -0.2920 N.ar  1 <1>  -0.6200 
 18 N        6.0530    -0.8110     0.1030 N.ar  1 <1>  -0.6200 
 19 C        7.5060    -3.0280    -0.3810 C.ar  1 <1>   0.1600 
 20 C        7.3570    -0.7280     0.0080 C.ar  1 <1>   0.1600 
 21 C        8.1520    -1.8230    -0.2390 C.ar  1 <1>  -0.1430 
 22 C        9.6640    -1.7080    -0.3440 C.3   1 <1>  -0.0170 
 23 C       10.3140    -1.8940     1.0320 C.3   1 <1>  -0.1600 
 24 C       11.8390    -1.7830     0.9520 C.3   1 <1>  -0.2400 
 25 H       -1.1420     0.1890     3.1210 H     1 <1>   0.0800 
 26 H       -2.1980     1.1840     2.1410 H     1 <1>   0.0800 
 27 H       -1.2290     1.9120     3.4040 H     1 <1>   0.0800 
 28 H        1.3180     3.8460     0.1960 H     1 <1>   0.1500 
 29 H        3.8160     2.0500    -0.5710 H     1 <1>   0.0800 
 30 H        2.7130     2.4100    -1.9000 H     1 <1>   0.0800 
 31 H        2.7680    -1.4810     1.5000 H     1 <1>   0.0800 
 32 H        3.8880    -0.2450     1.0370 H     1 <1>   0.0800 
 33 H        0.7620    -1.3530    -1.6770 H     1 <1>   0.0800 
 34 H        0.8470    -2.1200    -0.1230 H     1 <1>   0.0800 
 35 H        2.4020     0.1790    -2.3990 H     1 <1>   0.0800 
 36 H        3.9710    -0.0330    -1.6700 H     1 <1>   0.0800 
 37 H        2.8640    -2.4560    -2.3600 H     1 <1>   0.0800 
 38 H        1.7410    -3.6510    -1.7930 H     1 <1>   0.0800 
 39 H        2.8930    -3.7830     0.3570 H     1 <1>   0.0800 
 40 H        4.0330    -4.0150    -0.9380 H     1 <1>   0.0800 
 41 H        8.0730    -3.9220    -0.5730 H     1 <1>   0.1500 
 42 H        7.8060     0.2430     0.1310 H     1 <1>   0.1500 
 43 H        9.9260    -0.7430    -0.7420 H     1 <1>   0.0800 
 44 H       10.0360    -2.4540    -1.0250 H     1 <1>   0.0800 
 45 H       10.0480    -2.8610     1.4260 H     1 <1>   0.0800 
 46 H        9.9380    -1.1470     1.7110 H     1 <1>   0.0800 
 47 H       12.2400    -2.5380     0.2980 H     1 <1>   0.0800 
 48 H       12.2680    -1.9180     1.9300 H     1 <1>   0.0800 
 49 H       12.1300    -0.8140     0.5840 H     1 <1>   0.0800 
@<TRIPOS>BOND
  1   1   2  ar  
  2   1   3  ar  
  3   2   4  ar  
  4   2   5  1   
  5   3   6  ar  
  6   3   7  1   
  7   4   8  ar  
  8   5  25  1   
  9   5  26  1   
 10   5  27  1   
 11   6   8  ar  
 12   6   9  1   
 13   7  10  1   
 14   7  11  1   
 15   7  12  1   
 16   8  28  1   
 17   9  12  1   
 18   9  29  1   
 19   9  30  1   
 20  10  13  1   
 21  10  31  1   
 22  10  32  1   
 23  11  14  1   
 24  11  33  1   
 25  11  34  1   
 26  12  35  1   
 27  12  36  1   
 28  13  15  1   
 29  13  16  1   
 30  14  16  1   
 31  14  37  1   
 32  14  38  1   
 33  15  17  ar  
 34  15  18  ar  
 35  16  39  1   
 36  16  40  1   
 37  17  19  ar  
 38  18  20  ar  
 39  19  21  ar  
 40  19  41  1   
 41  20  21  ar  
 42  20  42  1   
 43  21  22  1   
 44  22  23  1   
 45  22  43  1   
 46  22  44  1   
 47  23  24  1   
 48  23  45  1   
 49  23  46  1   
 50  24  47  1   
 51  24  48  1   
 52  24  49  1   
@<TRIPOS>SUBSTRUCTURE
  1 ****  10 GROUP 4 **** **** 0

# MOE 2024.06 (io_trps.svl 2023.06)
