@<TRIPOS>MOLECULE
NONAME
52 54 1 0 0 
SMALL
USER_CHARGES


@<TRIPOS>ATOM
  1 O       -0.0460    -0.7110     2.0620 O.2   1 <1>  -0.5700 
  2 C        0.1240    -1.5080     1.1730 C.2   1 <1>   0.5690 
  3 N        1.2680    -1.6580     0.4660 N.am  1 <1>  -0.6600 
  4 C       -0.9340    -2.4590     0.6910 C.3   1 <1>  -0.0990 
  5 C        1.1760    -2.7120    -0.5580 C.3   1 <1>   0.1400 
  6 C        2.5240    -0.9300     0.7480 C.3   1 <1>   0.1400 
  7 C       -0.1820    -3.3780    -0.2880 C.3   1 <1>  -0.1600 
  8 C        2.7280     0.2500    -0.2200 C.3   1 <1>  -0.0800 
  9 C        4.0330     0.9780     0.1620 C.3   1 <1>   0.3430 
 10 C        1.5260     1.2190    -0.2440 C.3   1 <1>  -0.1600 
 11 N        3.9810     2.4490    -0.1130 N.4   1 <1>  -0.9590 
 12 C        1.7740     2.4050    -1.1950 C.3   1 <1>  -0.1600 
 13 C        3.2500     2.7790    -1.3650 C.3   1 <1>   0.3430 
 14 C        5.3320     3.1290    -0.0350 C.3   1 <1>   0.4040 
 15 C        5.2490     4.6570     0.1460 C.2   1 <1>   0.5690 
 16 O        4.1640     5.1010     0.4440 O.2   1 <1>  -0.5700 
 17 N        6.3660     5.4520    -0.0220 N.am  1 <1>  -0.4770 
 18 C        6.3380     6.8440     0.1930 C.ar  1 <1>   0.1170 
 19 C        7.6910     4.8970    -0.4220 C.3   1 <1>   0.0600 
 20 C        7.1600     7.4290     1.1510 C.ar  1 <1>  -0.1500 
 21 C        5.4990     7.6650    -0.5530 C.ar  1 <1>  -0.1500 
 22 C        7.1500     8.7970     1.3530 C.ar  1 <1>  -0.1500 
 23 C        5.4860     9.0340    -0.3530 C.ar  1 <1>  -0.1500 
 24 C        6.3130     9.6020     0.6000 C.ar  1 <1>  -0.1500 
 25 H       -1.7040    -1.9010     0.1910 H     1 <1>   0.0800 
 26 H       -1.3520    -3.0060     1.5170 H     1 <1>   0.0800 
 27 H        1.9820    -3.4190    -0.4540 H     1 <1>   0.0800 
 28 H        1.1970    -2.2680    -1.5380 H     1 <1>   0.0800 
 29 H        3.3480    -1.6200     0.6840 H     1 <1>   0.0800 
 30 H        2.4820    -0.5610     1.7610 H     1 <1>   0.0800 
 31 H       -0.7320    -3.5260    -1.2000 H     1 <1>   0.0800 
 32 H       -0.0150    -4.3370     0.1710 H     1 <1>   0.0800 
 33 H        2.8550    -0.1600    -1.2070 H     1 <1>   0.0800 
 34 H        4.8480     0.5300    -0.3820 H     1 <1>   0.0800 
 35 H        4.2190     0.8330     1.2140 H     1 <1>   0.0800 
 36 H        1.3510     1.5860     0.7550 H     1 <1>   0.0800 
 37 H        0.6290     0.7090    -0.5520 H     1 <1>   0.0800 
 38 H        3.4110     2.8980     0.6260 H     1 <1>   0.4500 
 39 H        1.2300     3.2630    -0.8350 H     1 <1>   0.0800 
 40 H        1.3770     2.1730    -2.1680 H     1 <1>   0.0800 
 41 H        3.6720     2.2250    -2.1880 H     1 <1>   0.0800 
 42 H        3.3250     3.8330    -1.5850 H     1 <1>   0.0800 
 43 H        5.8950     2.9140    -0.9260 H     1 <1>   0.0800 
 44 H        5.8760     2.7390     0.8080 H     1 <1>   0.0800 
 45 H        7.5890     4.2580    -1.2820 H     1 <1>   0.0800 
 46 H        8.1230     4.3470     0.3960 H     1 <1>   0.0800 
 47 H        8.3610     5.6990    -0.6850 H     1 <1>   0.0800 
 48 H        7.8080     6.8130     1.7460 H     1 <1>   0.1500 
 49 H        4.8500     7.2310    -1.2910 H     1 <1>   0.1500 
 50 H        7.7900     9.2390     2.0970 H     1 <1>   0.1500 
 51 H        4.8310     9.6580    -0.9360 H     1 <1>   0.1500 
 52 H        6.3030    10.6670     0.7560 H     1 <1>   0.1500 
@<TRIPOS>BOND
  1   1   2  2   
  2   2   3  am  
  3   2   4  1   
  4   3   5  1   
  5   3   6  1   
  6   4   7  1   
  7   4  25  1   
  8   4  26  1   
  9   5   7  1   
 10   5  27  1   
 11   5  28  1   
 12   6   8  1   
 13   6  29  1   
 14   6  30  1   
 15   7  31  1   
 16   7  32  1   
 17   8   9  1   
 18   8  10  1   
 19   8  33  1   
 20   9  11  1   
 21   9  34  1   
 22   9  35  1   
 23  10  12  1   
 24  10  36  1   
 25  10  37  1   
 26  11  13  1   
 27  11  14  1   
 28  11  38  1   
 29  12  13  1   
 30  12  39  1   
 31  12  40  1   
 32  13  41  1   
 33  13  42  1   
 34  14  15  1   
 35  14  43  1   
 36  14  44  1   
 37  15  16  2   
 38  15  17  am  
 39  17  18  1   
 40  17  19  1   
 41  18  20  ar  
 42  18  21  ar  
 43  19  45  1   
 44  19  46  1   
 45  19  47  1   
 46  20  22  ar  
 47  20  48  1   
 48  21  23  ar  
 49  21  49  1   
 50  22  24  ar  
 51  22  50  1   
 52  23  24  ar  
 53  23  51  1   
 54  24  52  1   
@<TRIPOS>SUBSTRUCTURE
  1 ****  11 GROUP 4 **** **** 0

# MOE 2024.06 (io_trps.svl 2023.06)
