@<TRIPOS>MOLECULE
NONAME
43 45 1 0 0 
SMALL
USER_CHARGES


@<TRIPOS>ATOM
  1 O       -2.2280     0.8510    -1.6110 O.2   1 <1>  -0.5700 
  2 C       -1.9750     0.9090    -0.4260 C.2   1 <1>   0.5440 
  3 N       -1.9190    -0.2500     0.2900 N.am  1 <1>  -0.7300 
  4 C       -1.7500     2.1750     0.2260 C.ar  1 <1>   0.0860 
  5 C       -2.2250    -1.5930    -0.2510 C.3   1 <1>   0.2200 
  6 C       -0.6080     2.9290    -0.0080 C.ar  1 <1>   0.1660 
  7 C       -2.6540     2.7110     1.1340 C.ar  1 <1>   0.1660 
  8 C       -3.6930    -1.8970    -0.0080 C.3   1 <1>  -0.0800 
  9 C       -1.5460    -2.6550     0.6040 C.3   1 <1>   0.1200 
 10 N       -0.3760     4.0690     0.6050 N.ar  1 <1>  -0.6200 
 11 C        0.4520     2.4730    -0.9960 C.3   1 <1>  -0.0960 
 12 N       -2.4360     3.8440     1.7630 N.ar  1 <1>  -0.6200 
 13 C       -3.9670     2.0200     1.4670 C.3   1 <1>  -0.0970 
 14 C       -3.6860    -2.4480     1.4240 C.3   1 <1>   0.1200 
 15 C       -4.2380    -2.9170    -1.0250 C.3   1 <1>  -0.0170 
 16 O       -2.3710    -2.8260     1.7160 O.3   1 <1>  -0.5600 
 17 C       -1.3060     4.4590     1.4590 C.ar  1 <1>   0.4700 
 18 C       -5.7270    -3.1490    -0.8190 C.ar  1 <1>  -0.1430 
 19 C       -6.2210    -4.2950    -0.2290 C.ar  1 <1>  -0.1500 
 20 C       -6.6630    -2.2150    -1.2160 C.ar  1 <1>  -0.1500 
 21 C       -7.5880    -4.4430    -0.0610 C.ar  1 <1>   0.1600 
 22 C       -8.0090    -2.4610    -1.0010 C.ar  1 <1>   0.1600 
 23 N       -8.4940    -3.5510    -0.4300 N.ar  1 <1>  -0.6200 
 24 H       -1.7480    -0.2340     1.2990 H     1 <1>   0.3700 
 25 H       -1.9390    -1.6530    -1.2890 H     1 <1>   0.0800 
 26 H       -4.2880    -1.0030    -0.0730 H     1 <1>   0.0800 
 27 H       -0.5600    -2.3670     0.9230 H     1 <1>   0.0800 
 28 H       -1.5000    -3.5950     0.0820 H     1 <1>   0.0800 
 29 H        0.0630     2.5330    -1.9970 H     1 <1>   0.0800 
 30 H        0.7440     1.4590    -0.7930 H     1 <1>   0.0800 
 31 H        1.3240     3.0990    -0.9300 H     1 <1>   0.0800 
 32 H       -4.3750     1.5290     0.6020 H     1 <1>   0.0800 
 33 H       -4.6870     2.7440     1.8070 H     1 <1>   0.0800 
 34 H       -3.8120     1.2990     2.2470 H     1 <1>   0.0800 
 35 H       -4.3280    -3.3010     1.5490 H     1 <1>   0.0800 
 36 H       -3.9680    -1.6840     2.1280 H     1 <1>   0.0800 
 37 H       -3.7090    -3.8500    -0.9430 H     1 <1>   0.0800 
 38 H       -4.0850    -2.5420    -2.0230 H     1 <1>   0.0800 
 39 H       -1.1220     5.3920     1.9670 H     1 <1>   0.1500 
 40 H       -5.5590    -5.0740     0.1030 H     1 <1>   0.1500 
 41 H       -6.3590    -1.3000    -1.6900 H     1 <1>   0.1500 
 42 H       -7.9560    -5.3420     0.4030 H     1 <1>   0.1500 
 43 H       -8.7250    -1.7210    -1.3170 H     1 <1>   0.1500 
@<TRIPOS>BOND
  1   1   2  2   
  2   2   3  am  
  3   2   4  1   
  4   3   5  1   
  5   3  24  1   
  6   4   6  ar  
  7   4   7  ar  
  8   5   8  1   
  9   5   9  1   
 10   5  25  1   
 11   6  10  ar  
 12   6  11  1   
 13   7  12  ar  
 14   7  13  1   
 15   8  14  1   
 16   8  15  1   
 17   8  26  1   
 18   9  16  1   
 19   9  27  1   
 20   9  28  1   
 21  10  17  ar  
 22  11  29  1   
 23  11  30  1   
 24  11  31  1   
 25  12  17  ar  
 26  13  32  1   
 27  13  33  1   
 28  13  34  1   
 29  14  16  1   
 30  14  35  1   
 31  14  36  1   
 32  15  18  1   
 33  15  37  1   
 34  15  38  1   
 35  17  39  1   
 36  18  19  ar  
 37  18  20  ar  
 38  19  21  ar  
 39  19  40  1   
 40  20  22  ar  
 41  20  41  1   
 42  21  23  ar  
 43  21  42  1   
 44  22  23  ar  
 45  22  43  1   
@<TRIPOS>SUBSTRUCTURE
  1 ****   3 GROUP 4 **** **** 0

# MOE 2024.06 (io_trps.svl 2023.06)
