@<TRIPOS>MOLECULE
NONAME
48 50 1 0 0 
SMALL
USER_CHARGES


@<TRIPOS>ATOM
  1 O        2.2580    -0.9450    -1.8850 O.3   1 <1>  -0.0190 
  2 N        2.5970     0.3120    -1.9080 N.2   1 <1>  -0.4100 
  3 C        1.6410    -1.2620    -0.7790 C.2   1 <1>  -0.0400 
  4 C        2.1950     0.8140    -0.7930 C.2   1 <1>   0.1080 
  5 C        1.5680    -0.1600    -0.0180 C.2   1 <1>  -0.1500 
  6 C        1.1660    -2.6890    -0.5750 C.3   1 <1>   0.2900 
  7 C        2.3890     2.2720    -0.3950 C.3   1 <1>   0.1010 
  8 N        0.2070    -2.7900     0.5440 N.3   1 <1>  -0.8100 
  9 C        3.2780     2.3840     0.8490 C.3   1 <1>  -0.2400 
 10 C        1.0390     2.9590    -0.1580 C.3   1 <1>  -0.2400 
 11 C       -1.0910    -2.1470     0.2310 C.3   1 <1>   0.1100 
 12 C       -0.1070    -4.1850     0.8690 C.3   1 <1>   0.1100 
 13 C       -2.1500    -3.2520     0.0720 C.3   1 <1>   0.2000 
 14 C       -1.3310    -4.5410     0.0300 C.3   1 <1>  -0.0800 
 15 O       -2.9900    -3.2760     1.1920 O.3   1 <1>  -0.5600 
 16 C       -2.0700    -5.7990     0.5250 C.3   1 <1>   0.0200 
 17 C       -4.0430    -2.3650     1.1610 C.3   1 <1>   0.0400 
 18 C       -1.2840    -7.0800     0.3020 C.2   1 <1>  -0.0400 
 19 O       -1.7520    -8.1960     0.7950 O.3   1 <1>  -0.0190 
 20 C       -0.1370    -7.3670    -0.3340 C.2   1 <1>  -0.1500 
 21 N       -0.9800    -9.2100     0.5270 N.2   1 <1>  -0.4100 
 22 C        0.0020    -8.7400    -0.1530 C.2   1 <1>   0.1080 
 23 C        1.1460    -9.5750    -0.6810 C.3   1 <1>  -0.0590 
 24 H        1.1370    -0.0390     0.9580 H     1 <1>   0.1500 
 25 H        2.0270    -3.3000    -0.3680 H     1 <1>   0.0800 
 26 H        0.7090    -3.0450    -1.4830 H     1 <1>   0.0800 
 27 H        2.8850     2.7730    -1.2100 H     1 <1>   0.0800 
 28 H        2.8100     1.9100     1.6930 H     1 <1>   0.0800 
 29 H        3.4600     3.4170     1.0870 H     1 <1>   0.0800 
 30 H        4.2220     1.9040     0.6650 H     1 <1>   0.0800 
 31 H        0.5200     2.5020     0.6650 H     1 <1>   0.0800 
 32 H        0.4290     2.8760    -1.0390 H     1 <1>   0.0800 
 33 H        1.1850     4.0020     0.0600 H     1 <1>   0.0800 
 34 H       -1.3590    -1.4860     1.0370 H     1 <1>   0.0800 
 35 H       -1.0240    -1.5710    -0.6760 H     1 <1>   0.0800 
 36 H        0.7270    -4.8420     0.6900 H     1 <1>   0.0800 
 37 H       -0.3660    -4.2370     1.9140 H     1 <1>   0.0800 
 38 H       -2.7470    -3.1310    -0.8160 H     1 <1>   0.0800 
 39 H       -1.0150    -4.7010    -0.9850 H     1 <1>   0.0800 
 40 H       -3.0110    -5.8850     0.0110 H     1 <1>   0.0800 
 41 H       -2.2820    -5.7050     1.5760 H     1 <1>   0.0800 
 42 H       -4.6020    -2.4720     2.0740 H     1 <1>   0.0800 
 43 H       -4.6790    -2.5840     0.3210 H     1 <1>   0.0800 
 44 H       -3.6540    -1.3640     1.0920 H     1 <1>   0.0800 
 45 H        0.5410    -6.7290    -0.8690 H     1 <1>   0.1500 
 46 H        2.0750    -9.2210    -0.2740 H     1 <1>   0.0800 
 47 H        1.1790    -9.5140    -1.7530 H     1 <1>   0.0800 
 48 H        1.0110   -10.6030    -0.3960 H     1 <1>   0.0800 
@<TRIPOS>BOND
  1   1   2  1   
  2   1   3  1   
  3   2   4  2   
  4   3   5  2   
  5   3   6  1   
  6   4   5  1   
  7   4   7  1   
  8   5  24  1   
  9   6   8  1   
 10   6  25  1   
 11   6  26  1   
 12   7   9  1   
 13   7  10  1   
 14   7  27  1   
 15   8  11  1   
 16   8  12  1   
 17   9  28  1   
 18   9  29  1   
 19   9  30  1   
 20  10  31  1   
 21  10  32  1   
 22  10  33  1   
 23  11  13  1   
 24  11  34  1   
 25  11  35  1   
 26  12  14  1   
 27  12  36  1   
 28  12  37  1   
 29  13  14  1   
 30  13  15  1   
 31  13  38  1   
 32  14  16  1   
 33  14  39  1   
 34  15  17  1   
 35  16  18  1   
 36  16  40  1   
 37  16  41  1   
 38  17  42  1   
 39  17  43  1   
 40  17  44  1   
 41  18  19  1   
 42  18  20  2   
 43  19  21  1   
 44  20  22  1   
 45  20  45  1   
 46  21  22  2   
 47  22  23  1   
 48  23  46  1   
 49  23  47  1   
 50  23  48  1   
@<TRIPOS>SUBSTRUCTURE
  1 ****   8 GROUP 4 **** **** 0

# MOE 2024.06 (io_trps.svl 2023.06)
