@<TRIPOS>MOLECULE
NONAME
37 39 1 0 0 
SMALL
USER_CHARGES


@<TRIPOS>ATOM
  1 N        1.5800     0.6200    -0.6130 N.ar  1 <1>  -0.1790 
  2 C        2.1910    -0.5990    -0.4880 C.ar  1 <1>   0.7710 
  3 C        0.2590     0.8020    -0.6590 C.ar  1 <1>   0.4610 
  4 N        1.4940    -1.7020    -0.3770 N.ar  1 <1>  -0.5670 
  5 N        3.5690    -0.6670    -0.5230 N.pl3 1 <1>  -0.8380 
  6 N       -0.2410     2.0390    -0.8130 N.pl3 1 <1>  -0.9000 
  7 C       -0.5070    -0.3610    -0.5360 C.ar  1 <1>   0.0000 
  8 C        0.1430    -1.5640    -0.3960 C.ar  1 <1>   0.1050 
  9 C        4.5180     0.2340     0.2180 C.3   1 <1>   0.3900 
 10 C        4.2320    -1.9300    -0.9830 C.3   1 <1>   0.1290 
 11 C       -1.8670    -0.7010    -0.5090 C.2   1 <1>   0.1390 
 12 N       -0.8200    -2.5140    -0.2940 N.pl3 1 <1>   0.3140 
 13 C        3.9960     1.6550     0.2430 C.2   1 <1>  -0.1810 
 14 N       -2.0590    -1.9680    -0.3650 N.2   1 <1>  -0.7070 
 15 C       -0.6380    -3.9640    -0.1290 C.3   1 <1>   0.0160 
 16 C        3.4160     2.3560     1.2450 C.2   1 <1>  -0.3320 
 17 C        3.9430     2.4940    -0.8650 C.2   1 <1>   0.1390 
 18 N        3.0400     3.5410     0.7200 N.pl3 1 <1>   0.3000 
 19 C        3.1800     1.9890     2.7030 C.3   1 <1>  -0.0600 
 20 N        3.3020     3.5880    -0.6010 N.2   1 <1>  -0.7070 
 21 H        2.2060     1.4220    -0.6310 H     1 <1>   0.4570 
 22 H       -1.2490     2.2300    -0.8600 H     1 <1>   0.4000 
 23 H        0.3170     2.8930    -0.9540 H     1 <1>   0.4000 
 24 H        5.4810     0.2280    -0.2650 H     1 <1>   0.0800 
 25 H        4.6480    -0.1330     1.2220 H     1 <1>   0.0800 
 26 H        3.5880    -2.4830    -1.6460 H     1 <1>   0.0800 
 27 H        4.4680    -2.5520    -0.1360 H     1 <1>   0.0800 
 28 H        5.1400    -1.7040    -1.5170 H     1 <1>   0.0800 
 29 H       -2.6710     0.0110    -0.5970 H     1 <1>   0.1500 
 30 H        0.4080    -4.1940    -0.0420 H     1 <1>   0.0800 
 31 H       -1.0510    -4.4670    -0.9830 H     1 <1>   0.0800 
 32 H       -1.1550    -4.2830     0.7570 H     1 <1>   0.0800 
 33 H        4.3460     2.2620    -1.8400 H     1 <1>   0.1500 
 34 H        2.6100     4.3280     1.2280 H     1 <1>   0.2700 
 35 H        3.5320     0.9950     2.9140 H     1 <1>   0.0800 
 36 H        2.1320     2.0350     2.9390 H     1 <1>   0.0800 
 37 H        3.7070     2.6740     3.3460 H     1 <1>   0.0800 
@<TRIPOS>BOND
  1   1   2  ar  
  2   1   3  ar  
  3   1  21  1   
  4   2   4  ar  
  5   2   5  1   
  6   3   6  1   
  7   3   7  ar  
  8   4   8  ar  
  9   5   9  1   
 10   5  10  1   
 11   6  22  1   
 12   6  23  1   
 13   7   8  ar  
 14   7  11  1   
 15   8  12  1   
 16   9  13  1   
 17   9  24  1   
 18   9  25  1   
 19  10  26  1   
 20  10  27  1   
 21  10  28  1   
 22  11  14  2   
 23  11  29  1   
 24  12  14  1   
 25  12  15  1   
 26  13  16  2   
 27  13  17  1   
 28  15  30  1   
 29  15  31  1   
 30  15  32  1   
 31  16  18  1   
 32  16  19  1   
 33  17  20  2   
 34  17  33  1   
 35  18  20  1   
 36  18  34  1   
 37  19  35  1   
 38  19  36  1   
 39  19  37  1   
@<TRIPOS>SUBSTRUCTURE
  1 ****   1 GROUP 4 **** **** 0

# MOE 2024.06 (io_trps.svl 2023.06)
