@<TRIPOS>MOLECULE
NONAME
42 44 1 0 0 
SMALL
USER_CHARGES


@<TRIPOS>ATOM
  1 CL       1.1210     0.9780    -2.6850 Cl    1 <1>  -0.1770 
  2 C        1.8750    -0.0890    -1.5290 C.ar  1 <1>   0.1770 
  3 C        1.8850    -1.4500    -1.7750 C.ar  1 <1>  -0.1500 
  4 C        2.4460     0.4400    -0.3890 C.ar  1 <1>  -0.1500 
  5 C        2.4750    -2.3210    -0.8680 C.ar  1 <1>  -0.1440 
  6 C        3.0360    -0.4170     0.5210 C.ar  1 <1>  -0.1500 
  7 C        3.0550    -1.7850     0.2860 C.ar  1 <1>   0.0830 
  8 C        2.4590    -3.8090    -1.2160 C.3   1 <1>   0.4870 
  9 O        3.6080    -2.5530     1.2470 O.3   1 <1>  -0.3630 
 10 N        1.9510    -4.6750    -0.1170 N.4   1 <1>  -0.9590 
 11 C        4.9430    -3.0330     1.0570 C.3   1 <1>   0.0140 
 12 C        1.8940    -6.1040    -0.5300 C.3   1 <1>   0.3430 
 13 C        0.7820    -4.1240     0.6210 C.3   1 <1>   0.3430 
 14 C        4.9330    -4.4370     0.4880 C.2   1 <1>   0.9060 
 15 C        0.4610    -6.4800    -0.8850 C.3   1 <1>  -0.1600 
 16 C        0.0290    -5.2350     1.3460 C.3   1 <1>  -0.1600 
 17 O        5.3430    -4.6320    -0.6580 O.co2 1 <1>  -0.9000 
 18 O        4.2950    -5.3130     1.0870 O.co2 1 <1>  -0.9000 
 19 C       -0.4320    -6.3180     0.3570 C.3   1 <1>   0.2580 
 20 O       -0.4970    -7.5510     1.0540 O.3   1 <1>  -0.5160 
 21 C       -1.9490    -6.4190     0.1210 C.3   1 <1>   0.0000 
 22 C       -1.7480    -7.8970     0.4660 C.3   1 <1>   0.2580 
 23 H        1.4310    -1.8070    -2.6830 H     1 <1>   0.1500 
 24 H        2.4270     1.5020    -0.2200 H     1 <1>   0.1500 
 25 H        3.4840    -0.0330     1.4210 H     1 <1>   0.1500 
 26 H        3.4480    -4.1200    -1.5020 H     1 <1>   0.0800 
 27 H        1.8300    -3.9470    -2.0780 H     1 <1>   0.0800 
 28 H        2.7550    -4.7010     0.5620 H     1 <1>   0.4500 
 29 H        5.4260    -3.0530     2.0140 H     1 <1>   0.0800 
 30 H        5.4710    -2.3720     0.3960 H     1 <1>   0.0800 
 31 H        2.2280    -6.7170     0.2930 H     1 <1>   0.0800 
 32 H        2.5630    -6.2800    -1.3570 H     1 <1>   0.0800 
 33 H        0.1140    -3.6440    -0.0740 H     1 <1>   0.0800 
 34 H        1.1220    -3.3840     1.3280 H     1 <1>   0.0800 
 35 H        0.4340    -7.4940    -1.2430 H     1 <1>   0.0800 
 36 H        0.1180    -5.8390    -1.6770 H     1 <1>   0.0800 
 37 H       -0.8080    -4.8110     1.8680 H     1 <1>   0.0800 
 38 H        0.6910    -5.6650     2.0780 H     1 <1>   0.0800 
 39 H       -2.2600    -6.2460    -0.8940 H     1 <1>   0.0000 
 40 H       -2.5530    -5.9020     0.8460 H     1 <1>   0.0000 
 41 H       -2.4180    -8.2850     1.2110 H     1 <1>   0.0000 
 42 H       -1.5900    -8.5400    -0.3830 H     1 <1>   0.0000 
@<TRIPOS>BOND
  1   1   2  1   
  2   2   3  ar  
  3   2   4  ar  
  4   3   5  ar  
  5   3  23  1   
  6   4   6  ar  
  7   4  24  1   
  8   5   7  ar  
  9   5   8  1   
 10   6   7  ar  
 11   6  25  1   
 12   7   9  1   
 13   8  10  1   
 14   8  26  1   
 15   8  27  1   
 16   9  11  1   
 17  10  12  1   
 18  10  13  1   
 19  10  28  1   
 20  11  14  1   
 21  11  29  1   
 22  11  30  1   
 23  12  15  1   
 24  12  31  1   
 25  12  32  1   
 26  13  16  1   
 27  13  33  1   
 28  13  34  1   
 29  14  17  ar  
 30  14  18  ar  
 31  15  19  1   
 32  15  35  1   
 33  15  36  1   
 34  16  19  1   
 35  16  37  1   
 36  16  38  1   
 37  19  20  1   
 38  19  21  1   
 39  20  22  1   
 40  21  22  1   
 41  21  39  1   
 42  21  40  1   
 43  22  41  1   
 44  22  42  1   
@<TRIPOS>SUBSTRUCTURE
  1 ****  10 GROUP 4 **** **** 0

# MOE 2024.06 (io_trps.svl 2023.06)
