@<TRIPOS>MOLECULE
NONAME
45 46 1 0 0 
SMALL
USER_CHARGES


@<TRIPOS>ATOM
  1 S        0.9500     0.9690     0.1420 S.o2  1 <1>   1.4470 
  2 O       -0.1800     1.8340    -0.0890 O.2   1 <1>  -0.6500 
  3 O        2.1250     1.4880     0.8110 O.2   1 <1>  -0.6500 
  4 N        1.4310     0.5150    -1.3990 N.am  1 <1>  -0.9140 
  5 C        0.4270    -0.5940     0.9000 C.ar  1 <1>  -0.0090 
  6 C        2.5390     1.3220    -1.9530 C.3   1 <1>   0.2570 
  7 C       -0.9180    -0.8570     1.1520 C.ar  1 <1>  -0.1500 
  8 C        1.3660    -1.5680     1.2320 C.ar  1 <1>  -0.1500 
  9 C        2.2350     2.8180    -2.1290 C.2   1 <1>   0.5690 
 10 C       -1.3340    -2.0520     1.7210 C.ar  1 <1>  -0.1440 
 11 C        0.9790    -2.7700     1.8010 C.ar  1 <1>  -0.1500 
 12 O        1.8500     3.2040    -3.2060 O.2   1 <1>  -0.5700 
 13 N        2.3930     3.6600    -1.0720 N.am  1 <1>  -0.7300 
 14 C       -0.3630    -2.9900     2.0360 C.ar  1 <1>   0.1900 
 15 C       -2.8080    -2.3180     1.9900 C.3   1 <1>  -0.0970 
 16 C        2.0370     5.0900    -1.0630 C.3   1 <1>   0.1400 
 17 F       -0.7160    -4.1280     2.5730 F     1 <1>  -0.1900 
 18 C        3.1830     5.8860    -0.4400 C.3   1 <1>  -0.1600 
 19 C        2.8640     7.3850    -0.4080 C.3   1 <1>  -0.0170 
 20 C        4.0130     8.1630     0.2120 C.ar  1 <1>  -0.1430 
 21 C        5.0070     8.7200    -0.5830 C.ar  1 <1>   0.1600 
 22 C        4.0900     8.3280     1.5800 C.ar  1 <1>  -0.1500 
 23 N        6.0410     9.4130    -0.1340 N.ar  1 <1>  -0.6200 
 24 C        5.1620     9.0460     2.0660 C.ar  1 <1>  -0.1500 
 25 C        6.0930     9.5590     1.1800 C.ar  1 <1>   0.1600 
 26 H        0.6100     0.7280    -1.9690 H     1 <1>   0.4200 
 27 H        2.7920     0.9280    -2.9210 H     1 <1>   0.0800 
 28 H        3.4110     1.2150    -1.3310 H     1 <1>   0.0800 
 29 H       -1.6510    -0.1090     0.8970 H     1 <1>   0.1500 
 30 H        2.4100    -1.3820     1.0430 H     1 <1>   0.1500 
 31 H        1.7020    -3.5240     2.0600 H     1 <1>   0.1500 
 32 H        2.5940     3.2490    -0.1490 H     1 <1>   0.3700 
 33 H       -3.4160    -1.4900     1.6730 H     1 <1>   0.0800 
 34 H       -2.9660    -2.4760     3.0420 H     1 <1>   0.0800 
 35 H       -3.1240    -3.1990     1.4590 H     1 <1>   0.0800 
 36 H        1.1330     5.2230    -0.4920 H     1 <1>   0.0800 
 37 H        1.8560     5.4290    -2.0710 H     1 <1>   0.0800 
 38 H        4.0780     5.7280    -1.0180 H     1 <1>   0.0800 
 39 H        3.3560     5.5400     0.5630 H     1 <1>   0.0800 
 40 H        1.9680     7.5550     0.1640 H     1 <1>   0.0800 
 41 H        2.6840     7.7410    -1.4080 H     1 <1>   0.0800 
 42 H        4.9480     8.5880    -1.6500 H     1 <1>   0.1500 
 43 H        3.3500     7.9160     2.2430 H     1 <1>   0.1500 
 44 H        5.2770     9.2080     3.1220 H     1 <1>   0.1500 
 45 H        6.9250    10.1180     1.5720 H     1 <1>   0.1500 
@<TRIPOS>BOND
  1   1   2  2   
  2   1   3  2   
  3   1   4  am  
  4   1   5  1   
  5   4   6  1   
  6   4  26  1   
  7   5   7  ar  
  8   5   8  ar  
  9   6   9  1   
 10   6  27  1   
 11   6  28  1   
 12   7  10  ar  
 13   7  29  1   
 14   8  11  ar  
 15   8  30  1   
 16   9  12  2   
 17   9  13  am  
 18  10  14  ar  
 19  10  15  1   
 20  11  14  ar  
 21  11  31  1   
 22  13  16  1   
 23  13  32  1   
 24  14  17  1   
 25  15  33  1   
 26  15  34  1   
 27  15  35  1   
 28  16  18  1   
 29  16  36  1   
 30  16  37  1   
 31  18  19  1   
 32  18  38  1   
 33  18  39  1   
 34  19  20  1   
 35  19  40  1   
 36  19  41  1   
 37  20  21  ar  
 38  20  22  ar  
 39  21  23  ar  
 40  21  42  1   
 41  22  24  ar  
 42  22  43  1   
 43  23  25  ar  
 44  24  25  ar  
 45  24  44  1   
 46  25  45  1   
@<TRIPOS>SUBSTRUCTURE
  1 ****   3 GROUP 4 **** **** 0

# MOE 2024.06 (io_trps.svl 2023.06)
