@<TRIPOS>MOLECULE
NONAME
50 51 1 0 0 
SMALL
USER_CHARGES


@<TRIPOS>ATOM
  1 F        0.4090    -5.7730    -1.2570 F     1 <1>  -0.1900 
  2 C       -0.3190    -4.8150    -0.7440 C.ar  1 <1>   0.1900 
  3 C        0.1290    -4.1460     0.3840 C.ar  1 <1>  -0.1440 
  4 C       -1.5210    -4.5190    -1.3570 C.ar  1 <1>  -0.1500 
  5 C       -0.6760    -3.1430     0.9000 C.ar  1 <1>  -0.1500 
  6 C        1.4610    -4.4900     1.0340 C.3   1 <1>  -0.0960 
  7 C       -2.3280    -3.5250    -0.8220 C.ar  1 <1>  -0.1430 
  8 C       -1.8900    -2.8360     0.3020 C.ar  1 <1>  -0.1500 
  9 C       -3.6820    -3.1960    -1.4500 C.3   1 <1>   0.0450 
 10 C       -4.4440    -4.4270    -1.9310 C.2   1 <1>   0.5690 
 11 O       -4.8590    -4.4180    -3.0640 O.2   1 <1>  -0.5700 
 12 N       -4.6700    -5.5170    -1.1310 N.am  1 <1>  -0.6600 
 13 C       -4.8580    -6.8360    -1.8350 C.3   1 <1>   0.3210 
 14 C       -4.6310    -5.4810     0.3740 C.3   1 <1>   0.1400 
 15 C       -4.7390    -8.0620    -0.9320 C.2   1 <1>   0.0460 
 16 C       -6.0110    -5.2240     1.0220 C.3   1 <1>   0.3430 
 17 N       -5.7960    -8.5270    -0.2280 N.2   1 <1>  -0.5650 
 18 C       -3.6410    -8.8230    -0.7090 C.2   1 <1>  -0.3320 
 19 N       -7.1200    -6.0440     0.4370 N.4   1 <1>  -0.9590 
 20 C       -5.3260    -9.5680     0.3820 C.2   1 <1>   0.0360 
 21 N       -4.0210    -9.8010     0.1330 N.pl3 1 <1>   0.0330 
 22 C       -2.2200    -8.7030    -1.2380 C.3   1 <1>  -0.0600 
 23 C       -7.7740    -5.3780    -0.7310 C.3   1 <1>   0.2630 
 24 C       -8.1250    -6.4460     1.4610 C.3   1 <1>   0.2630 
 25 H       -1.8080    -5.0670    -2.2370 H     1 <1>   0.1500 
 26 H       -0.3610    -2.5920     1.7690 H     1 <1>   0.1500 
 27 H        2.2600    -4.3470     0.3290 H     1 <1>   0.0800 
 28 H        1.4600    -5.5180     1.3500 H     1 <1>   0.0800 
 29 H        1.6460    -3.8680     1.8910 H     1 <1>   0.0800 
 30 H       -2.4890    -2.0470     0.7240 H     1 <1>   0.1500 
 31 H       -3.5140    -2.5470    -2.2910 H     1 <1>   0.0800 
 32 H       -4.3000    -2.6630    -0.7520 H     1 <1>   0.0800 
 33 H       -4.1200    -6.9160    -2.6140 H     1 <1>   0.0800 
 34 H       -5.8200    -6.8510    -2.3160 H     1 <1>   0.0800 
 35 H       -3.9680    -4.7070     0.7090 H     1 <1>   0.0800 
 36 H       -4.2190    -6.3940     0.7650 H     1 <1>   0.0800 
 37 H       -6.2530    -4.1780     0.9310 H     1 <1>   0.0800 
 38 H       -5.9220    -5.4420     2.0730 H     1 <1>   0.0800 
 39 H       -6.6700    -6.9240     0.0900 H     1 <1>   0.4500 
 40 H       -5.9000   -10.2080     1.0310 H     1 <1>   0.1500 
 41 H       -3.4470   -10.5680     0.4990 H     1 <1>   0.2700 
 42 H       -2.1130    -7.8330    -1.8610 H     1 <1>   0.0800 
 43 H       -1.9660    -9.5710    -1.8210 H     1 <1>   0.0800 
 44 H       -1.5240    -8.6170    -0.4230 H     1 <1>   0.0800 
 45 H       -8.2710    -4.4740    -0.4180 H     1 <1>   0.0800 
 46 H       -8.5020    -6.0380    -1.1740 H     1 <1>   0.0800 
 47 H       -7.0440    -5.1260    -1.4820 H     1 <1>   0.0800 
 48 H       -8.6160    -5.5770     1.8680 H     1 <1>   0.0800 
 49 H       -7.6440    -6.9850     2.2610 H     1 <1>   0.0800 
 50 H       -8.8680    -7.0890     1.0170 H     1 <1>   0.0800 
@<TRIPOS>BOND
  1   1   2  1   
  2   2   3  ar  
  3   2   4  ar  
  4   3   5  ar  
  5   3   6  1   
  6   4   7  ar  
  7   4  25  1   
  8   5   8  ar  
  9   5  26  1   
 10   6  27  1   
 11   6  28  1   
 12   6  29  1   
 13   7   8  ar  
 14   7   9  1   
 15   8  30  1   
 16   9  10  1   
 17   9  31  1   
 18   9  32  1   
 19  10  11  2   
 20  10  12  am  
 21  12  13  1   
 22  12  14  1   
 23  13  15  1   
 24  13  33  1   
 25  13  34  1   
 26  14  16  1   
 27  14  35  1   
 28  14  36  1   
 29  15  17  1   
 30  15  18  2   
 31  16  19  1   
 32  16  37  1   
 33  16  38  1   
 34  17  20  2   
 35  18  21  1   
 36  18  22  1   
 37  19  23  1   
 38  19  24  1   
 39  19  39  1   
 40  20  21  1   
 41  20  40  1   
 42  21  41  1   
 43  22  42  1   
 44  22  43  1   
 45  22  44  1   
 46  23  45  1   
 47  23  46  1   
 48  23  47  1   
 49  24  48  1   
 50  24  49  1   
 51  24  50  1   
@<TRIPOS>SUBSTRUCTURE
  1 ****  12 GROUP 4 **** **** 0

# MOE 2024.06 (io_trps.svl 2023.06)
