@<TRIPOS>MOLECULE
Untitled Document
42 45 1 0 0 
SMALL
USER_CHARGES


@<TRIPOS>ATOM
  1 S        0.2200     2.3710     0.9250 S.3   1 <1>  -0.0800 
  2 C       -1.0910     1.6960    -0.0250 C.2   1 <1>   0.1980 
  3 C        1.3350     1.8850    -0.3180 C.2   1 <1>  -0.1100 
  4 N       -0.7220     1.1740    -1.1290 N.2   1 <1>  -0.5650 
  5 C       -2.4980     1.7970     0.5520 C.3   1 <1>   0.2900 
  6 C        0.6500     1.2800    -1.2990 C.2   1 <1>   0.0770 
  7 N       -2.9900     3.1920     0.6310 N.3   1 <1>  -0.8100 
  8 C       -4.3060     3.2610     1.2900 C.3   1 <1>   0.1100 
  9 C       -3.0640     3.8140    -0.7090 C.3   1 <1>   0.1100 
 10 C       -4.8350     4.7100     1.3190 C.3   1 <1>   0.2000 
 11 C       -3.6500     5.2350    -0.6290 C.3   1 <1>   0.1200 
 12 O       -4.8920     5.2160     0.0150 O.3   1 <1>  -0.5600 
 13 C       -6.2340     4.7840     1.9300 C.3   1 <1>   0.0960 
 14 N       -6.7140     6.1740     1.9550 N.pl3 1 <1>   0.3140 
 15 N       -6.3010     7.0780     2.8670 N.2   1 <1>  -0.4180 
 16 C       -7.6290     6.7340     1.1420 C.ar  1 <1>   0.1050 
 17 N       -6.9040     8.1880     2.6440 N.2   1 <1>  -0.2270 
 18 N       -8.3390     6.2350     0.1170 N.ar  1 <1>  -0.5670 
 19 C       -7.7320     8.0110     1.5810 C.ar  1 <1>   0.2270 
 20 C       -9.1550     7.0920    -0.4840 C.ar  1 <1>   0.4770 
 21 C       -8.6270     8.8400     0.8900 C.ar  1 <1>   0.4100 
 22 N       -9.3230     8.3920    -0.1240 N.ar  1 <1>  -0.6200 
 23 C      -10.0050     6.5820    -1.7020 C.3   1 <1>   1.1640 
 24 N       -8.8350    10.1430     1.2140 N.pl3 1 <1>  -0.9000 
 25 F       -9.8760     7.3460    -2.7880 F     1 <1>  -0.3400 
 26 F       -9.6920     5.3470    -2.1030 F     1 <1>  -0.3400 
 27 F      -11.3110     6.5460    -1.4380 F     1 <1>  -0.3400 
 28 H        2.3780     2.1050    -0.1790 H     1 <1>   0.1500 
 29 H       -2.4870     1.3680     1.5380 H     1 <1>   0.0800 
 30 H       -3.1620     1.2130    -0.0610 H     1 <1>   0.0800 
 31 H        1.0740     0.8720    -2.2010 H     1 <1>   0.1500 
 32 H       -5.0120     2.6380     0.7660 H     1 <1>   0.0800 
 33 H       -4.2150     2.8990     2.2990 H     1 <1>   0.0800 
 34 H       -2.0780     3.8720    -1.1390 H     1 <1>   0.0800 
 35 H       -3.6780     3.2180    -1.3630 H     1 <1>   0.0800 
 36 H       -4.1620     5.3240     1.8940 H     1 <1>   0.0800 
 37 H       -3.7970     5.6330    -1.6170 H     1 <1>   0.0800 
 38 H       -2.9880     5.8860    -0.0860 H     1 <1>   0.0800 
 39 H       -6.2120     4.4180     2.9390 H     1 <1>   0.0800 
 40 H       -6.9170     4.1850     1.3570 H     1 <1>   0.0800 
 41 H       -9.4460    10.7180     0.6320 H     1 <1>   0.4000 
 42 H       -8.2860    10.6160     1.9370 H     1 <1>   0.4000 
@<TRIPOS>BOND
  1   1   2  1   
  2   1   3  1   
  3   2   4  2   
  4   2   5  1   
  5   3   6  2   
  6   3  28  1   
  7   4   6  1   
  8   5   7  1   
  9   5  29  1   
 10   5  30  1   
 11   6  31  1   
 12   7   8  1   
 13   7   9  1   
 14   8  10  1   
 15   8  32  1   
 16   8  33  1   
 17   9  11  1   
 18   9  34  1   
 19   9  35  1   
 20  10  12  1   
 21  10  13  1   
 22  10  36  1   
 23  11  12  1   
 24  11  37  1   
 25  11  38  1   
 26  13  14  1   
 27  13  39  1   
 28  13  40  1   
 29  14  15  1   
 30  14  16  1   
 31  15  17  2   
 32  16  18  ar  
 33  16  19  ar  
 34  17  19  1   
 35  18  20  ar  
 36  19  21  ar  
 37  20  22  ar  
 38  20  23  1   
 39  21  22  ar  
 40  21  24  1   
 41  23  25  1   
 42  23  26  1   
 43  23  27  1   
 44  24  41  1   
 45  24  42  1   
@<TRIPOS>SUBSTRUCTURE
  1 ****  12 GROUP 4 **** **** 0

# MOE 2024.06 (io_trps.svl 2023.06)
