@<TRIPOS>MOLECULE
NONAME
43 45 1 0 0 
SMALL
USER_CHARGES


@<TRIPOS>ATOM
  1 CL      -2.0140    -1.5770    -1.0190 Cl    1 <1>  -0.1770 
  2 C       -2.3260    -0.1520    -0.0500 C.ar  1 <1>   0.1770 
  3 C       -2.9980    -0.3000     1.1610 C.ar  1 <1>   0.0860 
  4 C       -1.9070     1.0870    -0.5220 C.ar  1 <1>  -0.1440 
  5 C       -3.2390     0.8680     1.8750 C.ar  1 <1>   0.1900 
  6 C       -3.4170    -1.5890     1.6400 C.2   1 <1>   0.5440 
  7 C       -2.1660     2.2240     0.2320 C.ar  1 <1>  -0.1500 
  8 C       -1.1690     1.2150    -1.8480 C.3   1 <1>  -0.0970 
  9 F       -3.8840     0.8030     3.0070 F     1 <1>  -0.1900 
 10 C       -2.8370     2.1160     1.4380 C.ar  1 <1>  -0.1500 
 11 O       -2.7220    -2.1950     2.4320 O.2   1 <1>  -0.5700 
 12 N       -4.5870    -2.1620     1.2040 N.am  1 <1>  -0.6600 
 13 C       -5.5000    -1.5860     0.1830 C.3   1 <1>   0.1400 
 14 C       -4.9330    -3.5820     1.4680 C.3   1 <1>   0.1400 
 15 C       -6.5880    -2.6450    -0.0080 C.3   1 <1>   0.2000 
 16 C       -5.9000    -3.9670     0.3410 C.3   1 <1>  -0.0800 
 17 O       -7.5880    -2.4140     0.9220 O.3   1 <1>  -0.6800 
 18 C       -5.1450    -4.5290    -0.8790 C.3   1 <1>   0.0210 
 19 C       -4.4460    -5.8330    -0.5500 C.2   1 <1>   0.1080 
 20 N       -5.0840    -6.9470    -0.3710 N.2   1 <1>  -0.7070 
 21 C       -3.0720    -5.9820    -0.3980 C.2   1 <1>  -0.1500 
 22 N       -4.1220    -7.8490    -0.0980 N.pl3 1 <1>   0.3000 
 23 C       -2.8940    -7.2880    -0.1080 C.2   1 <1>  -0.3320 
 24 C       -1.6070    -8.0420     0.1680 C.3   1 <1>  -0.0600 
 25 H       -1.8490     3.1940    -0.1120 H     1 <1>   0.1500 
 26 H       -0.9120     2.2380    -2.0540 H     1 <1>   0.0800 
 27 H       -1.7860     0.8510    -2.6510 H     1 <1>   0.0800 
 28 H       -0.2610     0.6370    -1.8210 H     1 <1>   0.0800 
 29 H       -3.0470     2.9870     2.0330 H     1 <1>   0.1500 
 30 H       -5.9130    -0.6460     0.5060 H     1 <1>   0.0800 
 31 H       -4.9600    -1.4490    -0.7370 H     1 <1>   0.0800 
 32 H       -4.0510    -4.1990     1.4910 H     1 <1>   0.0800 
 33 H       -5.4250    -3.6490     2.4230 H     1 <1>   0.0800 
 34 H       -7.0310    -2.6290    -0.9900 H     1 <1>   0.0800 
 35 H       -6.6090    -4.7060     0.6720 H     1 <1>   0.0800 
 36 H       -7.1860    -2.3540     1.8120 H     1 <1>   0.4000 
 37 H       -4.4150    -3.8240    -1.2330 H     1 <1>   0.0800 
 38 H       -5.8410    -4.7180    -1.6760 H     1 <1>   0.0800 
 39 H       -2.3350    -5.2030    -0.4930 H     1 <1>   0.1500 
 40 H       -4.3350    -8.8350     0.0900 H     1 <1>   0.2700 
 41 H       -0.7670    -7.3720     0.1050 H     1 <1>   0.0800 
 42 H       -1.4730    -8.8280    -0.5540 H     1 <1>   0.0800 
 43 H       -1.6300    -8.4690     1.1550 H     1 <1>   0.0800 
@<TRIPOS>BOND
  1   1   2  1   
  2   2   3  ar  
  3   2   4  ar  
  4   3   5  ar  
  5   3   6  1   
  6   4   7  ar  
  7   4   8  1   
  8   5   9  1   
  9   5  10  ar  
 10   6  11  2   
 11   6  12  am  
 12   7  10  ar  
 13   7  25  1   
 14   8  26  1   
 15   8  27  1   
 16   8  28  1   
 17  10  29  1   
 18  12  13  1   
 19  12  14  1   
 20  13  15  1   
 21  13  30  1   
 22  13  31  1   
 23  14  16  1   
 24  14  32  1   
 25  14  33  1   
 26  15  16  1   
 27  15  17  1   
 28  15  34  1   
 29  16  18  1   
 30  16  35  1   
 31  17  36  1   
 32  18  19  1   
 33  18  37  1   
 34  18  38  1   
 35  19  20  2   
 36  19  21  1   
 37  20  22  1   
 38  21  23  2   
 39  21  39  1   
 40  22  23  1   
 41  22  40  1   
 42  23  24  1   
 43  24  41  1   
 44  24  42  1   
 45  24  43  1   
@<TRIPOS>SUBSTRUCTURE
  1 ****  12 GROUP 4 **** **** 0

# MOE 2024.06 (io_trps.svl 2023.06)
