@<TRIPOS>MOLECULE
NONAME
51 53 1 0 0 
SMALL
USER_CHARGES


@<TRIPOS>ATOM
  1 O        1.0180    -0.4390     0.9570 O.3   1 <1>  -0.6800 
  2 C        1.5610     0.5320     0.1360 C.3   1 <1>   0.2000 
  3 C        2.9030     0.0250    -0.4560 C.3   1 <1>   0.0000 
  4 C        1.6530     1.8550     0.9160 C.3   1 <1>  -0.1600 
  5 C        3.4910     1.2050    -1.2580 C.3   1 <1>   0.3430 
  6 C        2.5590    -1.0920    -1.4680 C.3   1 <1>   0.1200 
  7 C        3.8780    -0.5580     0.6320 C.3   1 <1>  -0.0170 
  8 C        3.0440     2.4840     0.8860 C.3   1 <1>   0.3430 
  9 N        3.5950     2.4970    -0.5000 N.4   1 <1>  -0.9590 
 10 O        3.6500    -1.3400    -2.2900 O.3   1 <1>  -0.6800 
 11 C        5.2990     0.0090     0.6980 C.ar  1 <1>  -0.1440 
 12 C        5.0020     2.9950    -0.5010 C.3   1 <1>   0.5230 
 13 C        6.1840    -0.1440    -0.3600 C.ar  1 <1>  -0.1500 
 14 C        5.7370     0.6560     1.8470 C.ar  1 <1>  -0.1500 
 15 C        5.0020     4.4940    -0.2630 C.2   1 <1>   0.0060 
 16 C        7.4630     0.3810    -0.2930 C.ar  1 <1>  -0.1500 
 17 C        7.0180     1.1770     1.9190 C.ar  1 <1>  -0.1500 
 18 N        3.9640     5.2430    -0.4360 N.2   1 <1>  -0.3380 
 19 N        6.0620     5.2050     0.1420 N.pl3 1 <1>   0.0480 
 20 C        7.8800     1.0470     0.8450 C.ar  1 <1>  -0.1500 
 21 N        4.3270     6.4860    -0.1350 N.2   1 <1>  -0.3380 
 22 C        5.5690     6.4440     0.2010 C.2   1 <1>   0.0360 
 23 C        7.4420     4.7790     0.4700 C.3   1 <1>   0.0960 
 24 C        8.2240     4.4180    -0.7970 C.3   1 <1>  -0.2400 
 25 H        0.1140    -0.1980     1.2460 H     1 <1>   0.4000 
 26 H        0.8610     0.6760    -0.6710 H     1 <1>   0.0800 
 27 H        0.9590     2.5590     0.4940 H     1 <1>   0.0800 
 28 H        1.3760     1.7110     1.9460 H     1 <1>   0.0800 
 29 H        2.8570     1.3660    -2.1140 H     1 <1>   0.0800 
 30 H        4.4540     0.9190    -1.6450 H     1 <1>   0.0800 
 31 H        1.7370    -0.8060    -2.1030 H     1 <1>   0.0800 
 32 H        2.2950    -2.0050    -0.9590 H     1 <1>   0.0800 
 33 H        3.4370    -0.4480     1.6070 H     1 <1>   0.0800 
 34 H        3.9750    -1.6220     0.4970 H     1 <1>   0.0800 
 35 H        3.6930     1.9140     1.5260 H     1 <1>   0.0800 
 36 H        2.9960     3.4900     1.2740 H     1 <1>   0.0800 
 37 H        3.0850     3.2410    -1.0050 H     1 <1>   0.4500 
 38 H        3.5010    -2.1460    -2.8290 H     1 <1>   0.4000 
 39 H        5.5760     2.4990     0.2600 H     1 <1>   0.0800 
 40 H        5.4600     2.7970    -1.4550 H     1 <1>   0.0800 
 41 H        5.8890    -0.6880    -1.2420 H     1 <1>   0.1500 
 42 H        5.0920     0.7450     2.7040 H     1 <1>   0.1500 
 43 H        8.1400     0.2530    -1.1210 H     1 <1>   0.1500 
 44 H        7.3500     1.6670     2.8200 H     1 <1>   0.1500 
 45 H        8.8810     1.4390     0.9030 H     1 <1>   0.1500 
 46 H        6.1510     7.3000     0.4970 H     1 <1>   0.1500 
 47 H        7.9380     5.5850     0.9810 H     1 <1>   0.0800 
 48 H        7.4010     3.9370     1.1370 H     1 <1>   0.0800 
 49 H        8.2570     5.2590    -1.4700 H     1 <1>   0.0800 
 50 H        7.7860     3.5760    -1.3010 H     1 <1>   0.0800 
 51 H        9.2360     4.1620    -0.5350 H     1 <1>   0.0800 
@<TRIPOS>BOND
  1   1   2  1   
  2   1  25  1   
  3   2   3  1   
  4   2   4  1   
  5   2  26  1   
  6   3   5  1   
  7   3   6  1   
  8   3   7  1   
  9   4   8  1   
 10   4  27  1   
 11   4  28  1   
 12   5   9  1   
 13   5  29  1   
 14   5  30  1   
 15   6  10  1   
 16   6  31  1   
 17   6  32  1   
 18   7  11  1   
 19   7  33  1   
 20   7  34  1   
 21   8   9  1   
 22   8  35  1   
 23   8  36  1   
 24   9  12  1   
 25   9  37  1   
 26  10  38  1   
 27  11  13  ar  
 28  11  14  ar  
 29  12  15  1   
 30  12  39  1   
 31  12  40  1   
 32  13  16  ar  
 33  13  41  1   
 34  14  17  ar  
 35  14  42  1   
 36  15  18  2   
 37  15  19  1   
 38  16  20  ar  
 39  16  43  1   
 40  17  20  ar  
 41  17  44  1   
 42  18  21  1   
 43  19  22  1   
 44  19  23  1   
 45  20  45  1   
 46  21  22  2   
 47  22  46  1   
 48  23  24  1   
 49  23  47  1   
 50  23  48  1   
 51  24  49  1   
 52  24  50  1   
 53  24  51  1   
@<TRIPOS>SUBSTRUCTURE
  1 ****  12 GROUP 4 **** **** 0

# MOE 2024.06 (io_trps.svl 2023.06)
