@<TRIPOS>MOLECULE
NONAME
45 47 1 0 0 
SMALL
USER_CHARGES


@<TRIPOS>ATOM
  1 O       -1.9980     0.2690    -1.9040 O.2   1 <1>  -0.5700 
  2 C       -1.8910     0.3890    -0.7050 C.2   1 <1>   0.5690 
  3 N       -1.9060    -0.7010     0.1040 N.am  1 <1>  -0.7300 
  4 C       -1.7870     1.7910    -0.0690 C.3   1 <1>   0.0610 
  5 C       -2.0160    -2.1040    -0.3540 C.3   1 <1>   0.2200 
  6 C       -1.1690     2.8320    -1.0160 C.3   1 <1>  -0.1600 
  7 C       -0.8170     1.8340     1.1250 C.3   1 <1>  -0.1600 
  8 C       -3.1910     2.2540     0.3770 C.3   1 <1>  -0.2400 
  9 C       -3.4200    -2.6480    -0.1290 C.3   1 <1>  -0.0800 
 10 C       -1.2190    -2.9910     0.5920 C.3   1 <1>   0.1200 
 11 C       -0.5730     3.9270    -0.1270 C.3   1 <1>  -0.1600 
 12 C       -0.3500     3.2880     1.2470 C.3   1 <1>  -0.1600 
 13 C       -3.3840    -3.1070     1.3330 C.3   1 <1>   0.1200 
 14 C       -4.5770    -1.6870    -0.4640 C.3   1 <1>  -0.0170 
 15 O       -2.0370    -3.1520     1.7110 O.3   1 <1>  -0.5600 
 16 C       -5.9220    -2.3750    -0.2910 C.ar  1 <1>  -0.1440 
 17 C       -6.6850    -2.2180     0.8490 C.ar  1 <1>  -0.1500 
 18 C       -6.4470    -3.1940    -1.2690 C.ar  1 <1>  -0.1500 
 19 C       -7.9000    -2.8750     0.9540 C.ar  1 <1>   0.1600 
 20 C       -7.6740    -3.8050    -1.0640 C.ar  1 <1>   0.1600 
 21 N       -8.4120    -3.6670     0.0260 N.ar  1 <1>  -0.6200 
 22 H       -1.8530    -0.5940     1.1190 H     1 <1>   0.3700 
 23 H       -1.6910    -2.1970    -1.3770 H     1 <1>   0.0800 
 24 H       -0.3710     2.3690    -1.5720 H     1 <1>   0.0800 
 25 H       -1.8860     3.2210    -1.7190 H     1 <1>   0.0800 
 26 H       -1.2650     1.4810     2.0370 H     1 <1>   0.0800 
 27 H        0.0400     1.2210     0.9020 H     1 <1>   0.0800 
 28 H       -3.1620     3.2370     0.8110 H     1 <1>   0.0800 
 29 H       -3.5980     1.5730     1.1020 H     1 <1>   0.0800 
 30 H       -3.8530     2.2780    -0.4710 H     1 <1>   0.0800 
 31 H       -3.5310    -3.5280    -0.7380 H     1 <1>   0.0800 
 32 H       -0.2810    -2.5540     0.8850 H     1 <1>   0.0800 
 33 H       -1.0540    -3.9620     0.1590 H     1 <1>   0.0800 
 34 H        0.3480     4.2980    -0.5440 H     1 <1>   0.0800 
 35 H       -1.2670     4.7460    -0.0380 H     1 <1>   0.0800 
 36 H       -0.9400     3.8040     1.9850 H     1 <1>   0.0800 
 37 H        0.6860     3.3350     1.5380 H     1 <1>   0.0800 
 38 H       -3.8150    -4.0870     1.4540 H     1 <1>   0.0800 
 39 H       -3.8800    -2.4090     1.9840 H     1 <1>   0.0800 
 40 H       -4.4760    -1.3500    -1.4820 H     1 <1>   0.0800 
 41 H       -4.5390    -0.8170     0.1670 H     1 <1>   0.0800 
 42 H       -6.3500    -1.5920     1.6550 H     1 <1>   0.1500 
 43 H       -5.9160    -3.3620    -2.1870 H     1 <1>   0.1500 
 44 H       -8.4820    -2.7410     1.8500 H     1 <1>   0.1500 
 45 H       -8.0680    -4.4410    -1.8380 H     1 <1>   0.1500 
@<TRIPOS>BOND
  1   1   2  2   
  2   2   3  am  
  3   2   4  1   
  4   3   5  1   
  5   3  22  1   
  6   4   6  1   
  7   4   7  1   
  8   4   8  1   
  9   5   9  1   
 10   5  10  1   
 11   5  23  1   
 12   6  11  1   
 13   6  24  1   
 14   6  25  1   
 15   7  12  1   
 16   7  26  1   
 17   7  27  1   
 18   8  28  1   
 19   8  29  1   
 20   8  30  1   
 21   9  13  1   
 22   9  14  1   
 23   9  31  1   
 24  10  15  1   
 25  10  32  1   
 26  10  33  1   
 27  11  12  1   
 28  11  34  1   
 29  11  35  1   
 30  12  36  1   
 31  12  37  1   
 32  13  15  1   
 33  13  38  1   
 34  13  39  1   
 35  14  16  1   
 36  14  40  1   
 37  14  41  1   
 38  16  17  ar  
 39  16  18  ar  
 40  17  19  ar  
 41  17  42  1   
 42  18  20  ar  
 43  18  43  1   
 44  19  21  ar  
 45  19  44  1   
 46  20  21  ar  
 47  20  45  1   
@<TRIPOS>SUBSTRUCTURE
  1 ****  14 GROUP 4 **** **** 0

# MOE 2024.06 (io_trps.svl 2023.06)
