@<TRIPOS>MOLECULE
NONAME
54 58 1 0 0 
SMALL
USER_CHARGES


@<TRIPOS>ATOM
  1 O       -3.1330    -0.8980     0.9620 O.2   1 <1>  -0.5700 
  2 C       -2.9120     0.2850     0.9150 C.2   1 <1>   0.5950 
  3 C       -3.4060     1.1780    -0.0970 C.2   1 <1>  -0.0860 
  4 C       -2.0110     0.8890     1.9900 C.3   1 <1>  -0.0990 
  5 C       -4.1770     0.9970    -1.2850 C.2   1 <1>  -0.0860 
  6 C       -3.1610     2.5090    -0.0420 C.2   1 <1>  -0.0400 
  7 C       -2.3420     2.3660     2.3050 C.3   1 <1>  -0.1600 
  8 C       -4.2840     2.2550    -1.8080 C.2   1 <1>  -0.0400 
  9 C       -4.7320    -0.2300    -1.8190 C.2   1 <1>   0.7160 
 10 O       -3.6740     3.1380    -1.0580 O.3   1 <1>  -0.2800 
 11 C       -2.3970     3.2420     1.0400 C.3   1 <1>   0.0200 
 12 C       -4.9560     2.7790    -3.0630 C.3   1 <1>  -0.0600 
 13 O       -5.7050    -0.2130    -2.5480 O.2   1 <1>  -0.5700 
 14 N       -4.1910    -1.4410    -1.5180 N.am  1 <1>  -0.7300 
 15 C       -4.7720    -2.7450    -1.9060 C.3   1 <1>   0.2200 
 16 C       -5.6490    -3.2470    -0.7710 C.3   1 <1>  -0.0800 
 17 C       -3.6810    -3.8150    -1.9990 C.3   1 <1>   0.1200 
 18 C       -4.6380    -4.0100     0.0810 C.3   1 <1>   0.1200 
 19 C       -6.7750    -4.1580    -1.2940 C.3   1 <1>  -0.0170 
 20 O       -3.7300    -4.5660    -0.8190 O.3   1 <1>  -0.5600 
 21 C       -7.7170    -4.5790    -0.1710 C.ar  1 <1>  -0.1440 
 22 C       -8.6840    -3.7010     0.3740 C.ar  1 <1>   0.0000 
 23 C       -7.6420    -5.8370     0.3500 C.ar  1 <1>  -0.1500 
 24 C       -9.4930    -4.1880     1.4300 C.ar  1 <1>   0.3100 
 25 C       -8.8980    -2.3720    -0.0650 C.ar  1 <1>  -0.1500 
 26 C       -8.4950    -6.2210     1.3920 C.ar  1 <1>   0.1600 
 27 N       -9.3860    -5.4470     1.9250 N.ar  1 <1>  -0.6200 
 28 C      -10.4540    -3.3370     1.9980 C.ar  1 <1>  -0.1500 
 29 C       -9.8440    -1.5690     0.5100 C.ar  1 <1>  -0.1500 
 30 C      -10.6330    -2.0540     1.5560 C.ar  1 <1>  -0.1500 
 31 H       -2.1020     0.3040     2.8870 H     1 <1>   0.0800 
 32 H       -0.9950     0.8130     1.6500 H     1 <1>   0.0800 
 33 H       -3.3060     2.4030     2.7840 H     1 <1>   0.0800 
 34 H       -1.6200     2.7670     2.9950 H     1 <1>   0.0800 
 35 H       -1.4050     3.4550     0.6830 H     1 <1>   0.0800 
 36 H       -2.8860     4.1740     1.2620 H     1 <1>   0.0800 
 37 H       -5.3470     1.9820    -3.6660 H     1 <1>   0.0800 
 38 H       -4.2440     3.3310    -3.6490 H     1 <1>   0.0800 
 39 H       -5.7640     3.4340    -2.7910 H     1 <1>   0.0800 
 40 H       -3.5700    -1.4840    -0.6990 H     1 <1>   0.3700 
 41 H       -5.3050    -2.6460    -2.8370 H     1 <1>   0.0800 
 42 H       -6.0760    -2.4330    -0.2130 H     1 <1>   0.0800 
 43 H       -2.7000    -3.3870    -2.1050 H     1 <1>   0.0800 
 44 H       -3.8760    -4.4870    -2.8150 H     1 <1>   0.0800 
 45 H       -5.0790    -4.7920     0.6730 H     1 <1>   0.0800 
 46 H       -4.0940    -3.3380     0.7220 H     1 <1>   0.0800 
 47 H       -6.3480    -5.0320    -1.7550 H     1 <1>   0.0800 
 48 H       -7.3400    -3.6480    -2.0550 H     1 <1>   0.0800 
 49 H       -6.9320    -6.5570    -0.0160 H     1 <1>   0.1500 
 50 H       -8.3050    -1.9770    -0.8690 H     1 <1>   0.1500 
 51 H       -8.4010    -7.2230     1.7740 H     1 <1>   0.1500 
 52 H      -11.0490    -3.7320     2.8000 H     1 <1>   0.1500 
 53 H       -9.9930    -0.5600     0.1660 H     1 <1>   0.1500 
 54 H      -11.3740    -1.4130     2.0010 H     1 <1>   0.1500 
@<TRIPOS>BOND
  1   1   2  2   
  2   2   3  1   
  3   2   4  1   
  4   3   5  1   
  5   3   6  2   
  6   4   7  1   
  7   4  31  1   
  8   4  32  1   
  9   5   8  2   
 10   5   9  1   
 11   6  10  1   
 12   6  11  1   
 13   7  11  1   
 14   7  33  1   
 15   7  34  1   
 16   8  10  1   
 17   8  12  1   
 18   9  13  2   
 19   9  14  am  
 20  11  35  1   
 21  11  36  1   
 22  12  37  1   
 23  12  38  1   
 24  12  39  1   
 25  14  15  1   
 26  14  40  1   
 27  15  16  1   
 28  15  17  1   
 29  15  41  1   
 30  16  18  1   
 31  16  19  1   
 32  16  42  1   
 33  17  20  1   
 34  17  43  1   
 35  17  44  1   
 36  18  20  1   
 37  18  45  1   
 38  18  46  1   
 39  19  21  1   
 40  19  47  1   
 41  19  48  1   
 42  21  22  ar  
 43  21  23  ar  
 44  22  24  ar  
 45  22  25  ar  
 46  23  26  ar  
 47  23  49  1   
 48  24  27  ar  
 49  24  28  ar  
 50  25  29  ar  
 51  25  50  1   
 52  26  27  ar  
 53  26  51  1   
 54  28  30  ar  
 55  28  52  1   
 56  29  30  ar  
 57  29  53  1   
 58  30  54  1   
@<TRIPOS>SUBSTRUCTURE
  1 ****  16 GROUP 4 **** **** 0

# MOE 2024.06 (io_trps.svl 2023.06)
