@<TRIPOS>MOLECULE
NONAME
58 61 1 0 0 
SMALL
USER_CHARGES


@<TRIPOS>ATOM
  1 O       -3.1100     2.1780    -2.0550 O.2   1 <1>  -0.5700 
  2 C       -3.0280     1.8060    -0.9060 C.2   1 <1>   0.5690 
  3 N       -4.0080     1.0150    -0.3490 N.am  1 <1>  -0.6600 
  4 C       -1.7900     2.2330    -0.0990 C.3   1 <1>  -0.0190 
  5 C       -5.2340     0.6570    -1.1180 C.3   1 <1>   0.1400 
  6 C       -3.9790     0.3960     1.0080 C.3   1 <1>   0.1400 
  7 C       -1.1810     3.5640    -0.5920 C.3   1 <1>  -0.1600 
  8 C       -0.7140     1.1290    -0.1140 C.3   1 <1>  -0.1600 
  9 C       -5.2990    -0.8620    -1.2870 C.3   1 <1>  -0.1600 
 10 C       -4.0310    -1.1270     0.8690 C.3   1 <1>  -0.1600 
 11 C        0.0460     3.9680     0.2380 C.3   1 <1>  -0.1600 
 12 C        0.5180     1.5250     0.7130 C.3   1 <1>  -0.1600 
 13 C       -5.2570    -1.5890     0.0670 C.3   1 <1>   0.4240 
 14 C        1.1050     2.8580     0.2320 C.3   1 <1>  -0.1600 
 15 O       -6.3690    -1.1740     0.8260 O.3   1 <1>  -0.5600 
 16 C       -5.2330    -3.1220    -0.1180 C.ar  1 <1>  -0.1440 
 17 C       -7.5820    -1.8220     0.5970 C.3   1 <1>   0.1200 
 18 C       -6.2700    -3.9210     0.3450 C.ar  1 <1>  -0.1440 
 19 C       -4.1670    -3.7370    -0.7610 C.ar  1 <1>  -0.1500 
 20 C       -7.4530    -3.2770     1.0390 C.3   1 <1>  -0.0170 
 21 C       -6.2320    -5.2960     0.1730 C.ar  1 <1>  -0.1500 
 22 C       -4.1070    -5.1090    -0.9370 C.ar  1 <1>   0.0820 
 23 C       -5.1620    -5.9110    -0.4720 C.ar  1 <1>   0.0820 
 24 O       -2.9830    -5.5480    -1.5730 O.3   1 <1>  -0.3620 
 25 O       -5.1370    -7.2620    -0.6710 O.3   1 <1>  -0.3620 
 26 C       -2.4580    -6.8380    -1.3480 C.3   1 <1>   0.0400 
 27 C       -6.2330    -8.0920    -0.3560 C.3   1 <1>   0.0400 
 28 H       -2.0990     2.4050     0.9140 H     1 <1>   0.0800 
 29 H       -5.2330     1.1270    -2.0860 H     1 <1>   0.0800 
 30 H       -6.1000     1.0070    -0.5820 H     1 <1>   0.0800 
 31 H       -4.8310     0.7420     1.5690 H     1 <1>   0.0800 
 32 H       -3.0940     0.6660     1.5530 H     1 <1>   0.0800 
 33 H       -1.9250     4.3400    -0.5380 H     1 <1>   0.0800 
 34 H       -0.8890     3.4650    -1.6240 H     1 <1>   0.0800 
 35 H       -0.4150     0.9470    -1.1330 H     1 <1>   0.0800 
 36 H       -1.1210     0.2120     0.2720 H     1 <1>   0.0800 
 37 H       -4.4600    -1.1640    -1.8860 H     1 <1>   0.0800 
 38 H       -6.1850    -1.1350    -1.8280 H     1 <1>   0.0800 
 39 H       -4.0580    -1.5830     1.8410 H     1 <1>   0.0800 
 40 H       -3.1300    -1.4510     0.3850 H     1 <1>   0.0800 
 41 H       -0.2570     4.1680     1.2520 H     1 <1>   0.0800 
 42 H        0.4700     4.8720    -0.1640 H     1 <1>   0.0800 
 43 H        1.2660     0.7550     0.6350 H     1 <1>   0.0800 
 44 H        0.2400     1.6120     1.7500 H     1 <1>   0.0800 
 45 H        1.9280     3.1410     0.8650 H     1 <1>   0.0800 
 46 H        1.4850     2.7380    -0.7690 H     1 <1>   0.0800 
 47 H       -7.8300    -1.7540    -0.4470 H     1 <1>   0.0800 
 48 H       -8.3390    -1.3190     1.1730 H     1 <1>   0.0800 
 49 H       -3.3500    -3.1530    -1.1430 H     1 <1>   0.1500 
 50 H       -8.3600    -3.8000     0.7960 H     1 <1>   0.0800 
 51 H       -7.3140    -3.3160     2.1050 H     1 <1>   0.0800 
 52 H       -7.0530    -5.8730     0.5510 H     1 <1>   0.1500 
 53 H       -1.4360    -6.8460    -1.6790 H     1 <1>   0.0800 
 54 H       -3.0300    -7.5490    -1.9160 H     1 <1>   0.0800 
 55 H       -2.5080    -7.0590    -0.2960 H     1 <1>   0.0800 
 56 H       -5.9910    -9.0940    -0.6590 H     1 <1>   0.0800 
 57 H       -7.0980    -7.7470    -0.8940 H     1 <1>   0.0800 
 58 H       -6.3990    -8.0640     0.7070 H     1 <1>   0.0800 
@<TRIPOS>BOND
  1   1   2  2   
  2   2   3  am  
  3   2   4  1   
  4   3   5  1   
  5   3   6  1   
  6   4   7  1   
  7   4   8  1   
  8   4  28  1   
  9   5   9  1   
 10   5  29  1   
 11   5  30  1   
 12   6  10  1   
 13   6  31  1   
 14   6  32  1   
 15   7  11  1   
 16   7  33  1   
 17   7  34  1   
 18   8  12  1   
 19   8  35  1   
 20   8  36  1   
 21   9  13  1   
 22   9  37  1   
 23   9  38  1   
 24  10  13  1   
 25  10  39  1   
 26  10  40  1   
 27  11  14  1   
 28  11  41  1   
 29  11  42  1   
 30  12  14  1   
 31  12  43  1   
 32  12  44  1   
 33  13  15  1   
 34  13  16  1   
 35  14  45  1   
 36  14  46  1   
 37  15  17  1   
 38  16  18  ar  
 39  16  19  ar  
 40  17  20  1   
 41  17  47  1   
 42  17  48  1   
 43  18  20  1   
 44  18  21  ar  
 45  19  22  ar  
 46  19  49  1   
 47  20  50  1   
 48  20  51  1   
 49  21  23  ar  
 50  21  52  1   
 51  22  23  ar  
 52  22  24  1   
 53  23  25  1   
 54  24  26  1   
 55  25  27  1   
 56  26  53  1   
 57  26  54  1   
 58  26  55  1   
 59  27  56  1   
 60  27  57  1   
 61  27  58  1   
@<TRIPOS>SUBSTRUCTURE
  1 ****  10 GROUP 4 **** **** 0

# MOE 2024.06 (io_trps.svl 2023.06)
