@<TRIPOS>MOLECULE
NONAME
53 55 1 0 0 
SMALL
USER_CHARGES


@<TRIPOS>ATOM
  1 O       -0.2840     1.3380     1.7760 O.2   1 <1>  -0.5700 
  2 C       -0.0140     2.3360     1.1320 C.2   1 <1>   0.7160 
  3 N       -1.0310     3.1830     0.7380 N.am  1 <1>  -0.6600 
  4 C        1.3590     2.6000     0.7740 C.2   1 <1>  -0.0860 
  5 C       -2.4480     2.9770     1.1700 C.3   1 <1>   0.1400 
  6 C       -0.8630     4.2480    -0.2870 C.3   1 <1>   0.1400 
  7 C        2.1310     3.6860     1.2020 C.2   1 <1>   0.1080 
  8 C        2.2100     1.9090    -0.0380 C.2   1 <1>  -0.3320 
  9 C       -3.3460     2.6120    -0.0380 C.3   1 <1>   0.0000 
 10 C       -1.7270     3.9260    -1.5120 C.3   1 <1>  -0.1600 
 11 N        3.3200     3.6870     0.6970 N.2   1 <1>  -0.7070 
 12 C        1.6700     4.7670     2.1550 C.3   1 <1>  -0.0590 
 13 N        3.3820     2.5750    -0.0600 N.pl3 1 <1>   0.3140 
 14 C        1.9150     0.6210    -0.7930 C.3   1 <1>  -0.0600 
 15 C       -4.8140     2.4370     0.3900 C.3   1 <1>   0.2000 
 16 C       -3.1990     3.6920    -1.1320 C.3   1 <1>  -0.1600 
 17 C       -3.0070     1.2030    -0.5580 C.3   1 <1>  -0.1600 
 18 C        4.6100     2.2300    -0.8150 C.3   1 <1>   0.2340 
 19 O       -5.1960     3.4050     1.3230 O.3   1 <1>  -0.5600 
 20 C       -4.9090     1.0250     0.9780 C.3   1 <1>  -0.1600 
 21 C       -3.7360     0.2360     0.3790 C.3   1 <1>  -0.1600 
 22 C        5.4330     1.1580    -0.1070 C.2   1 <1>  -0.2880 
 23 C       -6.5680     3.5080     1.5330 C.3   1 <1>   0.0400 
 24 C        6.7150     1.2810     0.2500 C.2   1 <1>  -0.3000 
 25 H       -2.5080     2.2130     1.9240 H     1 <1>   0.0800 
 26 H       -2.7980     3.8920     1.6160 H     1 <1>   0.0800 
 27 H       -1.1700     5.1890     0.1370 H     1 <1>   0.0800 
 28 H        0.1640     4.3390    -0.5930 H     1 <1>   0.0800 
 29 H       -1.6620     4.7400    -2.2110 H     1 <1>   0.0800 
 30 H       -1.3280     3.0510    -1.9960 H     1 <1>   0.0800 
 31 H        0.9110     4.3890     2.8150 H     1 <1>   0.0800 
 32 H        1.2790     5.5970     1.5990 H     1 <1>   0.0800 
 33 H        2.5030     5.1030     2.7450 H     1 <1>   0.0800 
 34 H        0.8970     0.3140    -0.6240 H     1 <1>   0.0800 
 35 H        2.5610    -0.1670    -0.4520 H     1 <1>   0.0800 
 36 H        2.0550     0.7640    -1.8490 H     1 <1>   0.0800 
 37 H       -5.4460     2.5160    -0.4780 H     1 <1>   0.0800 
 38 H       -3.7590     3.4150    -2.0080 H     1 <1>   0.0800 
 39 H       -3.6130     4.6150    -0.7610 H     1 <1>   0.0800 
 40 H       -3.3970     1.0810    -1.5530 H     1 <1>   0.0800 
 41 H       -1.9490     1.0070    -0.5800 H     1 <1>   0.0800 
 42 H        4.3230     1.8870    -1.7900 H     1 <1>   0.0800 
 43 H        5.1930     3.1250    -0.9300 H     1 <1>   0.0800 
 44 H       -4.8070     1.0580     2.0490 H     1 <1>   0.0800 
 45 H       -5.8480     0.5710     0.7170 H     1 <1>   0.0800 
 46 H       -3.0690    -0.0720     1.1670 H     1 <1>   0.0800 
 47 H       -4.0720    -0.6380    -0.1520 H     1 <1>   0.0800 
 48 H        4.8640     0.2660     0.0920 H     1 <1>   0.1500 
 49 H       -6.7380     4.2930     2.2490 H     1 <1>   0.0800 
 50 H       -6.9440     2.5790     1.9240 H     1 <1>   0.0800 
 51 H       -7.0530     3.7540     0.6050 H     1 <1>   0.0800 
 52 H        7.2740     0.5110     0.7540 H     1 <1>   0.1500 
 53 H        7.3140     2.1590     0.0760 H     1 <1>   0.1500 
@<TRIPOS>BOND
  1   1   2  2   
  2   2   3  am  
  3   2   4  1   
  4   3   5  1   
  5   3   6  1   
  6   4   7  1   
  7   4   8  2   
  8   5   9  1   
  9   5  25  1   
 10   5  26  1   
 11   6  10  1   
 12   6  27  1   
 13   6  28  1   
 14   7  11  2   
 15   7  12  1   
 16   8  13  1   
 17   8  14  1   
 18   9  15  1   
 19   9  16  1   
 20   9  17  1   
 21  10  16  1   
 22  10  29  1   
 23  10  30  1   
 24  11  13  1   
 25  12  31  1   
 26  12  32  1   
 27  12  33  1   
 28  13  18  1   
 29  14  34  1   
 30  14  35  1   
 31  14  36  1   
 32  15  19  1   
 33  15  20  1   
 34  15  37  1   
 35  16  38  1   
 36  16  39  1   
 37  17  21  1   
 38  17  40  1   
 39  17  41  1   
 40  18  22  1   
 41  18  42  1   
 42  18  43  1   
 43  19  23  1   
 44  20  21  1   
 45  20  44  1   
 46  20  45  1   
 47  21  46  1   
 48  21  47  1   
 49  22  24  2   
 50  22  48  1   
 51  23  49  1   
 52  23  50  1   
 53  23  51  1   
 54  24  52  1   
 55  24  53  1   
@<TRIPOS>SUBSTRUCTURE
  1 ****   2 GROUP 4 **** **** 0

# MOE 2024.06 (io_trps.svl 2023.06)
