@<TRIPOS>MOLECULE
NONAME
46 49 1 0 0 
SMALL
USER_CHARGES


@<TRIPOS>ATOM
  1 O       -1.4510     0.4070    -1.4350 O.2   1 <1>  -0.5700 
  2 C       -1.3340     0.2870    -0.2260 C.2   1 <1>   0.7160 
  3 N       -1.5750    -0.9410     0.3190 N.am  1 <1>  -0.7300 
  4 C       -0.9720     1.3910     0.6550 C.2   1 <1>   0.2030 
  5 C       -1.9590    -2.1740    -0.4020 C.3   1 <1>   0.2200 
  6 N       -0.9120     1.3030     1.9760 N.2   1 <1>  -0.7070 
  7 C       -0.6410     2.6960     0.2530 C.2   1 <1>  -0.1810 
  8 C       -3.4370    -2.4850    -0.2190 C.3   1 <1>  -0.0800 
  9 C       -1.3280    -3.3770     0.2880 C.3   1 <1>   0.1200 
 10 N       -0.5530     2.5240     2.4030 N.pl3 1 <1>   0.3000 
 11 C       -0.3920     3.3810     1.3800 C.2   1 <1>  -0.3320 
 12 C       -0.5600     3.3070    -1.1360 C.3   1 <1>   0.0210 
 13 C       -3.4660    -3.2200     1.1240 C.3   1 <1>   0.1200 
 14 C       -4.3960    -1.2820    -0.3010 C.3   1 <1>  -0.0160 
 15 O       -2.1680    -3.6830     1.3620 O.3   1 <1>  -0.5600 
 16 C        0.0050     4.8430     1.4580 C.3   1 <1>   0.0200 
 17 C        0.1850     4.6560    -1.0860 C.3   1 <1>  -0.1600 
 18 C       -5.8430    -1.7350    -0.1850 C.ar  1 <1>  -0.1430 
 19 C       -0.2690     5.5250     0.1050 C.3   1 <1>  -0.1600 
 20 C       -6.5330    -2.2470    -1.2650 C.ar  1 <1>  -0.1500 
 21 C       -6.5410    -1.6590     1.0030 C.ar  1 <1>  -0.1500 
 22 C       -7.8480    -2.6530    -1.1080 C.ar  1 <1>   0.1600 
 23 C       -7.8560    -2.0930     1.0540 C.ar  1 <1>   0.1600 
 24 N       -8.5260    -2.5910     0.0270 N.ar  1 <1>  -0.6200 
 25 H       -1.4940    -1.0090     1.3390 H     1 <1>   0.3700 
 26 H       -1.6750    -2.1080    -1.4390 H     1 <1>   0.0800 
 27 H       -3.7200    -3.1930    -0.9780 H     1 <1>   0.0800 
 28 H       -0.3350    -3.1770     0.6490 H     1 <1>   0.0800 
 29 H       -1.3160    -4.2280    -0.3700 H     1 <1>   0.0800 
 30 H       -0.4270     2.7470     3.3970 H     1 <1>   0.2700 
 31 H       -0.0480     2.6390    -1.8060 H     1 <1>   0.0800 
 32 H       -1.5590     3.4540    -1.5060 H     1 <1>   0.0800 
 33 H       -4.1430    -4.0570     1.1110 H     1 <1>   0.0800 
 34 H       -3.7230    -2.5560     1.9310 H     1 <1>   0.0800 
 35 H       -4.2540    -0.7760    -1.2400 H     1 <1>   0.0800 
 36 H       -4.1820    -0.5750     0.4810 H     1 <1>   0.0800 
 37 H       -0.5500     5.3430     2.2330 H     1 <1>   0.0800 
 38 H        1.0540     4.9090     1.6900 H     1 <1>   0.0800 
 39 H        1.2400     4.4650    -0.9930 H     1 <1>   0.0800 
 40 H        0.0250     5.1850    -2.0090 H     1 <1>   0.0800 
 41 H       -1.3270     5.7060     0.0160 H     1 <1>   0.0800 
 42 H        0.2320     6.4770     0.0760 H     1 <1>   0.0800 
 43 H       -6.0600    -2.3340    -2.2260 H     1 <1>   0.1500 
 44 H       -6.0770    -1.2670     1.8900 H     1 <1>   0.1500 
 45 H       -8.3700    -3.0500    -1.9620 H     1 <1>   0.1500 
 46 H       -8.3840    -2.0270     1.9890 H     1 <1>   0.1500 
@<TRIPOS>BOND
  1   1   2  2   
  2   2   3  am  
  3   2   4  1   
  4   3   5  1   
  5   3  25  1   
  6   4   6  2   
  7   4   7  1   
  8   5   8  1   
  9   5   9  1   
 10   5  26  1   
 11   6  10  1   
 12   7  11  2   
 13   7  12  1   
 14   8  13  1   
 15   8  14  1   
 16   8  27  1   
 17   9  15  1   
 18   9  28  1   
 19   9  29  1   
 20  10  11  1   
 21  10  30  1   
 22  11  16  1   
 23  12  17  1   
 24  12  31  1   
 25  12  32  1   
 26  13  15  1   
 27  13  33  1   
 28  13  34  1   
 29  14  18  1   
 30  14  35  1   
 31  14  36  1   
 32  16  19  1   
 33  16  37  1   
 34  16  38  1   
 35  17  19  1   
 36  17  39  1   
 37  17  40  1   
 38  18  20  ar  
 39  18  21  ar  
 40  19  41  1   
 41  19  42  1   
 42  20  22  ar  
 43  20  43  1   
 44  21  23  ar  
 45  21  44  1   
 46  22  24  ar  
 47  22  45  1   
 48  23  24  ar  
 49  23  46  1   
@<TRIPOS>SUBSTRUCTURE
  1 ****   3 GROUP 4 **** **** 0

# MOE 2024.06 (io_trps.svl 2023.06)
