@<TRIPOS>MOLECULE
NONAME
47 49 1 0 0 
SMALL
USER_CHARGES


@<TRIPOS>ATOM
  1 O       -4.0720     1.9840    -1.8000 O.2   1 <1>  -0.5700 
  2 C       -3.4380     1.4170    -0.9410 C.2   1 <1>   0.5690 
  3 N       -3.6180     0.0790    -0.6960 N.am  1 <1>  -0.6600 
  4 C       -2.4610     2.2800    -0.1650 C.3   1 <1>  -0.0990 
  5 C       -2.7720    -0.7150     0.2690 C.3   1 <1>   0.3640 
  6 C       -4.7660    -0.6100    -1.3650 C.3   1 <1>   0.1400 
  7 C       -1.2070     2.5560    -1.0010 C.3   1 <1>   0.0960 
  8 C       -1.3380    -0.7620    -0.2620 C.ar  1 <1>  -0.1440 
  9 C       -3.2420    -2.1720     0.5730 C.3   1 <1>   0.2000 
 10 C       -4.7430    -2.1320    -1.2160 C.3   1 <1>   0.1200 
 11 N       -0.2510     3.3870    -0.2450 N.pl3 1 <1>   0.3140 
 12 C       -0.2820    -0.3800     0.5540 C.ar  1 <1>  -0.1500 
 13 C       -1.0670    -1.1760    -1.5610 C.ar  1 <1>  -0.1500 
 14 O       -4.5360    -2.4580     0.1180 O.3   1 <1>  -0.5600 
 15 C       -3.2260    -2.4890     2.0760 C.3   1 <1>   0.1200 
 16 N        0.2630     3.0020     0.9410 N.2   1 <1>  -0.7070 
 17 C        0.2190     4.5970    -0.6060 C.2   1 <1>  -0.3020 
 18 C        1.0170    -0.4040     0.0800 C.ar  1 <1>  -0.1500 
 19 C        0.2330    -1.2070    -2.0340 C.ar  1 <1>  -0.1500 
 20 O       -1.9740    -2.2360     2.6300 O.3   1 <1>  -0.6800 
 21 C        1.0440     3.9700     1.2980 C.2   1 <1>   0.1080 
 22 C        1.0590     5.0030     0.3690 C.2   1 <1>  -0.1500 
 23 C        1.2770    -0.8200    -1.2130 C.ar  1 <1>  -0.1500 
 24 C        1.8290     3.9400     2.5880 C.3   1 <1>  -0.0590 
 25 H       -2.9460     3.2140     0.0530 H     1 <1>   0.0800 
 26 H       -2.1930     1.8300     0.7690 H     1 <1>   0.0800 
 27 H       -2.7710    -0.1860     1.2060 H     1 <1>   0.0800 
 28 H       -5.6810    -0.2360    -0.9400 H     1 <1>   0.0800 
 29 H       -4.7710    -0.3610    -2.4120 H     1 <1>   0.0800 
 30 H       -1.4760     3.0700    -1.9050 H     1 <1>   0.0800 
 31 H       -0.7150     1.6400    -1.2650 H     1 <1>   0.0800 
 32 H       -2.5860    -2.8680     0.0800 H     1 <1>   0.0800 
 33 H       -3.9680    -2.5750    -1.8170 H     1 <1>   0.0800 
 34 H       -5.6900    -2.5450    -1.5150 H     1 <1>   0.0800 
 35 H       -0.4600    -0.0460     1.5630 H     1 <1>   0.1500 
 36 H       -1.8690    -1.4670    -2.2140 H     1 <1>   0.1500 
 37 H       -3.4660    -3.5240     2.2450 H     1 <1>   0.0800 
 38 H       -3.9400    -1.8680     2.5900 H     1 <1>   0.0800 
 39 H       -0.0640     5.0920    -1.5160 H     1 <1>   0.1500 
 40 H        1.8230    -0.0890     0.7200 H     1 <1>   0.1500 
 41 H        0.4330    -1.5290    -3.0410 H     1 <1>   0.1500 
 42 H       -1.2930    -2.8270     2.2510 H     1 <1>   0.4000 
 43 H        1.6260     5.9140     0.4370 H     1 <1>   0.1500 
 44 H        2.2890    -0.8380    -1.5790 H     1 <1>   0.1500 
 45 H        2.4040     4.8400     2.6990 H     1 <1>   0.0800 
 46 H        2.4910     3.0940     2.5820 H     1 <1>   0.0800 
 47 H        1.1510     3.8480     3.4160 H     1 <1>   0.0800 
@<TRIPOS>BOND
  1   1   2  2   
  2   2   3  am  
  3   2   4  1   
  4   3   5  1   
  5   3   6  1   
  6   4   7  1   
  7   4  25  1   
  8   4  26  1   
  9   5   8  1   
 10   5   9  1   
 11   5  27  1   
 12   6  10  1   
 13   6  28  1   
 14   6  29  1   
 15   7  11  1   
 16   7  30  1   
 17   7  31  1   
 18   8  12  ar  
 19   8  13  ar  
 20   9  14  1   
 21   9  15  1   
 22   9  32  1   
 23  10  14  1   
 24  10  33  1   
 25  10  34  1   
 26  11  16  1   
 27  11  17  1   
 28  12  18  ar  
 29  12  35  1   
 30  13  19  ar  
 31  13  36  1   
 32  15  20  1   
 33  15  37  1   
 34  15  38  1   
 35  16  21  2   
 36  17  22  2   
 37  17  39  1   
 38  18  23  ar  
 39  18  40  1   
 40  19  23  ar  
 41  19  41  1   
 42  20  42  1   
 43  21  22  1   
 44  21  24  1   
 45  22  43  1   
 46  23  44  1   
 47  24  45  1   
 48  24  46  1   
 49  24  47  1   
@<TRIPOS>SUBSTRUCTURE
  1 ****   8 GROUP 4 **** **** 0

# MOE 2024.06 (io_trps.svl 2023.06)
