@<TRIPOS>MOLECULE
NONAME
46 48 1 0 0 
SMALL
USER_CHARGES


@<TRIPOS>ATOM
  1 F        0.2690     1.7880     2.2370 F     1 <1>  -0.1900 
  2 C        0.2890     2.5560     1.1800 C.ar  1 <1>   0.1900 
  3 C        1.4650     3.2010     0.8490 C.ar  1 <1>  -0.1500 
  4 C       -0.8660     2.6900     0.4340 C.ar  1 <1>  -0.1500 
  5 C        1.4920     4.0130    -0.2760 C.ar  1 <1>  -0.1440 
  6 C       -0.8360     3.5050    -0.6840 C.ar  1 <1>  -0.1500 
  7 C        0.3360     4.1610    -1.0330 C.ar  1 <1>  -0.1500 
  8 C        2.7760     4.7340    -0.6820 C.3   1 <1>   0.0450 
  9 C        2.8470     6.2130    -0.3020 C.2   1 <1>   0.5690 
 10 O        1.8840     6.7240     0.2200 O.2   1 <1>  -0.5700 
 11 N        3.9900     6.9400    -0.5490 N.am  1 <1>  -0.6600 
 12 C        5.2470     6.3950    -1.1560 C.3   1 <1>   0.1400 
 13 C        4.0590     8.3810    -0.1690 C.3   1 <1>   0.1400 
 14 C        6.4270     6.4540    -0.1760 C.3   1 <1>   0.1400 
 15 C        4.8060     8.5310     1.1610 C.3   1 <1>  -0.1600 
 16 N        6.9390     7.8500    -0.0440 N.am  1 <1>  -0.6600 
 17 C        6.3250     8.7050     1.0160 C.3   1 <1>   0.1400 
 18 C        7.9510     8.2990    -0.8830 C.2   1 <1>   0.5440 
 19 O        8.1480     7.6530    -1.9020 O.2   1 <1>  -0.5700 
 20 C        8.7670     9.4970    -0.6360 C.ar  1 <1>   0.3960 
 21 N        9.0500     9.8810     0.6210 N.ar  1 <1>  -0.6200 
 22 C        9.2470    10.2180    -1.7330 C.ar  1 <1>  -0.1500 
 23 C        9.7890    10.9580     0.7630 C.ar  1 <1>   0.3930 
 24 C       10.0230    11.3460    -1.5690 C.ar  1 <1>  -0.1500 
 25 O       10.0440    11.3140     2.0170 O.3   1 <1>  -0.5330 
 26 C       10.2980    11.7220    -0.2760 C.ar  1 <1>  -0.1500 
 27 H        2.3330     3.0660     1.4670 H     1 <1>   0.1500 
 28 H       -1.7610     2.1720     0.7250 H     1 <1>   0.1500 
 29 H       -1.7220     3.6340    -1.2810 H     1 <1>   0.1500 
 30 H        0.3420     4.8000    -1.8990 H     1 <1>   0.1500 
 31 H        2.8870     4.6580    -1.7470 H     1 <1>   0.0800 
 32 H        3.6070     4.2300    -0.2270 H     1 <1>   0.0800 
 33 H        5.4940     6.9570    -2.0400 H     1 <1>   0.0800 
 34 H        5.1130     5.3750    -1.4590 H     1 <1>   0.0800 
 35 H        3.0630     8.7750    -0.0590 H     1 <1>   0.0800 
 36 H        4.5450     8.9470    -0.9460 H     1 <1>   0.0800 
 37 H        7.2180     5.8280    -0.5520 H     1 <1>   0.0800 
 38 H        6.1380     6.0660     0.7850 H     1 <1>   0.0800 
 39 H        4.5840     7.6960     1.8010 H     1 <1>   0.0800 
 40 H        4.4320     9.4060     1.6600 H     1 <1>   0.0800 
 41 H        6.8070     8.5010     1.9570 H     1 <1>   0.0800 
 42 H        6.5070     9.7380     0.7760 H     1 <1>   0.0800 
 43 H        9.0070     9.8790    -2.7250 H     1 <1>   0.1500 
 44 H       10.3940    11.9010    -2.4140 H     1 <1>   0.1500 
 45 H       10.6220    12.0880     2.0890 H     1 <1>   0.4500 
 46 H       10.8970    12.5910    -0.0770 H     1 <1>   0.1500 
@<TRIPOS>BOND
  1   1   2  1   
  2   2   3  ar  
  3   2   4  ar  
  4   3   5  ar  
  5   3  27  1   
  6   4   6  ar  
  7   4  28  1   
  8   5   7  ar  
  9   5   8  1   
 10   6   7  ar  
 11   6  29  1   
 12   7  30  1   
 13   8   9  1   
 14   8  31  1   
 15   8  32  1   
 16   9  10  2   
 17   9  11  am  
 18  11  12  1   
 19  11  13  1   
 20  12  14  1   
 21  12  33  1   
 22  12  34  1   
 23  13  15  1   
 24  13  35  1   
 25  13  36  1   
 26  14  16  1   
 27  14  37  1   
 28  14  38  1   
 29  15  17  1   
 30  15  39  1   
 31  15  40  1   
 32  16  17  1   
 33  16  18  am  
 34  17  41  1   
 35  17  42  1   
 36  18  19  2   
 37  18  20  1   
 38  20  21  ar  
 39  20  22  ar  
 40  21  23  ar  
 41  22  24  ar  
 42  22  43  1   
 43  23  25  1   
 44  23  26  ar  
 45  24  26  ar  
 46  24  44  1   
 47  25  45  1   
 48  26  46  1   
@<TRIPOS>SUBSTRUCTURE
  1 ****  11 GROUP 4 **** **** 0

# MOE 2024.06 (io_trps.svl 2023.06)
