@<TRIPOS>MOLECULE
NONAME
52 55 1 0 0 
SMALL
USER_CHARGES


@<TRIPOS>ATOM
  1 O        0.7100     0.0520    -1.3740 O.2   1 <1>  -0.5700 
  2 C        1.1800    -0.9530    -0.8950 C.2   1 <1>   0.5690 
  3 N        0.4260    -2.0350    -0.5300 N.am  1 <1>  -0.6600 
  4 C        2.6770    -1.0360    -0.6740 C.3   1 <1>  -0.0990 
  5 C        1.0770    -3.2360     0.0520 C.3   1 <1>   0.1400 
  6 C       -1.0550    -2.0630    -0.6520 C.3   1 <1>   0.0600 
  7 C        3.2220    -2.3970    -1.1460 C.3   1 <1>  -0.0800 
  8 C        2.3320    -3.5970    -0.7640 C.3   1 <1>  -0.0800 
  9 C        4.6160    -2.7100    -0.5940 C.3   1 <1>  -0.1600 
 10 C        3.2510    -4.5830    -0.0300 C.3   1 <1>  -0.1600 
 11 C        4.6750    -4.2310    -0.4660 C.3   1 <1>   0.1900 
 12 N        5.6780    -4.6980     0.5170 N.3   1 <1>  -0.8100 
 13 C        7.0710    -4.2830     0.1790 C.3   1 <1>   0.2900 
 14 C        5.6340    -6.1620     0.6850 C.3   1 <1>   0.0300 
 15 C        7.4240    -2.8560     0.5900 C.2   1 <1>   0.2980 
 16 O        7.2310    -2.4920     1.8310 O.3   1 <1>  -0.0190 
 17 N        7.9080    -1.9600    -0.1710 N.2   1 <1>  -0.5650 
 18 N        7.6130    -1.2540     1.8600 N.2   1 <1>  -0.4100 
 19 C        8.0090    -0.9330     0.6800 C.2   1 <1>   0.4620 
 20 C        8.5060     0.3730     0.2780 C.ar  1 <1>   0.0540 
 21 C        8.9270     0.6310    -1.0280 C.ar  1 <1>  -0.1500 
 22 C        8.5800     1.4310     1.1860 C.ar  1 <1>  -0.1500 
 23 C        9.3980     1.8750    -1.4070 C.ar  1 <1>  -0.1500 
 24 C        9.0500     2.6770     0.8120 C.ar  1 <1>  -0.1500 
 25 C        9.4640     2.9070    -0.4880 C.ar  1 <1>  -0.1440 
 26 C        9.9800     4.2740    -0.9020 C.3   1 <1>  -0.0970 
 27 H        3.1660    -0.2390    -1.2030 H     1 <1>   0.0800 
 28 H        2.8560    -0.9010     0.3760 H     1 <1>   0.0800 
 29 H        1.3470    -3.0140     1.0700 H     1 <1>   0.0800 
 30 H        0.3940    -4.0670     0.0550 H     1 <1>   0.0800 
 31 H       -1.3510    -2.8620    -1.3080 H     1 <1>   0.0800 
 32 H       -1.4180    -1.1330    -1.0570 H     1 <1>   0.0800 
 33 H       -1.4970    -2.2120     0.3170 H     1 <1>   0.0800 
 34 H        3.2810    -2.3730    -2.2220 H     1 <1>   0.0800 
 35 H        2.0030    -4.0630    -1.6770 H     1 <1>   0.0800 
 36 H        4.7240    -2.2720     0.3840 H     1 <1>   0.0800 
 37 H        5.3760    -2.3290    -1.2510 H     1 <1>   0.0800 
 38 H        2.9960    -5.5980    -0.2740 H     1 <1>   0.0800 
 39 H        3.1720    -4.4340     1.0330 H     1 <1>   0.0800 
 40 H        4.8690    -4.6620    -1.4350 H     1 <1>   0.0800 
 41 H        7.7670    -4.9230     0.6920 H     1 <1>   0.0800 
 42 H        7.2400    -4.4000    -0.8770 H     1 <1>   0.0800 
 43 H        6.3790    -6.4760     1.3960 H     1 <1>   0.0800 
 44 H        5.8140    -6.6570    -0.2550 H     1 <1>   0.0800 
 45 H        4.6770    -6.4700     1.0670 H     1 <1>   0.0800 
 46 H        8.8850    -0.1560    -1.7610 H     1 <1>   0.1500 
 47 H        8.2640     1.2750     2.2020 H     1 <1>   0.1500 
 48 H        9.7130     2.0360    -2.4230 H     1 <1>   0.1500 
 49 H        9.0920     3.4680     1.5400 H     1 <1>   0.1500 
 50 H       10.7160     4.1770    -1.6790 H     1 <1>   0.0800 
 51 H       10.4330     4.7740    -0.0660 H     1 <1>   0.0800 
 52 H        9.1660     4.8740    -1.2670 H     1 <1>   0.0800 
@<TRIPOS>BOND
  1   1   2  2   
  2   2   3  am  
  3   2   4  1   
  4   3   5  1   
  5   3   6  1   
  6   4   7  1   
  7   4  27  1   
  8   4  28  1   
  9   5   8  1   
 10   5  29  1   
 11   5  30  1   
 12   6  31  1   
 13   6  32  1   
 14   6  33  1   
 15   7   8  1   
 16   7   9  1   
 17   7  34  1   
 18   8  10  1   
 19   8  35  1   
 20   9  11  1   
 21   9  36  1   
 22   9  37  1   
 23  10  11  1   
 24  10  38  1   
 25  10  39  1   
 26  11  12  1   
 27  11  40  1   
 28  12  13  1   
 29  12  14  1   
 30  13  15  1   
 31  13  41  1   
 32  13  42  1   
 33  14  43  1   
 34  14  44  1   
 35  14  45  1   
 36  15  16  1   
 37  15  17  2   
 38  16  18  1   
 39  17  19  1   
 40  18  19  2   
 41  19  20  1   
 42  20  21  ar  
 43  20  22  ar  
 44  21  23  ar  
 45  21  46  1   
 46  22  24  ar  
 47  22  47  1   
 48  23  25  ar  
 49  23  48  1   
 50  24  25  ar  
 51  24  49  1   
 52  25  26  1   
 53  26  50  1   
 54  26  51  1   
 55  26  52  1   
@<TRIPOS>SUBSTRUCTURE
  1 ****   9 GROUP 4 **** **** 0

# MOE 2024.06 (io_trps.svl 2023.06)
