@<TRIPOS>MOLECULE
NONAME
46 49 1 0 0 
SMALL
USER_CHARGES


@<TRIPOS>ATOM
  1 F        1.3520    -5.1970    -0.4080 F     1 <1>  -0.1900 
  2 C        0.7070    -4.6690     0.5990 C.ar  1 <1>   0.1900 
  3 C       -0.1170    -3.5710     0.3870 C.ar  1 <1>  -0.0320 
  4 C        0.8680    -5.2500     1.8430 C.ar  1 <1>  -0.1500 
  5 C       -0.8070    -3.0620     1.4770 C.ar  1 <1>  -0.1500 
  6 C       -0.3040    -2.9550    -0.9950 C.3   1 <1>   0.0320 
  7 C        0.1750    -4.7240     2.9180 C.ar  1 <1>  -0.1500 
  8 C       -0.6610    -3.6330     2.7330 C.ar  1 <1>  -0.1500 
  9 C       -1.3780    -3.6900    -1.7930 C.2   1 <1>   0.6300 
 10 C        0.8960    -2.4060    -1.7170 C.3   1 <1>  -0.2000 
 11 C       -0.1250    -1.4700    -1.1560 C.3   1 <1>  -0.2000 
 12 O       -2.4630    -3.1860    -1.9650 O.2   1 <1>  -0.5700 
 13 N       -1.0920    -4.9360    -2.2400 N.am  1 <1>  -0.7300 
 14 C       -2.0700    -5.8880    -2.8070 C.3   1 <1>   0.2200 
 15 C       -2.5360    -6.8810    -1.7490 C.3   1 <1>  -0.0800 
 16 C       -1.3450    -6.8250    -3.7640 C.3   1 <1>   0.1200 
 17 C       -1.4110    -7.9210    -1.7440 C.3   1 <1>   0.1200 
 18 C       -2.8630    -6.2950    -0.3610 C.3   1 <1>  -0.0170 
 19 O       -0.7210    -7.7750    -2.9530 O.3   1 <1>  -0.5600 
 20 C       -3.3000    -7.3820     0.6070 C.ar  1 <1>  -0.1430 
 21 C       -2.4560    -7.8640     1.5870 C.ar  1 <1>  -0.1500 
 22 C       -4.5610    -7.9400     0.5580 C.ar  1 <1>  -0.1500 
 23 C       -2.9000    -8.8600     2.4410 C.ar  1 <1>   0.1600 
 24 C       -4.9050    -8.9320     1.4610 C.ar  1 <1>   0.1600 
 25 N       -4.1030    -9.4070     2.4010 N.ar  1 <1>  -0.6200 
 26 H        1.5220    -6.0960     1.9620 H     1 <1>   0.1500 
 27 H       -1.4650    -2.2200     1.3470 H     1 <1>   0.1500 
 28 H        0.2830    -5.1580     3.8980 H     1 <1>   0.1500 
 29 H       -1.2030    -3.2260     3.5700 H     1 <1>   0.1500 
 30 H        1.8590    -2.4640    -1.2410 H     1 <1>   0.1000 
 31 H        0.9560    -2.5220    -2.7850 H     1 <1>   0.1000 
 32 H       -0.7850    -0.9500    -1.8300 H     1 <1>   0.1000 
 33 H        0.1380    -0.8780    -0.2980 H     1 <1>   0.1000 
 34 H       -0.1760    -5.3450    -2.0280 H     1 <1>   0.3700 
 35 H       -2.8830    -5.3630    -3.2790 H     1 <1>   0.0800 
 36 H       -3.4190    -7.3680    -2.1220 H     1 <1>   0.0800 
 37 H       -0.6100    -6.3200    -4.3660 H     1 <1>   0.0800 
 38 H       -2.0460    -7.3420    -4.3960 H     1 <1>   0.0800 
 39 H       -1.7920    -8.9250    -1.6730 H     1 <1>   0.0800 
 40 H       -0.7100    -7.7400    -0.9480 H     1 <1>   0.0800 
 41 H       -3.6460    -5.5620    -0.4570 H     1 <1>   0.0800 
 42 H       -2.0050    -5.7950     0.0500 H     1 <1>   0.0800 
 43 H       -1.4600    -7.4760     1.6950 H     1 <1>   0.1500 
 44 H       -5.2780    -7.6130    -0.1720 H     1 <1>   0.1500 
 45 H       -2.2280    -9.2250     3.1990 H     1 <1>   0.1500 
 46 H       -5.8930    -9.3570     1.4090 H     1 <1>   0.1500 
@<TRIPOS>BOND
  1   1   2  1   
  2   2   3  ar  
  3   2   4  ar  
  4   3   5  ar  
  5   3   6  1   
  6   4   7  ar  
  7   4  26  1   
  8   5   8  ar  
  9   5  27  1   
 10   6   9  1   
 11   6  10  1   
 12   6  11  1   
 13   7   8  ar  
 14   7  28  1   
 15   8  29  1   
 16   9  12  2   
 17   9  13  am  
 18  10  11  1   
 19  10  30  1   
 20  10  31  1   
 21  11  32  1   
 22  11  33  1   
 23  13  14  1   
 24  13  34  1   
 25  14  15  1   
 26  14  16  1   
 27  14  35  1   
 28  15  17  1   
 29  15  18  1   
 30  15  36  1   
 31  16  19  1   
 32  16  37  1   
 33  16  38  1   
 34  17  19  1   
 35  17  39  1   
 36  17  40  1   
 37  18  20  1   
 38  18  41  1   
 39  18  42  1   
 40  20  21  ar  
 41  20  22  ar  
 42  21  23  ar  
 43  21  43  1   
 44  22  24  ar  
 45  22  44  1   
 46  23  25  ar  
 47  23  45  1   
 48  24  25  ar  
 49  24  46  1   
@<TRIPOS>SUBSTRUCTURE
  1 ****  18 GROUP 4 **** **** 0

# MOE 2024.06 (io_trps.svl 2023.06)
