@<TRIPOS>MOLECULE
NONAME
48 52 1 0 0 
SMALL
USER_CHARGES


@<TRIPOS>ATOM
  1 S        0.0720    -0.2260    -0.7940 S.3   1 <1>  -0.0800 
  2 C       -0.1970    -1.9070    -1.2610 C.ar  1 <1>   0.2970 
  3 C       -1.4610    -0.1840     0.0720 C.2   1 <1>  -0.1400 
  4 N        0.6620    -2.5880    -1.9910 N.ar  1 <1>  -0.5670 
  5 C       -1.3950    -2.3680    -0.7660 C.ar  1 <1>   0.0000 
  6 C       -2.0930    -1.3650     0.0060 C.2   1 <1>  -0.1810 
  7 C       -1.9080     1.0800     0.7710 C.3   1 <1>   0.0200 
  8 C        0.2550    -3.8180    -2.2280 C.ar  1 <1>   0.4700 
  9 C       -1.6920    -3.6900    -1.1080 C.ar  1 <1>   0.4100 
 10 C       -3.4290    -1.5830     0.7000 C.3   1 <1>   0.0210 
 11 C       -3.3950     0.9440     1.1490 C.3   1 <1>  -0.1600 
 12 N       -0.8630    -4.4170    -1.8380 N.ar  1 <1>  -0.6200 
 13 N       -2.8650    -4.2990    -0.7290 N.pl3 1 <1>  -0.8380 
 14 C       -3.7220    -0.4550     1.7110 C.3   1 <1>  -0.1600 
 15 C       -3.9280    -4.4070    -1.7670 C.3   1 <1>   0.2090 
 16 C       -2.7850    -5.5880     0.0140 C.3   1 <1>   0.2090 
 17 C       -4.7650    -5.6160    -1.3540 C.3   1 <1>   0.2000 
 18 C       -3.7340    -6.5460    -0.7130 C.3   1 <1>  -0.0800 
 19 O       -5.6760    -5.2030    -0.3910 O.3   1 <1>  -0.6800 
 20 C       -4.3170    -7.6480     0.1900 C.3   1 <1>   0.0200 
 21 C       -3.2570    -8.6090     0.7010 C.2   1 <1>  -0.0400 
 22 O       -3.5790    -9.4580     1.6400 O.3   1 <1>  -0.0190 
 23 C       -1.9660    -8.8140     0.3920 C.2   1 <1>  -0.1500 
 24 N       -2.5760   -10.2150     1.9790 N.2   1 <1>  -0.4100 
 25 C       -1.5900    -9.8500     1.2420 C.2   1 <1>   0.1080 
 26 C       -0.2110   -10.4680     1.3010 C.3   1 <1>  -0.0590 
 27 H       -1.3110     1.2180     1.6550 H     1 <1>   0.0800 
 28 H       -1.7700     1.9300     0.1260 H     1 <1>   0.0800 
 29 H        0.9220    -4.4220    -2.8210 H     1 <1>   0.1500 
 30 H       -4.2020    -1.6170    -0.0460 H     1 <1>   0.0800 
 31 H       -3.4190    -2.5250     1.2200 H     1 <1>   0.0800 
 32 H       -3.6520     1.7000     1.8690 H     1 <1>   0.0800 
 33 H       -3.9920     1.1090     0.2680 H     1 <1>   0.0800 
 34 H       -4.7570    -0.4990     2.0020 H     1 <1>   0.0800 
 35 H       -3.1260    -0.6190     2.5930 H     1 <1>   0.0800 
 36 H       -4.5200    -3.5100    -1.8200 H     1 <1>   0.0800 
 37 H       -3.4740    -4.5900    -2.7260 H     1 <1>   0.0800 
 38 H       -1.7790    -5.9710     0.0350 H     1 <1>   0.0800 
 39 H       -3.1140    -5.4240     1.0260 H     1 <1>   0.0800 
 40 H       -5.3030    -6.0630    -2.1720 H     1 <1>   0.0800 
 41 H       -3.1800    -7.0100    -1.5100 H     1 <1>   0.0800 
 42 H       -5.2040    -4.6210     0.2390 H     1 <1>   0.4000 
 43 H       -5.0530    -8.2100    -0.3580 H     1 <1>   0.0800 
 44 H       -4.8110    -7.2050     1.0370 H     1 <1>   0.0800 
 45 H       -1.3350    -8.3280    -0.3280 H     1 <1>   0.1500 
 46 H        0.0930   -10.7780     0.3180 H     1 <1>   0.0800 
 47 H       -0.2210   -11.3260     1.9490 H     1 <1>   0.0800 
 48 H        0.4930    -9.7520     1.6820 H     1 <1>   0.0800 
@<TRIPOS>BOND
  1   1   2  1   
  2   1   3  1   
  3   2   4  ar  
  4   2   5  ar  
  5   3   6  2   
  6   3   7  1   
  7   4   8  ar  
  8   5   6  1   
  9   5   9  ar  
 10   6  10  1   
 11   7  11  1   
 12   7  27  1   
 13   7  28  1   
 14   8  12  ar  
 15   8  29  1   
 16   9  12  ar  
 17   9  13  1   
 18  10  14  1   
 19  10  30  1   
 20  10  31  1   
 21  11  14  1   
 22  11  32  1   
 23  11  33  1   
 24  13  15  1   
 25  13  16  1   
 26  14  34  1   
 27  14  35  1   
 28  15  17  1   
 29  15  36  1   
 30  15  37  1   
 31  16  18  1   
 32  16  38  1   
 33  16  39  1   
 34  17  18  1   
 35  17  19  1   
 36  17  40  1   
 37  18  20  1   
 38  18  41  1   
 39  19  42  1   
 40  20  21  1   
 41  20  43  1   
 42  20  44  1   
 43  21  22  1   
 44  21  23  2   
 45  22  24  1   
 46  23  25  1   
 47  23  45  1   
 48  24  25  2   
 49  25  26  1   
 50  26  46  1   
 51  26  47  1   
 52  26  48  1   
@<TRIPOS>SUBSTRUCTURE
  1 ****  13 GROUP 4 **** **** 0

# MOE 2024.06 (io_trps.svl 2023.06)
