@<TRIPOS>MOLECULE
NONAME
54 57 1 0 0 
SMALL
USER_CHARGES


@<TRIPOS>ATOM
  1 S        2.3040    -0.5220    -0.9580 S.o2  1 <1>   1.3330 
  2 O        1.0050    -0.8670    -0.4260 O.2   1 <1>  -0.6500 
  3 O        2.9700    -1.4430    -1.8510 O.2   1 <1>  -0.6500 
  4 N        2.1570     0.9610    -1.7690 N.am  1 <1>  -0.8490 
  5 C        3.3950    -0.1650     0.4220 C.3   1 <1>  -0.0550 
  6 C        3.3640     1.3360    -2.5140 C.3   1 <1>   0.1160 
  7 C        0.9950     0.9850    -2.6590 C.3   1 <1>   0.1160 
  8 C        2.8970     0.9580     1.3510 C.3   1 <1>  -0.0800 
  9 C        3.9670     1.3340     2.3740 C.3   1 <1>   0.2890 
 10 C        1.6840     0.5590     2.2010 C.3   1 <1>   0.1200 
 11 N        4.1340     2.8040     2.4060 N.pl3 1 <1>  -0.8690 
 12 C        3.3730     0.8380     3.6870 C.3   1 <1>   0.1200 
 13 O        1.9960     0.9010     3.5150 O.3   1 <1>  -0.5600 
 14 C        4.7580     3.5060     1.4070 C.ar  1 <1>   0.4100 
 15 N        5.3450     2.8310     0.4420 N.ar  1 <1>  -0.6200 
 16 C        4.7560     4.8840     1.3950 C.ar  1 <1>  -0.1440 
 17 C        5.9030     3.5390    -0.5440 C.ar  1 <1>   0.6200 
 18 C        5.3650     5.5080     0.3600 C.ar  1 <1>   0.1670 
 19 C        4.1620     5.8670     2.3750 C.3   1 <1>  -0.0170 
 20 N        5.9430     4.8730    -0.6300 N.ar  1 <1>  -0.6200 
 21 C        6.4890     2.7780    -1.6370 C.ar  1 <1>   0.0000 
 22 C        5.2870     7.0060     0.4830 C.3   1 <1>  -0.0170 
 23 C        4.7050     7.2260     1.8940 C.3   1 <1>  -0.1600 
 24 C        6.4550     3.2460    -2.9540 C.ar  1 <1>  -0.1500 
 25 C        7.0850     1.5310    -1.4240 C.ar  1 <1>  -0.1500 
 26 C        6.9710     2.5060    -4.0020 C.ar  1 <1>  -0.1500 
 27 C        7.6020     0.7850    -2.4670 C.ar  1 <1>  -0.1500 
 28 C        7.5430     1.2700    -3.7610 C.ar  1 <1>  -0.1500 
 29 H        3.5420    -1.0610     0.9930 H     1 <1>   0.0800 
 30 H        4.3500     0.1240     0.0270 H     1 <1>   0.0800 
 31 H        3.2510     2.3210    -2.9320 H     1 <1>   0.0800 
 32 H        3.5530     0.6350    -3.3100 H     1 <1>   0.0800 
 33 H        4.2150     1.3470    -1.8580 H     1 <1>   0.0800 
 34 H        0.9130     1.9460    -3.1380 H     1 <1>   0.0800 
 35 H        0.0950     0.8120    -2.0930 H     1 <1>   0.0800 
 36 H        1.0840     0.2180    -3.4110 H     1 <1>   0.0800 
 37 H        2.6380     1.8120     0.7490 H     1 <1>   0.0800 
 38 H        4.9210     0.8700     2.1850 H     1 <1>   0.0800 
 39 H        1.5000    -0.5020     2.1700 H     1 <1>   0.0800 
 40 H        0.7940     1.0870     1.9060 H     1 <1>   0.0800 
 41 H        3.3640     3.2750     2.8870 H     1 <1>   0.4000 
 42 H        3.6640     1.4410     4.5290 H     1 <1>   0.0800 
 43 H        3.6370    -0.1910     3.8590 H     1 <1>   0.0800 
 44 H        3.0880     5.8380     2.3120 H     1 <1>   0.0800 
 45 H        4.4770     5.6510     3.3820 H     1 <1>   0.0800 
 46 H        6.2610     7.4490     0.3820 H     1 <1>   0.0800 
 47 H        4.6290     7.3930    -0.2750 H     1 <1>   0.0800 
 48 H        5.4970     7.5390     2.5530 H     1 <1>   0.0800 
 49 H        3.9370     7.9800     1.8910 H     1 <1>   0.0800 
 50 H        6.0140     4.2070    -3.1570 H     1 <1>   0.1500 
 51 H        7.1430     1.1420    -0.4230 H     1 <1>   0.1500 
 52 H        6.9300     2.8920    -5.0050 H     1 <1>   0.1500 
 53 H        8.0510    -0.1740    -2.2740 H     1 <1>   0.1500 
 54 H        7.9450     0.6910    -4.5740 H     1 <1>   0.1500 
@<TRIPOS>BOND
  1   1   2  2   
  2   1   3  2   
  3   1   4  am  
  4   1   5  1   
  5   4   6  1   
  6   4   7  1   
  7   5   8  1   
  8   5  29  1   
  9   5  30  1   
 10   6  31  1   
 11   6  32  1   
 12   6  33  1   
 13   7  34  1   
 14   7  35  1   
 15   7  36  1   
 16   8   9  1   
 17   8  10  1   
 18   8  37  1   
 19   9  11  1   
 20   9  12  1   
 21   9  38  1   
 22  10  13  1   
 23  10  39  1   
 24  10  40  1   
 25  11  14  1   
 26  11  41  1   
 27  12  13  1   
 28  12  42  1   
 29  12  43  1   
 30  14  15  ar  
 31  14  16  ar  
 32  15  17  ar  
 33  16  18  ar  
 34  16  19  1   
 35  17  20  ar  
 36  17  21  1   
 37  18  20  ar  
 38  18  22  1   
 39  19  23  1   
 40  19  44  1   
 41  19  45  1   
 42  21  24  ar  
 43  21  25  ar  
 44  22  23  1   
 45  22  46  1   
 46  22  47  1   
 47  23  48  1   
 48  23  49  1   
 49  24  26  ar  
 50  24  50  1   
 51  25  27  ar  
 52  25  51  1   
 53  26  28  ar  
 54  26  52  1   
 55  27  28  ar  
 56  27  53  1   
 57  28  54  1   
@<TRIPOS>SUBSTRUCTURE
  1 ****  15 GROUP 4 **** **** 0

# MOE 2024.06 (io_trps.svl 2023.06)
