@<TRIPOS>MOLECULE
NONAME
38 39 1 0 0 
SMALL
USER_CHARGES


@<TRIPOS>ATOM
  1 CL      -2.0450    -4.2710     3.5440 Cl    1 <1>  -0.1770 
  2 C       -2.3850    -3.3600     2.0960 C.ar  1 <1>   0.1770 
  3 C       -2.7700    -4.0340     0.9530 C.ar  1 <1>  -0.1500 
  4 C       -2.2680    -1.9840     2.1150 C.ar  1 <1>  -0.1500 
  5 C       -3.0510    -3.3160    -0.2030 C.ar  1 <1>  -0.1440 
  6 C       -2.5430    -1.2680     0.9620 C.ar  1 <1>  -0.1500 
  7 C       -2.9320    -1.9320    -0.1910 C.ar  1 <1>  -0.1500 
  8 C       -3.4930    -4.0430    -1.4580 C.3   1 <1>   0.4870 
  9 N       -4.8400    -4.6010    -1.2060 N.4   1 <1>  -0.9590 
 10 C       -5.1830    -5.7270    -2.1120 C.3   1 <1>   0.5240 
 11 C       -5.9070    -3.5630    -1.0640 C.3   1 <1>   0.3430 
 12 C       -5.6350    -6.8700    -1.2120 C.2   1 <1>   0.0460 
 13 C       -7.1520    -4.0900    -0.3340 C.3   1 <1>   0.1200 
 14 N       -5.1290    -6.9820     0.0370 N.2   1 <1>  -0.5650 
 15 C       -6.5330    -7.8500    -1.4540 C.2   1 <1>  -0.3020 
 16 O       -8.0950    -3.0780    -0.3240 O.3   1 <1>  -0.6800 
 17 C       -5.7160    -8.0280     0.5200 C.2   1 <1>   0.0060 
 18 N       -6.5850    -8.6040    -0.3390 N.pl3 1 <1>   0.0330 
 19 C       -5.4650    -8.5700     1.9120 C.3   1 <1>  -0.0600 
 20 H       -2.8430    -5.1080     0.9880 H     1 <1>   0.1500 
 21 H       -1.9650    -1.4840     3.0180 H     1 <1>   0.1500 
 22 H       -2.4520    -0.1940     0.9650 H     1 <1>   0.1500 
 23 H       -3.1380    -1.3510    -1.0750 H     1 <1>   0.1500 
 24 H       -2.7940    -4.8380    -1.6640 H     1 <1>   0.0800 
 25 H       -3.5130    -3.3690    -2.2980 H     1 <1>   0.0800 
 26 H       -4.7690    -5.0940    -0.2940 H     1 <1>   0.4500 
 27 H       -4.3120    -6.0470    -2.6600 H     1 <1>   0.0800 
 28 H       -5.9600    -5.4540    -2.8050 H     1 <1>   0.0800 
 29 H       -6.1970    -3.2000    -2.0360 H     1 <1>   0.0800 
 30 H       -5.5250    -2.7320    -0.4930 H     1 <1>   0.0800 
 31 H       -6.9180    -4.3460     0.6850 H     1 <1>   0.0800 
 32 H       -7.5830    -4.9350    -0.8410 H     1 <1>   0.0800 
 33 H       -7.1250    -8.0610    -2.3280 H     1 <1>   0.1500 
 34 H       -8.8910    -3.3330     0.1880 H     1 <1>   0.4000 
 35 H       -7.1530    -9.4420    -0.1700 H     1 <1>   0.2700 
 36 H       -4.7420    -7.9580     2.4220 H     1 <1>   0.0800 
 37 H       -5.0830    -9.5730     1.8550 H     1 <1>   0.0800 
 38 H       -6.3760    -8.5700     2.4820 H     1 <1>   0.0800 
@<TRIPOS>BOND
  1   1   2  1   
  2   2   3  ar  
  3   2   4  ar  
  4   3   5  ar  
  5   3  20  1   
  6   4   6  ar  
  7   4  21  1   
  8   5   7  ar  
  9   5   8  1   
 10   6   7  ar  
 11   6  22  1   
 12   7  23  1   
 13   8   9  1   
 14   8  24  1   
 15   8  25  1   
 16   9  10  1   
 17   9  11  1   
 18   9  26  1   
 19  10  12  1   
 20  10  27  1   
 21  10  28  1   
 22  11  13  1   
 23  11  29  1   
 24  11  30  1   
 25  12  14  1   
 26  12  15  2   
 27  13  16  1   
 28  13  31  1   
 29  13  32  1   
 30  14  17  2   
 31  15  18  1   
 32  15  33  1   
 33  16  34  1   
 34  17  18  1   
 35  17  19  1   
 36  18  35  1   
 37  19  36  1   
 38  19  37  1   
 39  19  38  1   
@<TRIPOS>SUBSTRUCTURE
  1 ****   9 GROUP 4 **** **** 0

# MOE 2024.06 (io_trps.svl 2023.06)
