@<TRIPOS>MOLECULE
NONAME
51 54 1 0 0 
SMALL
USER_CHARGES


@<TRIPOS>ATOM
  1 O       -1.9730    -1.4350    -2.3020 O.2   1 <1>  -0.5740 
  2 C       -2.9920    -1.0730    -1.7630 C.2   1 <1>   0.6860 
  3 N       -3.7140    -1.8970    -0.9110 N.am  1 <1>  -0.4410 
  4 N       -3.4420     0.1920    -2.0070 N.am  1 <1>  -0.4950 
  5 C       -4.8770    -1.3850    -0.3540 C.2   1 <1>   0.4210 
  6 C       -3.2720    -3.2920    -0.6250 C.3   1 <1>   0.0520 
  7 C       -4.5820     0.7120    -1.4650 C.2   1 <1>   0.6990 
  8 N       -5.7410    -2.0100     0.4880 N.pl3 1 <1>  -0.7040 
  9 C       -5.3390    -0.1370    -0.5930 C.2   1 <1>   0.2710 
 10 O       -4.8970     1.8540    -1.7390 O.2   1 <1>  -0.5740 
 11 C       -6.7550    -1.1830     0.7450 C.cat 1 <1>   1.0690 
 12 N       -6.5360    -0.0080     0.1330 N.pl3 1 <1>  -0.7670 
 13 N       -7.8210    -1.5170     1.4970 N.pl3 1 <1>  -0.5960 
 14 C       -7.3090     1.2630     0.1900 C.3   1 <1>   0.2680 
 15 C       -9.1900    -1.2260     1.0310 C.3   1 <1>   0.1600 
 16 C       -7.9290    -2.7360     2.3230 C.3   1 <1>   0.1600 
 17 C       -9.8160    -2.6030     0.7680 C.3   1 <1>  -0.0880 
 18 C       -8.9410    -3.6030     1.5730 C.3   1 <1>  -0.0880 
 19 C       -9.9790    -2.9450    -0.7410 C.3   1 <1>   0.2740 
 20 C       -8.2070    -4.6440     0.7080 C.3   1 <1>  -0.1670 
 21 O       -8.8210    -2.5920    -1.4180 O.3   1 <1>  -0.6840 
 22 C      -10.1920    -4.4630    -0.9140 C.3   1 <1>  -0.1670 
 23 C      -11.1610    -2.2180    -1.4310 C.3   1 <1>  -0.1670 
 24 C       -9.1560    -5.3810    -0.2380 C.3   1 <1>  -0.1670 
 25 C      -11.1090    -0.6840    -1.5400 C.3   1 <1>  -0.2470 
 26 H       -2.8910     0.7730    -2.6350 H     1 <1>   0.3640 
 27 H       -3.9640    -3.9910    -1.0620 H     1 <1>   0.0720 
 28 H       -3.2220    -3.4520     0.4380 H     1 <1>   0.0720 
 29 H       -2.2950    -3.4770    -1.0390 H     1 <1>   0.0720 
 30 H       -5.7290    -2.9830     0.7720 H     1 <1>   0.4450 
 31 H       -6.6380     2.1000     0.2860 H     1 <1>   0.0720 
 32 H       -7.9750     1.2660     1.0360 H     1 <1>   0.0720 
 33 H       -7.8830     1.3820    -0.7140 H     1 <1>   0.0720 
 34 H       -9.7310    -0.7110     1.8080 H     1 <1>   0.0720 
 35 H       -9.1750    -0.6190     0.1470 H     1 <1>   0.0720 
 36 H       -6.9830    -3.2320     2.4610 H     1 <1>   0.0720 
 37 H       -8.3220    -2.4680     3.2900 H     1 <1>   0.0720 
 38 H      -10.8010    -2.6060     1.2000 H     1 <1>   0.0720 
 39 H       -9.5540    -4.1320     2.2840 H     1 <1>   0.0720 
 40 H       -7.4560    -4.1610     0.1100 H     1 <1>   0.0720 
 41 H       -7.7090    -5.3620     1.3370 H     1 <1>   0.0720 
 42 H       -8.9280    -2.8590    -2.3520 H     1 <1>   0.3940 
 43 H      -11.1510    -4.7040    -0.4890 H     1 <1>   0.0720 
 44 H      -10.2560    -4.7110    -1.9590 H     1 <1>   0.0720 
 45 H      -11.2610    -2.6090    -2.4290 H     1 <1>   0.0720 
 46 H      -12.0690    -2.4790    -0.9160 H     1 <1>   0.0720 
 47 H       -9.6800    -6.1450     0.3120 H     1 <1>   0.0720 
 48 H       -8.5730    -5.8780    -0.9940 H     1 <1>   0.0720 
 49 H      -10.1830    -0.3600    -1.9810 H     1 <1>   0.0720 
 50 H      -11.2350    -0.2250    -0.5770 H     1 <1>   0.0720 
 51 H      -11.9130    -0.3450    -2.1690 H     1 <1>   0.0720 
@<TRIPOS>BOND
  1   1   2  2   
  2   2   3  am  
  3   2   4  am  
  4   3   5  1   
  5   3   6  1   
  6   4   7  am  
  7   4  26  1   
  8   5   8  1   
  9   5   9  2   
 10   6  27  1   
 11   6  28  1   
 12   6  29  1   
 13   7   9  1   
 14   7  10  2   
 15   8  11  ar  
 16   8  30  1   
 17   9  12  1   
 18  11  12  ar  
 19  11  13  ar  
 20  12  14  1   
 21  13  15  1   
 22  13  16  1   
 23  14  31  1   
 24  14  32  1   
 25  14  33  1   
 26  15  17  1   
 27  15  34  1   
 28  15  35  1   
 29  16  18  1   
 30  16  36  1   
 31  16  37  1   
 32  17  18  1   
 33  17  19  1   
 34  17  38  1   
 35  18  20  1   
 36  18  39  1   
 37  19  21  1   
 38  19  22  1   
 39  19  23  1   
 40  20  24  1   
 41  20  40  1   
 42  20  41  1   
 43  21  42  1   
 44  22  24  1   
 45  22  43  1   
 46  22  44  1   
 47  23  25  1   
 48  23  45  1   
 49  23  46  1   
 50  24  47  1   
 51  24  48  1   
 52  25  49  1   
 53  25  50  1   
 54  25  51  1   
@<TRIPOS>SUBSTRUCTURE
  1 ****  11 GROUP 4 **** **** 0

# MOE 2024.06 (io_trps.svl 2023.06)
