@<TRIPOS>MOLECULE
NONAME
50 53 1 0 0 
SMALL
USER_CHARGES


@<TRIPOS>ATOM
  1 O        1.6510     0.3910    -1.3210 O.3   1 <1>  -0.6800 
  2 C        1.8240     0.4140     0.0510 C.3   1 <1>   0.2800 
  3 C        3.3420     0.3960     0.4100 C.3   1 <1>  -0.0800 
  4 C        1.1320    -0.8490     0.5970 C.3   1 <1>  -0.1600 
  5 C        1.1050     1.6780     0.5720 C.3   1 <1>  -0.1600 
  6 C        3.9140    -0.9880     0.7580 C.3   1 <1>  -0.0800 
  7 C        4.2990     0.9340    -0.6610 C.3   1 <1>   0.2090 
  8 C        1.7590    -2.1660     0.0870 C.3   1 <1>  -0.1600 
  9 C        1.6390     3.0160     0.0310 C.3   1 <1>  -0.2400 
 10 C        3.2820    -2.0770    -0.1250 C.3   1 <1>  -0.1600 
 11 C        5.4230    -0.8460     0.5470 C.3   1 <1>   0.2090 
 12 N        5.6100     0.3000    -0.3820 N.pl3 1 <1>  -0.8380 
 13 C        6.7500     1.0870    -0.3550 C.ar  1 <1>   0.4100 
 14 N        7.5390     1.0070     0.7110 N.ar  1 <1>  -0.6200 
 15 C        7.0250     1.9280    -1.4310 C.ar  1 <1>  -0.1500 
 16 C        8.6060     1.7850     0.7090 C.ar  1 <1>   0.1600 
 17 C        8.1390     2.7330    -1.4220 C.ar  1 <1>  -0.1500 
 18 C        8.9560     2.6570    -0.3100 C.ar  1 <1>  -0.1440 
 19 C       10.2090     3.5110    -0.2060 C.3   1 <1>   0.2390 
 20 N        9.8650     4.9450    -0.1090 N.pl3 1 <1>   0.0480 
 21 C       10.4160     5.9690    -0.7990 C.2   1 <1>   0.0360 
 22 C        8.9530     5.5290     0.6920 C.2   1 <1>  -0.3020 
 23 N        9.9300     7.1290    -0.5000 N.2   1 <1>  -0.5650 
 24 C        9.0060     6.8540     0.4390 C.2   1 <1>   0.0770 
 25 H        0.7020     0.3160    -1.5230 H     1 <1>   0.4000 
 26 H        3.4860     1.0020     1.2860 H     1 <1>   0.0800 
 27 H        1.2160    -0.8320     1.6700 H     1 <1>   0.0800 
 28 H        0.0820    -0.8350     0.3680 H     1 <1>   0.0800 
 29 H        0.0580     1.6060     0.3360 H     1 <1>   0.0800 
 30 H        1.1800     1.6960     1.6460 H     1 <1>   0.0800 
 31 H        3.7240    -1.2290     1.7890 H     1 <1>   0.0800 
 32 H        4.3650     2.0060    -0.6190 H     1 <1>   0.0800 
 33 H        3.9970     0.6370    -1.6500 H     1 <1>   0.0800 
 34 H        1.5390    -2.9480     0.7930 H     1 <1>   0.0800 
 35 H        1.3040    -2.4400    -0.8500 H     1 <1>   0.0800 
 36 H        1.6250     3.0260    -1.0450 H     1 <1>   0.0800 
 37 H        2.6450     3.1920     0.3670 H     1 <1>   0.0800 
 38 H        1.0240     3.8240     0.3850 H     1 <1>   0.0800 
 39 H        3.4790    -1.8390    -1.1570 H     1 <1>   0.0800 
 40 H        3.7330    -3.0320     0.0790 H     1 <1>   0.0800 
 41 H        5.8550    -1.7380     0.1280 H     1 <1>   0.0800 
 42 H        5.8940    -0.6410     1.4930 H     1 <1>   0.0800 
 43 H        6.3540     1.9320    -2.2680 H     1 <1>   0.1500 
 44 H        9.2350     1.7190     1.5790 H     1 <1>   0.1500 
 45 H        8.3550     3.3920    -2.2450 H     1 <1>   0.1500 
 46 H       10.8220     3.3580    -1.0750 H     1 <1>   0.0800 
 47 H       10.7790     3.2410     0.6640 H     1 <1>   0.0800 
 48 H       11.1910     5.8160    -1.5290 H     1 <1>   0.1500 
 49 H        8.3270     4.9840     1.3760 H     1 <1>   0.1500 
 50 H        8.4180     7.6370     0.8900 H     1 <1>   0.1500 
@<TRIPOS>BOND
  1   1   2  1   
  2   1  25  1   
  3   2   3  1   
  4   2   4  1   
  5   2   5  1   
  6   3   6  1   
  7   3   7  1   
  8   3  26  1   
  9   4   8  1   
 10   4  27  1   
 11   4  28  1   
 12   5   9  1   
 13   5  29  1   
 14   5  30  1   
 15   6  10  1   
 16   6  11  1   
 17   6  31  1   
 18   7  12  1   
 19   7  32  1   
 20   7  33  1   
 21   8  10  1   
 22   8  34  1   
 23   8  35  1   
 24   9  36  1   
 25   9  37  1   
 26   9  38  1   
 27  10  39  1   
 28  10  40  1   
 29  11  12  1   
 30  11  41  1   
 31  11  42  1   
 32  12  13  1   
 33  13  14  ar  
 34  13  15  ar  
 35  14  16  ar  
 36  15  17  ar  
 37  15  43  1   
 38  16  18  ar  
 39  16  44  1   
 40  17  18  ar  
 41  17  45  1   
 42  18  19  1   
 43  19  20  1   
 44  19  46  1   
 45  19  47  1   
 46  20  21  1   
 47  20  22  1   
 48  21  23  2   
 49  21  48  1   
 50  22  24  2   
 51  22  49  1   
 52  23  24  1   
 53  24  50  1   
@<TRIPOS>SUBSTRUCTURE
  1 ****  13 GROUP 4 **** **** 0

# MOE 2024.06 (io_trps.svl 2023.06)
