@<TRIPOS>MOLECULE
NONAME
48 50 1 0 0 
SMALL
USER_CHARGES


@<TRIPOS>ATOM
  1 O       -2.5070     4.3660    -2.5680 O.2   1 <1>  -0.5700 
  2 C       -1.8560     3.9660    -1.6170 C.2   1 <1>   0.5440 
  3 N       -1.1050     2.8180    -1.8120 N.am  1 <1>  -0.6600 
  4 C       -1.9220     4.7030    -0.3520 C.ar  1 <1>   0.3960 
  5 C       -1.1600     2.0330    -3.0670 C.3   1 <1>   0.1400 
  6 C       -0.3890     2.0620    -0.7560 C.3   1 <1>   0.1400 
  7 N       -0.8780     4.7300     0.4940 N.ar  1 <1>  -0.6200 
  8 C       -3.1050     5.3840    -0.0550 C.ar  1 <1>   0.1600 
  9 C       -0.7680     0.6190    -2.6600 C.3   1 <1>  -0.1600 
 10 C        0.1360     0.8070    -1.4460 C.3   1 <1>  -0.1600 
 11 C       -1.0660     5.4470     1.5880 C.ar  1 <1>   0.4100 
 12 N       -3.3350     6.0900     1.0420 N.ar  1 <1>  -0.6200 
 13 N        0.0250     5.5400     2.4550 N.pl3 1 <1>  -0.8380 
 14 C       -2.2880     6.0990     1.8400 C.ar  1 <1>   0.1600 
 15 C        1.3950     5.0440     2.0890 C.3   1 <1>   0.3890 
 16 C       -0.0320     6.2510     3.7660 C.3   1 <1>   0.1290 
 17 C        2.3800     6.1940     1.9310 C.2   1 <1>   0.0070 
 18 N        3.4310     6.3320     2.6670 N.2   1 <1>  -0.3380 
 19 N        2.2850     7.1790     1.0250 N.pl3 1 <1>   0.0480 
 20 N        4.0600     7.4320     2.2550 N.2   1 <1>  -0.3380 
 21 C        3.3660     7.9160     1.2850 C.2   1 <1>   0.0360 
 22 C        1.2670     7.4550    -0.0100 C.3   1 <1>   0.0960 
 23 C        1.4310     6.5170    -1.2030 C.3   1 <1>   0.1200 
 24 O        0.4520     6.8490    -2.1300 O.3   1 <1>  -0.5600 
 25 C        0.4270     6.0270    -3.2530 C.3   1 <1>   0.0400 
 26 H       -0.4480     2.4390    -3.7640 H     1 <1>   0.0800 
 27 H       -2.1460     2.0590    -3.5030 H     1 <1>   0.0800 
 28 H       -1.0810     1.8030     0.0280 H     1 <1>   0.0800 
 29 H        0.4210     2.6420    -0.3500 H     1 <1>   0.0800 
 30 H       -3.9060     5.3370    -0.7730 H     1 <1>   0.1500 
 31 H       -0.2800     0.0930    -3.4610 H     1 <1>   0.0800 
 32 H       -1.6560     0.0810    -2.3760 H     1 <1>   0.0800 
 33 H        0.1230    -0.0440    -0.7890 H     1 <1>   0.0800 
 34 H        1.1470     0.9840    -1.7690 H     1 <1>   0.0800 
 35 H       -2.3880     6.6600     2.7480 H     1 <1>   0.1500 
 36 H        1.3910     4.4640     1.1860 H     1 <1>   0.0800 
 37 H        1.7460     4.3950     2.8730 H     1 <1>   0.0800 
 38 H       -0.9170     5.9660     4.3080 H     1 <1>   0.0800 
 39 H       -0.0360     7.3150     3.6040 H     1 <1>   0.0800 
 40 H        0.8260     6.0020     4.3680 H     1 <1>   0.0800 
 41 H        3.6150     8.8090     0.7420 H     1 <1>   0.1500 
 42 H        1.3780     8.4710    -0.3420 H     1 <1>   0.0800 
 43 H        0.2900     7.3410     0.4160 H     1 <1>   0.0800 
 44 H        1.2890     5.4920    -0.9070 H     1 <1>   0.0800 
 45 H        2.3960     6.6460    -1.6630 H     1 <1>   0.0800 
 46 H       -0.4260     6.2990    -3.8490 H     1 <1>   0.0800 
 47 H        0.3350     4.9990    -2.9470 H     1 <1>   0.0800 
 48 H        1.3300     6.1730    -3.8190 H     1 <1>   0.0800 
@<TRIPOS>BOND
  1   1   2  2   
  2   2   3  am  
  3   2   4  1   
  4   3   5  1   
  5   3   6  1   
  6   4   7  ar  
  7   4   8  ar  
  8   5   9  1   
  9   5  26  1   
 10   5  27  1   
 11   6  10  1   
 12   6  28  1   
 13   6  29  1   
 14   7  11  ar  
 15   8  12  ar  
 16   8  30  1   
 17   9  10  1   
 18   9  31  1   
 19   9  32  1   
 20  10  33  1   
 21  10  34  1   
 22  11  13  1   
 23  11  14  ar  
 24  12  14  ar  
 25  13  15  1   
 26  13  16  1   
 27  14  35  1   
 28  15  17  1   
 29  15  36  1   
 30  15  37  1   
 31  16  38  1   
 32  16  39  1   
 33  16  40  1   
 34  17  18  2   
 35  17  19  1   
 36  18  20  1   
 37  19  21  1   
 38  19  22  1   
 39  20  21  2   
 40  21  41  1   
 41  22  23  1   
 42  22  42  1   
 43  22  43  1   
 44  23  24  1   
 45  23  44  1   
 46  23  45  1   
 47  24  25  1   
 48  25  46  1   
 49  25  47  1   
 50  25  48  1   
@<TRIPOS>SUBSTRUCTURE
  1 ****   7 GROUP 4 **** **** 0

# MOE 2024.06 (io_trps.svl 2023.06)
