@<TRIPOS>MOLECULE
NONAME
55 59 1 0 0 
SMALL
USER_CHARGES


@<TRIPOS>ATOM
  1 O        1.1140    -3.6740     0.7540 O.3   1 <1>  -0.6800 
  2 C        0.9450    -2.3100     0.5660 C.3   1 <1>   0.2000 
  3 C        2.2400    -1.7250    -0.0290 C.3   1 <1>   0.0000 
  4 C       -0.1230    -2.1030    -0.5060 C.3   1 <1>  -0.1600 
  5 C        3.4800    -2.3620     0.6350 C.3   1 <1>   0.3430 
  6 C        2.2720    -0.1840     0.1640 C.3   1 <1>  -0.1600 
  7 C        2.1130    -2.0900    -1.5260 C.3   1 <1>  -0.1600 
  8 C        0.6140    -2.0890    -1.8500 C.3   1 <1>  -0.1600 
  9 N        4.7870    -1.8420     0.0960 N.4   1 <1>  -0.9590 
 10 C        3.7000     0.3900     0.2720 C.3   1 <1>  -0.1600 
 11 C        4.7290    -0.4570    -0.4760 C.3   1 <1>   0.3430 
 12 C        5.3800    -2.8000    -0.8700 C.3   1 <1>   0.5240 
 13 C        6.8090    -2.3760    -1.1250 C.2   1 <1>  -0.1810 
 14 C        7.2910    -1.8220    -2.3040 C.2   1 <1>   0.1390 
 15 C        7.8850    -2.4200    -0.3070 C.2   1 <1>  -0.3020 
 16 N        8.5470    -1.5290    -2.2220 N.2   1 <1>  -0.7070 
 17 N        8.9490    -1.9100    -0.9810 N.pl3 1 <1>   0.5930 
 18 C       10.2740    -1.7410    -0.4870 C.ar  1 <1>  -0.0230 
 19 C       10.8270    -2.6100     0.4270 C.ar  1 <1>  -0.1500 
 20 C       11.0540    -0.6560    -0.9310 C.ar  1 <1>  -0.1500 
 21 C       12.1280    -2.4360     0.9350 C.ar  1 <1>   0.0000 
 22 C       12.3200    -0.4610    -0.4560 C.ar  1 <1>  -0.1500 
 23 C       12.8910    -1.3360     0.4880 C.ar  1 <1>   0.0000 
 24 C       12.7010    -3.3180     1.8750 C.ar  1 <1>  -0.1500 
 25 C       14.1910    -1.1580     1.0000 C.ar  1 <1>  -0.1500 
 26 C       13.9660    -3.1210     2.3550 C.ar  1 <1>  -0.1500 
 27 C       14.7200    -2.0280     1.9130 C.ar  1 <1>  -0.1500 
 28 H        0.2510    -4.0930     0.9510 H     1 <1>   0.4000 
 29 H        0.6700    -1.8740     1.5120 H     1 <1>   0.0800 
 30 H       -0.8940    -2.8530    -0.4710 H     1 <1>   0.0800 
 31 H       -0.5810    -1.1410    -0.3540 H     1 <1>   0.0800 
 32 H        3.4320    -3.4330     0.5260 H     1 <1>   0.0800 
 33 H        3.4260    -2.1470     1.6900 H     1 <1>   0.0800 
 34 H        1.7550     0.2950    -0.6510 H     1 <1>   0.0800 
 35 H        1.7440     0.0900     1.0620 H     1 <1>   0.0800 
 36 H        2.6470    -1.4210    -2.1770 H     1 <1>   0.0800 
 37 H        2.4780    -3.0900    -1.6840 H     1 <1>   0.0800 
 38 H        0.3570    -2.9570    -2.4340 H     1 <1>   0.0800 
 39 H        0.3430    -1.2080    -2.4090 H     1 <1>   0.0800 
 40 H        5.4480    -1.8080     0.8810 H     1 <1>   0.4500 
 41 H        3.9920     0.4570     1.3060 H     1 <1>   0.0800 
 42 H        3.7090     1.3910    -0.1230 H     1 <1>   0.0800 
 43 H        5.7020     0.0060    -0.4180 H     1 <1>   0.0800 
 44 H        4.4450    -0.5020    -1.5150 H     1 <1>   0.0800 
 45 H        5.3720    -3.7960    -0.4580 H     1 <1>   0.0800 
 46 H        4.8190    -2.8040    -1.7910 H     1 <1>   0.0800 
 47 H        6.7100    -1.6410    -3.1950 H     1 <1>   0.1500 
 48 H        7.9790    -2.7720     0.7030 H     1 <1>   0.1500 
 49 H       10.2720    -3.4620     0.7760 H     1 <1>   0.1500 
 50 H       10.6360     0.0220    -1.6570 H     1 <1>   0.1500 
 51 H       12.9070     0.3710    -0.8020 H     1 <1>   0.1500 
 52 H       12.1210    -4.1580     2.2120 H     1 <1>   0.1500 
 53 H       14.7660    -0.3170     0.6560 H     1 <1>   0.1500 
 54 H       14.3970    -3.7970     3.0720 H     1 <1>   0.1500 
 55 H       15.7140    -1.8870     2.3010 H     1 <1>   0.1500 
@<TRIPOS>BOND
  1   1   2  1   
  2   1  28  1   
  3   2   3  1   
  4   2   4  1   
  5   2  29  1   
  6   3   5  1   
  7   3   6  1   
  8   3   7  1   
  9   4   8  1   
 10   4  30  1   
 11   4  31  1   
 12   5   9  1   
 13   5  32  1   
 14   5  33  1   
 15   6  10  1   
 16   6  34  1   
 17   6  35  1   
 18   7   8  1   
 19   7  36  1   
 20   7  37  1   
 21   8  38  1   
 22   8  39  1   
 23   9  11  1   
 24   9  12  1   
 25   9  40  1   
 26  10  11  1   
 27  10  41  1   
 28  10  42  1   
 29  11  43  1   
 30  11  44  1   
 31  12  13  1   
 32  12  45  1   
 33  12  46  1   
 34  13  14  1   
 35  13  15  2   
 36  14  16  2   
 37  14  47  1   
 38  15  17  1   
 39  15  48  1   
 40  16  17  1   
 41  17  18  1   
 42  18  19  ar  
 43  18  20  ar  
 44  19  21  ar  
 45  19  49  1   
 46  20  22  ar  
 47  20  50  1   
 48  21  23  ar  
 49  21  24  ar  
 50  22  23  ar  
 51  22  51  1   
 52  23  25  ar  
 53  24  26  ar  
 54  24  52  1   
 55  25  27  ar  
 56  25  53  1   
 57  26  27  ar  
 58  26  54  1   
 59  27  55  1   
@<TRIPOS>SUBSTRUCTURE
  1 ****  15 GROUP 4 **** **** 0

# MOE 2024.06 (io_trps.svl 2023.06)
