@<TRIPOS>MOLECULE
NONAME
35 37 1 0 0 
SMALL
USER_CHARGES


@<TRIPOS>ATOM
  1 S       -0.7090    -0.1800    -2.1290 S.3   1 <1>  -0.0800 
  2 C       -1.2220     0.9000    -0.8420 C.2   1 <1>  -0.1400 
  3 C       -2.2320    -1.0550    -2.0430 C.2   1 <1>  -0.1100 
  4 C       -2.4550     0.5880    -0.4220 C.2   1 <1>  -0.1810 
  5 C       -0.3410     2.0190    -0.3080 C.3   1 <1>   0.4600 
  6 C       -3.0370    -0.5300    -1.0990 C.2   1 <1>  -0.1500 
  7 C       -3.0980     1.3980     0.6810 C.3   1 <1>   0.0210 
  8 O       -0.9600     2.5710     0.8380 O.3   1 <1>  -0.5600 
  9 C        1.0050     1.4740     0.1720 C.3   1 <1>  -0.1600 
 10 C       -0.1170     3.1280    -1.3520 C.3   1 <1>  -0.1600 
 11 C       -2.3610     2.7450     0.8200 C.3   1 <1>   0.1200 
 12 C        1.8380     2.5590     0.8590 C.3   1 <1>   0.3430 
 13 C        1.1520     3.9500    -1.1150 C.3   1 <1>   0.3430 
 14 N        1.5230     3.9090     0.3210 N.4   1 <1>  -0.9590 
 15 C        2.5400     4.9850     0.6630 C.3   1 <1>   0.2370 
 16 C        2.0250     6.4100     0.4270 C.2   1 <1>   0.9060 
 17 O        0.7960     6.5680     0.4130 O.co2 1 <1>  -0.9000 
 18 O        2.8340     7.3080     0.2020 O.co2 1 <1>  -0.9000 
 19 H       -2.3650    -1.8830    -2.7170 H     1 <1>   0.1500 
 20 H       -4.0220    -0.8830    -0.8480 H     1 <1>   0.1500 
 21 H       -3.0460     0.8550     1.6080 H     1 <1>   0.0800 
 22 H       -4.1330     1.5800     0.4520 H     1 <1>   0.0800 
 23 H        1.5540     1.0880    -0.6670 H     1 <1>   0.0800 
 24 H        0.8450     0.6570     0.8510 H     1 <1>   0.0800 
 25 H       -0.9640     3.7860    -1.3890 H     1 <1>   0.0800 
 26 H       -0.0300     2.6880    -2.3280 H     1 <1>   0.0800 
 27 H       -2.6440     3.2300     1.7380 H     1 <1>   0.0800 
 28 H       -2.6170     3.3940     0.0010 H     1 <1>   0.0800 
 29 H        2.8850     2.3430     0.7270 H     1 <1>   0.0800 
 30 H        1.6220     2.5530     1.9150 H     1 <1>   0.0800 
 31 H        0.9780     4.9700    -1.4230 H     1 <1>   0.0800 
 32 H        1.9630     3.5510    -1.7020 H     1 <1>   0.0800 
 33 H        0.6550     4.2470     0.7880 H     1 <1>   0.4500 
 34 H        3.4300     4.8590     0.0740 H     1 <1>   0.0800 
 35 H        2.8060     4.9180     1.7010 H     1 <1>   0.0800 
@<TRIPOS>BOND
  1   1   2  1   
  2   1   3  1   
  3   2   4  2   
  4   2   5  1   
  5   3   6  2   
  6   3  19  1   
  7   4   6  1   
  8   4   7  1   
  9   5   8  1   
 10   5   9  1   
 11   5  10  1   
 12   6  20  1   
 13   7  11  1   
 14   7  21  1   
 15   7  22  1   
 16   8  11  1   
 17   9  12  1   
 18   9  23  1   
 19   9  24  1   
 20  10  13  1   
 21  10  25  1   
 22  10  26  1   
 23  11  27  1   
 24  11  28  1   
 25  12  14  1   
 26  12  29  1   
 27  12  30  1   
 28  13  14  1   
 29  13  31  1   
 30  13  32  1   
 31  14  15  1   
 32  14  33  1   
 33  15  16  1   
 34  15  34  1   
 35  15  35  1   
 36  16  17  ar  
 37  16  18  ar  
@<TRIPOS>SUBSTRUCTURE
  1 ****   5 GROUP 4 **** **** 0

# MOE 2024.06 (io_trps.svl 2023.06)
