@<TRIPOS>MOLECULE
NONAME
46 48 1 0 0 
SMALL
USER_CHARGES


@<TRIPOS>ATOM
  1 S       -0.8490     1.6440     1.4040 S.3   1 <1>  -0.0800 
  2 C       -0.6240     3.3060     0.9160 C.2   1 <1>   0.1980 
  3 C        0.8170     1.5860     1.8920 C.2   1 <1>  -0.1100 
  4 N        0.5560     3.7420     1.1060 N.2   1 <1>  -0.5650 
  5 C       -1.8360     4.0320     0.3480 C.3   1 <1>   0.0200 
  6 C        1.4280     2.7660     1.6470 C.2   1 <1>  -0.0060 
  7 C       -2.0420     3.8050    -1.1640 C.3   1 <1>   0.2090 
  8 C        2.8640     2.9950     1.8660 C.2   1 <1>   1.0330 
  9 N       -1.2300     4.7500    -1.9820 N.pl3 1 <1>  -0.8690 
 10 O        3.4710     3.9400     1.3040 O.co2 1 <1>  -0.9000 
 11 O        3.5480     2.1780     2.4950 O.co2 1 <1>  -0.9000 
 12 C        0.1040     4.7860    -1.8890 C.ar  1 <1>   0.4100 
 13 N        0.6050     5.9160    -1.4530 N.ar  1 <1>  -0.6200 
 14 C        0.8780     3.6360    -2.1110 C.ar  1 <1>  -0.1500 
 15 C        1.8180     5.8480    -0.9090 C.ar  1 <1>   0.7710 
 16 C        2.1410     3.6150    -1.6280 C.ar  1 <1>   0.2180 
 17 N        2.5540     4.7240    -0.9780 N.ar  1 <1>  -0.1790 
 18 N        2.3040     6.9310    -0.2400 N.pl3 1 <1>  -0.8380 
 19 C        3.0760     2.4170    -1.7240 C.3   1 <1>  -0.0170 
 20 C        3.5710     6.9590     0.5710 C.3   1 <1>   0.2090 
 21 C        1.4600     8.1300     0.0790 C.3   1 <1>   0.2090 
 22 C        4.3200     2.7280    -2.5660 C.3   1 <1>  -0.2400 
 23 C        3.2330     7.0890     2.0670 C.3   1 <1>   0.1200 
 24 C        1.2270     8.2170     1.5990 C.3   1 <1>   0.1200 
 25 O        2.4470     8.2300     2.2890 O.3   1 <1>  -0.5600 
 26 H        1.2070     0.6730     2.3060 H     1 <1>   0.1500 
 27 H       -1.7470     5.0850     0.5470 H     1 <1>   0.0800 
 28 H       -2.7040     3.6770     0.8710 H     1 <1>   0.0800 
 29 H       -3.0800     3.9610    -1.4040 H     1 <1>   0.0800 
 30 H       -1.7940     2.7880    -1.4200 H     1 <1>   0.0800 
 31 H       -1.6590     5.6770    -2.0610 H     1 <1>   0.4000 
 32 H        0.4320     2.8040    -2.6200 H     1 <1>   0.1500 
 33 H        3.2490     4.6130    -0.2180 H     1 <1>   0.4570 
 34 H        2.5510     1.5880    -2.1660 H     1 <1>   0.0800 
 35 H        3.3810     2.1140    -0.7370 H     1 <1>   0.0800 
 36 H        4.1620     7.8100     0.2770 H     1 <1>   0.0800 
 37 H        4.1760     6.0860     0.4160 H     1 <1>   0.0800 
 38 H        0.5080     8.0960    -0.4200 H     1 <1>   0.0800 
 39 H        1.9650     9.0210    -0.2520 H     1 <1>   0.0800 
 40 H        4.0380     3.0370    -3.5580 H     1 <1>   0.0800 
 41 H        4.9370     1.8500    -2.6430 H     1 <1>   0.0800 
 42 H        4.9030     3.5080    -2.1090 H     1 <1>   0.0800 
 43 H        4.1330     7.1880     2.6460 H     1 <1>   0.0800 
 44 H        2.6970     6.2200     2.4120 H     1 <1>   0.0800 
 45 H        0.6490     7.3740     1.9380 H     1 <1>   0.0800 
 46 H        0.7010     9.1220     1.8440 H     1 <1>   0.0800 
@<TRIPOS>BOND
  1   1   2  1   
  2   1   3  1   
  3   2   4  2   
  4   2   5  1   
  5   3   6  2   
  6   3  26  1   
  7   4   6  1   
  8   5   7  1   
  9   5  27  1   
 10   5  28  1   
 11   6   8  1   
 12   7   9  1   
 13   7  29  1   
 14   7  30  1   
 15   8  10  ar  
 16   8  11  ar  
 17   9  12  1   
 18   9  31  1   
 19  12  13  ar  
 20  12  14  ar  
 21  13  15  ar  
 22  14  16  ar  
 23  14  32  1   
 24  15  17  ar  
 25  15  18  1   
 26  16  17  ar  
 27  16  19  1   
 28  17  33  1   
 29  18  20  1   
 30  18  21  1   
 31  19  22  1   
 32  19  34  1   
 33  19  35  1   
 34  20  23  1   
 35  20  36  1   
 36  20  37  1   
 37  21  24  1   
 38  21  38  1   
 39  21  39  1   
 40  22  40  1   
 41  22  41  1   
 42  22  42  1   
 43  23  25  1   
 44  23  43  1   
 45  23  44  1   
 46  24  25  1   
 47  24  45  1   
 48  24  46  1   
@<TRIPOS>SUBSTRUCTURE
  1 ****   4 GROUP 4 **** **** 0

# MOE 2024.06 (io_trps.svl 2023.06)
