@<TRIPOS>MOLECULE
NONAME
59 61 1 0 0 
SMALL
USER_CHARGES


@<TRIPOS>ATOM
  1 O       -0.7860    -0.0150    -0.6990 O.3   1 <1>  -0.3630 
  2 C       -0.4830     1.2900    -0.4680 C.ar  1 <1>   0.0830 
  3 C       -2.0710    -0.5240    -0.4530 C.3   1 <1>   0.1200 
  4 C        0.8630     1.6530    -0.4490 C.ar  1 <1>  -0.1440 
  5 C       -1.4620     2.2580    -0.2490 C.ar  1 <1>  -0.1500 
  6 C       -2.0160    -2.0370    -0.6870 C.3   1 <1>   0.3430 
  7 C        1.2080     2.9730    -0.2050 C.ar  1 <1>  -0.1500 
  8 C        1.9740     0.6350    -0.6810 C.3   1 <1>  -0.0170 
  9 C       -1.1020     3.5710    -0.0080 C.ar  1 <1>  -0.1500 
 10 N       -3.3300    -2.7230    -0.4310 N.4   1 <1>  -0.9590 
 11 C        0.2330     3.9290     0.0150 C.ar  1 <1>  -0.1500 
 12 C        2.3710    -0.0350     0.6350 C.3   1 <1>  -0.2400 
 13 C       -3.2340    -4.1240    -0.9920 C.3   1 <1>   0.3430 
 14 C       -3.6870    -2.6570     1.0190 C.3   1 <1>   0.3430 
 15 C       -3.6670    -5.2680    -0.0460 C.3   1 <1>   0.0000 
 16 C       -4.9330    -3.4800     1.3460 C.3   1 <1>  -0.1600 
 17 C       -5.0000    -4.8120     0.5880 C.3   1 <1>   0.2000 
 18 C       -3.9820    -6.4970    -0.9310 C.3   1 <1>   0.1200 
 19 C       -2.5790    -5.6590     1.0180 C.3   1 <1>  -0.0160 
 20 O       -5.5110    -5.7880     1.4240 O.3   1 <1>  -0.6800 
 21 O       -2.9310    -6.7290    -1.8060 O.3   1 <1>  -0.6800 
 22 C       -1.2250    -4.9560     0.9090 C.ar  1 <1>  -0.1430 
 23 C       -0.7950    -4.0910     1.9070 C.ar  1 <1>  -0.1500 
 24 C       -0.3910    -5.1920    -0.1750 C.ar  1 <1>  -0.1500 
 25 C        0.4160    -3.4320     1.7950 C.ar  1 <1>  -0.1500 
 26 C        0.8200    -4.5340    -0.2900 C.ar  1 <1>  -0.1500 
 27 C        1.2220    -3.6470     0.6920 C.ar  1 <1>  -0.1500 
 28 H       -2.3230    -0.2920     0.5650 H     1 <1>   0.0800 
 29 H       -2.7530    -0.0560    -1.1410 H     1 <1>   0.0800 
 30 H       -2.5070     2.0200    -0.2670 H     1 <1>   0.1500 
 31 H       -1.2570    -2.4610    -0.0490 H     1 <1>   0.0800 
 32 H       -1.7190    -2.2040    -1.7100 H     1 <1>   0.0800 
 33 H        2.2440     3.2650    -0.1830 H     1 <1>   0.1500 
 34 H        1.6540    -0.1100    -1.3890 H     1 <1>   0.0800 
 35 H        2.8320     1.1270    -1.1050 H     1 <1>   0.0800 
 36 H       -1.8580     4.3190     0.1600 H     1 <1>   0.1500 
 37 H       -4.0590    -2.2320    -0.9660 H     1 <1>   0.4500 
 38 H        0.5150     4.9510     0.2030 H     1 <1>   0.1500 
 39 H        1.5250    -0.5450     1.0590 H     1 <1>   0.0800 
 40 H        2.7150     0.7040     1.3370 H     1 <1>   0.0800 
 41 H        3.1600    -0.7460     0.4660 H     1 <1>   0.0800 
 42 H       -3.8590    -4.1750    -1.8680 H     1 <1>   0.0800 
 43 H       -2.2330    -4.3190    -1.3340 H     1 <1>   0.0800 
 44 H       -2.8670    -3.0370     1.5980 H     1 <1>   0.0800 
 45 H       -3.8480    -1.6340     1.3200 H     1 <1>   0.0800 
 46 H       -5.8060    -2.9000     1.1030 H     1 <1>   0.0800 
 47 H       -4.9480    -3.6460     2.4090 H     1 <1>   0.0800 
 48 H       -5.7240    -4.6970    -0.2030 H     1 <1>   0.0800 
 49 H       -4.8670    -6.3360    -1.5240 H     1 <1>   0.0800 
 50 H       -4.1320    -7.3800    -0.3310 H     1 <1>   0.0800 
 51 H       -2.9590    -5.4930     2.0090 H     1 <1>   0.0800 
 52 H       -2.3860    -6.7170     0.9650 H     1 <1>   0.0800 
 53 H       -4.9900    -5.8910     2.2450 H     1 <1>   0.4000 
 54 H       -3.0580    -7.5760    -2.2850 H     1 <1>   0.4000 
 55 H       -1.3900    -3.9280     2.7890 H     1 <1>   0.1500 
 56 H       -0.6740    -5.8960    -0.9400 H     1 <1>   0.1500 
 57 H        0.7430    -2.7590     2.5700 H     1 <1>   0.1500 
 58 H        1.4570    -4.7200    -1.1380 H     1 <1>   0.1500 
 59 H        2.1670    -3.1390     0.6040 H     1 <1>   0.1500 
@<TRIPOS>BOND
  1   1   2  1   
  2   1   3  1   
  3   2   4  ar  
  4   2   5  ar  
  5   3   6  1   
  6   3  28  1   
  7   3  29  1   
  8   4   7  ar  
  9   4   8  1   
 10   5   9  ar  
 11   5  30  1   
 12   6  10  1   
 13   6  31  1   
 14   6  32  1   
 15   7  11  ar  
 16   7  33  1   
 17   8  12  1   
 18   8  34  1   
 19   8  35  1   
 20   9  11  ar  
 21   9  36  1   
 22  10  13  1   
 23  10  14  1   
 24  10  37  1   
 25  11  38  1   
 26  12  39  1   
 27  12  40  1   
 28  12  41  1   
 29  13  15  1   
 30  13  42  1   
 31  13  43  1   
 32  14  16  1   
 33  14  44  1   
 34  14  45  1   
 35  15  17  1   
 36  15  18  1   
 37  15  19  1   
 38  16  17  1   
 39  16  46  1   
 40  16  47  1   
 41  17  20  1   
 42  17  48  1   
 43  18  21  1   
 44  18  49  1   
 45  18  50  1   
 46  19  22  1   
 47  19  51  1   
 48  19  52  1   
 49  20  53  1   
 50  21  54  1   
 51  22  23  ar  
 52  22  24  ar  
 53  23  25  ar  
 54  23  55  1   
 55  24  26  ar  
 56  24  56  1   
 57  25  27  ar  
 58  25  57  1   
 59  26  27  ar  
 60  26  58  1   
 61  27  59  1   
@<TRIPOS>SUBSTRUCTURE
  1 ****   6 GROUP 4 **** **** 0

# MOE 2024.06 (io_trps.svl 2023.06)
