@<TRIPOS>MOLECULE
NONAME
55 59 1 0 0 
SMALL
USER_CHARGES


@<TRIPOS>ATOM
  1 O       -0.5960    -0.0810    -0.0080 O.2   1 <1>  -0.5700 
  2 C       -1.6070     0.5660     0.1870 C.2   1 <1>   0.7150 
  3 N       -2.7340    -0.0950     0.6160 N.am  1 <1>  -0.6600 
  4 C       -1.5990     1.9850    -0.0570 C.2   1 <1>  -0.2370 
  5 C       -3.9660     0.4910     1.1740 C.3   1 <1>   0.1400 
  6 C       -2.9590    -1.5330     0.3920 C.3   1 <1>   0.1400 
  7 N       -2.6110     2.6390    -0.7200 N.pl3 1 <1>   0.0330 
  8 C       -0.6450     2.9120     0.2510 C.2   1 <1>  -0.1500 
  9 C       -5.0910    -0.3120     0.5150 C.3   1 <1>  -0.0800 
 10 C       -4.4420    -1.6280     0.0070 C.3   1 <1>  -0.0800 
 11 C       -2.3050     3.9700    -0.8120 C.ar  1 <1>  -0.1520 
 12 C       -1.0700     4.1720    -0.2080 C.ar  1 <1>   0.0000 
 13 C       -5.8630     0.5060    -0.5490 C.3   1 <1>   0.4240 
 14 C       -4.6030    -1.8800    -1.5060 C.3   1 <1>  -0.1600 
 15 C       -3.0100     5.0330    -1.3820 C.ar  1 <1>  -0.1500 
 16 C       -0.5200     5.4590    -0.1630 C.ar  1 <1>  -0.1500 
 17 O       -4.9550     1.0420    -1.4490 O.3   1 <1>  -0.6800 
 18 C       -6.6690     1.6480     0.1070 C.ar  1 <1>  -0.1440 
 19 C       -6.7620    -0.4350    -1.3680 C.3   1 <1>  -0.1600 
 20 C       -6.0370    -1.6400    -2.0130 C.3   1 <1>  -0.1600 
 21 C       -2.4600     6.2920    -1.3310 C.ar  1 <1>  -0.1500 
 22 C       -1.2160     6.5130    -0.7240 C.ar  1 <1>   0.0820 
 23 C       -6.3890     2.9930    -0.1270 C.ar  1 <1>  -0.1500 
 24 C       -7.7120     1.3480     0.9800 C.ar  1 <1>  -0.1500 
 25 O       -0.7720     7.8010    -0.7340 O.3   1 <1>  -0.3620 
 26 C       -7.1180     3.9960     0.4880 C.ar  1 <1>  -0.1500 
 27 C       -8.4450     2.3480     1.5950 C.ar  1 <1>  -0.1500 
 28 C        0.4780     8.1290    -0.1680 C.3   1 <1>   0.0400 
 29 C       -8.1490     3.6750     1.3500 C.ar  1 <1>  -0.1500 
 30 H       -3.9720     0.3230     2.2370 H     1 <1>   0.0800 
 31 H       -4.0510     1.5480     1.0010 H     1 <1>   0.0800 
 32 H       -2.3080    -1.9170    -0.3760 H     1 <1>   0.0800 
 33 H       -2.7710    -2.0610     1.3110 H     1 <1>   0.0800 
 34 H       -3.4740     2.1960    -1.0690 H     1 <1>   0.2700 
 35 H        0.2890     2.7320     0.7540 H     1 <1>   0.1500 
 36 H       -5.7900    -0.5740     1.2870 H     1 <1>   0.0800 
 37 H       -4.8790    -2.4630     0.5280 H     1 <1>   0.0800 
 38 H       -3.9220    -1.2480    -2.0490 H     1 <1>   0.0800 
 39 H       -4.3160    -2.8940    -1.7300 H     1 <1>   0.0800 
 40 H       -3.9620     4.8600    -1.8510 H     1 <1>   0.1500 
 41 H        0.4330     5.5770     0.3110 H     1 <1>   0.1500 
 42 H       -4.5730     0.2890    -1.9380 H     1 <1>   0.4000 
 43 H       -7.5190    -0.8290    -0.7150 H     1 <1>   0.0800 
 44 H       -7.2770     0.1350    -2.1210 H     1 <1>   0.0800 
 45 H       -6.6220    -2.5250    -1.8280 H     1 <1>   0.0800 
 46 H       -6.0050    -1.5050    -3.0810 H     1 <1>   0.0800 
 47 H       -2.9740     7.1340    -1.7590 H     1 <1>   0.1500 
 48 H       -5.5990     3.2850    -0.7940 H     1 <1>   0.1500 
 49 H       -7.9710     0.3270     1.1960 H     1 <1>   0.1500 
 50 H       -6.8810     5.0270     0.2930 H     1 <1>   0.1500 
 51 H       -9.2480     2.0940     2.2650 H     1 <1>   0.1500 
 52 H        0.6330     9.1860    -0.2910 H     1 <1>   0.0800 
 53 H        1.2480     7.5840    -0.6850 H     1 <1>   0.0800 
 54 H        0.4630     7.8800     0.8780 H     1 <1>   0.0800 
 55 H       -8.7160     4.4540     1.8270 H     1 <1>   0.1500 
@<TRIPOS>BOND
  1   1   2  2   
  2   2   3  am  
  3   2   4  1   
  4   3   5  1   
  5   3   6  1   
  6   4   7  1   
  7   4   8  2   
  8   5   9  1   
  9   5  30  1   
 10   5  31  1   
 11   6  10  1   
 12   6  32  1   
 13   6  33  1   
 14   7  11  1   
 15   7  34  1   
 16   8  12  1   
 17   8  35  1   
 18   9  10  1   
 19   9  13  1   
 20   9  36  1   
 21  10  14  1   
 22  10  37  1   
 23  11  12  ar  
 24  11  15  ar  
 25  12  16  ar  
 26  13  17  1   
 27  13  18  1   
 28  13  19  1   
 29  14  20  1   
 30  14  38  1   
 31  14  39  1   
 32  15  21  ar  
 33  15  40  1   
 34  16  22  ar  
 35  16  41  1   
 36  17  42  1   
 37  18  23  ar  
 38  18  24  ar  
 39  19  20  1   
 40  19  43  1   
 41  19  44  1   
 42  20  45  1   
 43  20  46  1   
 44  21  22  ar  
 45  21  47  1   
 46  22  25  1   
 47  23  26  ar  
 48  23  48  1   
 49  24  27  ar  
 50  24  49  1   
 51  25  28  1   
 52  26  29  ar  
 53  26  50  1   
 54  27  29  ar  
 55  27  51  1   
 56  28  52  1   
 57  28  53  1   
 58  28  54  1   
 59  29  55  1   
@<TRIPOS>SUBSTRUCTURE
  1 ****   7 GROUP 4 **** **** 0

# MOE 2024.06 (io_trps.svl 2023.06)
