@<TRIPOS>MOLECULE
NONAME
53 55 1 0 0 
SMALL
USER_CHARGES


@<TRIPOS>ATOM
  1 O       -3.2840     2.6210    -1.7300 O.2   1 <1>  -0.5700 
  2 C       -2.7320     1.5820    -1.4210 C.2   1 <1>   0.5690 
  3 N       -3.5120     0.4590    -1.2250 N.am  1 <1>  -0.6600 
  4 C       -1.1650     1.6220    -1.2670 C.3   1 <1>   0.4300 
  5 C       -4.9870     0.5130    -1.4020 C.3   1 <1>   0.1400 
  6 C       -3.1000    -0.9200    -0.8610 C.3   1 <1>   0.1400 
  7 N       -0.6420     2.8840    -1.8870 N.pl3 1 <1>  -0.8690 
  8 C       -0.4560     0.4990    -2.0370 C.3   1 <1>  -0.2400 
  9 C       -0.7760     1.5620     0.2210 C.3   1 <1>  -0.2400 
 10 C       -5.4830    -0.9150    -1.1720 C.3   1 <1>   0.2000 
 11 C       -4.3770    -1.6110    -0.3860 C.3   1 <1>  -0.0800 
 12 C        0.2340     3.7430    -1.2330 C.ar  1 <1>   0.1000 
 13 O       -6.6640    -0.9380    -0.4470 O.3   1 <1>  -0.6800 
 14 C       -4.3730    -3.1370    -0.5900 C.3   1 <1>  -0.0170 
 15 C        1.5980     3.4880    -1.1960 C.ar  1 <1>  -0.1500 
 16 C       -0.2490     4.8880    -0.6130 C.ar  1 <1>  -0.1500 
 17 C       -3.2980    -3.8240     0.2390 C.ar  1 <1>   0.1670 
 18 C        2.4590     4.3480    -0.5390 C.ar  1 <1>  -0.1500 
 19 C        0.6100     5.7490     0.0450 C.ar  1 <1>  -0.1500 
 20 N       -2.0550    -3.7310    -0.2090 N.ar  1 <1>  -0.6200 
 21 C       -3.6570    -4.5040     1.3940 C.ar  1 <1>  -0.1500 
 22 C        1.9700     5.4830     0.0890 C.ar  1 <1>  -0.1440 
 23 C       -1.1350    -4.3460     0.5190 C.ar  1 <1>   0.1600 
 24 C       -2.6880    -5.1370     2.1440 C.ar  1 <1>  -0.1500 
 25 C        2.9140     6.4280     0.8090 C.3   1 <1>  -0.0970 
 26 C       -1.3930    -5.0500     1.6830 C.ar  1 <1>  -0.1500 
 27 H       -5.4040     1.1940    -0.6790 H     1 <1>   0.0800 
 28 H       -5.2280     0.8470    -2.3960 H     1 <1>   0.0800 
 29 H       -2.7160    -1.4150    -1.7380 H     1 <1>   0.0800 
 30 H       -2.3550    -0.9320    -0.0870 H     1 <1>   0.0800 
 31 H       -1.4900     3.3820    -2.1990 H     1 <1>   0.4000 
 32 H       -0.6060    -0.4550    -1.5740 H     1 <1>   0.0800 
 33 H        0.6020     0.6820    -2.0630 H     1 <1>   0.0800 
 34 H       -0.8260     0.4600    -3.0450 H     1 <1>   0.0800 
 35 H       -1.1550     0.6710     0.6810 H     1 <1>   0.0800 
 36 H       -1.1930     2.4050     0.7420 H     1 <1>   0.0800 
 37 H        0.2910     1.5630     0.3400 H     1 <1>   0.0800 
 38 H       -5.6560    -1.3970    -2.1200 H     1 <1>   0.0800 
 39 H       -4.4880    -1.3920     0.6620 H     1 <1>   0.0800 
 40 H       -6.5520    -0.4630     0.3990 H     1 <1>   0.4000 
 41 H       -4.2120    -3.3700    -1.6270 H     1 <1>   0.0800 
 42 H       -5.3380    -3.5270    -0.3200 H     1 <1>   0.0800 
 43 H        1.9760     2.6150    -1.6910 H     1 <1>   0.1500 
 44 H       -1.3020     5.0960    -0.6450 H     1 <1>   0.1500 
 45 H        3.5120     4.1310    -0.5210 H     1 <1>   0.1500 
 46 H        0.2160     6.6290     0.5200 H     1 <1>   0.1500 
 47 H       -4.6840    -4.5430     1.7080 H     1 <1>   0.1500 
 48 H       -0.1190    -4.2880     0.1680 H     1 <1>   0.1500 
 49 H       -2.9320    -5.6750     3.0440 H     1 <1>   0.1500 
 50 H        3.7590     5.8910     1.2000 H     1 <1>   0.0800 
 51 H        2.4110     6.9100     1.6280 H     1 <1>   0.0800 
 52 H        3.2650     7.1800     0.1260 H     1 <1>   0.0800 
 53 H       -0.5900    -5.5240     2.2170 H     1 <1>   0.1500 
@<TRIPOS>BOND
  1   1   2  2   
  2   2   3  am  
  3   2   4  1   
  4   3   5  1   
  5   3   6  1   
  6   4   7  1   
  7   4   8  1   
  8   4   9  1   
  9   5  10  1   
 10   5  27  1   
 11   5  28  1   
 12   6  11  1   
 13   6  29  1   
 14   6  30  1   
 15   7  12  1   
 16   7  31  1   
 17   8  32  1   
 18   8  33  1   
 19   8  34  1   
 20   9  35  1   
 21   9  36  1   
 22   9  37  1   
 23  10  11  1   
 24  10  13  1   
 25  10  38  1   
 26  11  14  1   
 27  11  39  1   
 28  12  15  ar  
 29  12  16  ar  
 30  13  40  1   
 31  14  17  1   
 32  14  41  1   
 33  14  42  1   
 34  15  18  ar  
 35  15  43  1   
 36  16  19  ar  
 37  16  44  1   
 38  17  20  ar  
 39  17  21  ar  
 40  18  22  ar  
 41  18  45  1   
 42  19  22  ar  
 43  19  46  1   
 44  20  23  ar  
 45  21  24  ar  
 46  21  47  1   
 47  22  25  1   
 48  23  26  ar  
 49  23  48  1   
 50  24  26  ar  
 51  24  49  1   
 52  25  50  1   
 53  25  51  1   
 54  25  52  1   
 55  26  53  1   
@<TRIPOS>SUBSTRUCTURE
  1 ****   4 GROUP 4 **** **** 0

# MOE 2024.06 (io_trps.svl 2023.06)
