@<TRIPOS>MOLECULE
NONAME
46 48 1 0 0 
SMALL
USER_CHARGES


@<TRIPOS>ATOM
  1 O        1.4060    -0.6270    -2.3140 O.2   1 <1>  -0.5700 
  2 C        1.9470    -0.8930    -1.2570 C.2   1 <1>   0.7160 
  3 N        2.8100     0.0380    -0.7120 N.am  1 <1>  -0.6600 
  4 C        1.7050    -2.1630    -0.6090 C.2   1 <1>  -0.0860 
  5 C        3.3180    -0.0890     0.7070 C.3   1 <1>   0.2200 
  6 C        3.1980     1.2350    -1.5270 C.3   1 <1>   0.1400 
  7 C        0.5320    -2.6980    -0.1330 C.2   1 <1>  -0.3320 
  8 C        2.6930    -3.1270    -0.3230 C.2   1 <1>  -0.1500 
  9 C        3.0460     1.1760     1.5380 C.3   1 <1>   0.1200 
 10 C        4.8150    -0.4780     0.7390 C.3   1 <1>   0.3430 
 11 C        4.4070     2.0330    -1.0020 C.3   1 <1>  -0.0800 
 12 N        0.7640    -3.9100     0.4280 N.pl3 1 <1>   0.0480 
 13 C       -0.8530    -2.0730    -0.2080 C.3   1 <1>  -0.0600 
 14 C        2.0920    -4.1630     0.3080 C.2   1 <1>  -0.3020 
 15 O        4.0660     2.1150     1.3920 O.3   1 <1>  -0.5600 
 16 N        5.4930    -0.2330    -0.5810 N.4   1 <1>  -0.9590 
 17 C        4.0490     2.8750     0.2310 C.3   1 <1>   0.1200 
 18 C        5.7110     1.2300    -0.8030 C.3   1 <1>   0.3430 
 19 C       -0.2260    -4.8180     1.0340 C.3   1 <1>   0.0160 
 20 C        6.8420    -0.9380    -0.5790 C.3   1 <1>   0.2370 
 21 C        7.8000    -0.4660     0.5190 C.2   1 <1>   0.9060 
 22 O        7.7050    -0.9950     1.6290 O.co2 1 <1>  -0.9000 
 23 O        8.5220     0.5040     0.2740 O.co2 1 <1>  -0.9000 
 24 H        2.7750    -0.8710     1.2070 H     1 <1>   0.0800 
 25 H        3.4160     0.9050    -2.5290 H     1 <1>   0.0800 
 26 H        2.3430     1.8880    -1.5950 H     1 <1>   0.0800 
 27 H        3.7330    -3.0410    -0.5810 H     1 <1>   0.1500 
 28 H        3.0320     0.9090     2.5810 H     1 <1>   0.0800 
 29 H        2.0960     1.6180     1.2900 H     1 <1>   0.0800 
 30 H        4.8890    -1.5240     0.9850 H     1 <1>   0.0800 
 31 H        5.3230     0.0630     1.5230 H     1 <1>   0.0800 
 32 H        4.6270     2.7580    -1.7640 H     1 <1>   0.0800 
 33 H       -0.8150    -1.1190    -0.7040 H     1 <1>   0.0800 
 34 H       -1.2530    -1.9290     0.7790 H     1 <1>   0.0800 
 35 H       -1.5160    -2.7120    -0.7650 H     1 <1>   0.0800 
 36 H        2.5370    -5.0730     0.6710 H     1 <1>   0.1500 
 37 H        4.8720    -0.5940    -1.3150 H     1 <1>   0.4500 
 38 H        3.0840     3.3430     0.1310 H     1 <1>   0.0800 
 39 H        4.7850     3.6500     0.3640 H     1 <1>   0.0800 
 40 H        6.2640     1.6420     0.0280 H     1 <1>   0.0800 
 41 H        6.3250     1.3530    -1.6800 H     1 <1>   0.0800 
 42 H        0.2730    -5.6830     1.4300 H     1 <1>   0.0800 
 43 H       -0.9310    -5.1230     0.2830 H     1 <1>   0.0800 
 44 H       -0.7390    -4.3060     1.8260 H     1 <1>   0.0800 
 45 H        6.7020    -1.9940    -0.4410 H     1 <1>   0.0800 
 46 H        7.3380    -0.7820    -1.5190 H     1 <1>   0.0800 
@<TRIPOS>BOND
  1   1   2  2   
  2   2   3  am  
  3   2   4  1   
  4   3   5  1   
  5   3   6  1   
  6   4   7  2   
  7   4   8  1   
  8   5   9  1   
  9   5  10  1   
 10   5  24  1   
 11   6  11  1   
 12   6  25  1   
 13   6  26  1   
 14   7  12  1   
 15   7  13  1   
 16   8  14  2   
 17   8  27  1   
 18   9  15  1   
 19   9  28  1   
 20   9  29  1   
 21  10  16  1   
 22  10  30  1   
 23  10  31  1   
 24  11  17  1   
 25  11  18  1   
 26  11  32  1   
 27  12  14  1   
 28  12  19  1   
 29  13  33  1   
 30  13  34  1   
 31  13  35  1   
 32  14  36  1   
 33  15  17  1   
 34  16  18  1   
 35  16  20  1   
 36  16  37  1   
 37  17  38  1   
 38  17  39  1   
 39  18  40  1   
 40  18  41  1   
 41  19  42  1   
 42  19  43  1   
 43  19  44  1   
 44  20  21  1   
 45  20  45  1   
 46  20  46  1   
 47  21  22  ar  
 48  21  23  ar  
@<TRIPOS>SUBSTRUCTURE
  1 ****   5 GROUP 4 **** **** 0

# MOE 2024.06 (io_trps.svl 2023.06)
