@<TRIPOS>MOLECULE
NONAME
46 50 1 0 0 
SMALL
USER_CHARGES


@<TRIPOS>ATOM
  1 O        0.2650     0.9500    -0.7210 O.2   1 <1>  -0.5700 
  2 C       -0.3210     1.8530    -0.1550 C.2   1 <1>   0.5440 
  3 N       -1.6690     1.7280     0.1150 N.am  1 <1>  -0.6600 
  4 C        0.4030     3.0470     0.2180 C.ar  1 <1>   0.0860 
  5 C       -2.4770     2.7870     0.8000 C.3   1 <1>   0.1400 
  6 C       -2.4590     0.5310    -0.2910 C.3   1 <1>   0.1400 
  7 C        0.5470     4.1020    -0.6680 C.ar  1 <1>  -0.1500 
  8 C        0.9460     3.1770     1.5140 C.ar  1 <1>  -0.1500 
  9 C       -3.6370     3.2620    -0.0940 C.3   1 <1>   0.1440 
 10 C       -3.6400     0.9550    -1.1750 C.3   1 <1>  -0.1600 
 11 C        1.1770     5.2720    -0.2660 C.ar  1 <1>   0.2270 
 12 C        1.5870     4.3240     1.9200 C.ar  1 <1>  -0.1500 
 13 C       -4.4150     4.3180     0.6700 C.ar  1 <1>   0.1660 
 14 C       -4.4970     2.0500    -0.5110 C.3   1 <1>  -0.1600 
 15 C       -3.1290     4.0630    -1.3220 C.3   1 <1>  -0.1600 
 16 N        1.3840     6.4250    -0.9600 N.2   1 <1>  -0.5650 
 17 C        1.6940     5.3790     1.0120 C.ar  1 <1>  -0.1520 
 18 N       -5.2480     4.0900     1.6580 N.ar  1 <1>  -0.6200 
 19 C       -4.1250     5.5720     0.2180 C.ar  1 <1>  -0.1440 
 20 C       -3.1250     5.5460    -0.9120 C.3   1 <1>  -0.0170 
 21 C        2.0110     7.1850    -0.1330 C.2   1 <1>   0.0360 
 22 N        2.2350     6.6190     1.0800 N.pl3 1 <1>   0.0330 
 23 C       -5.7840     5.1860     2.1740 C.ar  1 <1>   0.7200 
 24 C       -4.7490     6.6340     0.8280 C.ar  1 <1>   0.1600 
 25 N       -5.5950     6.4490     1.8170 N.ar  1 <1>  -0.6200 
 26 N       -6.6480     4.9910     3.1710 N.pl3 1 <1>  -0.9000 
 27 H       -1.8700     3.6300     1.0730 H     1 <1>   0.0800 
 28 H       -2.8820     2.3750     1.7090 H     1 <1>   0.0800 
 29 H       -2.8230     0.0410     0.5950 H     1 <1>   0.0800 
 30 H       -1.8420    -0.1700    -0.8270 H     1 <1>   0.0800 
 31 H        0.1740     4.0370    -1.6720 H     1 <1>   0.1500 
 32 H        0.8430     2.3440     2.1880 H     1 <1>   0.1500 
 33 H       -4.2520     0.0940    -1.3780 H     1 <1>   0.0800 
 34 H       -3.2560     1.3060    -2.1160 H     1 <1>   0.0800 
 35 H        1.9980     4.4130     2.9110 H     1 <1>   0.1500 
 36 H       -5.2820     2.3630    -1.1770 H     1 <1>   0.0800 
 37 H       -4.9650     1.6380     0.3670 H     1 <1>   0.0800 
 38 H       -3.8260     3.9480    -2.1320 H     1 <1>   0.0800 
 39 H       -2.1660     3.7350    -1.6650 H     1 <1>   0.0800 
 40 H       -3.4190     6.1840    -1.7270 H     1 <1>   0.0800 
 41 H       -2.1540     5.8390    -0.5490 H     1 <1>   0.0800 
 42 H        2.3390     8.1860    -0.3580 H     1 <1>   0.1500 
 43 H        2.7160     7.0360     1.8810 H     1 <1>   0.2700 
 44 H       -4.5520     7.6410     0.5040 H     1 <1>   0.1500 
 45 H       -7.2760     5.7690     3.3530 H     1 <1>   0.4000 
 46 H       -7.0420     4.0580     3.2260 H     1 <1>   0.4000 
@<TRIPOS>BOND
  1   1   2  2   
  2   2   3  am  
  3   2   4  1   
  4   3   5  1   
  5   3   6  1   
  6   4   7  ar  
  7   4   8  ar  
  8   5   9  1   
  9   5  27  1   
 10   5  28  1   
 11   6  10  1   
 12   6  29  1   
 13   6  30  1   
 14   7  11  ar  
 15   7  31  1   
 16   8  12  ar  
 17   8  32  1   
 18   9  13  1   
 19   9  14  1   
 20   9  15  1   
 21  10  14  1   
 22  10  33  1   
 23  10  34  1   
 24  11  16  1   
 25  11  17  ar  
 26  12  17  ar  
 27  12  35  1   
 28  13  18  ar  
 29  13  19  ar  
 30  14  36  1   
 31  14  37  1   
 32  15  20  1   
 33  15  38  1   
 34  15  39  1   
 35  16  21  2   
 36  17  22  1   
 37  18  23  ar  
 38  19  20  1   
 39  19  24  ar  
 40  20  40  1   
 41  20  41  1   
 42  21  22  1   
 43  21  42  1   
 44  22  43  1   
 45  23  25  ar  
 46  23  26  1   
 47  24  25  ar  
 48  24  44  1   
 49  26  45  1   
 50  26  46  1   
@<TRIPOS>SUBSTRUCTURE
  1 ****   5 GROUP 4 **** **** 0

# MOE 2024.06 (io_trps.svl 2023.06)
