@<TRIPOS>MOLECULE
NONAME
52 55 1 0 0 
SMALL
USER_CHARGES


@<TRIPOS>ATOM
  1 S       -0.1250     0.0310    -1.1100 S.o2  1 <1>   1.5000 
  2 O       -1.1410     0.9590    -1.5490 O.2   1 <1>  -0.6500 
  3 O        0.6100    -0.7450    -2.0840 O.2   1 <1>  -0.6500 
  4 N       -1.0050    -1.0570    -0.1850 N.am  1 <1>  -0.9140 
  5 C        1.0090     0.7980     0.0980 C.2   1 <1>   0.0780 
  6 C       -1.5570    -2.1490    -0.9740 C.3   1 <1>   0.1960 
  7 O        1.4670     2.0310    -0.0780 O.3   1 <1>  -0.2800 
  8 C        1.5420     0.2950     1.2360 C.2   1 <1>  -0.1500 
  9 C       -2.5720    -2.9480    -0.1470 C.3   1 <1>  -0.0800 
 10 C        2.2790     2.3530     0.9190 C.2   1 <1>   0.1400 
 11 C        2.3570     1.2950     1.7670 C.2   1 <1>  -0.1500 
 12 C       -3.0500    -4.1560    -0.9660 C.3   1 <1>   0.2090 
 13 C       -3.7740    -2.0850     0.3000 C.3   1 <1>  -0.1600 
 14 C        2.9110     3.6440     0.9770 C.2   1 <1>   0.1400 
 15 N       -4.0460    -4.9340    -0.1790 N.pl3 1 <1>  -0.8380 
 16 C       -4.8210    -2.9400     1.0310 C.3   1 <1>  -0.1600 
 17 O        3.7300     3.9180     1.9690 O.3   1 <1>  -0.0190 
 18 C        2.8760     4.7520     0.1970 C.2   1 <1>  -0.1810 
 19 C       -3.8090    -6.2190     0.2710 C.ar  1 <1>   0.7200 
 20 C       -5.2540    -4.1560     0.2070 C.3   1 <1>   0.2090 
 21 N        4.2320     5.1160     1.8980 N.2   1 <1>  -0.4100 
 22 C        3.7330     5.6410     0.8380 C.2   1 <1>   0.1080 
 23 C        2.1070     5.0330    -1.0840 C.3   1 <1>  -0.0590 
 24 N       -2.5550    -6.6690     0.2030 N.ar  1 <1>  -0.6200 
 25 N       -4.8540    -6.9030     0.7350 N.ar  1 <1>  -0.6200 
 26 C        4.0570     7.0460     0.3760 C.3   1 <1>  -0.0590 
 27 C       -2.3470    -7.8890     0.6340 C.ar  1 <1>   0.1600 
 28 C       -4.6170    -8.1190     1.1590 C.ar  1 <1>   0.1600 
 29 C       -3.3600    -8.6700     1.1300 C.ar  1 <1>  -0.1500 
 30 H       -1.7970    -0.4970     0.1240 H     1 <1>   0.4200 
 31 H       -0.7540    -2.7990    -1.2870 H     1 <1>   0.0800 
 32 H       -2.0380    -1.7580    -1.8570 H     1 <1>   0.0800 
 33 H        1.3830    -0.6810     1.6640 H     1 <1>   0.1500 
 34 H       -2.0650    -3.3340     0.7210 H     1 <1>   0.0800 
 35 H        2.9330     1.2260     2.6740 H     1 <1>   0.1500 
 36 H       -2.2080    -4.7670    -1.2440 H     1 <1>   0.0800 
 37 H       -3.5190    -3.8210    -1.8750 H     1 <1>   0.0800 
 38 H       -4.2320    -1.6290    -0.5610 H     1 <1>   0.0800 
 39 H       -3.4480    -1.3030     0.9630 H     1 <1>   0.0800 
 40 H       -5.6850    -2.3420     1.2580 H     1 <1>   0.0800 
 41 H       -4.4130    -3.2920     1.9630 H     1 <1>   0.0800 
 42 H       -5.9410    -4.7490     0.7860 H     1 <1>   0.0800 
 43 H       -5.7650    -3.8370    -0.6850 H     1 <1>   0.0800 
 44 H        1.4770     4.2050    -1.3510 H     1 <1>   0.0800 
 45 H        2.7940     5.2100    -1.8920 H     1 <1>   0.0800 
 46 H        1.4860     5.9010    -0.9570 H     1 <1>   0.0800 
 47 H        4.4600     7.0200    -0.6200 H     1 <1>   0.0800 
 48 H        4.7830     7.4900     1.0330 H     1 <1>   0.0800 
 49 H        3.1670     7.6470     0.3850 H     1 <1>   0.0800 
 50 H       -1.3430    -8.2750     0.5900 H     1 <1>   0.1500 
 51 H       -5.4470    -8.6910     1.5380 H     1 <1>   0.1500 
 52 H       -3.1780    -9.6680     1.4800 H     1 <1>   0.1500 
@<TRIPOS>BOND
  1   1   2  2   
  2   1   3  2   
  3   1   4  am  
  4   1   5  1   
  5   4   6  1   
  6   4  30  1   
  7   5   7  1   
  8   5   8  2   
  9   6   9  1   
 10   6  31  1   
 11   6  32  1   
 12   7  10  1   
 13   8  11  1   
 14   8  33  1   
 15   9  12  1   
 16   9  13  1   
 17   9  34  1   
 18  10  11  2   
 19  10  14  1   
 20  11  35  1   
 21  12  15  1   
 22  12  36  1   
 23  12  37  1   
 24  13  16  1   
 25  13  38  1   
 26  13  39  1   
 27  14  17  1   
 28  14  18  2   
 29  15  19  1   
 30  15  20  1   
 31  16  20  1   
 32  16  40  1   
 33  16  41  1   
 34  17  21  1   
 35  18  22  1   
 36  18  23  1   
 37  19  24  ar  
 38  19  25  ar  
 39  20  42  1   
 40  20  43  1   
 41  21  22  2   
 42  22  26  1   
 43  23  44  1   
 44  23  45  1   
 45  23  46  1   
 46  24  27  ar  
 47  25  28  ar  
 48  26  47  1   
 49  26  48  1   
 50  26  49  1   
 51  27  29  ar  
 52  27  50  1   
 53  28  29  ar  
 54  28  51  1   
 55  29  52  1   
@<TRIPOS>SUBSTRUCTURE
  1 ****   4 GROUP 4 **** **** 0

# MOE 2024.06 (io_trps.svl 2023.06)
