@<TRIPOS>MOLECULE
NONAME
47 49 1 0 0 
SMALL
USER_CHARGES


@<TRIPOS>ATOM
  1 F        0.0900     0.3040     0.5780 F     1 <1>  -0.1900 
  2 C        1.1470     1.0690     0.3970 C.ar  1 <1>   0.1900 
  3 C        2.2970     0.5880    -0.2240 C.ar  1 <1>   0.4100 
  4 C        1.1140     2.3660     0.8280 C.ar  1 <1>   0.1600 
  5 N        3.3350     1.3880    -0.3870 N.ar  1 <1>  -0.6200 
  6 N        2.4270    -0.7170    -0.6840 N.pl3 1 <1>  -0.8380 
  7 N        2.1480     3.1700     0.6710 N.ar  1 <1>  -0.6200 
  8 C        3.1970     2.6240     0.0610 C.ar  1 <1>   0.7200 
  9 C        2.3150    -1.8480     0.2840 C.3   1 <1>   0.2090 
 10 C        3.3330    -1.0370    -1.8300 C.3   1 <1>   0.2090 
 11 N        4.2890     3.4000    -0.1350 N.pl3 1 <1>  -0.8690 
 12 C        3.7080    -2.3870     0.6630 C.3   1 <1>   0.1200 
 13 C        4.6690    -1.6140    -1.3290 C.3   1 <1>   0.1200 
 14 C        4.5920     4.5760     0.6980 C.3   1 <1>   0.2090 
 15 O        4.4560    -2.7080    -0.4780 O.3   1 <1>  -0.5600 
 16 C        5.8780     5.2190     0.1890 C.3   1 <1>  -0.1600 
 17 C        6.1960     6.4940     0.9790 C.3   1 <1>   0.0960 
 18 N        7.4730     7.0820     0.5290 N.pl3 1 <1>   0.3140 
 19 N        8.6350     6.7170     1.0980 N.2   1 <1>  -0.7070 
 20 C        7.6690     8.0000    -0.4470 C.2   1 <1>  -0.3320 
 21 C        9.5410     7.4040     0.4790 C.2   1 <1>   0.1080 
 22 C        8.9990     8.2270    -0.5000 C.2   1 <1>  -0.1500 
 23 C        6.5760     8.6250    -1.2960 C.3   1 <1>  -0.0600 
 24 C       11.0090     7.2950     0.8150 C.3   1 <1>  -0.0590 
 25 H        0.2310     2.7500     1.3080 H     1 <1>   0.1500 
 26 H        1.7370    -2.6390    -0.1600 H     1 <1>   0.0800 
 27 H        1.8080    -1.5280     1.1770 H     1 <1>   0.0800 
 28 H        3.5170    -0.1550    -2.4180 H     1 <1>   0.0800 
 29 H        2.8540    -1.7590    -2.4680 H     1 <1>   0.0800 
 30 H        5.0900     2.8410    -0.4240 H     1 <1>   0.4000 
 31 H        3.6120    -3.2790     1.2540 H     1 <1>   0.0800 
 32 H        4.2500    -1.6510     1.2310 H     1 <1>   0.0800 
 33 H        5.2210    -0.8610    -0.7930 H     1 <1>   0.0800 
 34 H        5.2620    -1.9530    -2.1600 H     1 <1>   0.0800 
 35 H        4.7050     4.2690     1.7250 H     1 <1>   0.0800 
 36 H        3.7750     5.2760     0.6330 H     1 <1>   0.0800 
 37 H        5.7630     5.4650    -0.8520 H     1 <1>   0.0800 
 38 H        6.6930     4.5250     0.3030 H     1 <1>   0.0800 
 39 H        6.2910     6.2670     2.0250 H     1 <1>   0.0800 
 40 H        5.4170     7.2230     0.8550 H     1 <1>   0.0800 
 41 H        9.5460     8.8900    -1.1450 H     1 <1>   0.1500 
 42 H        6.0450     7.8650    -1.8410 H     1 <1>   0.0800 
 43 H        7.0060     9.3130    -2.0020 H     1 <1>   0.0800 
 44 H        5.8830     9.1640    -0.6740 H     1 <1>   0.0800 
 45 H       11.1580     7.5470     1.8480 H     1 <1>   0.0800 
 46 H       11.5850     7.9610     0.2000 H     1 <1>   0.0800 
 47 H       11.3390     6.2860     0.6500 H     1 <1>   0.0800 
@<TRIPOS>BOND
  1   1   2  1   
  2   2   3  ar  
  3   2   4  ar  
  4   3   5  ar  
  5   3   6  1   
  6   4   7  ar  
  7   4  25  1   
  8   5   8  ar  
  9   6   9  1   
 10   6  10  1   
 11   7   8  ar  
 12   8  11  1   
 13   9  12  1   
 14   9  26  1   
 15   9  27  1   
 16  10  13  1   
 17  10  28  1   
 18  10  29  1   
 19  11  14  1   
 20  11  30  1   
 21  12  15  1   
 22  12  31  1   
 23  12  32  1   
 24  13  15  1   
 25  13  33  1   
 26  13  34  1   
 27  14  16  1   
 28  14  35  1   
 29  14  36  1   
 30  16  17  1   
 31  16  37  1   
 32  16  38  1   
 33  17  18  1   
 34  17  39  1   
 35  17  40  1   
 36  18  19  1   
 37  18  20  1   
 38  19  21  2   
 39  20  22  2   
 40  20  23  1   
 41  21  22  1   
 42  21  24  1   
 43  22  41  1   
 44  23  42  1   
 45  23  43  1   
 46  23  44  1   
 47  24  45  1   
 48  24  46  1   
 49  24  47  1   
@<TRIPOS>SUBSTRUCTURE
  1 ****  11 GROUP 4 **** **** 0

# MOE 2024.06 (io_trps.svl 2023.06)
