@<TRIPOS>MOLECULE
NONAME
58 61 1 0 0 
SMALL
USER_CHARGES


@<TRIPOS>ATOM
  1 O        1.4640    -0.3610     1.8690 O.2   1 <1>  -0.5700 
  2 C        1.8840    -1.3200     1.2680 C.2   1 <1>   0.5690 
  3 N        1.1650    -1.9830     0.3110 N.am  1 <1>  -0.6600 
  4 C        3.2740    -1.8330     1.5830 C.3   1 <1>  -0.0990 
  5 C        1.7350    -3.1770    -0.3620 C.3   1 <1>   0.1400 
  6 C       -0.2200    -1.5950    -0.0650 C.3   1 <1>   0.0600 
  7 C        4.0390    -2.1430     0.2840 C.3   1 <1>  -0.0800 
  8 C        3.2010    -2.9170    -0.7610 C.3   1 <1>  -0.0800 
  9 C        5.3170    -2.9600     0.5170 C.3   1 <1>  -0.1600 
 10 C        3.9760    -4.2100    -1.0480 C.3   1 <1>  -0.1600 
 11 C        5.4240    -3.8650    -0.7050 C.3   1 <1>   0.2200 
 12 N        6.3040    -5.0500    -0.4660 N.am  1 <1>  -0.6600 
 13 C        7.5830    -5.1350    -0.9780 C.2   1 <1>   0.5690 
 14 C        5.7820    -6.1480     0.4070 C.3   1 <1>   0.0600 
 15 O        8.2850    -6.0960    -0.7570 O.2   1 <1>  -0.5700 
 16 C        8.1920    -4.0350    -1.8690 C.3   1 <1>   0.1710 
 17 N        8.3220    -2.6870    -1.2440 N.3   1 <1>  -0.8100 
 18 C        9.2170    -2.7440    -0.0610 C.3   1 <1>   0.1100 
 19 C        8.8500    -1.7060    -2.2160 C.3   1 <1>   0.1100 
 20 C        9.3970    -1.3690     0.6110 C.3   1 <1>   0.2090 
 21 C        8.9950    -0.3000    -1.6040 C.3   1 <1>   0.2090 
 22 N        9.8490    -0.3390    -0.3770 N.pl3 1 <1>  -0.8380 
 23 C       10.9220     0.5030    -0.1640 C.ar  1 <1>   0.7200 
 24 N       11.2870     1.2930    -1.1740 N.ar  1 <1>  -0.6200 
 25 N       11.5040     0.4580     1.0350 N.ar  1 <1>  -0.6200 
 26 C       12.3050     2.0890    -0.9560 C.ar  1 <1>   0.1600 
 27 C       12.5190     1.2640     1.2240 C.ar  1 <1>   0.1600 
 28 C       12.9680     2.1150     0.2450 C.ar  1 <1>  -0.1500 
 29 H        3.8080    -1.0980     2.1580 H     1 <1>   0.0800 
 30 H        3.1680    -2.7180     2.1810 H     1 <1>   0.0800 
 31 H        1.6750    -4.0060     0.3220 H     1 <1>   0.0800 
 32 H        1.1590    -3.4210    -1.2390 H     1 <1>   0.0800 
 33 H       -0.8940    -2.4100     0.1360 H     1 <1>   0.0800 
 34 H       -0.2580    -1.3480    -1.1110 H     1 <1>   0.0800 
 35 H       -0.5390    -0.7370     0.5030 H     1 <1>   0.0800 
 36 H        4.3170    -1.2020    -0.1640 H     1 <1>   0.0800 
 37 H        3.1910    -2.3310    -1.6640 H     1 <1>   0.0800 
 38 H        5.2260    -3.5490     1.4100 H     1 <1>   0.0800 
 39 H        6.1790    -2.3210     0.6000 H     1 <1>   0.0800 
 40 H        3.8780    -4.5120    -2.0760 H     1 <1>   0.0800 
 41 H        3.6080    -4.9900    -0.4080 H     1 <1>   0.0800 
 42 H        5.8050    -3.2720    -1.5170 H     1 <1>   0.0800 
 43 H        5.1970    -5.7490     1.2150 H     1 <1>   0.0800 
 44 H        6.5930    -6.7150     0.8310 H     1 <1>   0.0800 
 45 H        5.1720    -6.8130    -0.1790 H     1 <1>   0.0800 
 46 H        7.5800    -3.9560    -2.7480 H     1 <1>   0.0800 
 47 H        9.1640    -4.3690    -2.1860 H     1 <1>   0.0800 
 48 H        8.8100    -3.4260     0.6660 H     1 <1>   0.0800 
 49 H       10.1860    -3.1110    -0.3530 H     1 <1>   0.0800 
 50 H        9.8160    -2.0240    -2.5720 H     1 <1>   0.0800 
 51 H        8.1840    -1.6460    -3.0590 H     1 <1>   0.0800 
 52 H       10.1010    -1.4760     1.4160 H     1 <1>   0.0800 
 53 H        8.4590    -1.0590     1.0350 H     1 <1>   0.0800 
 54 H        8.0200     0.0700    -1.3390 H     1 <1>   0.0800 
 55 H        9.4020     0.3590    -2.3480 H     1 <1>   0.0800 
 56 H       12.6180     2.7380    -1.7570 H     1 <1>   0.1500 
 57 H       13.0040     1.2460     2.1850 H     1 <1>   0.1500 
 58 H       13.8000     2.7710     0.4120 H     1 <1>   0.1500 
@<TRIPOS>BOND
  1   1   2  2   
  2   2   3  am  
  3   2   4  1   
  4   3   5  1   
  5   3   6  1   
  6   4   7  1   
  7   4  29  1   
  8   4  30  1   
  9   5   8  1   
 10   5  31  1   
 11   5  32  1   
 12   6  33  1   
 13   6  34  1   
 14   6  35  1   
 15   7   8  1   
 16   7   9  1   
 17   7  36  1   
 18   8  10  1   
 19   8  37  1   
 20   9  11  1   
 21   9  38  1   
 22   9  39  1   
 23  10  11  1   
 24  10  40  1   
 25  10  41  1   
 26  11  12  1   
 27  11  42  1   
 28  12  13  am  
 29  12  14  1   
 30  13  15  2   
 31  13  16  1   
 32  14  43  1   
 33  14  44  1   
 34  14  45  1   
 35  16  17  1   
 36  16  46  1   
 37  16  47  1   
 38  17  18  1   
 39  17  19  1   
 40  18  20  1   
 41  18  48  1   
 42  18  49  1   
 43  19  21  1   
 44  19  50  1   
 45  19  51  1   
 46  20  22  1   
 47  20  52  1   
 48  20  53  1   
 49  21  22  1   
 50  21  54  1   
 51  21  55  1   
 52  22  23  1   
 53  23  24  ar  
 54  23  25  ar  
 55  24  26  ar  
 56  25  27  ar  
 57  26  28  ar  
 58  26  56  1   
 59  27  28  ar  
 60  27  57  1   
 61  28  58  1   
@<TRIPOS>SUBSTRUCTURE
  1 ****  17 GROUP 4 **** **** 0

# MOE 2024.06 (io_trps.svl 2023.06)
