@<TRIPOS>MOLECULE
NONAME
44 47 1 0 0 
SMALL
USER_CHARGES


@<TRIPOS>ATOM
  1 O       -0.1670     0.1880     2.0610 O.3   1 <1>  -0.5600 
  2 C        0.8090     0.2730     1.0720 C.3   1 <1>   0.1200 
  3 C       -1.4280     0.3210     1.4710 C.3   1 <1>   0.1200 
  4 C        0.2810     1.3570     0.1430 C.3   1 <1>   0.2890 
  5 C       -1.1940     0.9680     0.0980 C.3   1 <1>  -0.0800 
  6 N        0.4680     2.6670     0.8320 N.pl3 1 <1>  -0.8690 
  7 C       -2.1850     2.0940    -0.2530 C.3   1 <1>  -0.0170 
  8 C        0.7780     3.8320     0.2410 C.ar  1 <1>   0.7710 
  9 C       -3.5980     1.5480    -0.3830 C.ar  1 <1>  -0.1440 
 10 N        0.8340     3.8730    -1.0870 N.ar  1 <1>  -0.6200 
 11 N        1.0080     4.9100     1.0200 N.ar  1 <1>  -0.1260 
 12 C       -4.0280     0.9260    -1.5380 C.ar  1 <1>  -0.1500 
 13 C       -4.5220     1.6440     0.6380 C.ar  1 <1>  -0.1500 
 14 C        1.1240     5.0200    -1.6610 C.ar  1 <1>   0.4100 
 15 C        1.3140     6.1170     0.4450 C.ar  1 <1>   0.1560 
 16 C       -5.3220     0.4380    -1.6120 C.ar  1 <1>   0.1600 
 17 C       -5.7930     1.1220     0.4610 C.ar  1 <1>   0.1600 
 18 N        1.1640     5.0100    -2.9970 N.pl3 1 <1>  -0.9000 
 19 C        1.3760     6.1900    -0.9120 C.ar  1 <1>   0.0000 
 20 N        1.5900     7.3480     0.9370 N.pl3 1 <1>   0.3140 
 21 N       -6.2140     0.5190    -0.6380 N.ar  1 <1>  -0.6200 
 22 C        1.7010     7.5300    -1.1590 C.2   1 <1>   0.1390 
 23 N        1.8280     8.2150    -0.0700 N.2   1 <1>  -0.7070 
 24 C        1.6560     7.8050     2.3380 C.3   1 <1>   0.0160 
 25 H        1.7600     0.5170     1.5130 H     1 <1>   0.0800 
 26 H        0.8680    -0.6790     0.5710 H     1 <1>   0.0800 
 27 H       -1.8730    -0.6560     1.3770 H     1 <1>   0.0800 
 28 H       -2.0330     0.9330     2.1170 H     1 <1>   0.0800 
 29 H        0.7550     1.3350    -0.8250 H     1 <1>   0.0800 
 30 H       -1.3030     0.1930    -0.6410 H     1 <1>   0.0800 
 31 H        0.3370     2.5310     1.8400 H     1 <1>   0.4000 
 32 H       -1.8970     2.5470    -1.1850 H     1 <1>   0.0800 
 33 H       -2.1700     2.8600     0.5010 H     1 <1>   0.0800 
 34 H        0.9560     4.7770     2.0250 H     1 <1>   0.4570 
 35 H       -3.3730     0.8140    -2.3820 H     1 <1>   0.1500 
 36 H       -4.2740     2.1170     1.5690 H     1 <1>   0.1500 
 37 H       -5.6400    -0.0440    -2.5200 H     1 <1>   0.1500 
 38 H       -6.5020     1.2040     1.2680 H     1 <1>   0.1500 
 39 H        0.9810     4.1460    -3.5140 H     1 <1>   0.4000 
 40 H        1.3830     5.8150    -3.5890 H     1 <1>   0.4000 
 41 H        1.8310     7.9470    -2.1460 H     1 <1>   0.1500 
 42 H        0.7170     7.6230     2.8260 H     1 <1>   0.0800 
 43 H        1.8570     8.8620     2.3510 H     1 <1>   0.0800 
 44 H        2.4500     7.2940     2.8500 H     1 <1>   0.0800 
@<TRIPOS>BOND
  1   1   2  1   
  2   1   3  1   
  3   2   4  1   
  4   2  25  1   
  5   2  26  1   
  6   3   5  1   
  7   3  27  1   
  8   3  28  1   
  9   4   5  1   
 10   4   6  1   
 11   4  29  1   
 12   5   7  1   
 13   5  30  1   
 14   6   8  1   
 15   6  31  1   
 16   7   9  1   
 17   7  32  1   
 18   7  33  1   
 19   8  10  ar  
 20   8  11  ar  
 21   9  12  ar  
 22   9  13  ar  
 23  10  14  ar  
 24  11  15  ar  
 25  11  34  1   
 26  12  16  ar  
 27  12  35  1   
 28  13  17  ar  
 29  13  36  1   
 30  14  18  1   
 31  14  19  ar  
 32  15  19  ar  
 33  15  20  1   
 34  16  21  ar  
 35  16  37  1   
 36  17  21  ar  
 37  17  38  1   
 38  18  39  1   
 39  18  40  1   
 40  19  22  1   
 41  20  23  1   
 42  20  24  1   
 43  22  23  2   
 44  22  41  1   
 45  24  42  1   
 46  24  43  1   
 47  24  44  1   
@<TRIPOS>SUBSTRUCTURE
  1 ****   6 GROUP 4 **** **** 0

# MOE 2024.06 (io_trps.svl 2023.06)
