@<TRIPOS>MOLECULE
NONAME
56 59 1 0 0 
SMALL
USER_CHARGES


@<TRIPOS>ATOM
  1 O       -0.5370     1.1950    -2.7550 O.2   1 <1>  -0.5700 
  2 C       -0.9690     1.5790    -1.6910 C.2   1 <1>   0.5690 
  3 N       -1.6630     0.7330    -0.8580 N.am  1 <1>  -0.6600 
  4 C       -0.7100     3.0490    -1.3190 C.3   1 <1>   0.1710 
  5 C       -1.8900    -0.7010    -1.2060 C.3   1 <1>   0.1400 
  6 C       -2.1850     1.1040     0.4930 C.3   1 <1>   0.1400 
  7 N        0.0640     3.2740    -0.0640 N.3   1 <1>  -0.8100 
  8 C       -3.3420    -1.1110    -0.9120 C.3   1 <1>   0.1200 
  9 C       -3.6170     0.5790     0.6900 C.3   1 <1>   0.1200 
 10 C        0.2230     4.7240     0.1920 C.3   1 <1>   0.1100 
 11 C        1.4000     2.6360    -0.1550 C.3   1 <1>   0.1100 
 12 O       -3.6910    -0.7890     0.4050 O.3   1 <1>  -0.5600 
 13 C        1.0270     4.9950     1.4760 C.3   1 <1>   0.2090 
 14 C        2.2560     2.8730     1.1050 C.3   1 <1>   0.2090 
 15 N        2.3630     4.3310     1.4070 N.pl3 1 <1>  -0.7880 
 16 C        3.5260     5.0360     1.2950 C.2   1 <1>   0.4860 
 17 N        3.4570     6.2620     0.7910 N.2   1 <1>  -0.6210 
 18 C        4.7520     4.4720     1.6970 C.2   1 <1>  -0.1360 
 19 C        4.5840     6.9630     0.6360 C.2   1 <1>   0.2710 
 20 C        5.8950     5.1810     1.5440 C.2   1 <1>  -0.0380 
 21 N        5.7740     6.4110     1.0080 N.pl3 1 <1>  -0.6000 
 22 C        4.5410     8.2810     0.0840 C.2   1 <1>   0.0140 
 23 C        7.2760     4.6990     1.9320 C.3   1 <1>  -0.1020 
 24 C        5.6970     9.1020    -0.0860 C.2   1 <1>   0.5410 
 25 C        3.3150     8.8450    -0.3300 C.2   1 <1>  -0.1500 
 26 O        6.8560     8.7440     0.2280 O.2   1 <1>  -0.5700 
 27 C        5.5630    10.3940    -0.6370 C.2   1 <1>  -0.1360 
 28 C        3.2110    10.1050    -0.8650 C.2   1 <1>  -0.1500 
 29 C        4.3510    10.8940    -1.0210 C.2   1 <1>  -0.1500 
 30 H       -1.6650     3.5340    -1.2340 H     1 <1>   0.0800 
 31 H       -0.1880     3.5090    -2.1410 H     1 <1>   0.0800 
 32 H       -1.2240    -1.3140    -0.6250 H     1 <1>   0.0800 
 33 H       -1.6790    -0.8750    -2.2460 H     1 <1>   0.0800 
 34 H       -2.1860     2.1700     0.6270 H     1 <1>   0.0800 
 35 H       -1.5450     0.6780     1.2450 H     1 <1>   0.0800 
 36 H       -3.4580    -2.1730    -1.0320 H     1 <1>   0.0800 
 37 H       -4.0190    -0.6100    -1.5820 H     1 <1>   0.0800 
 38 H       -4.3040     1.1020     0.0480 H     1 <1>   0.0800 
 39 H       -3.9250     0.7180     1.7110 H     1 <1>   0.0800 
 40 H       -0.7470     5.1800     0.2900 H     1 <1>   0.0800 
 41 H        0.7340     5.1920    -0.6330 H     1 <1>   0.0800 
 42 H        1.9310     3.0240    -1.0080 H     1 <1>   0.0800 
 43 H        1.2840     1.5750    -0.2920 H     1 <1>   0.0800 
 44 H        0.4850     4.6090     2.3210 H     1 <1>   0.0800 
 45 H        1.1360     6.0560     1.6180 H     1 <1>   0.0800 
 46 H        3.2290     2.4480     0.9390 H     1 <1>   0.0800 
 47 H        1.8060     2.3680     1.9410 H     1 <1>   0.0800 
 48 H        4.7570     3.4940     2.1300 H     1 <1>   0.1500 
 49 H        6.6040     7.0100     0.8680 H     1 <1>   0.4000 
 50 H        7.7000     5.3620     2.6640 H     1 <1>   0.0800 
 51 H        7.9130     4.6830     1.0660 H     1 <1>   0.0800 
 52 H        7.2300     3.7100     2.3470 H     1 <1>   0.0800 
 53 H        2.4170     8.2610    -0.2230 H     1 <1>   0.1500 
 54 H        6.4630    10.9720    -0.7430 H     1 <1>   0.1500 
 55 H        2.2540    10.4960    -1.1680 H     1 <1>   0.1500 
 56 H        4.2600    11.8810    -1.4410 H     1 <1>   0.1500 
@<TRIPOS>BOND
  1   1   2  2   
  2   2   3  am  
  3   2   4  1   
  4   3   5  1   
  5   3   6  1   
  6   4   7  1   
  7   4  30  1   
  8   4  31  1   
  9   5   8  1   
 10   5  32  1   
 11   5  33  1   
 12   6   9  1   
 13   6  34  1   
 14   6  35  1   
 15   7  10  1   
 16   7  11  1   
 17   8  12  1   
 18   8  36  1   
 19   8  37  1   
 20   9  12  1   
 21   9  38  1   
 22   9  39  1   
 23  10  13  1   
 24  10  40  1   
 25  10  41  1   
 26  11  14  1   
 27  11  42  1   
 28  11  43  1   
 29  13  15  1   
 30  13  44  1   
 31  13  45  1   
 32  14  15  1   
 33  14  46  1   
 34  14  47  1   
 35  15  16  1   
 36  16  17  2   
 37  16  18  1   
 38  17  19  1   
 39  18  20  2   
 40  18  48  1   
 41  19  21  1   
 42  19  22  2   
 43  20  21  1   
 44  20  23  1   
 45  21  49  1   
 46  22  24  1   
 47  22  25  1   
 48  23  50  1   
 49  23  51  1   
 50  23  52  1   
 51  24  26  2   
 52  24  27  1   
 53  25  28  2   
 54  25  53  1   
 55  27  29  2   
 56  27  54  1   
 57  28  29  1   
 58  28  55  1   
 59  29  56  1   
@<TRIPOS>SUBSTRUCTURE
  1 ****  15 GROUP 4 **** **** 0

# MOE 2024.06 (io_trps.svl 2023.06)
