@<TRIPOS>MOLECULE
NONAME
42 44 1 0 0 
SMALL
USER_CHARGES


@<TRIPOS>ATOM
  1 N        1.6720     0.4130     0.2140 N.2   1 <1>  -0.7070 
  2 N        0.9750     1.5110    -0.0970 N.pl3 1 <1>   0.3140 
  3 C        2.6780     0.8250     0.9180 C.2   1 <1>   0.1390 
  4 C        1.5690     2.6210     0.4010 C.2   1 <1>  -0.3320 
  5 C       -0.2690     1.3940    -0.8790 C.3   1 <1>   0.0160 
  6 C        2.6700     2.2030     1.0730 C.2   1 <1>  -0.1500 
  7 C        1.0150     4.0120     0.1970 C.3   1 <1>   0.5230 
  8 N        2.1500     4.9610     0.1500 N.4   1 <1>  -0.8520 
  9 C        1.8050     6.4010     0.2550 C.3   1 <1>   0.2960 
 10 C        3.0100     4.7060    -1.0270 C.3   1 <1>   0.4810 
 11 C        0.6570     6.8690     1.0870 C.3   1 <1>  -0.2000 
 12 C        0.5810     6.9340    -0.4130 C.3   1 <1>  -0.2000 
 13 C        4.4150     5.0840    -0.6310 C.2   1 <1>  -0.2880 
 14 C        5.3980     4.1960    -0.3980 C.2   1 <1>  -0.1780 
 15 C        6.7660     4.4600    -0.0040 C.ar  1 <1>   0.0280 
 16 C        7.3110     5.7430     0.0090 C.ar  1 <1>  -0.1500 
 17 C        7.5910     3.4060     0.3810 C.ar  1 <1>  -0.1500 
 18 C        8.6200     5.9640     0.3990 C.ar  1 <1>  -0.1500 
 19 C        8.9000     3.6200     0.7720 C.ar  1 <1>  -0.1500 
 20 C        9.4180     4.9020     0.7830 C.ar  1 <1>  -0.1500 
 21 H        3.4230     0.1610     1.3280 H     1 <1>   0.1500 
 22 H       -1.0830     1.8260    -0.3280 H     1 <1>   0.0800 
 23 H       -0.4760     0.3530    -1.0510 H     1 <1>   0.0800 
 24 H       -0.1490     1.8890    -1.8240 H     1 <1>   0.0800 
 25 H        3.4130     2.7510     1.6280 H     1 <1>   0.1500 
 26 H        0.3560     4.2500     1.0150 H     1 <1>   0.0800 
 27 H        0.4570     4.0650    -0.7240 H     1 <1>   0.0800 
 28 H        2.7360     4.7200     0.9580 H     1 <1>   0.4500 
 29 H        2.6820     7.0320     0.2570 H     1 <1>   0.1000 
 30 H        2.9920     3.6580    -1.2830 H     1 <1>   0.0800 
 31 H        2.6800     5.2760    -1.8810 H     1 <1>   0.0800 
 32 H        0.0130     6.1820     1.6040 H     1 <1>   0.1000 
 33 H        0.7540     7.8010     1.6180 H     1 <1>   0.1000 
 34 H        0.6200     7.9100    -0.8680 H     1 <1>   0.1000 
 35 H       -0.1170     6.2870    -0.9130 H     1 <1>   0.1000 
 36 H        4.5600     6.1460    -0.5510 H     1 <1>   0.1500 
 37 H        5.1930     3.1430    -0.5010 H     1 <1>   0.1500 
 38 H        6.7200     6.5860    -0.2900 H     1 <1>   0.1500 
 39 H        7.2110     2.4000     0.3790 H     1 <1>   0.1500 
 40 H        9.0220     6.9630     0.4030 H     1 <1>   0.1500 
 41 H        9.5200     2.7900     1.0660 H     1 <1>   0.1500 
 42 H       10.4360     5.0730     1.0860 H     1 <1>   0.1500 
@<TRIPOS>BOND
  1   1   2  1   
  2   1   3  2   
  3   2   4  1   
  4   2   5  1   
  5   3   6  1   
  6   3  21  1   
  7   4   6  2   
  8   4   7  1   
  9   5  22  1   
 10   5  23  1   
 11   5  24  1   
 12   6  25  1   
 13   7   8  1   
 14   7  26  1   
 15   7  27  1   
 16   8   9  1   
 17   8  10  1   
 18   8  28  1   
 19   9  11  1   
 20   9  12  1   
 21   9  29  1   
 22  10  13  1   
 23  10  30  1   
 24  10  31  1   
 25  11  12  1   
 26  11  32  1   
 27  11  33  1   
 28  12  34  1   
 29  12  35  1   
 30  13  14  2   
 31  13  36  1   
 32  14  15  1   
 33  14  37  1   
 34  15  16  ar  
 35  15  17  ar  
 36  16  18  ar  
 37  16  38  1   
 38  17  19  ar  
 39  17  39  1   
 40  18  20  ar  
 41  18  40  1   
 42  19  20  ar  
 43  19  41  1   
 44  20  42  1   
@<TRIPOS>SUBSTRUCTURE
  1 ****  13 GROUP 4 **** **** 0

# MOE 2024.06 (io_trps.svl 2023.06)
