@<TRIPOS>MOLECULE
NONAME
46 49 1 0 0 
SMALL
USER_CHARGES


@<TRIPOS>ATOM
  1 O       -0.1020     1.6920     2.5530 O.2   1 <1>  -0.5700 
  2 C       -0.6430     2.2940     1.6350 C.2   1 <1>   0.6160 
  3 N       -1.9210     1.9820     1.2050 N.am  1 <1>  -0.4200 
  4 C       -0.0020     3.3480     0.9580 C.2   1 <1>  -0.1240 
  5 C       -2.4780     2.7150     0.1670 C.2   1 <1>   0.4490 
  6 C       -2.6680     0.8690     1.8660 C.3   1 <1>   0.0600 
  7 C       -0.6210     3.9940    -0.0320 C.2   1 <1>   0.0330 
  8 C        1.3760     3.8770     1.2110 C.3   1 <1>   0.3470 
  9 N       -1.8840     3.6840    -0.4450 N.2   1 <1>  -0.6210 
 10 C       -3.8810     2.3730    -0.2960 C.3   1 <1>  -0.1790 
 11 C        0.2480     5.0860    -0.6050 C.3   1 <1>   0.3470 
 12 N        1.5030     5.0110     0.2270 N.pl3 1 <1>  -0.8380 
 13 C        2.7340     5.4240    -0.2690 C.ar  1 <1>   0.4100 
 14 N        3.7560     4.6220     0.0390 N.ar  1 <1>  -0.6200 
 15 C        2.9010     6.6050    -1.0260 C.ar  1 <1>   0.0860 
 16 C        4.9430     4.9380    -0.4370 C.ar  1 <1>   0.1600 
 17 C        1.8260     7.5230    -1.2960 C.2   1 <1>   0.5440 
 18 C        4.1640     6.8990    -1.5200 C.ar  1 <1>  -0.1500 
 19 C        5.2000     6.0470    -1.2180 C.ar  1 <1>  -0.1500 
 20 O        1.3510     7.5820    -2.4170 O.2   1 <1>  -0.5700 
 21 N        1.3260     8.3630    -0.3280 N.am  1 <1>  -0.6600 
 22 C        1.7290     8.3610     1.0950 C.3   1 <1>   0.1400 
 23 C        0.2240     9.3150    -0.5750 C.3   1 <1>   0.1400 
 24 C        0.6530     9.1800     1.7990 C.3   1 <1>  -0.1600 
 25 C        0.1040    10.1110     0.7200 C.3   1 <1>  -0.1600 
 26 H       -2.0720     0.3930     2.6250 H     1 <1>   0.0800 
 27 H       -2.9370     0.1270     1.1360 H     1 <1>   0.0800 
 28 H       -3.5580     1.2560     2.3300 H     1 <1>   0.0800 
 29 H        2.1010     3.1020     1.0300 H     1 <1>   0.0800 
 30 H        1.4720     4.2430     2.2180 H     1 <1>   0.0800 
 31 H       -4.5780     2.4930     0.5120 H     1 <1>   0.0800 
 32 H       -3.9150     1.3650    -0.6630 H     1 <1>   0.0800 
 33 H       -4.1750     3.0310    -1.0940 H     1 <1>   0.0800 
 34 H       -0.2360     6.0390    -0.4830 H     1 <1>   0.0800 
 35 H        0.4600     4.9040    -1.6440 H     1 <1>   0.0800 
 36 H        5.7570     4.2770    -0.1940 H     1 <1>   0.1500 
 37 H        4.3180     7.7780    -2.1220 H     1 <1>   0.1500 
 38 H        6.1940     6.2380    -1.5800 H     1 <1>   0.1500 
 39 H        2.6890     8.8380     1.1900 H     1 <1>   0.0800 
 40 H        1.7760     7.3610     1.4910 H     1 <1>   0.0800 
 41 H       -0.6800     8.7610    -0.7680 H     1 <1>   0.0800 
 42 H        0.4460     9.9470    -1.4170 H     1 <1>   0.0800 
 43 H        1.0460     9.7160     2.6440 H     1 <1>   0.0800 
 44 H       -0.1240     8.5150     2.1360 H     1 <1>   0.0800 
 45 H       -0.9110    10.4100     0.9110 H     1 <1>   0.0800 
 46 H        0.7200    10.9900     0.6450 H     1 <1>   0.0800 
@<TRIPOS>BOND
  1   1   2  2   
  2   2   3  am  
  3   2   4  1   
  4   3   5  1   
  5   3   6  1   
  6   4   7  2   
  7   4   8  1   
  8   5   9  2   
  9   5  10  1   
 10   6  26  1   
 11   6  27  1   
 12   6  28  1   
 13   7   9  1   
 14   7  11  1   
 15   8  12  1   
 16   8  29  1   
 17   8  30  1   
 18  10  31  1   
 19  10  32  1   
 20  10  33  1   
 21  11  12  1   
 22  11  34  1   
 23  11  35  1   
 24  12  13  1   
 25  13  14  ar  
 26  13  15  ar  
 27  14  16  ar  
 28  15  17  1   
 29  15  18  ar  
 30  16  19  ar  
 31  16  36  1   
 32  17  20  2   
 33  17  21  am  
 34  18  19  ar  
 35  18  37  1   
 36  19  38  1   
 37  21  22  1   
 38  21  23  1   
 39  22  24  1   
 40  22  39  1   
 41  22  40  1   
 42  23  25  1   
 43  23  41  1   
 44  23  42  1   
 45  24  25  1   
 46  24  43  1   
 47  24  44  1   
 48  25  45  1   
 49  25  46  1   
@<TRIPOS>SUBSTRUCTURE
  1 ****  12 GROUP 4 **** **** 0

# MOE 2024.06 (io_trps.svl 2023.06)
