@<TRIPOS>MOLECULE
NONAME
47 49 1 0 0 
SMALL
USER_CHARGES


@<TRIPOS>ATOM
  1 CL       0.9850    -2.1070     3.6730 Cl    1 <1>  -0.1770 
  2 C        1.3830    -1.9250     1.9750 C.ar  1 <1>   0.1770 
  3 C        0.8250    -2.7710     1.0240 C.ar  1 <1>   0.4100 
  4 C        2.2420    -0.9500     1.5510 C.ar  1 <1>   0.1600 
  5 N        1.1060    -2.6240    -0.2560 N.ar  1 <1>  -0.6200 
  6 N       -0.0540    -3.7790     1.3620 N.pl3 1 <1>  -0.8690 
  7 N        2.5400    -0.8050     0.2710 N.ar  1 <1>  -0.6200 
  8 C        1.9610    -1.6580    -0.5560 C.ar  1 <1>   0.4770 
  9 C        0.0480    -5.1340     0.7180 C.3   1 <1>   0.2090 
 10 C        2.3160    -1.5000    -2.0150 C.3   1 <1>  -0.0970 
 11 C       -1.1890    -5.6070    -0.1160 C.3   1 <1>   0.1430 
 12 C       -1.0690    -7.1220    -0.4390 C.ar  1 <1>  -0.1430 
 13 C       -1.2390    -4.8810    -1.4870 C.3   1 <1>  -0.1600 
 14 C       -2.4900    -5.3380     0.7020 C.3   1 <1>  -0.1600 
 15 C       -2.1390    -7.7860    -1.0370 C.ar  1 <1>  -0.1500 
 16 C        0.0820    -7.8690    -0.1870 C.ar  1 <1>  -0.1500 
 17 C       -1.6650    -3.4100    -1.4680 C.3   1 <1>   0.3430 
 18 C       -3.2710    -4.0940     0.2670 C.3   1 <1>   0.3430 
 19 C       -2.0770    -9.1320    -1.3490 C.ar  1 <1>  -0.1500 
 20 C        0.1480    -9.2160    -0.4980 C.ar  1 <1>  -0.1500 
 21 N       -2.3210    -3.0530    -0.1860 N.4   1 <1>  -0.9590 
 22 C       -0.9310    -9.8520    -1.0770 C.ar  1 <1>  -0.1500 
 23 C       -2.9060    -1.6850    -0.2190 C.3   1 <1>   0.2630 
 24 H        2.6930    -0.2780     2.2610 H     1 <1>   0.1500 
 25 H       -0.1570    -3.8730     2.3840 H     1 <1>   0.4000 
 26 H        0.1980    -5.8400     1.5180 H     1 <1>   0.0800 
 27 H        0.9280    -5.1720     0.0970 H     1 <1>   0.0800 
 28 H        2.0720    -2.3910    -2.5640 H     1 <1>   0.0800 
 29 H        3.3700    -1.3140    -2.1130 H     1 <1>   0.0800 
 30 H        1.7760    -0.6690    -2.4280 H     1 <1>   0.0800 
 31 H       -1.9330    -5.3850    -2.1340 H     1 <1>   0.0800 
 32 H       -0.2810    -4.9540    -1.9690 H     1 <1>   0.0800 
 33 H       -2.2520    -5.2450     1.7460 H     1 <1>   0.0800 
 34 H       -3.1690    -6.1670     0.6530 H     1 <1>   0.0800 
 35 H       -3.0490    -7.2670    -1.2790 H     1 <1>   0.1500 
 36 H        0.9670    -7.4440     0.2470 H     1 <1>   0.1500 
 37 H       -2.3370    -3.2270    -2.2900 H     1 <1>   0.0800 
 38 H       -0.7980    -2.7860    -1.6080 H     1 <1>   0.0800 
 39 H       -3.8600    -3.7330     1.0950 H     1 <1>   0.0800 
 40 H       -3.9380    -4.3450    -0.5420 H     1 <1>   0.0800 
 41 H       -2.9190    -9.6220    -1.8060 H     1 <1>   0.1500 
 42 H        1.0460    -9.7740    -0.2910 H     1 <1>   0.1500 
 43 H       -1.5320    -3.0690     0.4970 H     1 <1>   0.4500 
 44 H       -0.8790   -10.9000    -1.3180 H     1 <1>   0.1500 
 45 H       -3.7070    -1.6370    -0.9390 H     1 <1>   0.0800 
 46 H       -2.1510    -0.9660    -0.4910 H     1 <1>   0.0800 
 47 H       -3.2950    -1.4230     0.7520 H     1 <1>   0.0800 
@<TRIPOS>BOND
  1   1   2  1   
  2   2   3  ar  
  3   2   4  ar  
  4   3   5  ar  
  5   3   6  1   
  6   4   7  ar  
  7   4  24  1   
  8   5   8  ar  
  9   6   9  1   
 10   6  25  1   
 11   7   8  ar  
 12   8  10  1   
 13   9  11  1   
 14   9  26  1   
 15   9  27  1   
 16  10  28  1   
 17  10  29  1   
 18  10  30  1   
 19  11  12  1   
 20  11  13  1   
 21  11  14  1   
 22  12  15  ar  
 23  12  16  ar  
 24  13  17  1   
 25  13  31  1   
 26  13  32  1   
 27  14  18  1   
 28  14  33  1   
 29  14  34  1   
 30  15  19  ar  
 31  15  35  1   
 32  16  20  ar  
 33  16  36  1   
 34  17  21  1   
 35  17  37  1   
 36  17  38  1   
 37  18  21  1   
 38  18  39  1   
 39  18  40  1   
 40  19  22  ar  
 41  19  41  1   
 42  20  22  ar  
 43  20  42  1   
 44  21  23  1   
 45  21  43  1   
 46  22  44  1   
 47  23  45  1   
 48  23  46  1   
 49  23  47  1   
@<TRIPOS>SUBSTRUCTURE
  1 ****   9 GROUP 4 **** **** 0

# MOE 2024.06 (io_trps.svl 2023.06)
