@<TRIPOS>MOLECULE
NONAME
48 50 1 0 0 
SMALL
USER_CHARGES


@<TRIPOS>ATOM
  1 O        0.7970    -0.0510    -0.4690 O.2   1 <1>  -0.5700 
  2 C        1.3670    -1.0670    -0.1720 C.2   1 <1>   0.5690 
  3 N        0.7900    -1.9960     0.6170 N.am  1 <1>  -0.7300 
  4 C        2.7700    -1.3370    -0.6650 C.3   1 <1>  -0.0990 
  5 C        1.4650    -3.2170     1.0950 C.3   1 <1>   0.1400 
  6 C        2.9190    -2.8160    -1.0670 C.3   1 <1>  -0.0800 
  7 C        2.3900    -3.8040     0.0020 C.3   1 <1>  -0.0800 
  8 C        4.3800    -3.2060    -1.3510 C.3   1 <1>  -0.1600 
  9 C        3.6370    -4.4880     0.5720 C.3   1 <1>  -0.1600 
 10 C        4.6000    -4.5220    -0.6130 C.3   1 <1>   0.4230 
 11 N        6.0350    -4.7930    -0.2860 N.4   1 <1>  -0.9590 
 12 C        6.6070    -4.2040     0.9740 C.3   1 <1>   0.4810 
 13 C        6.2890    -6.2650    -0.3140 C.3   1 <1>   0.2630 
 14 C        6.8330    -2.7020     0.8240 C.2   1 <1>  -0.0380 
 15 N        5.9520    -1.8640     1.4830 N.pl3 1 <1>  -0.6000 
 16 C        7.8460    -2.1680     0.0760 C.2   1 <1>  -0.1240 
 17 C        6.0530    -0.4970     1.3820 C.2   1 <1>  -0.0500 
 18 C        7.9680    -0.7470    -0.0560 C.2   1 <1>   0.5410 
 19 C        8.8980    -3.0060    -0.6590 C.3   1 <1>  -0.1020 
 20 C        7.0280     0.0750     0.6320 C.2   1 <1>  -0.1240 
 21 O        8.8500    -0.2540    -0.7580 O.2   1 <1>  -0.5700 
 22 C        7.1430     1.5900     0.5120 C.3   1 <1>  -0.1020 
 23 H       -0.1510    -1.7860     0.9640 H     1 <1>   0.3700 
 24 H        2.9770    -0.7000    -1.5070 H     1 <1>   0.0800 
 25 H        3.4490    -1.0830     0.1260 H     1 <1>   0.0800 
 26 H        2.0320    -2.9570     1.9730 H     1 <1>   0.0800 
 27 H        0.7270    -3.9480     1.3800 H     1 <1>   0.0800 
 28 H        2.3350    -2.9620    -1.9630 H     1 <1>   0.0800 
 29 H        1.8180    -4.5540    -0.5210 H     1 <1>   0.0800 
 30 H        5.0370    -2.4340    -1.0010 H     1 <1>   0.0800 
 31 H        4.5340    -3.3330    -2.4080 H     1 <1>   0.0800 
 32 H        3.4100    -5.4760     0.9330 H     1 <1>   0.0800 
 33 H        4.0210    -3.8830     1.3690 H     1 <1>   0.0800 
 34 H        4.2500    -5.2970    -1.2780 H     1 <1>   0.0800 
 35 H        6.5720    -4.3580    -1.0490 H     1 <1>   0.4500 
 36 H        5.9670    -4.4050     1.8150 H     1 <1>   0.0800 
 37 H        7.5610    -4.6610     1.1790 H     1 <1>   0.0800 
 38 H        5.7390    -6.7560     0.4730 H     1 <1>   0.0800 
 39 H        7.3390    -6.4700    -0.1810 H     1 <1>   0.0800 
 40 H        5.9790    -6.6810    -1.2600 H     1 <1>   0.0800 
 41 H        5.2200    -2.2300     2.1060 H     1 <1>   0.4000 
 42 H        5.3320     0.0980     1.9230 H     1 <1>   0.1500 
 43 H        9.8810    -2.6890    -0.3540 H     1 <1>   0.0800 
 44 H        8.8180    -2.8400    -1.7190 H     1 <1>   0.0800 
 45 H        8.8230    -4.0580    -0.4660 H     1 <1>   0.0800 
 46 H        8.1020     1.9140     0.8760 H     1 <1>   0.0800 
 47 H        6.3750     2.0860     1.0770 H     1 <1>   0.0800 
 48 H        7.0550     1.8830    -0.5200 H     1 <1>   0.0800 
@<TRIPOS>BOND
  1   1   2  2   
  2   2   3  am  
  3   2   4  1   
  4   3   5  1   
  5   3  23  1   
  6   4   6  1   
  7   4  24  1   
  8   4  25  1   
  9   5   7  1   
 10   5  26  1   
 11   5  27  1   
 12   6   7  1   
 13   6   8  1   
 14   6  28  1   
 15   7   9  1   
 16   7  29  1   
 17   8  10  1   
 18   8  30  1   
 19   8  31  1   
 20   9  10  1   
 21   9  32  1   
 22   9  33  1   
 23  10  11  1   
 24  10  34  1   
 25  11  12  1   
 26  11  13  1   
 27  11  35  1   
 28  12  14  1   
 29  12  36  1   
 30  12  37  1   
 31  13  38  1   
 32  13  39  1   
 33  13  40  1   
 34  14  15  1   
 35  14  16  2   
 36  15  17  1   
 37  15  41  1   
 38  16  18  1   
 39  16  19  1   
 40  17  20  2   
 41  17  42  1   
 42  18  20  1   
 43  18  21  2   
 44  19  43  1   
 45  19  44  1   
 46  19  45  1   
 47  20  22  1   
 48  22  46  1   
 49  22  47  1   
 50  22  48  1   
@<TRIPOS>SUBSTRUCTURE
  1 ****  15 GROUP 4 **** **** 0

# MOE 2024.06 (io_trps.svl 2023.06)
