@<TRIPOS>MOLECULE
NONAME
55 57 1 0 0 
SMALL
USER_CHARGES


@<TRIPOS>ATOM
  1 O       -1.2920     0.2730    -1.4370 O.2   1 <1>  -0.5700 
  2 C       -1.5990     1.0800    -0.5840 C.2   1 <1>   0.5690 
  3 N       -2.4440     0.7330     0.4440 N.am  1 <1>  -0.6600 
  4 C       -1.0100     2.5050    -0.6990 C.3   1 <1>   0.2610 
  5 C       -2.9860    -0.6590     0.5570 C.3   1 <1>   0.1400 
  6 C       -2.9630     1.6720     1.4790 C.3   1 <1>   0.1400 
  7 O       -0.8170     2.8450    -2.0400 O.3   1 <1>  -0.6800 
  8 C        0.3210     2.6650     0.0780 C.3   1 <1>  -0.0800 
  9 C       -4.4290    -0.7760     0.0390 C.3   1 <1>   0.1400 
 10 C       -4.2070     2.4270     0.9880 C.3   1 <1>  -0.1600 
 11 C        0.7750     4.1390     0.1160 C.3   1 <1>  -0.1600 
 12 C        1.4590     1.7680    -0.4570 C.3   1 <1>  -0.1600 
 13 N       -5.3470     0.2320     0.6650 N.am  1 <1>  -0.6600 
 14 C       -5.1730     1.6070     0.1230 C.3   1 <1>   0.1400 
 15 C        2.0610     4.3120     0.9350 C.3   1 <1>  -0.1600 
 16 C        2.7450     1.9440     0.3620 C.3   1 <1>  -0.1600 
 17 C       -6.3200    -0.0260     1.6020 C.2   1 <1>   0.5690 
 18 C        3.1830     3.4130     0.4000 C.3   1 <1>  -0.1600 
 19 O       -6.9780     0.8690     2.0820 O.2   1 <1>  -0.5700 
 20 C       -6.5990    -1.4290     2.1200 C.3   1 <1>   0.0810 
 21 C       -7.5260    -2.2020     1.1990 C.2   1 <1>  -0.0400 
 22 O       -7.0950    -2.6460     0.0490 O.3   1 <1>  -0.0190 
 23 C       -8.8110    -2.5660     1.3240 C.2   1 <1>  -0.1500 
 24 N       -8.0200    -3.2890    -0.6010 N.2   1 <1>  -0.4100 
 25 C       -9.0670    -3.2540     0.1420 C.2   1 <1>   0.1080 
 26 C      -10.3940    -3.8790    -0.2260 C.3   1 <1>  -0.0590 
 27 H       -1.7210     3.2110    -0.3160 H     1 <1>   0.0800 
 28 H       -2.3650    -1.3400     0.0010 H     1 <1>   0.0800 
 29 H       -2.9510    -0.9730     1.5850 H     1 <1>   0.0800 
 30 H       -3.2280     1.1090     2.3580 H     1 <1>   0.0800 
 31 H       -2.2000     2.3720     1.7710 H     1 <1>   0.0800 
 32 H       -0.5720     2.0200    -2.5140 H     1 <1>   0.4000 
 33 H        0.1280     2.3650     1.0930 H     1 <1>   0.0800 
 34 H       -4.7760    -1.7750     0.2200 H     1 <1>   0.0800 
 35 H       -4.4270    -0.6390    -1.0290 H     1 <1>   0.0800 
 36 H       -4.7450     2.7880     1.8460 H     1 <1>   0.0800 
 37 H       -3.9060     3.2920     0.4280 H     1 <1>   0.0800 
 38 H        0.9510     4.4860    -0.8890 H     1 <1>   0.0800 
 39 H       -0.0010     4.7500     0.5410 H     1 <1>   0.0800 
 40 H        1.1650     0.7330    -0.4220 H     1 <1>   0.0800 
 41 H        1.6640     2.0170    -1.4840 H     1 <1>   0.0800 
 42 H       -4.7920     1.5480    -0.8830 H     1 <1>   0.0800 
 43 H       -6.1270     2.1040     0.0760 H     1 <1>   0.0800 
 44 H        2.3770     5.3410     0.8950 H     1 <1>   0.0800 
 45 H        1.8670     4.0660     1.9650 H     1 <1>   0.0800 
 46 H        2.5800     1.5950     1.3670 H     1 <1>   0.0800 
 47 H        3.5290     1.3460    -0.0690 H     1 <1>   0.0800 
 48 H        4.0550     3.5140     1.0230 H     1 <1>   0.0800 
 49 H        3.4480     3.7300    -0.5940 H     1 <1>   0.0800 
 50 H       -5.6820    -1.9660     2.2600 H     1 <1>   0.0800 
 51 H       -7.0690    -1.3410     3.0820 H     1 <1>   0.0800 
 52 H       -9.5050    -2.3840     2.1240 H     1 <1>   0.1500 
 53 H      -10.6610    -4.6260     0.4990 H     1 <1>   0.0800 
 54 H      -10.3260    -4.3430    -1.1940 H     1 <1>   0.0800 
 55 H      -11.1570    -3.1230    -0.2560 H     1 <1>   0.0800 
@<TRIPOS>BOND
  1   1   2  2   
  2   2   3  am  
  3   2   4  1   
  4   3   5  1   
  5   3   6  1   
  6   4   7  1   
  7   4   8  1   
  8   4  27  1   
  9   5   9  1   
 10   5  28  1   
 11   5  29  1   
 12   6  10  1   
 13   6  30  1   
 14   6  31  1   
 15   7  32  1   
 16   8  11  1   
 17   8  12  1   
 18   8  33  1   
 19   9  13  1   
 20   9  34  1   
 21   9  35  1   
 22  10  14  1   
 23  10  36  1   
 24  10  37  1   
 25  11  15  1   
 26  11  38  1   
 27  11  39  1   
 28  12  16  1   
 29  12  40  1   
 30  12  41  1   
 31  13  14  1   
 32  13  17  am  
 33  14  42  1   
 34  14  43  1   
 35  15  18  1   
 36  15  44  1   
 37  15  45  1   
 38  16  18  1   
 39  16  46  1   
 40  16  47  1   
 41  17  19  2   
 42  17  20  1   
 43  18  48  1   
 44  18  49  1   
 45  20  21  1   
 46  20  50  1   
 47  20  51  1   
 48  21  22  1   
 49  21  23  2   
 50  22  24  1   
 51  23  25  1   
 52  23  52  1   
 53  24  25  2   
 54  25  26  1   
 55  26  53  1   
 56  26  54  1   
 57  26  55  1   
@<TRIPOS>SUBSTRUCTURE
  1 ****   3 GROUP 4 **** **** 0

# MOE 2024.06 (io_trps.svl 2023.06)
