@<TRIPOS>MOLECULE
NONAME
56 59 1 0 0 
SMALL
USER_CHARGES


@<TRIPOS>ATOM
  1 O        0.9400    -0.4360     2.2360 O.3   1 <1>  -0.6800 
  2 C        1.0130    -0.4820     0.8450 C.3   1 <1>   0.2000 
  3 C        1.9230    -1.6340     0.4110 C.3   1 <1>  -0.0800 
  4 C        1.7930     0.7440     0.3630 C.3   1 <1>   0.3430 
  5 C        3.3430    -1.0850     0.5960 C.3   1 <1>   0.3430 
  6 C        1.7000    -2.9890     1.1150 C.3   1 <1>  -0.0160 
  7 N        3.2280     0.4000     0.5760 N.4   1 <1>  -0.9590 
  8 C        2.7800    -3.9850     0.7070 C.ar  1 <1>  -0.1430 
  9 C        3.7290     1.0270     1.8270 C.3   1 <1>   0.5240 
 10 C        2.8070    -4.6010    -0.5680 C.ar  1 <1>   0.0000 
 11 C        3.7830    -4.2970     1.5790 C.ar  1 <1>  -0.1500 
 12 C        3.9720     2.4970     1.5190 C.2   1 <1>   0.0460 
 13 C        3.9040    -5.4460    -0.8660 C.ar  1 <1>   0.3100 
 14 C        1.8120    -4.4360    -1.5600 C.ar  1 <1>  -0.1500 
 15 C        4.8100    -5.1660     1.1920 C.ar  1 <1>   0.1600 
 16 N        4.5150     2.8550     0.3350 N.2   1 <1>  -0.5650 
 17 C        3.7050     3.5850     2.2740 C.2   1 <1>  -0.3020 
 18 N        4.8940    -5.7120     0.0220 N.ar  1 <1>  -0.6200 
 19 C        3.9790    -6.0420    -2.1340 C.ar  1 <1>  -0.1500 
 20 C        1.9120    -5.0370    -2.7860 C.ar  1 <1>  -0.1500 
 21 C        4.5810     4.1460     0.3990 C.2   1 <1>   0.0060 
 22 N        4.1010     4.6520     1.5560 N.pl3 1 <1>   0.0330 
 23 C        3.0120    -5.8450    -3.0810 C.ar  1 <1>  -0.1500 
 24 C        5.1420     5.0260    -0.7060 C.3   1 <1>   0.0200 
 25 C        6.4760     5.6600    -0.2900 C.3   1 <1>  -0.1600 
 26 C        7.0570     6.5340    -1.4080 C.3   1 <1>  -0.1600 
 27 C        8.3870     7.1620    -0.9800 C.3   1 <1>  -0.2400 
 28 H        0.2310    -1.0240     2.5720 H     1 <1>   0.4000 
 29 H        0.0170    -0.5270     0.4380 H     1 <1>   0.0800 
 30 H        1.7860    -1.7750    -0.6460 H     1 <1>   0.0800 
 31 H        1.5010     1.6350     0.8940 H     1 <1>   0.0800 
 32 H        1.6140     0.8870    -0.6900 H     1 <1>   0.0800 
 33 H        3.9930    -1.4400    -0.1890 H     1 <1>   0.0800 
 34 H        3.7340    -1.4120     1.5460 H     1 <1>   0.0800 
 35 H        0.7270    -3.3830     0.8790 H     1 <1>   0.0800 
 36 H        1.7370    -2.8620     2.1830 H     1 <1>   0.0800 
 37 H        3.8040     0.8580    -0.1540 H     1 <1>   0.4500 
 38 H        3.0190     0.9130     2.6300 H     1 <1>   0.0800 
 39 H        4.6650     0.5790     2.1130 H     1 <1>   0.0800 
 40 H        3.8210    -3.8940     2.5750 H     1 <1>   0.1500 
 41 H        0.9480    -3.8350    -1.3540 H     1 <1>   0.1500 
 42 H        5.5820    -5.3910     1.9090 H     1 <1>   0.1500 
 43 H        3.2730     3.6690     3.2560 H     1 <1>   0.1500 
 44 H        4.8290    -6.6680    -2.3370 H     1 <1>   0.1500 
 45 H        1.1500    -4.9030    -3.5350 H     1 <1>   0.1500 
 46 H        4.0620     5.6420     1.8220 H     1 <1>   0.2700 
 47 H        3.0820    -6.3110    -4.0500 H     1 <1>   0.1500 
 48 H        5.2920     4.4250    -1.5860 H     1 <1>   0.0800 
 49 H        4.4280     5.7920    -0.9480 H     1 <1>   0.0800 
 50 H        6.3320     6.2590     0.5920 H     1 <1>   0.0800 
 51 H        7.1730     4.8750    -0.0480 H     1 <1>   0.0800 
 52 H        7.2190     5.9360    -2.2900 H     1 <1>   0.0800 
 53 H        6.3620     7.3170    -1.6600 H     1 <1>   0.0800 
 54 H        9.1060     6.3960    -0.7450 H     1 <1>   0.0800 
 55 H        8.2490     7.7860    -0.1150 H     1 <1>   0.0800 
 56 H        8.7820     7.7660    -1.7780 H     1 <1>   0.0800 
@<TRIPOS>BOND
  1   1   2  1   
  2   1  28  1   
  3   2   3  1   
  4   2   4  1   
  5   2  29  1   
  6   3   5  1   
  7   3   6  1   
  8   3  30  1   
  9   4   7  1   
 10   4  31  1   
 11   4  32  1   
 12   5   7  1   
 13   5  33  1   
 14   5  34  1   
 15   6   8  1   
 16   6  35  1   
 17   6  36  1   
 18   7   9  1   
 19   7  37  1   
 20   8  10  ar  
 21   8  11  ar  
 22   9  12  1   
 23   9  38  1   
 24   9  39  1   
 25  10  13  ar  
 26  10  14  ar  
 27  11  15  ar  
 28  11  40  1   
 29  12  16  1   
 30  12  17  2   
 31  13  18  ar  
 32  13  19  ar  
 33  14  20  ar  
 34  14  41  1   
 35  15  18  ar  
 36  15  42  1   
 37  16  21  2   
 38  17  22  1   
 39  17  43  1   
 40  19  23  ar  
 41  19  44  1   
 42  20  23  ar  
 43  20  45  1   
 44  21  22  1   
 45  21  24  1   
 46  22  46  1   
 47  23  47  1   
 48  24  25  1   
 49  24  48  1   
 50  24  49  1   
 51  25  26  1   
 52  25  50  1   
 53  25  51  1   
 54  26  27  1   
 55  26  52  1   
 56  26  53  1   
 57  27  54  1   
 58  27  55  1   
 59  27  56  1   
@<TRIPOS>SUBSTRUCTURE
  1 ****   5 GROUP 4 **** **** 0

# MOE 2024.06 (io_trps.svl 2023.06)
