@<TRIPOS>MOLECULE
NONAME
60 63 1 0 0 
SMALL
USER_CHARGES


@<TRIPOS>ATOM
  1 O       -0.0170    -1.5380     0.8300 O.3   1 <1>  -0.5600 
  2 C        1.2980    -1.9550     1.0360 C.3   1 <1>   0.2000 
  3 C       -0.7370    -1.2200     1.9810 C.3   1 <1>   0.0400 
  4 C        2.1060    -1.7580    -0.2650 C.3   1 <1>   0.0000 
  5 C        1.2910    -3.4740     1.2520 C.3   1 <1>  -0.1600 
  6 C        3.6010    -1.9240     0.0930 C.3   1 <1>   0.3430 
  7 C        1.8580    -0.4110    -1.0050 C.3   1 <1>  -0.1600 
  8 C        1.6540    -2.9530    -1.1210 C.3   1 <1>  -0.1600 
  9 C        1.4130    -4.1080    -0.1410 C.3   1 <1>  -0.1600 
 10 N        4.4670    -1.2540    -0.9300 N.4   1 <1>  -0.9590 
 11 C        2.8780     0.6580    -0.5820 C.3   1 <1>  -0.1600 
 12 C        5.8920    -1.7000    -0.9290 C.3   1 <1>   0.4230 
 13 C        4.3300     0.2360    -0.8620 C.3   1 <1>   0.3430 
 14 C        5.9760    -3.1300    -1.4780 C.3   1 <1>  -0.1600 
 15 C        6.5400    -1.5610     0.4600 C.3   1 <1>  -0.1600 
 16 C        7.4250    -3.6060    -1.4930 C.3   1 <1>   0.2090 
 17 C        7.9830    -2.0530     0.4160 C.3   1 <1>   0.2090 
 18 N        7.9610    -3.4210    -0.1330 N.pl3 1 <1>  -0.8380 
 19 C        8.8020    -4.3940     0.4020 C.ar  1 <1>   0.1000 
 20 C       10.1880    -4.3890     0.2190 C.ar  1 <1>  -0.1440 
 21 C        8.2250    -5.4140     1.1490 C.ar  1 <1>  -0.1500 
 22 C       10.9560    -5.3920     0.7890 C.ar  1 <1>  -0.1500 
 23 C       10.8870    -3.3090    -0.5950 C.3   1 <1>  -0.0970 
 24 C        8.9970    -6.4120     1.7120 C.ar  1 <1>  -0.1500 
 25 C       10.3680    -6.4010     1.5330 C.ar  1 <1>  -0.1500 
 26 H        1.7140    -1.4100     1.8670 H     1 <1>   0.0800 
 27 H       -1.7320    -0.9400     1.6840 H     1 <1>   0.0800 
 28 H       -0.2650    -0.3920     2.4810 H     1 <1>   0.0800 
 29 H       -0.7850    -2.0770     2.6300 H     1 <1>   0.0800 
 30 H        2.1430    -3.7560     1.8460 H     1 <1>   0.0800 
 31 H        0.4030    -3.8090     1.7600 H     1 <1>   0.0800 
 32 H        3.8340    -2.9730     0.1640 H     1 <1>   0.0800 
 33 H        3.7880    -1.4770     1.0550 H     1 <1>   0.0800 
 34 H        1.9490    -0.5620    -2.0670 H     1 <1>   0.0800 
 35 H        0.8590    -0.0450    -0.8380 H     1 <1>   0.0800 
 36 H        0.7130    -2.7110    -1.5900 H     1 <1>   0.0800 
 37 H        2.3580    -3.2180    -1.8900 H     1 <1>   0.0800 
 38 H        2.2280    -4.8110    -0.1620 H     1 <1>   0.0800 
 39 H        0.5050    -4.6270    -0.4000 H     1 <1>   0.0800 
 40 H        4.0690    -1.5340    -1.8350 H     1 <1>   0.4500 
 41 H        2.7660     0.8580     0.4690 H     1 <1>   0.0800 
 42 H        2.6760     1.5810    -1.0980 H     1 <1>   0.0800 
 43 H        6.4460    -1.0700    -1.6070 H     1 <1>   0.0800 
 44 H        4.9630     0.6360    -0.0860 H     1 <1>   0.0800 
 45 H        4.6470     0.6620    -1.8000 H     1 <1>   0.0800 
 46 H        5.4190    -3.8140    -0.8650 H     1 <1>   0.0800 
 47 H        5.5920    -3.1700    -2.4800 H     1 <1>   0.0800 
 48 H        6.5410    -0.5370     0.7820 H     1 <1>   0.0800 
 49 H        6.0230    -2.1560     1.1910 H     1 <1>   0.0800 
 50 H        8.0120    -3.0360    -2.1930 H     1 <1>   0.0800 
 51 H        7.4790    -4.6480    -1.7680 H     1 <1>   0.0800 
 52 H        8.4090    -2.0660     1.4060 H     1 <1>   0.0800 
 53 H        8.5870    -1.4210    -0.2120 H     1 <1>   0.0800 
 54 H        7.1610    -5.4170     1.2860 H     1 <1>   0.1500 
 55 H       12.0240    -5.3980     0.6590 H     1 <1>   0.1500 
 56 H       11.9010    -3.5910    -0.8160 H     1 <1>   0.0800 
 57 H       10.9020    -2.3890    -0.0410 H     1 <1>   0.0800 
 58 H       10.3730    -3.1540    -1.5250 H     1 <1>   0.0800 
 59 H        8.5350    -7.1940     2.2880 H     1 <1>   0.1500 
 60 H       10.9750    -7.1740     1.9700 H     1 <1>   0.1500 
@<TRIPOS>BOND
  1   1   2  1   
  2   1   3  1   
  3   2   4  1   
  4   2   5  1   
  5   2  26  1   
  6   3  27  1   
  7   3  28  1   
  8   3  29  1   
  9   4   6  1   
 10   4   7  1   
 11   4   8  1   
 12   5   9  1   
 13   5  30  1   
 14   5  31  1   
 15   6  10  1   
 16   6  32  1   
 17   6  33  1   
 18   7  11  1   
 19   7  34  1   
 20   7  35  1   
 21   8   9  1   
 22   8  36  1   
 23   8  37  1   
 24   9  38  1   
 25   9  39  1   
 26  10  12  1   
 27  10  13  1   
 28  10  40  1   
 29  11  13  1   
 30  11  41  1   
 31  11  42  1   
 32  12  14  1   
 33  12  15  1   
 34  12  43  1   
 35  13  44  1   
 36  13  45  1   
 37  14  16  1   
 38  14  46  1   
 39  14  47  1   
 40  15  17  1   
 41  15  48  1   
 42  15  49  1   
 43  16  18  1   
 44  16  50  1   
 45  16  51  1   
 46  17  18  1   
 47  17  52  1   
 48  17  53  1   
 49  18  19  1   
 50  19  20  ar  
 51  19  21  ar  
 52  20  22  ar  
 53  20  23  1   
 54  21  24  ar  
 55  21  54  1   
 56  22  25  ar  
 57  22  55  1   
 58  23  56  1   
 59  23  57  1   
 60  23  58  1   
 61  24  25  ar  
 62  24  59  1   
 63  25  60  1   
@<TRIPOS>SUBSTRUCTURE
  1 ****  12 GROUP 4 **** **** 0

# MOE 2024.06 (io_trps.svl 2023.06)
