@<TRIPOS>MOLECULE
NONAME
55 57 1 0 0 
SMALL
USER_CHARGES


@<TRIPOS>ATOM
  1 O        0.3460    -0.0610    -0.9710 O.3   1 <1>  -0.3630 
  2 C        0.7930     0.2760     0.2750 C.ar  1 <1>   0.0830 
  3 C        0.9240    -1.1760    -1.6300 C.3   1 <1>   0.2580 
  4 C        0.7120     1.6010     0.7020 C.ar  1 <1>   0.0830 
  5 C        1.2980    -0.7170     1.1180 C.ar  1 <1>   0.0280 
  6 C        1.0610    -2.3370    -0.6500 C.2   1 <1>  -0.2760 
  7 O        0.1760     2.5150    -0.1550 O.3   1 <1>  -0.3620 
  8 C        1.1710     1.9340     1.9730 C.ar  1 <1>  -0.1500 
  9 C        1.2830    -2.0750     0.6460 C.2   1 <1>  -0.1780 
 10 C        1.7530    -0.3590     2.3820 C.ar  1 <1>  -0.1500 
 11 C        0.9500    -3.7300    -1.2320 C.3   1 <1>   0.2480 
 12 C        0.2540     3.8990     0.1060 C.3   1 <1>   0.0400 
 13 C        1.6920     0.9560     2.8040 C.ar  1 <1>  -0.1500 
 14 N       -0.3960    -4.2550    -0.9330 N.3   1 <1>  -0.8100 
 15 C       -0.4410    -5.7200    -1.0600 C.3   1 <1>   0.2900 
 16 C       -1.4820    -3.6130    -1.7380 C.3   1 <1>   0.1100 
 17 C       -1.5230    -6.1980    -0.1190 C.2   1 <1>  -0.3320 
 18 C       -2.1300    -2.4200    -1.0060 C.3   1 <1>   0.3430 
 19 N       -1.3460    -6.2200     1.2160 N.pl3 1 <1>   0.0330 
 20 C       -2.7750    -6.6580    -0.3420 C.2   1 <1>   0.0460 
 21 N       -2.2430    -2.7490     0.4370 N.4   1 <1>  -0.9590 
 22 C       -2.5150    -6.6620     1.7210 C.2   1 <1>   0.0360 
 23 N       -3.4040    -6.9140     0.8180 N.2   1 <1>  -0.5650 
 24 C       -3.5010    -6.8990    -1.6480 C.3   1 <1>  -0.0590 
 25 C       -3.4710    -3.5380     0.7530 C.3   1 <1>   0.2630 
 26 C       -2.1000    -1.5330     1.2850 C.3   1 <1>   0.2630 
 27 H        1.8890    -0.8790    -2.0020 H     1 <1>   0.0800 
 28 H        0.2880    -1.4210    -2.4600 H     1 <1>   0.0800 
 29 H        1.1310     2.9440     2.3340 H     1 <1>   0.1500 
 30 H        1.4380    -2.8460     1.3800 H     1 <1>   0.1500 
 31 H        2.1580    -1.1110     3.0360 H     1 <1>   0.1500 
 32 H        1.6900    -4.3470    -0.7490 H     1 <1>   0.0800 
 33 H        1.1480    -3.7400    -2.2920 H     1 <1>   0.0800 
 34 H       -0.1520     4.4210    -0.7410 H     1 <1>   0.0800 
 35 H        1.2860     4.1720     0.2430 H     1 <1>   0.0800 
 36 H       -0.3250     4.1230     0.9840 H     1 <1>   0.0800 
 37 H        2.0510     1.2230     3.7840 H     1 <1>   0.1500 
 38 H        0.4960    -6.1640    -0.7640 H     1 <1>   0.0800 
 39 H       -0.6450    -6.0100    -2.0770 H     1 <1>   0.0800 
 40 H       -2.2670    -4.3250    -1.9240 H     1 <1>   0.0800 
 41 H       -1.1120    -3.3010    -2.7000 H     1 <1>   0.0800 
 42 H       -3.0950    -2.1900    -1.4270 H     1 <1>   0.0800 
 43 H       -1.5000    -1.5560    -1.1260 H     1 <1>   0.0800 
 44 H       -0.5000    -5.9730     1.7380 H     1 <1>   0.2700 
 45 H       -1.4130    -3.3690     0.5570 H     1 <1>   0.4500 
 46 H       -2.6730    -6.7910     2.7780 H     1 <1>   0.1500 
 47 H       -2.8710    -6.6780    -2.4880 H     1 <1>   0.0800 
 48 H       -4.3830    -6.2870    -1.6930 H     1 <1>   0.0800 
 49 H       -3.7980    -7.9310    -1.7010 H     1 <1>   0.0800 
 50 H       -4.3520    -2.9340     0.6180 H     1 <1>   0.0800 
 51 H       -3.4400    -3.8850     1.7730 H     1 <1>   0.0800 
 52 H       -3.5390    -4.3980     0.1090 H     1 <1>   0.0800 
 53 H       -2.9430    -0.8760     1.1440 H     1 <1>   0.0800 
 54 H       -1.2040    -0.9990     1.0200 H     1 <1>   0.0800 
 55 H       -2.0410    -1.8070     2.3260 H     1 <1>   0.0800 
@<TRIPOS>BOND
  1   1   2  1   
  2   1   3  1   
  3   2   4  ar  
  4   2   5  ar  
  5   3   6  1   
  6   3  27  1   
  7   3  28  1   
  8   4   7  1   
  9   4   8  ar  
 10   5   9  1   
 11   5  10  ar  
 12   6   9  2   
 13   6  11  1   
 14   7  12  1   
 15   8  13  ar  
 16   8  29  1   
 17   9  30  1   
 18  10  13  ar  
 19  10  31  1   
 20  11  14  1   
 21  11  32  1   
 22  11  33  1   
 23  12  34  1   
 24  12  35  1   
 25  12  36  1   
 26  13  37  1   
 27  14  15  1   
 28  14  16  1   
 29  15  17  1   
 30  15  38  1   
 31  15  39  1   
 32  16  18  1   
 33  16  40  1   
 34  16  41  1   
 35  17  19  1   
 36  17  20  2   
 37  18  21  1   
 38  18  42  1   
 39  18  43  1   
 40  19  22  1   
 41  19  44  1   
 42  20  23  1   
 43  20  24  1   
 44  21  25  1   
 45  21  26  1   
 46  21  45  1   
 47  22  23  2   
 48  22  46  1   
 49  24  47  1   
 50  24  48  1   
 51  24  49  1   
 52  25  50  1   
 53  25  51  1   
 54  25  52  1   
 55  26  53  1   
 56  26  54  1   
 57  26  55  1   
@<TRIPOS>SUBSTRUCTURE
  1 ****  21 GROUP 4 **** **** 0

# MOE 2024.06 (io_trps.svl 2023.06)
