@<TRIPOS>MOLECULE
NONAME
50 52 1 0 0 
SMALL
USER_CHARGES


@<TRIPOS>ATOM
  1 O       -0.2200     1.0120     0.7280 O.2   1 <1>  -0.5700 
  2 C       -0.2750     2.1970     0.4940 C.2   1 <1>   0.5690 
  3 N       -1.2900     2.9910     0.9550 N.am  1 <1>  -0.6600 
  4 C        0.8260     2.8140    -0.3690 C.3   1 <1>   0.1810 
  5 C       -1.3590     4.4490     0.6050 C.3   1 <1>   0.3640 
  6 C       -2.3530     2.4820     1.8690 C.3   1 <1>   0.0600 
  7 O        0.9770     4.1940    -0.1430 O.3   1 <1>  -0.5600 
  8 C       -2.7400     4.8160     0.0370 C.ar  1 <1>  -0.1430 
  9 C       -0.2170     4.9440    -0.3220 C.3   1 <1>   0.2610 
 10 C       -3.3720     4.1490    -1.0190 C.ar  1 <1>  -0.1430 
 11 C       -3.3900     5.8930     0.6300 C.ar  1 <1>  -0.1500 
 12 C        0.0550     6.4250    -0.0430 C.2   1 <1>   0.5690 
 13 C       -4.6260     4.5710    -1.4390 C.ar  1 <1>  -0.1500 
 14 C       -2.7680     2.9560    -1.7520 C.3   1 <1>  -0.0960 
 15 C       -4.6370     6.3050     0.2010 C.ar  1 <1>  -0.1500 
 16 O       -0.6730     7.2690    -0.5060 O.2   1 <1>  -0.5700 
 17 N        1.1280     6.7630     0.7240 N.am  1 <1>  -0.7300 
 18 C       -5.2580     5.6410    -0.8360 C.ar  1 <1>  -0.1500 
 19 C        1.5180     8.1390     1.1020 C.3   1 <1>   0.1400 
 20 C        2.3470     8.7580    -0.0230 C.3   1 <1>  -0.0990 
 21 C        2.8270    10.1550     0.3250 C.2   1 <1>   0.4490 
 22 N        2.7630    10.7010     1.4810 N.2   1 <1>  -0.5120 
 23 N        3.4080    10.9720    -0.6290 N.am  1 <1>  -0.4200 
 24 N        3.3220    11.9450     1.3000 N.am  1 <1>  -0.3680 
 25 C        3.7140    12.1120     0.0240 C.2   1 <1>   0.6900 
 26 C        3.6360    10.6980    -2.0660 C.3   1 <1>   0.0600 
 27 O        4.2470    13.1110    -0.4450 O.2   1 <1>  -0.5700 
 28 H        0.6050     2.6560    -1.4090 H     1 <1>   0.0800 
 29 H        1.7620     2.3410    -0.1380 H     1 <1>   0.0800 
 30 H       -1.2400     4.9770     1.5350 H     1 <1>   0.0800 
 31 H       -2.3950     3.0890     2.7550 H     1 <1>   0.0800 
 32 H       -2.1500     1.4650     2.1590 H     1 <1>   0.0800 
 33 H       -3.3080     2.5130     1.3750 H     1 <1>   0.0800 
 34 H       -0.5120     4.8550    -1.3500 H     1 <1>   0.0800 
 35 H       -2.9250     6.4350     1.4350 H     1 <1>   0.1500 
 36 H       -5.1270     4.0670    -2.2470 H     1 <1>   0.1500 
 37 H       -3.3090     2.7470    -2.6570 H     1 <1>   0.0800 
 38 H       -2.8140     2.0800    -1.1300 H     1 <1>   0.0800 
 39 H       -1.7480     3.1430    -2.0230 H     1 <1>   0.0800 
 40 H       -5.1200     7.1430     0.6720 H     1 <1>   0.1500 
 41 H        1.7690     6.0060     0.9850 H     1 <1>   0.3700 
 42 H       -6.2290     5.9570    -1.1750 H     1 <1>   0.1500 
 43 H        0.6330     8.7320     1.2680 H     1 <1>   0.0800 
 44 H        2.0850     8.1110     2.0180 H     1 <1>   0.0800 
 45 H        1.7390     8.8130    -0.9070 H     1 <1>   0.0800 
 46 H        3.2050     8.1430    -0.2210 H     1 <1>   0.0800 
 47 H        3.4320    12.6620     2.0210 H     1 <1>   0.3700 
 48 H        4.2520     9.8230    -2.1760 H     1 <1>   0.0800 
 49 H        4.1340    11.5360    -2.5220 H     1 <1>   0.0800 
 50 H        2.6940    10.5400    -2.5590 H     1 <1>   0.0800 
@<TRIPOS>BOND
  1   1   2  2   
  2   2   3  am  
  3   2   4  1   
  4   3   5  1   
  5   3   6  1   
  6   4   7  1   
  7   4  28  1   
  8   4  29  1   
  9   5   8  1   
 10   5   9  1   
 11   5  30  1   
 12   6  31  1   
 13   6  32  1   
 14   6  33  1   
 15   7   9  1   
 16   8  10  ar  
 17   8  11  ar  
 18   9  12  1   
 19   9  34  1   
 20  10  13  ar  
 21  10  14  1   
 22  11  15  ar  
 23  11  35  1   
 24  12  16  2   
 25  12  17  am  
 26  13  18  ar  
 27  13  36  1   
 28  14  37  1   
 29  14  38  1   
 30  14  39  1   
 31  15  18  ar  
 32  15  40  1   
 33  17  19  1   
 34  17  41  1   
 35  18  42  1   
 36  19  20  1   
 37  19  43  1   
 38  19  44  1   
 39  20  21  1   
 40  20  45  1   
 41  20  46  1   
 42  21  22  2   
 43  21  23  1   
 44  22  24  1   
 45  23  25  am  
 46  23  26  1   
 47  24  25  am  
 48  24  47  1   
 49  25  27  2   
 50  26  48  1   
 51  26  49  1   
 52  26  50  1   
@<TRIPOS>SUBSTRUCTURE
  1 ****  12 GROUP 4 **** **** 0

# MOE 2024.06 (io_trps.svl 2023.06)
