@<TRIPOS>MOLECULE
NONAME
48 51 1 0 0 
SMALL
USER_CHARGES


@<TRIPOS>ATOM
  1 O       -3.2340     2.6950    -1.7840 O.2   1 <1>  -0.5700 
  2 C       -3.0720     2.0540    -0.7580 C.2   1 <1>   0.7160 
  3 N       -4.1160     1.2520    -0.3270 N.am  1 <1>  -0.6600 
  4 C       -1.8050     2.1790    -0.0550 C.2   1 <1>   0.1410 
  5 C       -4.3160     0.8090     1.0800 C.3   1 <1>   0.1400 
  6 C       -5.1900     0.7930    -1.2490 C.3   1 <1>   0.1400 
  7 N       -1.2560     1.2250     0.7360 N.2   1 <1>  -0.2270 
  8 C       -0.9400     3.2220    -0.0790 C.2   1 <1>  -0.3020 
  9 C       -4.3400    -0.7200     1.1230 C.3   1 <1>  -0.1600 
 10 C       -5.2330    -0.7380    -1.2330 C.3   1 <1>  -0.1600 
 11 N       -0.1300     1.6490     1.1870 N.2   1 <1>  -0.4180 
 12 N        0.0790     2.8690     0.6930 N.pl3 1 <1>   0.3000 
 13 C       -5.4190    -1.2950     0.1910 C.3   1 <1>   0.4240 
 14 O       -6.6400    -0.8060     0.6960 O.3   1 <1>  -0.5600 
 15 C       -5.3760    -2.8390     0.1990 C.ar  1 <1>  -0.1430 
 16 C       -7.8020    -1.4920     0.3470 C.3   1 <1>   0.1200 
 17 C       -6.4840    -3.5900     0.5720 C.ar  1 <1>  -0.1430 
 18 C       -4.2210    -3.5130    -0.1750 C.ar  1 <1>  -0.1500 
 19 C       -7.7610    -2.8800     0.9770 C.3   1 <1>  -0.0170 
 20 C       -6.4310    -4.9750     0.5740 C.ar  1 <1>  -0.1500 
 21 C       -4.1500    -4.8960    -0.1730 C.ar  1 <1>   0.0820 
 22 C       -5.2740    -5.6490     0.1960 C.ar  1 <1>   0.0820 
 23 O       -2.9490    -5.4150    -0.5520 O.3   1 <1>  -0.3630 
 24 O       -5.2190    -7.0130     0.1590 O.3   1 <1>  -0.3630 
 25 C       -2.4240    -6.5460     0.1070 C.3   1 <1>   0.0400 
 26 C       -6.3660    -7.8130     0.3400 C.3   1 <1>   0.0400 
 27 H       -5.2570     1.1960     1.4370 H     1 <1>   0.0800 
 28 H       -3.5470     1.1890     1.7280 H     1 <1>   0.0800 
 29 H       -5.0060     1.1360    -2.2520 H     1 <1>   0.0800 
 30 H       -6.1330     1.1960    -0.9220 H     1 <1>   0.0800 
 31 H       -1.0170     4.1560    -0.6040 H     1 <1>   0.1500 
 32 H       -4.5270    -1.0550     2.1260 H     1 <1>   0.0800 
 33 H       -3.3680    -1.0780     0.8390 H     1 <1>   0.0800 
 34 H       -4.3080    -1.1010    -1.6410 H     1 <1>   0.0800 
 35 H       -6.0170    -1.0910    -1.8740 H     1 <1>   0.0800 
 36 H        0.9230     3.4130     0.9050 H     1 <1>   0.2700 
 37 H       -7.8710    -1.5530    -0.7240 H     1 <1>   0.0800 
 38 H       -8.6400    -0.9320     0.7240 H     1 <1>   0.0800 
 39 H       -3.3440    -2.9700    -0.4760 H     1 <1>   0.1500 
 40 H       -8.6190    -3.4410     0.6520 H     1 <1>   0.0800 
 41 H       -7.8010    -2.7890     2.0470 H     1 <1>   0.0800 
 42 H       -7.3080    -5.5140     0.8730 H     1 <1>   0.1500 
 43 H       -1.3570    -6.5460    -0.0260 H     1 <1>   0.0800 
 44 H       -2.8440    -7.4310    -0.3350 H     1 <1>   0.0800 
 45 H       -2.6670    -6.4900     1.1530 H     1 <1>   0.0800 
 46 H       -6.0830    -8.8400     0.1910 H     1 <1>   0.0800 
 47 H       -7.1080    -7.5300    -0.3860 H     1 <1>   0.0800 
 48 H       -6.7320    -7.6790     1.3420 H     1 <1>   0.0800 
@<TRIPOS>BOND
  1   1   2  2   
  2   2   3  am  
  3   2   4  1   
  4   3   5  1   
  5   3   6  1   
  6   4   7  1   
  7   4   8  2   
  8   5   9  1   
  9   5  27  1   
 10   5  28  1   
 11   6  10  1   
 12   6  29  1   
 13   6  30  1   
 14   7  11  2   
 15   8  12  1   
 16   8  31  1   
 17   9  13  1   
 18   9  32  1   
 19   9  33  1   
 20  10  13  1   
 21  10  34  1   
 22  10  35  1   
 23  11  12  1   
 24  12  36  1   
 25  13  14  1   
 26  13  15  1   
 27  14  16  1   
 28  15  17  ar  
 29  15  18  ar  
 30  16  19  1   
 31  16  37  1   
 32  16  38  1   
 33  17  19  1   
 34  17  20  ar  
 35  18  21  ar  
 36  18  39  1   
 37  19  40  1   
 38  19  41  1   
 39  20  22  ar  
 40  20  42  1   
 41  21  22  ar  
 42  21  23  1   
 43  22  24  1   
 44  23  25  1   
 45  24  26  1   
 46  25  43  1   
 47  25  44  1   
 48  25  45  1   
 49  26  46  1   
 50  26  47  1   
 51  26  48  1   
@<TRIPOS>SUBSTRUCTURE
  1 ****  13 GROUP 4 **** **** 0

# MOE 2024.06 (io_trps.svl 2023.06)
