@<TRIPOS>MOLECULE
NONAME
47 48 1 0 0 
SMALL
USER_CHARGES


@<TRIPOS>ATOM
  1 O       -1.0440     0.4810     2.3290 O.2   1 <1>  -0.5700 
  2 C       -1.6210     1.0420     1.4260 C.2   1 <1>   0.5690 
  3 N       -2.4220     0.3270     0.5690 N.am  1 <1>  -0.6600 
  4 C       -1.4710     2.5700     1.2970 C.3   1 <1>   0.1710 
  5 C       -3.3070     0.8510    -0.5030 C.3   1 <1>   0.1400 
  6 C       -2.5640    -1.1460     0.6760 C.3   1 <1>   0.1400 
  7 N       -0.3240     3.0620     0.4760 N.3   1 <1>  -0.8100 
  8 C       -4.3310    -0.2600    -0.7180 C.3   1 <1>   0.2000 
  9 C       -3.5360    -1.5420    -0.4420 C.3   1 <1>  -0.0800 
 10 C       -0.2390     4.5350     0.5370 C.3   1 <1>   0.1100 
 11 C       -0.3630     2.5710    -0.9070 C.3   1 <1>   0.0300 
 12 O       -5.3260    -0.1140     0.2360 O.3   1 <1>  -0.6800 
 13 C       -4.3930    -2.7800    -0.1150 C.3   1 <1>   0.0200 
 14 C        1.1750     5.0270     0.2240 C.3   1 <1>   0.1200 
 15 C       -3.5760    -4.0550     0.0130 C.2   1 <1>  -0.0400 
 16 O        1.1830     6.4190     0.3080 O.3   1 <1>  -0.5600 
 17 O       -4.1760    -5.1440     0.4130 O.3   1 <1>  -0.0190 
 18 C       -2.2860    -4.3590    -0.2060 C.2   1 <1>  -0.1500 
 19 C        2.4360     6.9840     0.0960 C.3   1 <1>   0.0400 
 20 N       -3.3600    -6.1560     0.4780 N.2   1 <1>  -0.4100 
 21 C       -2.2130    -5.7120     0.1110 C.2   1 <1>   0.1080 
 22 C       -0.9590    -6.5540     0.0370 C.3   1 <1>  -0.0590 
 23 H       -1.3480     2.9440     2.2980 H     1 <1>   0.0800 
 24 H       -2.3840     2.9870     0.9170 H     1 <1>   0.0800 
 25 H       -3.7830     1.7770    -0.2310 H     1 <1>   0.0800 
 26 H       -2.7290     0.9880    -1.4000 H     1 <1>   0.0800 
 27 H       -1.6050    -1.6230     0.5640 H     1 <1>   0.0800 
 28 H       -2.9660    -1.3900     1.6460 H     1 <1>   0.0800 
 29 H       -4.7860    -0.2370    -1.6940 H     1 <1>   0.0800 
 30 H       -2.9540    -1.7550    -1.3210 H     1 <1>   0.0800 
 31 H       -0.9410     4.9770    -0.1500 H     1 <1>   0.0800 
 32 H       -0.4780     4.8670     1.5330 H     1 <1>   0.0800 
 33 H        0.5040     2.9060    -1.4470 H     1 <1>   0.0800 
 34 H       -1.2460     2.9260    -1.4090 H     1 <1>   0.0800 
 35 H       -0.3540     1.4940    -0.9150 H     1 <1>   0.0800 
 36 H       -4.9080    -0.0200     1.1170 H     1 <1>   0.4000 
 37 H       -5.1250    -2.9220    -0.8910 H     1 <1>   0.0800 
 38 H       -4.9260    -2.6260     0.8070 H     1 <1>   0.0800 
 39 H        1.4680     4.7470    -0.7720 H     1 <1>   0.0800 
 40 H        1.8680     4.6300     0.9450 H     1 <1>   0.0800 
 41 H       -1.4700    -3.7480    -0.5440 H     1 <1>   0.1500 
 42 H        2.3390     8.0520     0.1790 H     1 <1>   0.0800 
 43 H        2.7810     6.7250    -0.8900 H     1 <1>   0.0800 
 44 H        3.1200     6.6220     0.8450 H     1 <1>   0.0800 
 45 H       -0.1940    -6.1260     0.6580 H     1 <1>   0.0800 
 46 H       -0.6110    -6.6020    -0.9780 H     1 <1>   0.0800 
 47 H       -1.1670    -7.5520     0.3810 H     1 <1>   0.0800 
@<TRIPOS>BOND
  1   1   2  2   
  2   2   3  am  
  3   2   4  1   
  4   3   5  1   
  5   3   6  1   
  6   4   7  1   
  7   4  23  1   
  8   4  24  1   
  9   5   8  1   
 10   5  25  1   
 11   5  26  1   
 12   6   9  1   
 13   6  27  1   
 14   6  28  1   
 15   7  10  1   
 16   7  11  1   
 17   8   9  1   
 18   8  12  1   
 19   8  29  1   
 20   9  13  1   
 21   9  30  1   
 22  10  14  1   
 23  10  31  1   
 24  10  32  1   
 25  11  33  1   
 26  11  34  1   
 27  11  35  1   
 28  12  36  1   
 29  13  15  1   
 30  13  37  1   
 31  13  38  1   
 32  14  16  1   
 33  14  39  1   
 34  14  40  1   
 35  15  17  1   
 36  15  18  2   
 37  16  19  1   
 38  17  20  1   
 39  18  21  1   
 40  18  41  1   
 41  19  42  1   
 42  19  43  1   
 43  19  44  1   
 44  20  21  2   
 45  21  22  1   
 46  22  45  1   
 47  22  46  1   
 48  22  47  1   
@<TRIPOS>SUBSTRUCTURE
  1 ****   3 GROUP 4 **** **** 0

# MOE 2024.06 (io_trps.svl 2023.06)
