@<TRIPOS>MOLECULE
NONAME
49 52 1 0 0 
SMALL
USER_CHARGES


@<TRIPOS>ATOM
  1 CL      -1.3080    -1.2990    -2.6750 Cl    1 <1>  -0.1770 
  2 C       -2.5260    -2.4340    -2.1420 C.ar  1 <1>   0.1770 
  3 C       -2.7470    -2.6100    -0.7970 C.ar  1 <1>  -0.1500 
  4 C       -3.2470    -3.1380    -3.1130 C.ar  1 <1>  -0.1500 
  5 C       -3.7230    -3.5220    -0.4060 C.ar  1 <1>   0.2270 
  6 C       -4.2140    -4.0410    -2.7290 C.ar  1 <1>  -0.1500 
  7 N       -4.1250    -3.8760     0.8480 N.2   1 <1>  -0.5650 
  8 C       -4.4410    -4.2210    -1.3620 C.ar  1 <1>  -0.1520 
  9 C       -5.0500    -4.7530     0.6470 C.2   1 <1>   0.0060 
 10 N       -5.2930    -5.0080    -0.6590 N.pl3 1 <1>   0.0330 
 11 C       -5.8410    -5.4890     1.7180 C.3   1 <1>   0.3890 
 12 N       -5.7950    -6.9680     1.4880 N.pl3 1 <1>  -0.8380 
 13 C       -6.7990    -7.6200     0.8030 C.ar  1 <1>   0.4100 
 14 C       -4.4680    -7.6020     1.7280 C.3   1 <1>   0.1290 
 15 N       -7.4540    -6.9220    -0.1220 N.ar  1 <1>  -0.6200 
 16 C       -7.0930    -8.9550     1.0760 C.ar  1 <1>  -0.1500 
 17 C       -8.4090    -7.5650    -0.7740 C.ar  1 <1>   0.1600 
 18 C       -8.0870    -9.6050     0.3860 C.ar  1 <1>  -0.1500 
 19 C       -8.7920    -8.8880    -0.5750 C.ar  1 <1>   0.0860 
 20 C       -9.8600    -9.4610    -1.3590 C.2   1 <1>   0.5440 
 21 O       -9.8920    -9.2370    -2.5550 O.2   1 <1>  -0.5700 
 22 N      -10.8540   -10.2400    -0.8010 N.am  1 <1>  -0.6600 
 23 C      -11.7400   -11.0890    -1.6460 C.3   1 <1>   0.1400 
 24 C      -11.2860   -10.1420     0.6210 C.3   1 <1>   0.1400 
 25 C      -11.8250   -12.4980    -1.0500 C.3   1 <1>  -0.1600 
 26 C      -11.3540   -11.5430     1.2380 C.3   1 <1>  -0.1600 
 27 C      -12.2640   -12.4710     0.4210 C.3   1 <1>  -0.1600 
 28 H       -2.1940    -2.0710    -0.0530 H     1 <1>   0.1500 
 29 H       -3.0320    -2.9620    -4.1520 H     1 <1>   0.1500 
 30 H       -4.7850    -4.5990    -3.4520 H     1 <1>   0.1500 
 31 H       -5.9760    -5.7050    -0.9870 H     1 <1>   0.2700 
 32 H       -6.8610    -5.1480     1.7060 H     1 <1>   0.0800 
 33 H       -5.4280    -5.2640     2.6860 H     1 <1>   0.0800 
 34 H       -3.6820    -6.9750     1.3430 H     1 <1>   0.0800 
 35 H       -4.4090    -8.5570     1.2350 H     1 <1>   0.0800 
 36 H       -4.3180    -7.7410     2.7840 H     1 <1>   0.0800 
 37 H       -6.5340    -9.4660     1.8350 H     1 <1>   0.1500 
 38 H       -8.9410    -7.0100    -1.5290 H     1 <1>   0.1500 
 39 H       -8.3220   -10.6380     0.5740 H     1 <1>   0.1500 
 40 H      -11.3580   -11.1490    -2.6520 H     1 <1>   0.0800 
 41 H      -12.7190   -10.6430    -1.6860 H     1 <1>   0.0800 
 42 H      -12.2620    -9.6890     0.6530 H     1 <1>   0.0800 
 43 H      -10.6170    -9.5200     1.1890 H     1 <1>   0.0800 
 44 H      -10.8590   -12.9650    -1.1320 H     1 <1>   0.0800 
 45 H      -12.5200   -13.0840    -1.6250 H     1 <1>   0.0800 
 46 H      -11.7250   -11.4700     2.2450 H     1 <1>   0.0800 
 47 H      -10.3620   -11.9560     1.2840 H     1 <1>   0.0800 
 48 H      -12.2320   -13.4670     0.8300 H     1 <1>   0.0800 
 49 H      -13.2800   -12.1190     0.4820 H     1 <1>   0.0800 
@<TRIPOS>BOND
  1   1   2  1   
  2   2   3  ar  
  3   2   4  ar  
  4   3   5  ar  
  5   3  28  1   
  6   4   6  ar  
  7   4  29  1   
  8   5   7  1   
  9   5   8  ar  
 10   6   8  ar  
 11   6  30  1   
 12   7   9  2   
 13   8  10  1   
 14   9  10  1   
 15   9  11  1   
 16  10  31  1   
 17  11  12  1   
 18  11  32  1   
 19  11  33  1   
 20  12  13  1   
 21  12  14  1   
 22  13  15  ar  
 23  13  16  ar  
 24  14  34  1   
 25  14  35  1   
 26  14  36  1   
 27  15  17  ar  
 28  16  18  ar  
 29  16  37  1   
 30  17  19  ar  
 31  17  38  1   
 32  18  19  ar  
 33  18  39  1   
 34  19  20  1   
 35  20  21  2   
 36  20  22  am  
 37  22  23  1   
 38  22  24  1   
 39  23  25  1   
 40  23  40  1   
 41  23  41  1   
 42  24  26  1   
 43  24  42  1   
 44  24  43  1   
 45  25  27  1   
 46  25  44  1   
 47  25  45  1   
 48  26  27  1   
 49  26  46  1   
 50  26  47  1   
 51  27  48  1   
 52  27  49  1   
@<TRIPOS>SUBSTRUCTURE
  1 ****  15 GROUP 4 **** **** 0

# MOE 2024.06 (io_trps.svl 2023.06)
