@<TRIPOS>MOLECULE
NONAME
52 54 1 0 0 
SMALL
USER_CHARGES


@<TRIPOS>ATOM
  1 F       -1.9230    -4.2270     3.8370 F     1 <1>  -0.1900 
  2 C       -1.9030    -3.9930     2.5530 C.ar  1 <1>   0.1900 
  3 C       -3.0890    -4.0490     1.8510 C.ar  1 <1>  -0.1500 
  4 C       -0.6940    -3.7000     1.9510 C.ar  1 <1>  -0.1500 
  5 C       -3.0830    -3.8110     0.4790 C.ar  1 <1>   0.0860 
  6 C       -0.6760    -3.4470     0.5900 C.ar  1 <1>  -0.1440 
  7 C       -4.2950    -3.8950    -0.3120 C.2   1 <1>   0.5440 
  8 C       -1.8640    -3.4980    -0.1240 C.ar  1 <1>  -0.1500 
  9 C        0.6190    -3.1230    -0.1310 C.3   1 <1>  -0.0960 
 10 O       -4.7550    -2.8720    -0.7840 O.2   1 <1>  -0.5700 
 11 N       -4.9440    -5.0900    -0.5590 N.am  1 <1>  -0.6600 
 12 C       -4.3990    -6.4210    -0.0960 C.3   1 <1>   0.3640 
 13 C       -6.2870    -5.0690    -1.2150 C.3   1 <1>   0.1400 
 14 C       -2.9720    -6.5920    -0.6280 C.ar  1 <1>  -0.1430 
 15 C       -5.2290    -7.6850    -0.4930 C.3   1 <1>   0.2000 
 16 C       -6.6430    -6.4070    -1.8580 C.3   1 <1>   0.1200 
 17 C       -1.9520    -6.9750     0.2300 C.ar  1 <1>  -0.1500 
 18 C       -2.6660    -6.3520    -1.9590 C.ar  1 <1>  -0.1500 
 19 O       -6.5420    -7.4060    -0.9000 O.3   1 <1>  -0.5600 
 20 C       -5.3530    -8.6980     0.6570 C.3   1 <1>   0.1200 
 21 C       -0.6480    -7.1110    -0.2130 C.ar  1 <1>   0.0830 
 22 C       -1.3680    -6.4880    -2.4220 C.ar  1 <1>  -0.1500 
 23 O       -4.1130    -9.0250     1.1950 O.3   1 <1>  -0.6800 
 24 O        0.2500    -7.4930     0.7340 O.3   1 <1>  -0.3630 
 25 C       -0.3420    -6.8710    -1.5610 C.ar  1 <1>   0.0830 
 26 C        1.5200    -6.8830     0.7880 C.3   1 <1>   0.0400 
 27 O        0.9400    -7.0290    -2.0030 O.3   1 <1>  -0.3630 
 28 C        1.2630    -7.0140    -3.3750 C.3   1 <1>   0.0400 
 29 H       -4.0070    -4.2760     2.3610 H     1 <1>   0.1500 
 30 H        0.2030    -3.6740     2.5420 H     1 <1>   0.1500 
 31 H       -1.8580    -3.3030    -1.1830 H     1 <1>   0.1500 
 32 H        0.5530    -2.1510    -0.5850 H     1 <1>   0.0800 
 33 H        0.8000    -3.8540    -0.9000 H     1 <1>   0.0800 
 34 H        1.4510    -3.1280     0.5500 H     1 <1>   0.0800 
 35 H       -4.3570    -6.3880     0.9790 H     1 <1>   0.0800 
 36 H       -7.0310    -4.8220    -0.4780 H     1 <1>   0.0800 
 37 H       -6.3100    -4.3050    -1.9730 H     1 <1>   0.0800 
 38 H       -4.7510    -8.1740    -1.3230 H     1 <1>   0.0800 
 39 H       -5.9910    -6.6320    -2.6840 H     1 <1>   0.0800 
 40 H       -7.6600    -6.3880    -2.2100 H     1 <1>   0.0800 
 41 H       -2.1560    -7.1660     1.2700 H     1 <1>   0.1500 
 42 H       -3.4400    -6.0450    -2.6420 H     1 <1>   0.1500 
 43 H       -5.8170    -9.6040     0.3080 H     1 <1>   0.0800 
 44 H       -5.9460    -8.2770     1.4500 H     1 <1>   0.0800 
 45 H       -1.1810    -6.2860    -3.4590 H     1 <1>   0.1500 
 46 H       -3.5440    -9.4770     0.5380 H     1 <1>   0.4000 
 47 H        1.9010    -6.9920     1.7870 H     1 <1>   0.0800 
 48 H        1.4200    -5.8420     0.5430 H     1 <1>   0.0800 
 49 H        2.1740    -7.3790     0.0940 H     1 <1>   0.0800 
 50 H        2.3080    -7.2460    -3.4740 H     1 <1>   0.0800 
 51 H        1.0700    -6.0320    -3.7700 H     1 <1>   0.0800 
 52 H        0.6750    -7.7590    -3.8810 H     1 <1>   0.0800 
@<TRIPOS>BOND
  1   1   2  1   
  2   2   3  ar  
  3   2   4  ar  
  4   3   5  ar  
  5   3  29  1   
  6   4   6  ar  
  7   4  30  1   
  8   5   7  1   
  9   5   8  ar  
 10   6   8  ar  
 11   6   9  1   
 12   7  10  2   
 13   7  11  am  
 14   8  31  1   
 15   9  32  1   
 16   9  33  1   
 17   9  34  1   
 18  11  12  1   
 19  11  13  1   
 20  12  14  1   
 21  12  15  1   
 22  12  35  1   
 23  13  16  1   
 24  13  36  1   
 25  13  37  1   
 26  14  17  ar  
 27  14  18  ar  
 28  15  19  1   
 29  15  20  1   
 30  15  38  1   
 31  16  19  1   
 32  16  39  1   
 33  16  40  1   
 34  17  21  ar  
 35  17  41  1   
 36  18  22  ar  
 37  18  42  1   
 38  20  23  1   
 39  20  43  1   
 40  20  44  1   
 41  21  24  1   
 42  21  25  ar  
 43  22  25  ar  
 44  22  45  1   
 45  23  46  1   
 46  24  26  1   
 47  25  27  1   
 48  26  47  1   
 49  26  48  1   
 50  26  49  1   
 51  27  28  1   
 52  28  50  1   
 53  28  51  1   
 54  28  52  1   
@<TRIPOS>SUBSTRUCTURE
  1 ****  14 GROUP 4 **** **** 0

# MOE 2024.06 (io_trps.svl 2023.06)
