@<TRIPOS>MOLECULE
NONAME
37 38 1 0 0 
SMALL
USER_CHARGES


@<TRIPOS>ATOM
  1 S       -1.4670    -0.3410    -0.6970 S.3   1 <1>  -0.0800 
  2 C       -0.5930    -1.6150     0.0850 C.2   1 <1>   0.4420 
  3 C       -0.3160     0.7640    -0.0200 C.2   1 <1>   0.1980 
  4 N        0.4200    -1.1800     0.7430 N.2   1 <1>  -0.3380 
  5 N       -1.0760    -2.8910    -0.0940 N.am  1 <1>  -0.4940 
  6 N        0.5720     0.1780     0.6790 N.2   1 <1>  -0.3380 
  7 C       -0.4560     2.2530    -0.3170 C.3   1 <1>   0.3800 
  8 C       -0.6570    -4.0840     0.4260 C.2   1 <1>   0.5690 
  9 O       -1.7830     2.6520    -0.1100 O.3   1 <1>  -0.5600 
 10 C       -0.0780     2.5790    -1.7640 C.3   1 <1>  -0.2400 
 11 O        0.2690    -4.1930     1.1890 O.2   1 <1>  -0.5700 
 12 C       -1.3810    -5.3470     0.0150 C.3   1 <1>   0.1570 
 13 C       -1.9550     3.9660     0.3200 C.3   1 <1>   0.0400 
 14 N       -2.8260    -5.0880    -0.0880 N.pl3 1 <1>   0.3140 
 15 N       -3.3220    -4.3730    -1.1190 N.2   1 <1>  -0.7070 
 16 C       -3.8010    -5.4300     0.7840 C.2   1 <1>  -0.3320 
 17 C       -4.5940    -4.2910    -0.8880 C.2   1 <1>   0.1080 
 18 C       -4.9540    -4.9330     0.2900 C.2   1 <1>  -0.1500 
 19 C       -3.5940    -6.2140     2.0700 C.3   1 <1>  -0.0600 
 20 C       -5.5440    -3.5680    -1.8130 C.3   1 <1>  -0.0590 
 21 H       -1.9300    -2.9650    -0.6650 H     1 <1>   0.3700 
 22 H        0.1820     2.7900     0.3650 H     1 <1>   0.0800 
 23 H       -0.7520     2.0870    -2.4430 H     1 <1>   0.0800 
 24 H        0.9200     2.2310    -1.9600 H     1 <1>   0.0800 
 25 H       -0.1070     3.6380    -1.9350 H     1 <1>   0.0800 
 26 H       -1.2030    -6.1190     0.7370 H     1 <1>   0.0800 
 27 H       -1.0200    -5.6700    -0.9420 H     1 <1>   0.0800 
 28 H       -3.0100     4.1430     0.4330 H     1 <1>   0.0800 
 29 H       -1.5530     4.6430    -0.4140 H     1 <1>   0.0800 
 30 H       -1.4640     4.0970     1.2690 H     1 <1>   0.0800 
 31 H       -5.9470    -4.9980     0.6970 H     1 <1>   0.1500 
 32 H       -2.9080    -5.6970     2.7170 H     1 <1>   0.0800 
 33 H       -3.2060    -7.1930     1.8540 H     1 <1>   0.0800 
 34 H       -4.5300    -6.3270     2.5890 H     1 <1>   0.0800 
 35 H       -5.4750    -3.9900    -2.7990 H     1 <1>   0.0800 
 36 H       -5.2800    -2.5280    -1.8590 H     1 <1>   0.0800 
 37 H       -6.5540    -3.6600    -1.4620 H     1 <1>   0.0800 
@<TRIPOS>BOND
  1   1   2  1   
  2   1   3  1   
  3   2   4  2   
  4   2   5  1   
  5   3   6  2   
  6   3   7  1   
  7   4   6  1   
  8   5   8  am  
  9   5  21  1   
 10   7   9  1   
 11   7  10  1   
 12   7  22  1   
 13   8  11  2   
 14   8  12  1   
 15   9  13  1   
 16  10  23  1   
 17  10  24  1   
 18  10  25  1   
 19  12  14  1   
 20  12  26  1   
 21  12  27  1   
 22  13  28  1   
 23  13  29  1   
 24  13  30  1   
 25  14  15  1   
 26  14  16  1   
 27  15  17  2   
 28  16  18  2   
 29  16  19  1   
 30  17  18  1   
 31  17  20  1   
 32  18  31  1   
 33  19  32  1   
 34  19  33  1   
 35  19  34  1   
 36  20  35  1   
 37  20  36  1   
 38  20  37  1   
@<TRIPOS>SUBSTRUCTURE
  1 ****   5 GROUP 4 **** **** 0

# MOE 2024.06 (io_trps.svl 2023.06)
