@<TRIPOS>MOLECULE
NONAME
54 57 1 0 0 
SMALL
USER_CHARGES


@<TRIPOS>ATOM
  1 O        0.5000    -1.0210    -0.6820 O.3   1 <1>  -0.5600 
  2 C       -0.8090    -1.5080    -0.7700 C.3   1 <1>   0.1200 
  3 C        1.4820    -1.9970    -0.8490 C.3   1 <1>   0.1200 
  4 C       -1.0670    -2.5640     0.3180 C.3   1 <1>   0.2090 
  5 C        1.3590    -3.0770     0.2430 C.3   1 <1>   0.2090 
  6 N       -0.0280    -3.6600     0.2780 N.pl3 1 <1>  -0.8380 
  7 C       -0.3790    -4.9760     0.2580 C.ar  1 <1>   0.7710 
  8 N       -1.6580    -5.3070     0.1560 N.ar  1 <1>  -0.6200 
  9 N        0.5830    -5.9120     0.3480 N.ar  1 <1>  -0.1790 
 10 C       -1.9870    -6.5860     0.1260 C.ar  1 <1>   0.4100 
 11 C        0.3030    -7.2350     0.3340 C.ar  1 <1>   0.2180 
 12 N       -3.3090    -6.9030     0.0030 N.pl3 1 <1>  -0.8380 
 13 C       -0.9970    -7.5860     0.2210 C.ar  1 <1>  -0.1500 
 14 C        1.4380    -8.2450     0.4490 C.3   1 <1>  -0.0170 
 15 C       -3.7890    -8.2680    -0.3740 C.3   1 <1>   0.2090 
 16 C       -4.4000    -5.8860     0.1190 C.3   1 <1>   0.1290 
 17 C        2.1720    -8.1400     1.7920 C.3   1 <1>  -0.2400 
 18 C       -3.9880    -9.1330     0.8770 C.3   1 <1>   0.0200 
 19 C       -3.6250   -10.5770     0.5840 C.2   1 <1>   0.0060 
 20 N       -2.4300   -10.9560     0.2830 N.2   1 <1>  -0.5650 
 21 N       -4.5300   -11.5890     0.6190 N.pl3 1 <1>   0.0330 
 22 C       -2.5390   -12.3020     0.1020 C.ar  1 <1>   0.2270 
 23 C       -3.8420   -12.7140     0.3070 C.ar  1 <1>  -0.1520 
 24 C       -1.5610   -13.2350    -0.2390 C.ar  1 <1>  -0.1500 
 25 C       -4.2090   -14.0560     0.1800 C.ar  1 <1>  -0.1500 
 26 C       -1.9130   -14.5620    -0.3680 C.ar  1 <1>  -0.1500 
 27 C       -3.2360   -14.9700    -0.1580 C.ar  1 <1>  -0.1500 
 28 H       -0.9600    -1.9260    -1.7500 H     1 <1>   0.0800 
 29 H       -1.4770    -0.6740    -0.6440 H     1 <1>   0.0800 
 30 H        2.4390    -1.5090    -0.7860 H     1 <1>   0.0800 
 31 H        1.3780    -2.4260    -1.8300 H     1 <1>   0.0800 
 32 H       -2.0650    -2.9440     0.1870 H     1 <1>   0.0800 
 33 H       -1.0350    -2.0810     1.2800 H     1 <1>   0.0800 
 34 H        1.5770    -2.6230     1.1960 H     1 <1>   0.0800 
 35 H        2.1020    -3.8290     0.0560 H     1 <1>   0.0800 
 36 H        1.5260    -5.5730     0.4620 H     1 <1>   0.4570 
 37 H       -1.2790    -8.6200     0.2140 H     1 <1>   0.1500 
 38 H        2.1340    -8.1060    -0.3600 H     1 <1>   0.0800 
 39 H        1.0360    -9.2410     0.3550 H     1 <1>   0.0800 
 40 H       -3.0700    -8.7250    -1.0320 H     1 <1>   0.0800 
 41 H       -4.7120    -8.2010    -0.9250 H     1 <1>   0.0800 
 42 H       -4.0800    -5.0420     0.7050 H     1 <1>   0.0800 
 43 H       -5.2600    -6.3170     0.6010 H     1 <1>   0.0800 
 44 H       -4.6800    -5.5420    -0.8620 H     1 <1>   0.0800 
 45 H        2.6550    -7.1870     1.9080 H     1 <1>   0.0800 
 46 H        2.9260    -8.9070     1.8540 H     1 <1>   0.0800 
 47 H        1.4830    -8.2850     2.6080 H     1 <1>   0.0800 
 48 H       -5.0050    -9.0550     1.2140 H     1 <1>   0.0800 
 49 H       -3.3460    -8.7880     1.6670 H     1 <1>   0.0800 
 50 H       -5.5260   -11.5350     0.8450 H     1 <1>   0.2700 
 51 H       -0.5540   -12.8980    -0.3950 H     1 <1>   0.1500 
 52 H       -5.2270   -14.3610     0.3440 H     1 <1>   0.1500 
 53 H       -1.1720   -15.2960    -0.6310 H     1 <1>   0.1500 
 54 H       -3.4850   -16.0120    -0.2640 H     1 <1>   0.1500 
@<TRIPOS>BOND
  1   1   2  1   
  2   1   3  1   
  3   2   4  1   
  4   2  28  1   
  5   2  29  1   
  6   3   5  1   
  7   3  30  1   
  8   3  31  1   
  9   4   6  1   
 10   4  32  1   
 11   4  33  1   
 12   5   6  1   
 13   5  34  1   
 14   5  35  1   
 15   6   7  1   
 16   7   8  ar  
 17   7   9  ar  
 18   8  10  ar  
 19   9  11  ar  
 20   9  36  1   
 21  10  12  1   
 22  10  13  ar  
 23  11  13  ar  
 24  11  14  1   
 25  12  15  1   
 26  12  16  1   
 27  13  37  1   
 28  14  17  1   
 29  14  38  1   
 30  14  39  1   
 31  15  18  1   
 32  15  40  1   
 33  15  41  1   
 34  16  42  1   
 35  16  43  1   
 36  16  44  1   
 37  17  45  1   
 38  17  46  1   
 39  17  47  1   
 40  18  19  1   
 41  18  48  1   
 42  18  49  1   
 43  19  20  2   
 44  19  21  1   
 45  20  22  1   
 46  21  23  1   
 47  21  50  1   
 48  22  23  ar  
 49  22  24  ar  
 50  23  25  ar  
 51  24  26  ar  
 52  24  51  1   
 53  25  27  ar  
 54  25  52  1   
 55  26  27  ar  
 56  26  53  1   
 57  27  54  1   
@<TRIPOS>SUBSTRUCTURE
  1 ****  13 GROUP 4 **** **** 0

# MOE 2024.06 (io_trps.svl 2023.06)
