@<TRIPOS>MOLECULE
NONAME
49 51 1 0 0 
SMALL
USER_CHARGES


@<TRIPOS>ATOM
  1 O       -0.8120    -0.3560    -0.3230 O.2   1 <1>  -0.5700 
  2 C       -1.7320     0.4370    -0.3940 C.2   1 <1>   0.5440 
  3 N       -1.4450     1.7610    -0.6590 N.am  1 <1>  -0.6600 
  4 C       -3.0810    -0.0340    -0.1870 C.ar  1 <1>   0.0860 
  5 C       -2.3000     2.9030    -0.2120 C.3   1 <1>   0.1400 
  6 C       -0.1040     2.1960    -1.1590 C.3   1 <1>   0.1400 
  7 C       -3.3620    -0.9410     0.8310 C.ar  1 <1>   0.1600 
  8 C       -4.1530     0.3690    -0.9790 C.ar  1 <1>  -0.1500 
  9 C       -1.5100     3.8470     0.7120 C.3   1 <1>   0.1200 
 10 C        0.5540     3.1700    -0.1700 C.3   1 <1>   0.1200 
 11 N       -4.5520    -1.4350     1.1270 N.ar  1 <1>  -0.6200 
 12 C       -5.3960    -0.1380    -0.6890 C.ar  1 <1>  -0.1500 
 13 O       -0.3070     4.2380     0.1140 O.3   1 <1>  -0.5600 
 14 C       -5.5610    -1.0310     0.3660 C.ar  1 <1>   0.4100 
 15 N       -6.8080    -1.5170     0.6420 N.pl3 1 <1>  -0.8690 
 16 C       -7.1070    -2.7170     1.4560 C.3   1 <1>   0.3530 
 17 C       -7.7530    -3.7700     0.5620 C.ar  1 <1>  -0.1430 
 18 C       -7.1080    -4.9790     0.3150 C.ar  1 <1>   0.0830 
 19 C       -9.0030    -3.5440    -0.0090 C.ar  1 <1>   0.0830 
 20 O       -5.8980    -5.2460     0.8490 O.3   1 <1>  -0.3630 
 21 C       -7.6980    -5.9510    -0.4750 C.ar  1 <1>  -0.1500 
 22 O       -9.6120    -2.3530     0.2420 O.3   1 <1>  -0.3620 
 23 C       -9.5890    -4.5240    -0.8110 C.ar  1 <1>  -0.1500 
 24 C       -4.7880    -4.8230     0.0880 C.3   1 <1>   0.0400 
 25 C       -8.9380    -5.7230    -1.0400 C.ar  1 <1>  -0.1500 
 26 C      -10.9400    -2.0970    -0.1590 C.3   1 <1>   0.0400 
 27 H       -3.1660     2.5470     0.3170 H     1 <1>   0.0800 
 28 H       -2.6350     3.4530    -1.0740 H     1 <1>   0.0800 
 29 H       -0.2250     2.6860    -2.1090 H     1 <1>   0.0800 
 30 H        0.5420     1.3490    -1.3080 H     1 <1>   0.0800 
 31 H       -2.5370    -1.2740     1.4380 H     1 <1>   0.1500 
 32 H       -4.0010     1.0520    -1.7960 H     1 <1>   0.1500 
 33 H       -1.2880     3.3620     1.6470 H     1 <1>   0.0800 
 34 H       -2.0810     4.7360     0.9110 H     1 <1>   0.0800 
 35 H        1.4550     3.5760    -0.5930 H     1 <1>   0.0800 
 36 H        0.7980     2.6650     0.7490 H     1 <1>   0.0800 
 37 H       -6.2540     0.1440    -1.2680 H     1 <1>   0.1500 
 38 H       -7.5700    -1.3300    -0.0130 H     1 <1>   0.4000 
 39 H       -7.7960    -2.4440     2.2350 H     1 <1>   0.0800 
 40 H       -6.2180    -3.0940     1.9280 H     1 <1>   0.0800 
 41 H       -7.1840    -6.8800    -0.6400 H     1 <1>   0.1500 
 42 H      -10.5490    -4.3740    -1.2660 H     1 <1>   0.1500 
 43 H       -3.9010    -4.9670     0.6770 H     1 <1>   0.0800 
 44 H       -4.9020    -3.7820    -0.1550 H     1 <1>   0.0800 
 45 H       -4.7400    -5.4110    -0.8100 H     1 <1>   0.0800 
 46 H       -9.3950    -6.4780    -1.6560 H     1 <1>   0.1500 
 47 H      -11.2190    -1.1260     0.2100 H     1 <1>   0.0800 
 48 H      -11.5840    -2.8470     0.2650 H     1 <1>   0.0800 
 49 H      -10.9890    -2.1070    -1.2330 H     1 <1>   0.0800 
@<TRIPOS>BOND
  1   1   2  2   
  2   2   3  am  
  3   2   4  1   
  4   3   5  1   
  5   3   6  1   
  6   4   7  ar  
  7   4   8  ar  
  8   5   9  1   
  9   5  27  1   
 10   5  28  1   
 11   6  10  1   
 12   6  29  1   
 13   6  30  1   
 14   7  11  ar  
 15   7  31  1   
 16   8  12  ar  
 17   8  32  1   
 18   9  13  1   
 19   9  33  1   
 20   9  34  1   
 21  10  13  1   
 22  10  35  1   
 23  10  36  1   
 24  11  14  ar  
 25  12  14  ar  
 26  12  37  1   
 27  14  15  1   
 28  15  16  1   
 29  15  38  1   
 30  16  17  1   
 31  16  39  1   
 32  16  40  1   
 33  17  18  ar  
 34  17  19  ar  
 35  18  20  1   
 36  18  21  ar  
 37  19  22  1   
 38  19  23  ar  
 39  20  24  1   
 40  21  25  ar  
 41  21  41  1   
 42  22  26  1   
 43  23  25  ar  
 44  23  42  1   
 45  24  43  1   
 46  24  44  1   
 47  24  45  1   
 48  25  46  1   
 49  26  47  1   
 50  26  48  1   
 51  26  49  1   
@<TRIPOS>SUBSTRUCTURE
  1 ****  14 GROUP 4 **** **** 0

# MOE 2024.06 (io_trps.svl 2023.06)
