@<TRIPOS>MOLECULE
NONAME
55 57 1 0 0 
SMALL
USER_CHARGES


@<TRIPOS>ATOM
  1 O       -2.2820     0.6920    -2.0440 O.2   1 <1>  -0.5700 
  2 C       -2.3730     1.0860    -0.9030 C.2   1 <1>   0.5690 
  3 N       -2.9250     0.3180     0.0780 N.am  1 <1>  -0.6600 
  4 C       -1.8700     2.4980    -0.5660 C.3   1 <1>   0.1710 
  5 C       -2.5250    -1.1110     0.2510 C.3   1 <1>   0.3640 
  6 C       -4.3670     0.5080     0.3950 C.3   1 <1>   0.1400 
  7 N       -0.5030     2.5390     0.0350 N.3   1 <1>  -0.8100 
  8 C       -1.0170    -1.3270     0.0490 C.ar  1 <1>  -0.1430 
  9 C       -3.4480    -2.0270    -0.5910 C.3   1 <1>   0.2000 
 10 C       -5.2250    -0.4770    -0.4230 C.3   1 <1>   0.1200 
 11 C       -0.0980     3.9010     0.4190 C.3   1 <1>   0.1100 
 12 C        0.4970     1.9120    -0.8540 C.3   1 <1>   0.1100 
 13 C       -0.4610    -1.6260    -1.1900 C.ar  1 <1>  -0.1500 
 14 C       -0.1760    -1.2370     1.1500 C.ar  1 <1>  -0.1500 
 15 O       -4.7930    -1.7950    -0.2330 O.3   1 <1>  -0.5600 
 16 C       -3.1370    -3.5300    -0.4290 C.3   1 <1>   0.1200 
 17 C        1.2900     3.8940     1.0950 C.3   1 <1>   0.3430 
 18 C        1.8810     1.8660    -0.1850 C.3   1 <1>   0.3430 
 19 C        0.9000    -1.8470    -1.3180 C.ar  1 <1>  -0.1500 
 20 C        1.1840    -1.4590     1.0250 C.ar  1 <1>  -0.1500 
 21 O       -3.0040    -3.9140     0.9050 O.3   1 <1>  -0.6800 
 22 N        2.3400     3.2390     0.2320 N.4   1 <1>  -0.9590 
 23 C        1.7240    -1.7680    -0.2100 C.ar  1 <1>  -0.1500 
 24 C        3.6640     3.1690     0.8970 C.3   1 <1>   0.3430 
 25 C        4.2760     4.5630     0.9740 C.3   1 <1>  -0.2400 
 26 H       -2.5670     2.9390     0.1220 H     1 <1>   0.0800 
 27 H       -1.8840     3.0810    -1.4700 H     1 <1>   0.0800 
 28 H       -2.7270    -1.3620     1.2780 H     1 <1>   0.0800 
 29 H       -4.5320     0.3400     1.4460 H     1 <1>   0.0800 
 30 H       -4.6670     1.5160     0.1670 H     1 <1>   0.0800 
 31 H       -3.3490    -1.7740    -1.6320 H     1 <1>   0.0800 
 32 H       -5.1680    -0.2450    -1.4730 H     1 <1>   0.0800 
 33 H       -6.2540    -0.4220    -0.1130 H     1 <1>   0.0800 
 34 H       -0.0780     4.5410    -0.4470 H     1 <1>   0.0800 
 35 H       -0.8180     4.3010     1.1130 H     1 <1>   0.0800 
 36 H        0.2060     0.9020    -1.0750 H     1 <1>   0.0800 
 37 H        0.5550     2.4450    -1.7870 H     1 <1>   0.0800 
 38 H       -1.0810    -1.6830    -2.0680 H     1 <1>   0.1500 
 39 H       -0.5840    -0.9960     2.1180 H     1 <1>   0.1500 
 40 H       -2.2210    -3.7810    -0.9330 H     1 <1>   0.0800 
 41 H       -3.9350    -4.1080    -0.8630 H     1 <1>   0.0800 
 42 H        1.2060     3.3590     2.0270 H     1 <1>   0.0800 
 43 H        1.5760     4.9080     1.3180 H     1 <1>   0.0800 
 44 H        2.5890     1.4300    -0.8700 H     1 <1>   0.0800 
 45 H        1.8130     1.2230     0.6780 H     1 <1>   0.0800 
 46 H        1.3130    -2.0860    -2.2830 H     1 <1>   0.1500 
 47 H        1.8190    -1.4040     1.8930 H     1 <1>   0.1500 
 48 H       -2.1150    -3.6880     1.2440 H     1 <1>   0.4000 
 49 H        2.4340     3.8000    -0.6230 H     1 <1>   0.4500 
 50 H        2.7790    -1.9570    -0.3100 H     1 <1>   0.1500 
 51 H        3.5630     2.7510     1.8870 H     1 <1>   0.0800 
 52 H        4.3220     2.5310     0.3280 H     1 <1>   0.0800 
 53 H        3.7020     5.2110     1.6110 H     1 <1>   0.0800 
 54 H        4.3630     4.9980    -0.0060 H     1 <1>   0.0800 
 55 H        5.2650     4.4890     1.3910 H     1 <1>   0.0800 
@<TRIPOS>BOND
  1   1   2  2   
  2   2   3  am  
  3   2   4  1   
  4   3   5  1   
  5   3   6  1   
  6   4   7  1   
  7   4  26  1   
  8   4  27  1   
  9   5   8  1   
 10   5   9  1   
 11   5  28  1   
 12   6  10  1   
 13   6  29  1   
 14   6  30  1   
 15   7  11  1   
 16   7  12  1   
 17   8  13  ar  
 18   8  14  ar  
 19   9  15  1   
 20   9  16  1   
 21   9  31  1   
 22  10  15  1   
 23  10  32  1   
 24  10  33  1   
 25  11  17  1   
 26  11  34  1   
 27  11  35  1   
 28  12  18  1   
 29  12  36  1   
 30  12  37  1   
 31  13  19  ar  
 32  13  38  1   
 33  14  20  ar  
 34  14  39  1   
 35  16  21  1   
 36  16  40  1   
 37  16  41  1   
 38  17  22  1   
 39  17  42  1   
 40  17  43  1   
 41  18  22  1   
 42  18  44  1   
 43  18  45  1   
 44  19  23  ar  
 45  19  46  1   
 46  20  23  ar  
 47  20  47  1   
 48  21  48  1   
 49  22  24  1   
 50  22  49  1   
 51  23  50  1   
 52  24  25  1   
 53  24  51  1   
 54  24  52  1   
 55  25  53  1   
 56  25  54  1   
 57  25  55  1   
@<TRIPOS>SUBSTRUCTURE
  1 ****   8 GROUP 4 **** **** 0

# MOE 2024.06 (io_trps.svl 2023.06)
