@<TRIPOS>MOLECULE
NONAME
40 43 1 0 0 
SMALL
USER_CHARGES


@<TRIPOS>ATOM
  1 S       -3.4190    -0.4480     2.8860 S.3   1 <1>  -0.4600 
  2 C       -2.9920     0.4980     1.3870 C.3   1 <1>   0.2510 
  3 C       -3.8270    -2.0420     2.1090 C.3   1 <1>   0.2510 
  4 C       -3.2060    -0.5030     0.2750 C.2   1 <1>   0.1080 
  5 C       -3.6210    -1.7660     0.6390 C.2   1 <1>  -0.1810 
  6 N       -3.0610    -0.3660    -1.0040 N.2   1 <1>  -0.7070 
  7 C       -3.7340    -2.4600    -0.5150 C.2   1 <1>  -0.0880 
  8 N       -3.3860    -1.5850    -1.5080 N.pl3 1 <1>   0.3140 
  9 N       -4.1540    -3.8070    -0.6120 N.am  1 <1>  -0.4940 
 10 C       -3.4160    -1.7870    -2.9620 C.3   1 <1>   0.0160 
 11 C       -3.8160    -4.8240    -1.4660 C.2   1 <1>   0.7160 
 12 O       -3.0210    -4.6010    -2.3580 O.2   1 <1>  -0.5700 
 13 C       -4.3950    -6.1470    -1.3130 C.2   1 <1>  -0.0860 
 14 C       -5.0200    -6.7280    -0.1640 C.2   1 <1>  -0.0860 
 15 C       -4.4540    -7.1360    -2.2570 C.2   1 <1>  -0.0400 
 16 C       -5.3230    -6.2600     1.1620 C.2   1 <1>   0.5950 
 17 C       -5.3510    -7.9850    -0.5480 C.2   1 <1>  -0.0400 
 18 O       -5.0240    -8.2140    -1.7840 O.3   1 <1>  -0.2800 
 19 C       -3.9970    -7.2030    -3.7030 C.3   1 <1>  -0.0600 
 20 O       -5.0270    -5.1740     1.5930 O.2   1 <1>  -0.5700 
 21 C       -6.1110    -7.1990     2.0720 C.3   1 <1>  -0.0990 
 22 C       -6.0160    -9.0480     0.3000 C.3   1 <1>   0.0200 
 23 C       -5.8430    -8.6940     1.7870 C.3   1 <1>  -0.1600 
 24 H       -1.9660     0.8070     1.4580 H     1 <1>   0.0800 
 25 H       -3.6590     1.3360     1.3080 H     1 <1>   0.0800 
 26 H       -4.8480    -2.2830     2.3440 H     1 <1>   0.0800 
 27 H       -3.1480    -2.7860     2.4850 H     1 <1>   0.0800 
 28 H       -4.6410    -4.1420     0.2250 H     1 <1>   0.3700 
 29 H       -3.5250    -0.8350    -3.4480 H     1 <1>   0.0800 
 30 H       -4.2440    -2.4200    -3.2180 H     1 <1>   0.0800 
 31 H       -2.4950    -2.2450    -3.2690 H     1 <1>   0.0800 
 32 H       -3.6490    -6.2540    -4.0610 H     1 <1>   0.0800 
 33 H       -4.8170    -7.5180    -4.3240 H     1 <1>   0.0800 
 34 H       -3.2010    -7.9200    -3.7950 H     1 <1>   0.0800 
 35 H       -7.1570    -6.9900     1.9370 H     1 <1>   0.0800 
 36 H       -5.8620    -6.9820     3.0950 H     1 <1>   0.0800 
 37 H       -5.5680   -10.0060     0.0980 H     1 <1>   0.0800 
 38 H       -7.0590    -9.1000     0.0410 H     1 <1>   0.0800 
 39 H       -6.4930    -9.3080     2.3850 H     1 <1>   0.0800 
 40 H       -4.8280    -8.9180     2.0730 H     1 <1>   0.0800 
@<TRIPOS>BOND
  1   1   2  1   
  2   1   3  1   
  3   2   4  1   
  4   2  24  1   
  5   2  25  1   
  6   3   5  1   
  7   3  26  1   
  8   3  27  1   
  9   4   5  1   
 10   4   6  2   
 11   5   7  2   
 12   6   8  1   
 13   7   8  1   
 14   7   9  1   
 15   8  10  1   
 16   9  11  am  
 17   9  28  1   
 18  10  29  1   
 19  10  30  1   
 20  10  31  1   
 21  11  12  2   
 22  11  13  1   
 23  13  14  1   
 24  13  15  2   
 25  14  16  1   
 26  14  17  2   
 27  15  18  1   
 28  15  19  1   
 29  16  20  2   
 30  16  21  1   
 31  17  18  1   
 32  17  22  1   
 33  19  32  1   
 34  19  33  1   
 35  19  34  1   
 36  21  23  1   
 37  21  35  1   
 38  21  36  1   
 39  22  23  1   
 40  22  37  1   
 41  22  38  1   
 42  23  39  1   
 43  23  40  1   
@<TRIPOS>SUBSTRUCTURE
  1 ****   9 GROUP 4 **** **** 0

# MOE 2024.06 (io_trps.svl 2023.06)
