@<TRIPOS>MOLECULE
NONAME
53 56 1 0 0 
SMALL
USER_CHARGES


@<TRIPOS>ATOM
  1 O       -0.3490     0.3470     0.9240 O.co2 1 <1>  -0.9000 
  2 C       -1.5620     0.3190     1.2460 C.2   1 <1>   1.0330 
  3 O       -1.9520    -0.6960     1.8590 O.co2 1 <1>  -0.9000 
  4 C       -2.4460     1.4550     0.8980 C.2   1 <1>   0.0560 
  5 N       -3.7400     1.6270     1.1650 N.2   1 <1>  -0.7070 
  6 C       -1.9860     2.5780     0.1900 C.2   1 <1>  -0.1810 
  7 N       -4.0800     2.8130     0.6480 N.pl3 1 <1>   0.3140 
  8 C       -3.0340     3.4030     0.0450 C.2   1 <1>  -0.3320 
  9 C       -0.5830     2.8490    -0.3190 C.3   1 <1>   0.3900 
 10 C       -5.4430     3.3340     0.7690 C.3   1 <1>   0.0160 
 11 C       -2.9390     4.7330    -0.6770 C.3   1 <1>   0.0200 
 12 N       -0.4670     4.2610    -0.8510 N.pl3 1 <1>  -0.8380 
 13 C       -1.6970     4.7240    -1.5880 C.3   1 <1>   0.2090 
 14 C        0.5880     5.0690    -0.5710 C.ar  1 <1>   0.4100 
 15 N        0.4220     6.3740    -0.6960 N.ar  1 <1>  -0.6200 
 16 C        1.8260     4.5350    -0.1580 C.ar  1 <1>  -0.1500 
 17 C        1.4280     7.1790    -0.3860 C.ar  1 <1>   0.7710 
 18 C        2.8400     5.3690     0.1640 C.ar  1 <1>   0.2180 
 19 N        2.6050     6.6960     0.0460 N.ar  1 <1>  -0.1790 
 20 N        1.2740     8.5280    -0.4980 N.pl3 1 <1>  -0.8380 
 21 C        4.2050     4.8900     0.6400 C.3   1 <1>  -0.0170 
 22 C       -0.0670     9.1470    -0.7660 C.3   1 <1>   0.2090 
 23 C        2.3320     9.5760    -0.3560 C.3   1 <1>   0.2090 
 24 C        5.3260     5.2750    -0.3330 C.3   1 <1>  -0.2400 
 25 C       -0.4520    10.0360     0.4200 C.3   1 <1>  -0.1600 
 26 C        2.0030    10.4590     0.8520 C.3   1 <1>  -0.1600 
 27 C        0.6160    11.1010     0.7100 C.3   1 <1>  -0.1600 
 28 H       -0.3410     2.1410    -1.0920 H     1 <1>   0.0800 
 29 H        0.0890     2.7020     0.5050 H     1 <1>   0.0800 
 30 H       -6.0150     2.6680     1.3890 H     1 <1>   0.0800 
 31 H       -5.8850     3.3890    -0.2070 H     1 <1>   0.0800 
 32 H       -5.4080     4.3070     1.2200 H     1 <1>   0.0800 
 33 H       -2.8530     5.5290     0.0390 H     1 <1>   0.0800 
 34 H       -3.8150     4.8970    -1.2760 H     1 <1>   0.0800 
 35 H       -1.5520     5.7010    -2.0120 H     1 <1>   0.0800 
 36 H       -1.8740     4.0420    -2.4020 H     1 <1>   0.0800 
 37 H        1.9510     3.4690    -0.1100 H     1 <1>   0.1500 
 38 H        3.3000     7.3880     0.2850 H     1 <1>   0.4570 
 39 H        4.1890     3.8170     0.7400 H     1 <1>   0.0800 
 40 H        4.4120     5.2970     1.6150 H     1 <1>   0.0800 
 41 H       -0.8360     8.4080    -0.9130 H     1 <1>   0.0800 
 42 H       -0.0130     9.7400    -1.6640 H     1 <1>   0.0800 
 43 H        2.3440    10.1840    -1.2470 H     1 <1>   0.0800 
 44 H        3.3120     9.1520    -0.2430 H     1 <1>   0.0800 
 45 H        5.1310     4.8710    -1.3120 H     1 <1>   0.0800 
 46 H        6.2630     4.8710     0.0120 H     1 <1>   0.0800 
 47 H        5.4320     6.3420    -0.4130 H     1 <1>   0.0800 
 48 H       -0.5930     9.4150     1.2870 H     1 <1>   0.0800 
 49 H       -1.3910    10.5180     0.2110 H     1 <1>   0.0800 
 50 H        2.7450    11.2340     0.9420 H     1 <1>   0.0800 
 51 H        2.0370     9.8660     1.7490 H     1 <1>   0.0800 
 52 H        0.3640    11.6340     1.6120 H     1 <1>   0.0800 
 53 H        0.6340    11.8130    -0.0980 H     1 <1>   0.0800 
@<TRIPOS>BOND
  1   1   2  ar  
  2   2   3  ar  
  3   2   4  1   
  4   4   5  2   
  5   4   6  1   
  6   5   7  1   
  7   6   8  2   
  8   6   9  1   
  9   7   8  1   
 10   7  10  1   
 11   8  11  1   
 12   9  12  1   
 13   9  28  1   
 14   9  29  1   
 15  10  30  1   
 16  10  31  1   
 17  10  32  1   
 18  11  13  1   
 19  11  33  1   
 20  11  34  1   
 21  12  13  1   
 22  12  14  1   
 23  13  35  1   
 24  13  36  1   
 25  14  15  ar  
 26  14  16  ar  
 27  15  17  ar  
 28  16  18  ar  
 29  16  37  1   
 30  17  19  ar  
 31  17  20  1   
 32  18  19  ar  
 33  18  21  1   
 34  19  38  1   
 35  20  22  1   
 36  20  23  1   
 37  21  24  1   
 38  21  39  1   
 39  21  40  1   
 40  22  25  1   
 41  22  41  1   
 42  22  42  1   
 43  23  26  1   
 44  23  43  1   
 45  23  44  1   
 46  24  45  1   
 47  24  46  1   
 48  24  47  1   
 49  25  27  1   
 50  25  48  1   
 51  25  49  1   
 52  26  27  1   
 53  26  50  1   
 54  26  51  1   
 55  27  52  1   
 56  27  53  1   
@<TRIPOS>SUBSTRUCTURE
  1 ****  14 GROUP 4 **** **** 0

# MOE 2024.06 (io_trps.svl 2023.06)
