@<TRIPOS>MOLECULE
NONAME
52 55 1 0 0 
SMALL
USER_CHARGES


@<TRIPOS>ATOM
  1 O       -0.7170     0.2130    -0.4570 O.2   1 <1>  -0.5700 
  2 C       -1.7160     0.9070    -0.5210 C.2   1 <1>   0.7150 
  3 N       -2.9150     0.3150    -0.8470 N.am  1 <1>  -0.6600 
  4 C       -1.6320     2.3130    -0.2450 C.2   1 <1>  -0.2370 
  5 C       -4.2390     0.8270    -0.3770 C.3   1 <1>   0.1400 
  6 C       -2.9890    -1.0610    -1.4260 C.3   1 <1>   0.1400 
  7 N       -0.8130     2.8650     0.6880 N.pl3 1 <1>   0.3140 
  8 C       -2.2900     3.3660    -0.8050 C.2   1 <1>  -0.1500 
  9 C       -4.9190    -0.1870     0.5630 C.3   1 <1>   0.1900 
 10 C       -3.7060    -2.0240    -0.4660 C.3   1 <1>   0.1100 
 11 N       -0.9470     4.1970     0.7560 N.2   1 <1>  -0.7070 
 12 C        0.1360     2.1690     1.5710 C.3   1 <1>   0.0160 
 13 C       -1.8300     4.4910    -0.1470 C.2   1 <1>   0.1080 
 14 N       -5.0430    -1.5140    -0.0890 N.3   1 <1>  -0.8100 
 15 C       -6.3020     0.3320     1.0040 C.3   1 <1>   0.1200 
 16 C       -2.2780     5.9130    -0.4250 C.3   1 <1>   0.0210 
 17 C       -5.7570    -2.4530     0.8110 C.3   1 <1>   0.3330 
 18 O       -6.9200    -0.5850     1.8590 O.3   1 <1>  -0.5600 
 19 C       -1.3230     6.6120    -1.3970 C.3   1 <1>  -0.2400 
 20 C       -6.0160    -3.7890     0.1170 C.ar  1 <1>  -0.1440 
 21 C       -7.1000    -1.8490     1.2770 C.3   1 <1>   0.1200 
 22 C       -5.7190    -4.9790     0.7660 C.ar  1 <1>  -0.1500 
 23 C       -6.5540    -3.8350    -1.1620 C.ar  1 <1>  -0.1500 
 24 C       -5.9550    -6.1940     0.1470 C.ar  1 <1>  -0.1500 
 25 C       -6.7920    -5.0490    -1.7830 C.ar  1 <1>  -0.1500 
 26 C       -6.4920    -6.2300    -1.1280 C.ar  1 <1>  -0.1500 
 27 H       -4.1200     1.7550     0.1520 H     1 <1>   0.0800 
 28 H       -4.8700     1.0030    -1.2300 H     1 <1>   0.0800 
 29 H       -3.5340    -1.0230    -2.3530 H     1 <1>   0.0800 
 30 H       -2.0050    -1.4380    -1.6400 H     1 <1>   0.0800 
 31 H       -3.0150     3.3460    -1.5990 H     1 <1>   0.1500 
 32 H       -4.3080    -0.2780     1.4460 H     1 <1>   0.0800 
 33 H       -3.0990    -2.1630     0.4130 H     1 <1>   0.0800 
 34 H       -3.8030    -2.9780    -0.9570 H     1 <1>   0.0800 
 35 H       -0.3710     1.3750     2.0850 H     1 <1>   0.0800 
 36 H        0.5340     2.8670     2.2840 H     1 <1>   0.0800 
 37 H        0.9350     1.7650     0.9770 H     1 <1>   0.0800 
 38 H       -6.9390     0.4900     0.1500 H     1 <1>   0.0800 
 39 H       -6.2010     1.2590     1.5410 H     1 <1>   0.0800 
 40 H       -3.2710     5.9010    -0.8360 H     1 <1>   0.0800 
 41 H       -2.3070     6.4530     0.5050 H     1 <1>   0.0800 
 42 H       -5.1530    -2.6250     1.6850 H     1 <1>   0.0800 
 43 H       -1.2900     6.0820    -2.3320 H     1 <1>   0.0800 
 44 H       -0.3310     6.6330    -0.9790 H     1 <1>   0.0800 
 45 H       -1.6460     7.6210    -1.5760 H     1 <1>   0.0800 
 46 H       -7.5540    -2.4890     2.0110 H     1 <1>   0.0800 
 47 H       -7.7730    -1.7500     0.4440 H     1 <1>   0.0800 
 48 H       -5.3010    -4.9680     1.7570 H     1 <1>   0.1500 
 49 H       -6.7830    -2.9180    -1.6780 H     1 <1>   0.1500 
 50 H       -5.7220    -7.1130     0.6570 H     1 <1>   0.1500 
 51 H       -7.2080    -5.0740    -2.7750 H     1 <1>   0.1500 
 52 H       -6.6760    -7.1750    -1.6090 H     1 <1>   0.1500 
@<TRIPOS>BOND
  1   1   2  2   
  2   2   3  am  
  3   2   4  1   
  4   3   5  1   
  5   3   6  1   
  6   4   7  1   
  7   4   8  2   
  8   5   9  1   
  9   5  27  1   
 10   5  28  1   
 11   6  10  1   
 12   6  29  1   
 13   6  30  1   
 14   7  11  1   
 15   7  12  1   
 16   8  13  1   
 17   8  31  1   
 18   9  14  1   
 19   9  15  1   
 20   9  32  1   
 21  10  14  1   
 22  10  33  1   
 23  10  34  1   
 24  11  13  2   
 25  12  35  1   
 26  12  36  1   
 27  12  37  1   
 28  13  16  1   
 29  14  17  1   
 30  15  18  1   
 31  15  38  1   
 32  15  39  1   
 33  16  19  1   
 34  16  40  1   
 35  16  41  1   
 36  17  20  1   
 37  17  21  1   
 38  17  42  1   
 39  18  21  1   
 40  19  43  1   
 41  19  44  1   
 42  19  45  1   
 43  20  22  ar  
 44  20  23  ar  
 45  21  46  1   
 46  21  47  1   
 47  22  24  ar  
 48  22  48  1   
 49  23  25  ar  
 50  23  49  1   
 51  24  26  ar  
 52  24  50  1   
 53  25  26  ar  
 54  25  51  1   
 55  26  52  1   
@<TRIPOS>SUBSTRUCTURE
  1 ****   5 GROUP 4 **** **** 0

# MOE 2024.06 (io_trps.svl 2023.06)
