@<TRIPOS>MOLECULE
NONAME
56 59 1 0 0 
SMALL
USER_CHARGES


@<TRIPOS>ATOM
  1 S       -0.8280    -1.0750    -2.0840 S.3   1 <1>  -0.0800 
  2 C       -1.9240    -0.7820    -0.7280 C.2   1 <1>   0.0400 
  3 C       -0.5090     0.6350    -2.2900 C.2   1 <1>  -0.1100 
  4 C       -2.5580    -1.8970    -0.0830 C.2   1 <1>   0.4780 
  5 C       -1.9890     0.5570    -0.5070 C.2   1 <1>  -0.1500 
  6 C       -1.1950     1.3540    -1.3840 C.2   1 <1>  -0.1500 
  7 O       -3.3850    -1.6740     0.9240 O.3   1 <1>  -0.2800 
  8 N       -2.4330    -3.1600    -0.3580 N.2   1 <1>  -0.5650 
  9 C       -3.8160    -2.8370     1.3140 C.2   1 <1>  -0.0400 
 10 C       -3.2420    -3.7660     0.5330 C.2   1 <1>   0.0460 
 11 C       -4.7970    -2.9030     2.4660 C.3   1 <1>  -0.0600 
 12 C       -3.4090    -5.2830     0.5670 C.3   1 <1>   0.2910 
 13 N       -4.1620    -5.8140    -0.5960 N.3   1 <1>  -0.8100 
 14 C       -4.3170    -7.2920    -0.5320 C.3   1 <1>   0.3330 
 15 C       -5.4550    -5.1380    -0.7880 C.3   1 <1>   0.1100 
 16 C       -2.9220    -7.9210    -0.5740 C.ar  1 <1>  -0.1430 
 17 C       -5.2150    -7.8390    -1.6860 C.3   1 <1>   0.2000 
 18 C       -6.1840    -5.7170    -2.0040 C.3   1 <1>   0.1200 
 19 C       -2.5310    -8.8250     0.4040 C.ar  1 <1>  -0.1500 
 20 C       -2.0270    -7.5950    -1.5860 C.ar  1 <1>  -0.1500 
 21 O       -6.3940    -7.0840    -1.8210 O.3   1 <1>  -0.5600 
 22 C       -5.6900    -9.2940    -1.5060 C.3   1 <1>   0.1200 
 23 C       -1.2750    -9.4060     0.3700 C.ar  1 <1>   0.0830 
 24 C       -0.7650    -8.1620    -1.6210 C.ar  1 <1>  -0.1500 
 25 O       -4.6520   -10.1940    -1.2920 O.3   1 <1>  -0.6800 
 26 O       -0.9770   -10.3090     1.3340 O.3   1 <1>  -0.3630 
 27 C       -0.3750    -9.0590    -0.6420 C.ar  1 <1>   0.0830 
 28 C       -0.9050   -11.6510     0.9090 C.3   1 <1>   0.0400 
 29 O        0.8810    -9.5620    -0.7160 O.3   1 <1>  -0.3630 
 30 C        1.7590    -9.2130     0.3310 C.3   1 <1>   0.0400 
 31 H        0.1660     0.9230    -3.0770 H     1 <1>   0.1500 
 32 H       -2.5860     1.0110     0.2640 H     1 <1>   0.1500 
 33 H       -1.1750     2.4260    -1.2950 H     1 <1>   0.1500 
 34 H       -5.0800    -3.9190     2.6700 H     1 <1>   0.0800 
 35 H       -5.6790    -2.3380     2.2230 H     1 <1>   0.0800 
 36 H       -4.3480    -2.4820     3.3480 H     1 <1>   0.0800 
 37 H       -3.9110    -5.5660     1.4750 H     1 <1>   0.0800 
 38 H       -2.4230    -5.7140     0.5880 H     1 <1>   0.0800 
 39 H       -4.7930    -7.5510     0.3990 H     1 <1>   0.0800 
 40 H       -6.0720    -5.2490     0.0870 H     1 <1>   0.0800 
 41 H       -5.2940    -4.0880    -0.9630 H     1 <1>   0.0800 
 42 H       -4.6810    -7.7610    -2.6160 H     1 <1>   0.0800 
 43 H       -5.6080    -5.5660    -2.9010 H     1 <1>   0.0800 
 44 H       -7.1450    -5.2490    -2.1220 H     1 <1>   0.0800 
 45 H       -3.2040    -9.1020     1.1960 H     1 <1>   0.1500 
 46 H       -2.3110    -6.8800    -2.3410 H     1 <1>   0.1500 
 47 H       -6.2160    -9.6100    -2.3910 H     1 <1>   0.0800 
 48 H       -6.3540    -9.3640    -0.6620 H     1 <1>   0.0800 
 49 H       -0.0750    -7.9020    -2.4030 H     1 <1>   0.1500 
 50 H       -3.8710    -9.9750    -1.8410 H     1 <1>   0.4000 
 51 H       -0.7260   -12.2690     1.7690 H     1 <1>   0.0800 
 52 H       -0.1000   -11.7570     0.2040 H     1 <1>   0.0800 
 53 H       -1.8410   -11.9190     0.4500 H     1 <1>   0.0800 
 54 H        2.7450    -9.5530     0.0720 H     1 <1>   0.0800 
 55 H        1.4360    -9.6870     1.2400 H     1 <1>   0.0800 
 56 H        1.7550    -8.1430     0.4460 H     1 <1>   0.0800 
@<TRIPOS>BOND
  1   1   2  1   
  2   1   3  1   
  3   2   4  1   
  4   2   5  2   
  5   3   6  2   
  6   3  31  1   
  7   4   7  1   
  8   4   8  2   
  9   5   6  1   
 10   5  32  1   
 11   6  33  1   
 12   7   9  1   
 13   8  10  1   
 14   9  10  2   
 15   9  11  1   
 16  10  12  1   
 17  11  34  1   
 18  11  35  1   
 19  11  36  1   
 20  12  13  1   
 21  12  37  1   
 22  12  38  1   
 23  13  14  1   
 24  13  15  1   
 25  14  16  1   
 26  14  17  1   
 27  14  39  1   
 28  15  18  1   
 29  15  40  1   
 30  15  41  1   
 31  16  19  ar  
 32  16  20  ar  
 33  17  21  1   
 34  17  22  1   
 35  17  42  1   
 36  18  21  1   
 37  18  43  1   
 38  18  44  1   
 39  19  23  ar  
 40  19  45  1   
 41  20  24  ar  
 42  20  46  1   
 43  22  25  1   
 44  22  47  1   
 45  22  48  1   
 46  23  26  1   
 47  23  27  ar  
 48  24  27  ar  
 49  24  49  1   
 50  25  50  1   
 51  26  28  1   
 52  27  29  1   
 53  28  51  1   
 54  28  52  1   
 55  28  53  1   
 56  29  30  1   
 57  30  54  1   
 58  30  55  1   
 59  30  56  1   
@<TRIPOS>SUBSTRUCTURE
  1 ****  12 GROUP 4 **** **** 0

# MOE 2024.06 (io_trps.svl 2023.06)
