@<TRIPOS>MOLECULE
NONAME
47 49 1 0 0 
SMALL
USER_CHARGES


@<TRIPOS>ATOM
  1 O        1.7320    -0.4530     1.7780 O.2   1 <1>  -0.5700 
  2 C        1.8920    -0.6770     0.6010 C.2   1 <1>   0.5690 
  3 N        2.2440     0.2890    -0.2960 N.am  1 <1>  -0.4930 
  4 C        1.7140    -2.0980     0.0890 C.3   1 <1>  -0.0190 
  5 C        2.5020     1.6630    -0.0640 C.2   1 <1>   0.0630 
  6 C        0.3580    -2.6570     0.5350 C.3   1 <1>   0.2090 
  7 C        2.8640    -3.0160     0.5560 C.3   1 <1>  -0.1600 
  8 C        2.4260     2.3930     1.1240 C.2   1 <1>   0.1390 
  9 C        2.8930     2.5640    -0.9890 C.2   1 <1>  -0.3020 
 10 N        0.2040    -4.0440     0.0090 N.pl3 1 <1>  -0.8380 
 11 C        2.6250    -4.4660     0.1010 C.3   1 <1>  -0.1600 
 12 N        2.7450     3.6440     0.9570 N.2   1 <1>  -0.7070 
 13 N        3.0330     3.7500    -0.3560 N.pl3 1 <1>   0.3140 
 14 C       -1.0740    -4.5560    -0.1130 C.ar  1 <1>   0.4100 
 15 C        1.2410    -4.9720     0.5220 C.3   1 <1>   0.2090 
 16 C        3.4530     5.0260    -0.9540 C.3   1 <1>   0.1570 
 17 N       -1.9760    -4.1700     0.7810 N.ar  1 <1>  -0.6200 
 18 C       -1.3560    -5.4480    -1.1450 C.ar  1 <1>  -0.1500 
 19 C        4.9180     5.2720    -0.6740 C.2   1 <1>   0.5690 
 20 C       -3.1850    -4.6890     0.6440 C.ar  1 <1>   0.1600 
 21 C       -2.6170    -5.9810    -1.2760 C.ar  1 <1>  -0.1500 
 22 O        5.6200     5.6410    -1.5850 O.2   1 <1>  -0.5700 
 23 N        5.4010     5.0860     0.5840 N.am  1 <1>  -0.7300 
 24 C       -3.5550    -5.5830    -0.3450 C.ar  1 <1>  -0.1500 
 25 C        6.8060     5.2810     1.0190 C.3   1 <1>   0.0600 
 26 H        2.3570    -0.0070    -1.2640 H     1 <1>   0.3700 
 27 H        1.7080    -2.0770    -0.9850 H     1 <1>   0.0800 
 28 H       -0.4380    -2.0370     0.1570 H     1 <1>   0.0800 
 29 H        0.2910    -2.6710     1.6100 H     1 <1>   0.0800 
 30 H        2.9200    -2.9890     1.6320 H     1 <1>   0.0800 
 31 H        3.8010    -2.6600     0.1660 H     1 <1>   0.0800 
 32 H        2.1360     1.9730     2.0730 H     1 <1>   0.1500 
 33 H        3.0800     2.4340    -2.0380 H     1 <1>   0.1500 
 34 H        3.3790    -5.1060     0.5220 H     1 <1>   0.0800 
 35 H        2.7010    -4.5290    -0.9700 H     1 <1>   0.0800 
 36 H        1.0760    -5.9620     0.1310 H     1 <1>   0.0800 
 37 H        1.1730    -5.0170     1.5960 H     1 <1>   0.0800 
 38 H        2.8700     5.8180    -0.5250 H     1 <1>   0.0800 
 39 H        3.2850     4.9950    -2.0120 H     1 <1>   0.0800 
 40 H       -0.5740    -5.7040    -1.8320 H     1 <1>   0.1500 
 41 H       -3.9240    -4.3840     1.3650 H     1 <1>   0.1500 
 42 H       -2.8610    -6.6720    -2.0630 H     1 <1>   0.1500 
 43 H        4.7560     4.6840     1.2820 H     1 <1>   0.3700 
 44 H       -4.5600    -5.9600    -0.3870 H     1 <1>   0.1500 
 45 H        7.3970     5.6720     0.2080 H     1 <1>   0.0800 
 46 H        7.2220     4.3400     1.3330 H     1 <1>   0.0800 
 47 H        6.8390     5.9760     1.8400 H     1 <1>   0.0800 
@<TRIPOS>BOND
  1   1   2  2   
  2   2   3  am  
  3   2   4  1   
  4   3   5  1   
  5   3  26  1   
  6   4   6  1   
  7   4   7  1   
  8   4  27  1   
  9   5   8  1   
 10   5   9  2   
 11   6  10  1   
 12   6  28  1   
 13   6  29  1   
 14   7  11  1   
 15   7  30  1   
 16   7  31  1   
 17   8  12  2   
 18   8  32  1   
 19   9  13  1   
 20   9  33  1   
 21  10  14  1   
 22  10  15  1   
 23  11  15  1   
 24  11  34  1   
 25  11  35  1   
 26  12  13  1   
 27  13  16  1   
 28  14  17  ar  
 29  14  18  ar  
 30  15  36  1   
 31  15  37  1   
 32  16  19  1   
 33  16  38  1   
 34  16  39  1   
 35  17  20  ar  
 36  18  21  ar  
 37  18  40  1   
 38  19  22  2   
 39  19  23  am  
 40  20  24  ar  
 41  20  41  1   
 42  21  24  ar  
 43  21  42  1   
 44  23  25  1   
 45  23  43  1   
 46  24  44  1   
 47  25  45  1   
 48  25  46  1   
 49  25  47  1   
@<TRIPOS>SUBSTRUCTURE
  1 ****   2 GROUP 4 **** **** 0

# MOE 2024.06 (io_trps.svl 2023.06)
