@<TRIPOS>MOLECULE
NONAME
46 48 1 0 0 
SMALL
USER_CHARGES


@<TRIPOS>ATOM
  1 CL      -3.0250    -0.8470     2.2770 Cl    1 <1>  -0.1770 
  2 C       -2.6370     0.3450     1.0600 C.ar  1 <1>   0.1770 
  3 C       -2.7240     0.0060    -0.2910 C.ar  1 <1>   0.0860 
  4 C       -2.2650     1.6100     1.4860 C.ar  1 <1>  -0.1500 
  5 C       -3.1100    -1.3220    -0.7040 C.2   1 <1>   0.5440 
  6 C       -2.4240     0.9950    -1.2270 C.ar  1 <1>  -0.1500 
  7 C       -1.9700     2.5850     0.5470 C.ar  1 <1>  -0.1500 
  8 O       -2.2690    -2.1960    -0.7580 O.2   1 <1>  -0.5700 
  9 N       -4.4150    -1.6420    -1.0250 N.am  1 <1>  -0.6600 
 10 C       -2.0580     2.2530    -0.7930 C.ar  1 <1>   0.1900 
 11 C       -4.7620    -3.0290    -1.4490 C.3   1 <1>   0.1400 
 12 C       -5.5850    -0.8300    -0.5920 C.3   1 <1>   0.1400 
 13 F       -1.7870     3.1680    -1.6830 F     1 <1>  -0.1900 
 14 C       -5.3750    -3.7500    -0.2360 C.3   1 <1>   0.4230 
 15 C       -6.3080    -1.5610     0.5560 C.3   1 <1>  -0.1600 
 16 N       -5.4280    -5.2630    -0.3530 N.4   1 <1>  -0.9590 
 17 C       -6.6820    -3.0390     0.2430 C.3   1 <1>   0.0000 
 18 C       -6.4160    -5.8940     0.5770 C.3   1 <1>   0.3430 
 19 C       -5.6530    -5.7800    -1.7400 C.3   1 <1>   0.2630 
 20 C       -7.2030    -3.6960     1.5580 C.3   1 <1>  -0.1600 
 21 C       -7.8170    -2.9910    -0.8230 C.3   1 <1>   0.1200 
 22 C       -6.5740    -5.0690     1.8530 C.3   1 <1>  -0.1600 
 23 O       -8.2750    -4.2540    -1.1680 O.3   1 <1>  -0.6800 
 24 H       -2.2080     1.8270     2.5380 H     1 <1>   0.1500 
 25 H       -2.4710     0.7810    -2.2800 H     1 <1>   0.1500 
 26 H       -1.6770     3.5790     0.8410 H     1 <1>   0.1500 
 27 H       -5.4520    -2.9890    -2.2720 H     1 <1>   0.0800 
 28 H       -3.8800    -3.5490    -1.7770 H     1 <1>   0.0800 
 29 H       -5.2740     0.1450    -0.2560 H     1 <1>   0.0800 
 30 H       -6.2450    -0.6850    -1.4300 H     1 <1>   0.0800 
 31 H       -4.6700    -3.5640     0.5580 H     1 <1>   0.0800 
 32 H       -5.6590    -1.5290     1.4130 H     1 <1>   0.0800 
 33 H       -7.1920    -1.0040     0.8190 H     1 <1>   0.0800 
 34 H       -4.4960    -5.5830    -0.0550 H     1 <1>   0.4500 
 35 H       -7.3780    -5.9620     0.0950 H     1 <1>   0.0800 
 36 H       -6.0980    -6.8940     0.8240 H     1 <1>   0.0800 
 37 H       -6.5940    -5.4280    -2.1270 H     1 <1>   0.0800 
 38 H       -5.6680    -6.8580    -1.7380 H     1 <1>   0.0800 
 39 H       -4.8650    -5.4530    -2.3980 H     1 <1>   0.0800 
 40 H       -7.0200    -3.0630     2.4100 H     1 <1>   0.0800 
 41 H       -8.2720    -3.8150     1.5020 H     1 <1>   0.0800 
 42 H       -7.5000    -2.5040    -1.7280 H     1 <1>   0.0800 
 43 H       -8.6580    -2.4450    -0.4290 H     1 <1>   0.0800 
 44 H       -7.2080    -5.6020     2.5400 H     1 <1>   0.0800 
 45 H       -5.6150    -4.9530     2.3280 H     1 <1>   0.0800 
 46 H       -9.1220    -4.1860    -1.6600 H     1 <1>   0.4000 
@<TRIPOS>BOND
  1   1   2  1   
  2   2   3  ar  
  3   2   4  ar  
  4   3   5  1   
  5   3   6  ar  
  6   4   7  ar  
  7   4  24  1   
  8   5   8  2   
  9   5   9  am  
 10   6  10  ar  
 11   6  25  1   
 12   7  10  ar  
 13   7  26  1   
 14   9  11  1   
 15   9  12  1   
 16  10  13  1   
 17  11  14  1   
 18  11  27  1   
 19  11  28  1   
 20  12  15  1   
 21  12  29  1   
 22  12  30  1   
 23  14  16  1   
 24  14  17  1   
 25  14  31  1   
 26  15  17  1   
 27  15  32  1   
 28  15  33  1   
 29  16  18  1   
 30  16  19  1   
 31  16  34  1   
 32  17  20  1   
 33  17  21  1   
 34  18  22  1   
 35  18  35  1   
 36  18  36  1   
 37  19  37  1   
 38  19  38  1   
 39  19  39  1   
 40  20  22  1   
 41  20  40  1   
 42  20  41  1   
 43  21  23  1   
 44  21  42  1   
 45  21  43  1   
 46  22  44  1   
 47  22  45  1   
 48  23  46  1   
@<TRIPOS>SUBSTRUCTURE
  1 ****   9 GROUP 4 **** **** 0

# MOE 2024.06 (io_trps.svl 2023.06)
