@<TRIPOS>MOLECULE
NONAME
46 49 1 0 0 
SMALL
USER_CHARGES


@<TRIPOS>ATOM
  1 O       -0.2640     0.4800     0.2740 O.2   1 <1>  -0.5700 
  2 C       -1.2200     1.0080    -0.2720 C.2   1 <1>   0.7150 
  3 N       -2.3730     0.2550    -0.3810 N.am  1 <1>  -0.6600 
  4 C       -1.1080     2.3580    -0.7670 C.2   1 <1>   0.1020 
  5 C       -3.7030     0.7540    -0.8190 C.3   1 <1>   0.1400 
  6 C       -2.5100    -1.1050     0.1890 C.3   1 <1>   0.1400 
  7 N       -1.8690     2.9380    -1.6710 N.2   1 <1>  -0.3380 
  8 N       -0.1610     3.2160    -0.3400 N.pl3 1 <1>   0.3340 
  9 C       -4.7180    -0.2870    -0.3300 C.3   1 <1>   0.2000 
 10 C       -3.8980    -1.5790    -0.2500 C.3   1 <1>  -0.0800 
 11 N       -1.4440     4.1740    -1.8420 N.2   1 <1>  -0.3380 
 12 C       -0.4230     4.3430    -1.0460 C.2   1 <1>   0.3120 
 13 C        0.8800     3.2170     0.5770 C.2   1 <1>  -0.1810 
 14 O       -5.1580     0.0440     0.9570 O.3   1 <1>  -0.5600 
 15 C       -4.4970    -2.6600     0.6680 C.3   1 <1>   0.0200 
 16 N        0.3020     5.5010    -0.9170 N.2   1 <1>  -0.5760 
 17 C        1.6030     4.3570     0.7160 C.2   1 <1>  -0.1360 
 18 C       -6.2150     0.9510     1.0080 C.3   1 <1>   0.0400 
 19 C       -3.7590    -3.9870     0.5910 C.2   1 <1>  -0.0400 
 20 C        1.2730     5.4950    -0.0680 C.2   1 <1>   0.3750 
 21 O       -4.1120    -4.9470     1.4040 O.3   1 <1>  -0.0190 
 22 C       -2.7570    -4.4490    -0.1740 C.2   1 <1>  -0.1500 
 23 C        2.0980     6.7510     0.1050 C.3   1 <1>  -0.1790 
 24 N       -3.4010    -6.0230     1.2260 N.2   1 <1>  -0.4100 
 25 C       -2.5740    -5.7510     0.2820 C.2   1 <1>   0.1080 
 26 C       -1.5460    -6.7220    -0.2540 C.3   1 <1>  -0.0590 
 27 H       -3.9090     1.7290    -0.4150 H     1 <1>   0.0800 
 28 H       -3.7160     0.8010    -1.8940 H     1 <1>   0.0800 
 29 H       -1.7270    -1.7500    -0.1710 H     1 <1>   0.0800 
 30 H       -2.4540    -1.0380     1.2630 H     1 <1>   0.0800 
 31 H       -5.5670    -0.3850    -0.9850 H     1 <1>   0.0800 
 32 H       -3.8140    -1.9750    -1.2460 H     1 <1>   0.0800 
 33 H        1.0660     2.3150     1.1340 H     1 <1>   0.1500 
 34 H       -5.5240    -2.8290     0.3960 H     1 <1>   0.0800 
 35 H       -4.4840    -2.3200     1.6890 H     1 <1>   0.0800 
 36 H        2.4250     4.4300     1.4060 H     1 <1>   0.1500 
 37 H       -6.4510     1.1280     2.0430 H     1 <1>   0.0800 
 38 H       -7.0710     0.5280     0.5110 H     1 <1>   0.0800 
 39 H       -5.9250     1.8760     0.5430 H     1 <1>   0.0800 
 40 H       -2.2000    -3.9720    -0.9580 H     1 <1>   0.1500 
 41 H        3.1260     6.5490    -0.1340 H     1 <1>   0.0800 
 42 H        2.0290     7.0970     1.1200 H     1 <1>   0.0800 
 43 H        1.7370     7.5250    -0.5490 H     1 <1>   0.0800 
 44 H       -1.7080    -6.8830    -1.3030 H     1 <1>   0.0800 
 45 H       -1.6280    -7.6620     0.2600 H     1 <1>   0.0800 
 46 H       -0.5580    -6.3270    -0.1020 H     1 <1>   0.0800 
@<TRIPOS>BOND
  1   1   2  2   
  2   2   3  am  
  3   2   4  1   
  4   3   5  1   
  5   3   6  1   
  6   4   7  2   
  7   4   8  1   
  8   5   9  1   
  9   5  27  1   
 10   5  28  1   
 11   6  10  1   
 12   6  29  1   
 13   6  30  1   
 14   7  11  1   
 15   8  12  1   
 16   8  13  1   
 17   9  10  1   
 18   9  14  1   
 19   9  31  1   
 20  10  15  1   
 21  10  32  1   
 22  11  12  2   
 23  12  16  1   
 24  13  17  2   
 25  13  33  1   
 26  14  18  1   
 27  15  19  1   
 28  15  34  1   
 29  15  35  1   
 30  16  20  2   
 31  17  20  1   
 32  17  36  1   
 33  18  37  1   
 34  18  38  1   
 35  18  39  1   
 36  19  21  1   
 37  19  22  2   
 38  20  23  1   
 39  21  24  1   
 40  22  25  1   
 41  22  40  1   
 42  23  41  1   
 43  23  42  1   
 44  23  43  1   
 45  24  25  2   
 46  25  26  1   
 47  26  44  1   
 48  26  45  1   
 49  26  46  1   
@<TRIPOS>SUBSTRUCTURE
  1 ****   3 GROUP 4 **** **** 0

# MOE 2024.06 (io_trps.svl 2023.06)
