@<TRIPOS>MOLECULE
NONAME
39 40 1 0 0 
SMALL
USER_CHARGES


@<TRIPOS>ATOM
  1 O       -1.5420     0.0400    -0.5140 O.2   1 <1>  -0.5700 
  2 C       -2.4440     0.8230    -0.3140 C.2   1 <1>   0.6300 
  3 N       -3.4180     0.5530     0.6100 N.am  1 <1>  -0.6600 
  4 C       -2.5040     2.0950    -1.1580 C.3   1 <1>  -0.1000 
  5 C       -3.2920    -0.6420     1.4940 C.3   1 <1>   0.3200 
  6 C       -4.7300     1.2610     0.6750 C.3   1 <1>   0.1400 
  7 C       -1.3100     2.9770    -1.3980 C.3   1 <1>  -0.1950 
  8 C       -2.4180     3.4630    -0.5240 C.3   1 <1>  -0.2000 
  9 C       -3.7960    -1.8830     0.7790 C.2   1 <1>   0.0060 
 10 C       -5.7260     0.6540    -0.3210 C.3   1 <1>   0.1200 
 11 C        0.0710     2.6880    -0.7980 C.3   1 <1>  -0.0650 
 12 N       -4.8330    -2.5780     1.1270 N.2   1 <1>  -0.5650 
 13 N       -3.1720    -2.3540    -0.3210 N.pl3 1 <1>   0.0330 
 14 O       -6.9210     1.3550    -0.2530 O.3   1 <1>  -0.6800 
 15 C        0.9100     3.9680    -0.7230 C.3   1 <1>  -0.1600 
 16 C       -4.8830    -3.5590     0.2030 C.2   1 <1>   0.0770 
 17 C       -3.8770    -3.4370    -0.6900 C.2   1 <1>  -0.3020 
 18 C        2.2930     3.6940    -0.1230 C.3   1 <1>  -0.2400 
 19 H       -3.1760     1.9720    -1.9870 H     1 <1>   0.1000 
 20 H       -2.2620    -0.7850     1.7700 H     1 <1>   0.0800 
 21 H       -3.8560    -0.4960     2.3990 H     1 <1>   0.0800 
 22 H       -5.1290     1.1850     1.6710 H     1 <1>   0.0800 
 23 H       -4.5990     2.3030     0.4480 H     1 <1>   0.0800 
 24 H       -1.2350     3.4040    -2.3840 H     1 <1>   0.1000 
 25 H       -3.0570     4.2470    -0.8910 H     1 <1>   0.1000 
 26 H       -2.2460     3.5330     0.5360 H     1 <1>   0.1000 
 27 H       -5.9280    -0.3800    -0.0990 H     1 <1>   0.0800 
 28 H       -5.3520     0.7420    -1.3260 H     1 <1>   0.0800 
 29 H       -0.0340     2.2710     0.1890 H     1 <1>   0.0800 
 30 H        0.5730     1.9590    -1.4110 H     1 <1>   0.0800 
 31 H       -2.3460    -1.9200    -0.7590 H     1 <1>   0.2700 
 32 H       -7.4500     1.0580     0.5140 H     1 <1>   0.4000 
 33 H        1.0270     4.3800    -1.7110 H     1 <1>   0.0800 
 34 H        0.3980     4.6970    -0.1180 H     1 <1>   0.0800 
 35 H       -5.6530    -4.3120     0.2300 H     1 <1>   0.1500 
 36 H       -3.6310    -4.0420    -1.5440 H     1 <1>   0.1500 
 37 H        2.8300     2.9830    -0.7260 H     1 <1>   0.0800 
 38 H        2.1990     3.3020     0.8750 H     1 <1>   0.0800 
 39 H        2.8620     4.6050    -0.0800 H     1 <1>   0.0800 
@<TRIPOS>BOND
  1   1   2  2   
  2   2   3  am  
  3   2   4  1   
  4   3   5  1   
  5   3   6  1   
  6   4   7  1   
  7   4   8  1   
  8   4  19  1   
  9   5   9  1   
 10   5  20  1   
 11   5  21  1   
 12   6  10  1   
 13   6  22  1   
 14   6  23  1   
 15   7   8  1   
 16   7  11  1   
 17   7  24  1   
 18   8  25  1   
 19   8  26  1   
 20   9  12  2   
 21   9  13  1   
 22  10  14  1   
 23  10  27  1   
 24  10  28  1   
 25  11  15  1   
 26  11  29  1   
 27  11  30  1   
 28  12  16  1   
 29  13  17  1   
 30  13  31  1   
 31  14  32  1   
 32  15  18  1   
 33  15  33  1   
 34  15  34  1   
 35  16  17  2   
 36  16  35  1   
 37  17  36  1   
 38  18  37  1   
 39  18  38  1   
 40  18  39  1   
@<TRIPOS>SUBSTRUCTURE
  1 ****   2 GROUP 4 **** **** 0

# MOE 2024.06 (io_trps.svl 2023.06)
