@<TRIPOS>MOLECULE
NONAME
63 66 1 0 0 
SMALL
USER_CHARGES


@<TRIPOS>ATOM
  1 O       -0.8130     0.5110     1.5600 O.2   1 <1>  -0.5700 
  2 C       -1.3460     1.2940     0.7970 C.2   1 <1>   0.5440 
  3 N       -2.0270     0.7970    -0.2950 N.am  1 <1>  -0.6600 
  4 C       -1.2430     2.7160     1.0600 C.ar  1 <1>   0.0860 
  5 C       -2.3050    -0.6610    -0.4550 C.3   1 <1>   0.1400 
  6 C       -2.4260     1.5980    -1.4900 C.3   1 <1>   0.1400 
  7 C        0.0030     3.3240     1.1990 C.ar  1 <1>  -0.1500 
  8 C       -2.3770     3.5150     1.1990 C.ar  1 <1>  -0.1500 
  9 C       -3.7470    -0.8840    -0.9420 C.3   1 <1>   0.1200 
 10 C       -3.8640     1.2530    -1.9120 C.3   1 <1>   0.1200 
 11 C        0.1470     4.6800     1.4650 C.ar  1 <1>   0.1000 
 12 C       -2.2670     4.8730     1.4370 C.ar  1 <1>  -0.1500 
 13 O       -4.0110    -0.1280    -2.0920 O.3   1 <1>  -0.5600 
 14 N        1.4280     5.2360     1.6590 N.pl3 1 <1>  -0.8380 
 15 C       -1.0190     5.4550     1.5520 C.ar  1 <1>   0.0830 
 16 C        1.4870     6.7220     1.8640 C.3   1 <1>   0.2890 
 17 C        2.3020     4.4730     2.6050 C.3   1 <1>   0.1290 
 18 O       -0.9580     6.7930     1.7480 O.3   1 <1>  -0.3630 
 19 C        0.2270     7.4310     1.3200 C.3   1 <1>   0.1200 
 20 C        2.7500     7.2400     1.1660 C.3   1 <1>  -0.0990 
 21 C        2.8870     8.7380     1.3110 C.2   1 <1>   0.5690 
 22 O        2.7490     9.2160     2.4090 O.2   1 <1>  -0.5700 
 23 N        3.1580     9.4680     0.1880 N.am  1 <1>  -0.4940 
 24 C        3.3560    10.8580    -0.0040 C.2   1 <1>  -0.0880 
 25 N        2.7820    11.8940     0.6740 N.pl3 1 <1>   0.3140 
 26 C        4.1550    11.4200    -0.9440 C.2   1 <1>  -0.1810 
 27 N        3.1890    13.0860     0.1850 N.2   1 <1>  -0.7070 
 28 C        1.7730    11.8640     1.7400 C.3   1 <1>   0.0160 
 29 C        4.0090    12.7940    -0.7730 C.2   1 <1>   0.1080 
 30 C        5.0390    10.7370    -1.9740 C.3   1 <1>  -0.0590 
 31 C        4.7060    13.8730    -1.5840 C.3   1 <1>   0.0210 
 32 C        6.0430    14.2670    -0.9470 C.3   1 <1>  -0.2400 
 33 H       -2.1660    -1.1760     0.4800 H     1 <1>   0.0800 
 34 H       -1.6170    -1.0770    -1.1690 H     1 <1>   0.0800 
 35 H       -1.7600     1.3660    -2.3030 H     1 <1>   0.0800 
 36 H       -2.3500     2.6510    -1.2960 H     1 <1>   0.0800 
 37 H        0.8790     2.7110     1.1010 H     1 <1>   0.1500 
 38 H       -3.3500     3.0620     1.1210 H     1 <1>   0.1500 
 39 H       -4.4490    -0.6040    -0.1760 H     1 <1>   0.0800 
 40 H       -3.8980    -1.9200    -1.1870 H     1 <1>   0.0800 
 41 H       -4.1020     1.7320    -2.8450 H     1 <1>   0.0800 
 42 H       -4.5670     1.5790    -1.1650 H     1 <1>   0.0800 
 43 H       -3.1440     5.4870     1.5340 H     1 <1>   0.1500 
 44 H        1.5520     6.9310     2.9190 H     1 <1>   0.0800 
 45 H        2.8750     3.7460     2.0560 H     1 <1>   0.0800 
 46 H        1.6980     3.9610     3.3350 H     1 <1>   0.0800 
 47 H        2.9810     5.1260     3.1240 H     1 <1>   0.0800 
 48 H        0.2290     7.4200     0.2450 H     1 <1>   0.0800 
 49 H        0.1880     8.4500     1.6610 H     1 <1>   0.0800 
 50 H        2.7120     6.9700     0.1270 H     1 <1>   0.0800 
 51 H        3.6180     6.7880     1.6050 H     1 <1>   0.0800 
 52 H        3.3510     8.9170    -0.6470 H     1 <1>   0.3700 
 53 H        1.0810    11.0660     1.5560 H     1 <1>   0.0800 
 54 H        1.2490    12.8010     1.7560 H     1 <1>   0.0800 
 55 H        2.2670    11.7140     2.6820 H     1 <1>   0.0800 
 56 H        5.0740     9.6770    -1.8070 H     1 <1>   0.0800 
 57 H        6.0400    11.1230    -1.9070 H     1 <1>   0.0800 
 58 H        4.6580    10.9220    -2.9620 H     1 <1>   0.0800 
 59 H        4.0640    14.7350    -1.6300 H     1 <1>   0.0800 
 60 H        4.8650    13.5260    -2.5880 H     1 <1>   0.0800 
 61 H        5.8740    14.6280     0.0520 H     1 <1>   0.0800 
 62 H        6.5150    15.0420    -1.5230 H     1 <1>   0.0800 
 63 H        6.6980    13.4160    -0.8980 H     1 <1>   0.0800 
@<TRIPOS>BOND
  1   1   2  2   
  2   2   3  am  
  3   2   4  1   
  4   3   5  1   
  5   3   6  1   
  6   4   7  ar  
  7   4   8  ar  
  8   5   9  1   
  9   5  33  1   
 10   5  34  1   
 11   6  10  1   
 12   6  35  1   
 13   6  36  1   
 14   7  11  ar  
 15   7  37  1   
 16   8  12  ar  
 17   8  38  1   
 18   9  13  1   
 19   9  39  1   
 20   9  40  1   
 21  10  13  1   
 22  10  41  1   
 23  10  42  1   
 24  11  14  1   
 25  11  15  ar  
 26  12  15  ar  
 27  12  43  1   
 28  14  16  1   
 29  14  17  1   
 30  15  18  1   
 31  16  19  1   
 32  16  20  1   
 33  16  44  1   
 34  17  45  1   
 35  17  46  1   
 36  17  47  1   
 37  18  19  1   
 38  19  48  1   
 39  19  49  1   
 40  20  21  1   
 41  20  50  1   
 42  20  51  1   
 43  21  22  2   
 44  21  23  am  
 45  23  24  1   
 46  23  52  1   
 47  24  25  1   
 48  24  26  2   
 49  25  27  1   
 50  25  28  1   
 51  26  29  1   
 52  26  30  1   
 53  27  29  2   
 54  28  53  1   
 55  28  54  1   
 56  28  55  1   
 57  29  31  1   
 58  30  56  1   
 59  30  57  1   
 60  30  58  1   
 61  31  32  1   
 62  31  59  1   
 63  31  60  1   
 64  32  61  1   
 65  32  62  1   
 66  32  63  1   
@<TRIPOS>SUBSTRUCTURE
  1 ****  19 GROUP 4 **** **** 0

# MOE 2024.06 (io_trps.svl 2023.06)
