@<TRIPOS>MOLECULE
NONAME
54 57 1 0 0 
SMALL
USER_CHARGES


@<TRIPOS>ATOM
  1 O        0.3230    -0.0620    -1.0500 O.2   1 <1>  -0.5700 
  2 C       -0.6380     0.6680    -1.0220 C.2   1 <1>   0.5690 
  3 N       -1.9170     0.1850    -0.9860 N.am  1 <1>  -0.6600 
  4 C       -0.3900     2.1600    -0.9980 C.3   1 <1>  -0.0990 
  5 C       -3.1620     0.9920    -0.8880 C.3   1 <1>   0.1400 
  6 C       -2.2250    -1.2600    -0.8860 C.3   1 <1>   0.1400 
  7 C       -0.2930     2.6590     0.4460 C.3   1 <1>   0.0210 
  8 C       -4.2830    -0.0260    -0.6590 C.3   1 <1>   0.2000 
  9 C       -3.5940    -1.3130    -0.2070 C.3   1 <1>  -0.0800 
 10 C       -0.4630     4.1620     0.4930 C.2   1 <1>   0.1080 
 11 O       -5.1700     0.4010     0.3170 O.3   1 <1>  -0.6800 
 12 C       -4.4090    -2.5720    -0.5450 C.3   1 <1>  -0.0160 
 13 N       -1.6380     4.7080     0.4840 N.2   1 <1>  -0.7070 
 14 C        0.5620     5.1060     0.5380 C.2   1 <1>  -0.1810 
 15 C       -3.6870    -3.8320    -0.1020 C.ar  1 <1>   0.1670 
 16 N       -1.3950     6.0300     0.5300 N.pl3 1 <1>   0.3000 
 17 C       -0.0730     6.2990     0.5630 C.2   1 <1>  -0.3320 
 18 C        2.0500     4.8060     0.5510 C.3   1 <1>  -0.0590 
 19 N       -2.8780    -4.3870    -0.9510 N.ar  1 <1>  -0.6200 
 20 C       -3.9160    -4.3260     1.1920 C.ar  1 <1>  -0.1500 
 21 C        0.4730     7.7170     0.6160 C.3   1 <1>  -0.0600 
 22 C       -2.2180    -5.5060    -0.5570 C.ar  1 <1>   0.3100 
 23 C       -3.2690    -5.4480     1.6140 C.ar  1 <1>  -0.1500 
 24 C       -2.3820    -6.0770     0.7250 C.ar  1 <1>   0.0000 
 25 C       -1.3320    -6.1230    -1.4540 C.ar  1 <1>  -0.1500 
 26 C       -1.6560    -7.2390     1.0550 C.ar  1 <1>  -0.1500 
 27 C       -0.6350    -7.2530    -1.1130 C.ar  1 <1>  -0.1500 
 28 C       -0.8010    -7.8160     0.1560 C.ar  1 <1>  -0.1500 
 29 H        0.5260     2.3770    -1.5160 H     1 <1>   0.0800 
 30 H       -1.1810     2.6710    -1.5140 H     1 <1>   0.0800 
 31 H       -3.0900     1.6820    -0.0660 H     1 <1>   0.0800 
 32 H       -3.3260     1.5290    -1.8060 H     1 <1>   0.0800 
 33 H       -2.2690    -1.6800    -1.8770 H     1 <1>   0.0800 
 34 H       -1.4770    -1.7830    -0.3140 H     1 <1>   0.0800 
 35 H        0.6490     2.3680     0.8730 H     1 <1>   0.0800 
 36 H       -1.0720     2.2190     1.0430 H     1 <1>   0.0800 
 37 H       -4.8310    -0.1760    -1.5740 H     1 <1>   0.0800 
 38 H       -3.4210    -1.2740     0.8540 H     1 <1>   0.0800 
 39 H       -4.6890     0.6170     1.1390 H     1 <1>   0.4000 
 40 H       -4.5820    -2.6230    -1.6050 H     1 <1>   0.0800 
 41 H       -5.3690    -2.5180    -0.0630 H     1 <1>   0.0800 
 42 H       -2.1510     6.7240     0.5390 H     1 <1>   0.2700 
 43 H        2.3050     4.1870    -0.2890 H     1 <1>   0.0800 
 44 H        2.3090     4.2890     1.4580 H     1 <1>   0.0800 
 45 H        2.6270     5.7100     0.4960 H     1 <1>   0.0800 
 46 H       -4.6030    -3.8100     1.8380 H     1 <1>   0.1500 
 47 H        1.5460     7.7130     0.6560 H     1 <1>   0.0800 
 48 H        0.1040     8.2220     1.4910 H     1 <1>   0.0800 
 49 H        0.1680     8.2630    -0.2590 H     1 <1>   0.0800 
 50 H       -3.4190    -5.8570     2.5970 H     1 <1>   0.1500 
 51 H       -1.2180    -5.6740    -2.4230 H     1 <1>   0.1500 
 52 H       -1.7870    -7.6660     2.0330 H     1 <1>   0.1500 
 53 H        0.0410    -7.7150    -1.8110 H     1 <1>   0.1500 
 54 H       -0.2470    -8.7030     0.4110 H     1 <1>   0.1500 
@<TRIPOS>BOND
  1   1   2  2   
  2   2   3  am  
  3   2   4  1   
  4   3   5  1   
  5   3   6  1   
  6   4   7  1   
  7   4  29  1   
  8   4  30  1   
  9   5   8  1   
 10   5  31  1   
 11   5  32  1   
 12   6   9  1   
 13   6  33  1   
 14   6  34  1   
 15   7  10  1   
 16   7  35  1   
 17   7  36  1   
 18   8   9  1   
 19   8  11  1   
 20   8  37  1   
 21   9  12  1   
 22   9  38  1   
 23  10  13  2   
 24  10  14  1   
 25  11  39  1   
 26  12  15  1   
 27  12  40  1   
 28  12  41  1   
 29  13  16  1   
 30  14  17  2   
 31  14  18  1   
 32  15  19  ar  
 33  15  20  ar  
 34  16  17  1   
 35  16  42  1   
 36  17  21  1   
 37  18  43  1   
 38  18  44  1   
 39  18  45  1   
 40  19  22  ar  
 41  20  23  ar  
 42  20  46  1   
 43  21  47  1   
 44  21  48  1   
 45  21  49  1   
 46  22  24  ar  
 47  22  25  ar  
 48  23  24  ar  
 49  23  50  1   
 50  24  26  ar  
 51  25  27  ar  
 52  25  51  1   
 53  26  28  ar  
 54  26  52  1   
 55  27  28  ar  
 56  27  53  1   
 57  28  54  1   
@<TRIPOS>SUBSTRUCTURE
  1 ****   6 GROUP 4 **** **** 0

# MOE 2024.06 (io_trps.svl 2023.06)
