@<TRIPOS>MOLECULE
NONAME
48 49 1 0 0 
SMALL
USER_CHARGES


@<TRIPOS>ATOM
  1 CL      -0.2620    -0.8140    -2.1770 Cl    1 <1>  -0.1770 
  2 C        1.1960    -1.5800    -1.6020 C.ar  1 <1>   0.1770 
  3 C        1.6730    -1.2780    -0.3420 C.ar  1 <1>  -0.1500 
  4 C        1.8540    -2.4800    -2.4150 C.ar  1 <1>  -0.1500 
  5 C        2.8310    -1.8870     0.1110 C.ar  1 <1>  -0.1500 
  6 C        3.0100    -3.0880    -1.9550 C.ar  1 <1>  -0.1500 
  7 C        3.5110    -2.8020    -0.6900 C.ar  1 <1>  -0.1430 
  8 C        4.7910    -3.5330    -0.2530 C.3   1 <1>   0.1250 
  9 C        4.5360    -5.0380    -0.0370 C.2   1 <1>   0.5690 
 10 C        5.6350    -2.8530     0.8670 C.3   1 <1>  -0.0800 
 11 O        5.0860    -5.7800    -0.8210 O.2   1 <1>  -0.5700 
 12 N        3.7450    -5.5640     0.9640 N.am  1 <1>  -0.6600 
 13 C        6.1400    -1.4660     0.4290 C.3   1 <1>  -0.2400 
 14 C        6.8530    -3.7040     1.2640 C.3   1 <1>  -0.2400 
 15 C        3.8120    -7.0240     1.2670 C.3   1 <1>   0.3200 
 16 C        2.8540    -4.7810     1.8780 C.3   1 <1>   0.1400 
 17 C        2.4670    -7.6780     1.0250 C.2   1 <1>  -0.3320 
 18 C        1.4240    -4.6550     1.3320 C.3   1 <1>   0.1200 
 19 N        1.8750    -7.7950    -0.1810 N.pl3 1 <1>   0.0480 
 20 C        1.6290    -8.2460     1.9210 C.2   1 <1>   0.0770 
 21 O        0.6900    -3.8410     2.1840 O.3   1 <1>  -0.6800 
 22 C        0.7040    -8.4200     0.0740 C.2   1 <1>   0.0360 
 23 C        2.3740    -7.3380    -1.4910 C.3   1 <1>   0.0160 
 24 N        0.5180    -8.7050     1.3220 N.2   1 <1>  -0.5650 
 25 H        1.1400    -0.5780     0.2770 H     1 <1>   0.1500 
 26 H        1.4650    -2.6990    -3.3940 H     1 <1>   0.1500 
 27 H        3.1800    -1.6370     1.0960 H     1 <1>   0.1500 
 28 H        3.5210    -3.7910    -2.5920 H     1 <1>   0.1500 
 29 H        5.4310    -3.4920    -1.1180 H     1 <1>   0.0800 
 30 H        5.0380    -2.7240     1.7490 H     1 <1>   0.0800 
 31 H        6.7880    -1.5510    -0.4260 H     1 <1>   0.0800 
 32 H        6.6920    -1.0000     1.2260 H     1 <1>   0.0800 
 33 H        5.3250    -0.8150     0.1680 H     1 <1>   0.0800 
 34 H        7.4720    -3.9060     0.4070 H     1 <1>   0.0800 
 35 H        6.5460    -4.6410     1.6930 H     1 <1>   0.0800 
 36 H        7.4480    -3.1880     1.9990 H     1 <1>   0.0800 
 37 H        4.0970    -7.1540     2.2960 H     1 <1>   0.0800 
 38 H        4.5590    -7.5160     0.6670 H     1 <1>   0.0800 
 39 H        3.2490    -3.7970     2.0230 H     1 <1>   0.0800 
 40 H        2.8200    -5.2640     2.8380 H     1 <1>   0.0800 
 41 H        0.9270    -5.6060     1.2750 H     1 <1>   0.0800 
 42 H        1.4260    -4.1960     0.3600 H     1 <1>   0.0800 
 43 H        1.7660    -8.3490     2.9850 H     1 <1>   0.1500 
 44 H        0.2980    -4.3690     2.9070 H     1 <1>   0.4000 
 45 H        0.0010    -8.6520    -0.7060 H     1 <1>   0.1500 
 46 H        3.3860    -7.6760    -1.6250 H     1 <1>   0.0800 
 47 H        2.3500    -6.2650    -1.5250 H     1 <1>   0.0800 
 48 H        1.7580    -7.7380    -2.2750 H     1 <1>   0.0800 
@<TRIPOS>BOND
  1   1   2  1   
  2   2   3  ar  
  3   2   4  ar  
  4   3   5  ar  
  5   3  25  1   
  6   4   6  ar  
  7   4  26  1   
  8   5   7  ar  
  9   5  27  1   
 10   6   7  ar  
 11   6  28  1   
 12   7   8  1   
 13   8   9  1   
 14   8  10  1   
 15   8  29  1   
 16   9  11  2   
 17   9  12  am  
 18  10  13  1   
 19  10  14  1   
 20  10  30  1   
 21  12  15  1   
 22  12  16  1   
 23  13  31  1   
 24  13  32  1   
 25  13  33  1   
 26  14  34  1   
 27  14  35  1   
 28  14  36  1   
 29  15  17  1   
 30  15  37  1   
 31  15  38  1   
 32  16  18  1   
 33  16  39  1   
 34  16  40  1   
 35  17  19  1   
 36  17  20  2   
 37  18  21  1   
 38  18  41  1   
 39  18  42  1   
 40  19  22  1   
 41  19  23  1   
 42  20  24  1   
 43  20  43  1   
 44  21  44  1   
 45  22  24  2   
 46  22  45  1   
 47  23  46  1   
 48  23  47  1   
 49  23  48  1   
@<TRIPOS>SUBSTRUCTURE
  1 ****  12 GROUP 4 **** **** 0

# MOE 2024.06 (io_trps.svl 2023.06)
