@<TRIPOS>MOLECULE
NONAME
41 41 1 0 0 
SMALL
USER_CHARGES


@<TRIPOS>ATOM
  1 O        0.0410     0.2100    -1.2100 O.2   1 <1>  -0.5700 
  2 C        0.8570    -0.4070    -0.5590 C.2   1 <1>   0.5690 
  3 N        1.8380     0.1990     0.1790 N.am  1 <1>  -0.4940 
  4 C        0.8200    -1.9610    -0.5440 C.3   1 <1>   0.3410 
  5 C        2.2460     1.5440     0.3580 C.2   1 <1>  -0.0880 
  6 O        1.9110    -2.4170     0.2420 O.3   1 <1>  -0.5600 
  7 C       -0.4960    -2.4450     0.0890 C.3   1 <1>  -0.2400 
  8 C        0.9720    -2.5040    -1.9770 C.3   1 <1>  -0.2400 
  9 N        1.4830     2.6720     0.2920 N.pl3 1 <1>   0.3140 
 10 C        3.5010     1.9550     0.6600 C.2   1 <1>  -0.1810 
 11 C        2.1200    -3.7840     0.4370 C.3   1 <1>   0.1200 
 12 N        2.2180     3.7790     0.5420 N.2   1 <1>  -0.7070 
 13 C        0.0350     2.8000     0.0860 C.3   1 <1>   0.0160 
 14 C        3.4180     3.3410     0.7570 C.2   1 <1>   0.1080 
 15 C        4.7490     1.1090     0.8530 C.3   1 <1>  -0.0590 
 16 C        3.3600    -3.9260     1.3100 C.3   1 <1>  -0.2400 
 17 C        4.5670     4.2800     1.0780 C.3   1 <1>   0.0210 
 18 C        4.7050     4.4900     2.5890 C.3   1 <1>  -0.2400 
 19 H        2.4510    -0.5020     0.6080 H     1 <1>   0.3700 
 20 H       -0.5380    -2.1490     1.1220 H     1 <1>   0.0800 
 21 H       -0.6090    -3.5090     0.0100 H     1 <1>   0.0800 
 22 H       -1.3280    -1.9930    -0.4220 H     1 <1>   0.0800 
 23 H        1.9380    -2.2430    -2.3680 H     1 <1>   0.0800 
 24 H        0.2250    -2.0600    -2.6100 H     1 <1>   0.0800 
 25 H        0.8360    -3.5680    -2.0160 H     1 <1>   0.0800 
 26 H        2.2810    -4.2660    -0.5110 H     1 <1>   0.0800 
 27 H        1.2680    -4.2130     0.9350 H     1 <1>   0.0800 
 28 H       -0.4680     2.0050     0.6020 H     1 <1>   0.0800 
 29 H       -0.1730     2.7460    -0.9650 H     1 <1>   0.0800 
 30 H       -0.2940     3.7460     0.4710 H     1 <1>   0.0800 
 31 H        4.5290     0.0660     0.7200 H     1 <1>   0.0800 
 32 H        5.1390     1.2560     1.8430 H     1 <1>   0.0800 
 33 H        5.4960     1.3950     0.1350 H     1 <1>   0.0800 
 34 H        4.2110    -3.4930     0.8180 H     1 <1>   0.0800 
 35 H        3.5600    -4.9670     1.4900 H     1 <1>   0.0800 
 36 H        3.2040    -3.4390     2.2570 H     1 <1>   0.0800 
 37 H        4.3800     5.2260     0.6000 H     1 <1>   0.0800 
 38 H        5.4810     3.8830     0.6760 H     1 <1>   0.0800 
 39 H        3.7910     4.9020     2.9810 H     1 <1>   0.0800 
 40 H        5.5110     5.1680     2.7990 H     1 <1>   0.0800 
 41 H        4.8960     3.5520     3.0790 H     1 <1>   0.0800 
@<TRIPOS>BOND
  1   1   2  2   
  2   2   3  am  
  3   2   4  1   
  4   3   5  1   
  5   3  19  1   
  6   4   6  1   
  7   4   7  1   
  8   4   8  1   
  9   5   9  1   
 10   5  10  2   
 11   6  11  1   
 12   7  20  1   
 13   7  21  1   
 14   7  22  1   
 15   8  23  1   
 16   8  24  1   
 17   8  25  1   
 18   9  12  1   
 19   9  13  1   
 20  10  14  1   
 21  10  15  1   
 22  11  16  1   
 23  11  26  1   
 24  11  27  1   
 25  12  14  2   
 26  13  28  1   
 27  13  29  1   
 28  13  30  1   
 29  14  17  1   
 30  15  31  1   
 31  15  32  1   
 32  15  33  1   
 33  16  34  1   
 34  16  35  1   
 35  16  36  1   
 36  17  18  1   
 37  17  37  1   
 38  17  38  1   
 39  18  39  1   
 40  18  40  1   
 41  18  41  1   
@<TRIPOS>SUBSTRUCTURE
  1 ****   3 GROUP 4 **** **** 0

# MOE 2024.06 (io_trps.svl 2023.06)
