@<TRIPOS>MOLECULE
NONAME
48 50 1 0 0 
SMALL
USER_CHARGES


@<TRIPOS>ATOM
  1 S        0.1230     0.0010     0.1980 S.o2  1 <1>   1.3330 
  2 O       -0.4090     1.3450     0.1910 O.2   1 <1>  -0.6500 
  3 O        0.0310    -0.8020     1.3960 O.2   1 <1>  -0.6500 
  4 N       -0.5750    -0.8670    -1.0820 N.am  1 <1>  -0.8490 
  5 C        1.8420     0.1160    -0.2960 C.3   1 <1>  -0.0550 
  6 C       -1.9740    -0.4940    -1.3110 C.3   1 <1>   0.1160 
  7 C       -0.4660    -2.3220    -0.9270 C.3   1 <1>   0.1160 
  8 C        2.6660     1.0170     0.6420 C.3   1 <1>  -0.0800 
  9 C        4.0710     1.2700     0.1060 C.3   1 <1>   0.2200 
 10 C        2.9130     0.3660     2.0140 C.3   1 <1>   0.1200 
 11 N        4.4600     2.6490     0.4820 N.am  1 <1>  -0.7300 
 12 C        4.8990     0.2880     0.9210 C.3   1 <1>   0.1200 
 13 O        4.2970     0.3060     2.1730 O.3   1 <1>  -0.5600 
 14 C        4.7160     3.6670    -0.3930 C.2   1 <1>   0.7030 
 15 O        4.7720     3.4180    -1.5800 O.2   1 <1>  -0.5700 
 16 C        4.9140     5.0350     0.0570 C.2   1 <1>   0.2770 
 17 N        5.3480     6.0800    -0.7420 N.pl3 1 <1>  -0.7000 
 18 C        4.7110     5.5730     1.2840 C.2   1 <1>   0.2000 
 19 C        5.4010     7.2050    -0.0190 C.cat 1 <1>   0.7910 
 20 N        5.0110     6.9160     1.2460 N.pl3 1 <1>  -0.6290 
 21 C        5.7730     8.5170    -0.3850 C.2   1 <1>  -0.1290 
 22 C        4.9660     7.9050     2.2050 C.2   1 <1>   0.2290 
 23 C        5.7310     9.5010     0.5680 C.2   1 <1>  -0.1500 
 24 C        6.2100     8.8280    -1.8130 C.3   1 <1>  -0.1020 
 25 C        5.3200     9.1810     1.8790 C.2   1 <1>  -0.1500 
 26 H        2.2750    -0.8650    -0.3380 H     1 <1>   0.0800 
 27 H        1.8750     0.5320    -1.2850 H     1 <1>   0.0800 
 28 H       -2.3790    -1.0510    -2.1390 H     1 <1>   0.0800 
 29 H       -2.0430     0.5550    -1.5480 H     1 <1>   0.0800 
 30 H       -2.5630    -0.6880    -0.4300 H     1 <1>   0.0800 
 31 H       -0.8420    -2.8170    -1.8070 H     1 <1>   0.0800 
 32 H       -1.0300    -2.6530    -0.0710 H     1 <1>   0.0800 
 33 H        0.5640    -2.6060    -0.7920 H     1 <1>   0.0800 
 34 H        2.1330     1.9450     0.7640 H     1 <1>   0.0800 
 35 H        4.1680     1.1090    -0.9560 H     1 <1>   0.0800 
 36 H        2.5300    -0.6400     2.0690 H     1 <1>   0.0800 
 37 H        2.5000     0.9480     2.8200 H     1 <1>   0.0800 
 38 H        4.5630     2.7480     1.4950 H     1 <1>   0.3700 
 39 H        5.9320     0.5750     1.0060 H     1 <1>   0.0800 
 40 H        4.8230    -0.7100     0.5250 H     1 <1>   0.0800 
 41 H        5.5670     5.9840    -1.7380 H     1 <1>   0.4500 
 42 H        4.3630     5.0830     2.1790 H     1 <1>   0.1500 
 43 H        4.6470     7.6380     3.2010 H     1 <1>   0.1500 
 44 H        6.0040    10.5210     0.3470 H     1 <1>   0.1500 
 45 H        7.0800     8.2500    -2.0730 H     1 <1>   0.0800 
 46 H        6.4590     9.8700    -1.9190 H     1 <1>   0.0800 
 47 H        5.4190     8.6020    -2.5060 H     1 <1>   0.0800 
 48 H        5.2920     9.9660     2.6160 H     1 <1>   0.1500 
@<TRIPOS>BOND
  1   1   2  2   
  2   1   3  2   
  3   1   4  am  
  4   1   5  1   
  5   4   6  1   
  6   4   7  1   
  7   5   8  1   
  8   5  26  1   
  9   5  27  1   
 10   6  28  1   
 11   6  29  1   
 12   6  30  1   
 13   7  31  1   
 14   7  32  1   
 15   7  33  1   
 16   8   9  1   
 17   8  10  1   
 18   8  34  1   
 19   9  11  1   
 20   9  12  1   
 21   9  35  1   
 22  10  13  1   
 23  10  36  1   
 24  10  37  1   
 25  11  14  am  
 26  11  38  1   
 27  12  13  1   
 28  12  39  1   
 29  12  40  1   
 30  14  15  2   
 31  14  16  1   
 32  16  17  1   
 33  16  18  2   
 34  17  19  ar  
 35  17  41  1   
 36  18  20  1   
 37  18  42  1   
 38  19  20  ar  
 39  19  21  1   
 40  20  22  1   
 41  21  23  2   
 42  21  24  1   
 43  22  25  2   
 44  22  43  1   
 45  23  25  1   
 46  23  44  1   
 47  24  45  1   
 48  24  46  1   
 49  24  47  1   
 50  25  48  1   
@<TRIPOS>SUBSTRUCTURE
  1 ****  11 GROUP 4 **** **** 0

# MOE 2024.06 (io_trps.svl 2023.06)
