@<TRIPOS>MOLECULE
NONAME
53 56 1 0 0 
SMALL
USER_CHARGES


@<TRIPOS>ATOM
  1 O       -0.4890     0.2560     0.8480 O.3   1 <1>  -0.6800 
  2 C        0.4710    -0.5110     0.2000 C.3   1 <1>   0.2000 
  3 C        0.6240    -1.8140     0.9910 C.3   1 <1>  -0.0800 
  4 C        1.8100     0.2240     0.3410 C.3   1 <1>   0.3430 
  5 C        1.6420    -1.4260     2.0650 C.3   1 <1>   0.3430 
  6 C        1.0460    -3.0290     0.1200 C.3   1 <1>  -0.0170 
  7 N        2.5960    -0.5150     1.3810 N.4   1 <1>  -0.9590 
  8 C        2.5440    -3.2000    -0.1230 C.ar  1 <1>   0.1670 
  9 C        3.4210     0.3390     2.2720 C.3   1 <1>   0.4860 
 10 N        3.1630    -2.2700    -0.7850 N.ar  1 <1>  -0.6200 
 11 C        3.1870    -4.3420     0.3840 C.ar  1 <1>  -0.1500 
 12 C        4.3750     1.1590     1.4340 C.ar  1 <1>  -0.1440 
 13 C        4.4970    -2.4200    -1.0080 C.ar  1 <1>   0.3100 
 14 C        4.5260    -4.5070     0.1960 C.ar  1 <1>  -0.1500 
 15 C        4.1300     2.4860     1.1640 C.ar  1 <1>   0.1600 
 16 C        5.5240     0.6180     0.9000 C.ar  1 <1>   0.1600 
 17 C        5.2280    -3.5210    -0.5140 C.ar  1 <1>   0.0000 
 18 C        5.1830    -1.4260    -1.7230 C.ar  1 <1>  -0.1500 
 19 N        4.9260     3.2040     0.4150 N.ar  1 <1>  -0.6200 
 20 N        6.3390     1.3170     0.1530 N.ar  1 <1>  -0.6200 
 21 C        6.6170    -3.5800    -0.7450 C.ar  1 <1>  -0.1500 
 22 C        6.5350    -1.4990    -1.9300 C.ar  1 <1>  -0.1500 
 23 C        5.9930     2.5810    -0.0600 C.ar  1 <1>   0.7200 
 24 C        7.2580    -2.5890    -1.4350 C.ar  1 <1>  -0.1500 
 25 N        6.7900     3.3440    -0.8370 N.pl3 1 <1>  -0.8690 
 26 C        8.2040     3.0470    -1.1100 C.3   1 <1>   0.2090 
 27 C        8.7470     4.1180    -2.0470 C.3   1 <1>  -0.2400 
 28 H       -1.3960    -0.0170     0.5920 H     1 <1>   0.4000 
 29 H        0.1770    -0.6380    -0.8280 H     1 <1>   0.0800 
 30 H       -0.3120    -2.0710     1.4560 H     1 <1>   0.0800 
 31 H        1.6320     1.2470     0.6300 H     1 <1>   0.0800 
 32 H        2.3440     0.2040    -0.5950 H     1 <1>   0.0800 
 33 H        2.1390    -2.2890     2.4780 H     1 <1>   0.0800 
 34 H        1.1330    -0.8900     2.8510 H     1 <1>   0.0800 
 35 H        0.5520    -2.9800    -0.8350 H     1 <1>   0.0800 
 36 H        0.6790    -3.9200     0.5980 H     1 <1>   0.0800 
 37 H        3.2180    -1.1260     0.8150 H     1 <1>   0.4500 
 38 H        2.7840     0.9930     2.8450 H     1 <1>   0.0800 
 39 H        3.9810    -0.2760     2.9570 H     1 <1>   0.0800 
 40 H        2.6210    -5.0870     0.9150 H     1 <1>   0.1500 
 41 H        5.0520    -5.3700     0.5690 H     1 <1>   0.1500 
 42 H        3.2590     2.9790     1.5640 H     1 <1>   0.1500 
 43 H        5.7860    -0.4120     1.0790 H     1 <1>   0.1500 
 44 H        4.6230    -0.5940    -2.1070 H     1 <1>   0.1500 
 45 H        7.1690    -4.4230    -0.3680 H     1 <1>   0.1500 
 46 H        7.0520    -0.7230    -2.4700 H     1 <1>   0.1500 
 47 H        8.3210    -2.6320    -1.6090 H     1 <1>   0.1500 
 48 H        6.5350     4.3300    -0.8150 H     1 <1>   0.4000 
 49 H        8.7570     3.0410    -0.1850 H     1 <1>   0.0800 
 50 H        8.2860     2.0750    -1.5690 H     1 <1>   0.0800 
 51 H        8.6890     5.0860    -1.5840 H     1 <1>   0.0800 
 52 H        8.1890     4.1220    -2.9660 H     1 <1>   0.0800 
 53 H        9.7770     3.9090    -2.2740 H     1 <1>   0.0800 
@<TRIPOS>BOND
  1   1   2  1   
  2   1  28  1   
  3   2   3  1   
  4   2   4  1   
  5   2  29  1   
  6   3   5  1   
  7   3   6  1   
  8   3  30  1   
  9   4   7  1   
 10   4  31  1   
 11   4  32  1   
 12   5   7  1   
 13   5  33  1   
 14   5  34  1   
 15   6   8  1   
 16   6  35  1   
 17   6  36  1   
 18   7   9  1   
 19   7  37  1   
 20   8  10  ar  
 21   8  11  ar  
 22   9  12  1   
 23   9  38  1   
 24   9  39  1   
 25  10  13  ar  
 26  11  14  ar  
 27  11  40  1   
 28  12  15  ar  
 29  12  16  ar  
 30  13  17  ar  
 31  13  18  ar  
 32  14  17  ar  
 33  14  41  1   
 34  15  19  ar  
 35  15  42  1   
 36  16  20  ar  
 37  16  43  1   
 38  17  21  ar  
 39  18  22  ar  
 40  18  44  1   
 41  19  23  ar  
 42  20  23  ar  
 43  21  24  ar  
 44  21  45  1   
 45  22  24  ar  
 46  22  46  1   
 47  23  25  1   
 48  24  47  1   
 49  25  26  1   
 50  25  48  1   
 51  26  27  1   
 52  26  49  1   
 53  26  50  1   
 54  27  51  1   
 55  27  52  1   
 56  27  53  1   
@<TRIPOS>SUBSTRUCTURE
  1 ****  16 GROUP 4 **** **** 0

# MOE 2024.06 (io_trps.svl 2023.06)
