@<TRIPOS>MOLECULE
NONAME
47 49 1 0 0 
SMALL
USER_CHARGES


@<TRIPOS>ATOM
  1 S        0.6190     0.2950     0.9190 S.o2  1 <1>   1.3330 
  2 O        1.3660    -0.2970     2.0060 O.2   1 <1>  -0.6500 
  3 O       -0.2030     1.4560     1.1690 O.2   1 <1>  -0.6500 
  4 N       -0.3630    -0.9170     0.2470 N.am  1 <1>  -0.8490 
  5 C        1.7230     0.6970    -0.4370 C.3   1 <1>  -0.0550 
  6 C       -1.7040    -0.9360     0.8380 C.3   1 <1>   0.1160 
  7 C        0.2330    -2.2560     0.3220 C.3   1 <1>   0.1160 
  8 C        2.6970     1.8510    -0.1250 C.3   1 <1>  -0.0800 
  9 C        3.4350     2.2950    -1.3770 C.3   1 <1>   0.2200 
 10 C        3.8570     1.3930     0.7610 C.3   1 <1>   0.1200 
 11 N        3.9190     3.6810    -1.1940 N.am  1 <1>  -0.7300 
 12 C        4.6200     1.3320    -1.4160 C.3   1 <1>   0.1200 
 13 O        4.8310     0.8940    -0.1040 O.3   1 <1>  -0.5600 
 14 C        3.5730     4.7680    -1.9400 C.2   1 <1>   0.7160 
 15 O        2.7670     4.6270    -2.8410 O.2   1 <1>  -0.5700 
 16 C        4.1710     6.0640    -1.6480 C.2   1 <1>   0.1410 
 17 N        5.1190     6.1930    -0.6220 N.2   1 <1>  -0.5650 
 18 C        3.8940     7.2120    -2.2990 C.2   1 <1>  -0.1100 
 19 C        5.5580     7.3950    -0.4810 C.2   1 <1>   0.3250 
 20 S        4.8260     8.5060    -1.6330 S.3   1 <1>  -0.0800 
 21 C        6.5360     7.8900     0.4680 C.ar  1 <1>   0.0530 
 22 C        7.2320     6.9930     1.2820 C.ar  1 <1>  -0.1500 
 23 C        6.8360     9.2470     0.6260 C.ar  1 <1>  -0.1500 
 24 C        8.1730     7.4180     2.2000 C.ar  1 <1>  -0.1500 
 25 C        7.7770     9.6800     1.5430 C.ar  1 <1>  -0.1500 
 26 C        8.4490     8.7660     2.3330 C.ar  1 <1>  -0.1500 
 27 H        2.2780    -0.1770    -0.7170 H     1 <1>   0.0800 
 28 H        1.1170     0.9810    -1.2760 H     1 <1>   0.0800 
 29 H       -2.3040    -1.7040     0.3810 H     1 <1>   0.0800 
 30 H       -2.1920     0.0110     0.6770 H     1 <1>   0.0800 
 31 H       -1.6440    -1.1160     1.8990 H     1 <1>   0.0800 
 32 H       -0.3860    -2.9650    -0.1990 H     1 <1>   0.0800 
 33 H        0.3340    -2.5670     1.3490 H     1 <1>   0.0800 
 34 H        1.2080    -2.2560    -0.1350 H     1 <1>   0.0800 
 35 H        2.1520     2.6660     0.3200 H     1 <1>   0.0800 
 36 H        2.8340     2.2260    -2.2690 H     1 <1>   0.0800 
 37 H        3.5920     0.6280     1.4700 H     1 <1>   0.0800 
 38 H        4.2860     2.2290     1.2870 H     1 <1>   0.0800 
 39 H        4.6220     3.8340    -0.4660 H     1 <1>   0.3700 
 40 H        5.5170     1.7970    -1.7870 H     1 <1>   0.0800 
 41 H        4.3870     0.4670    -2.0110 H     1 <1>   0.0800 
 42 H        3.2260     7.4230    -3.1150 H     1 <1>   0.1500 
 43 H        7.0300     5.9400     1.1920 H     1 <1>   0.1500 
 44 H        6.3320     9.9880     0.0330 H     1 <1>   0.1500 
 45 H        8.6930     6.7010     2.8120 H     1 <1>   0.1500 
 46 H        7.9880    10.7310     1.6430 H     1 <1>   0.1500 
 47 H        9.1820     9.1020     3.0460 H     1 <1>   0.1500 
@<TRIPOS>BOND
  1   1   2  2   
  2   1   3  2   
  3   1   4  am  
  4   1   5  1   
  5   4   6  1   
  6   4   7  1   
  7   5   8  1   
  8   5  27  1   
  9   5  28  1   
 10   6  29  1   
 11   6  30  1   
 12   6  31  1   
 13   7  32  1   
 14   7  33  1   
 15   7  34  1   
 16   8   9  1   
 17   8  10  1   
 18   8  35  1   
 19   9  11  1   
 20   9  12  1   
 21   9  36  1   
 22  10  13  1   
 23  10  37  1   
 24  10  38  1   
 25  11  14  am  
 26  11  39  1   
 27  12  13  1   
 28  12  40  1   
 29  12  41  1   
 30  14  15  2   
 31  14  16  1   
 32  16  17  1   
 33  16  18  2   
 34  17  19  2   
 35  18  20  1   
 36  18  42  1   
 37  19  20  1   
 38  19  21  1   
 39  21  22  ar  
 40  21  23  ar  
 41  22  24  ar  
 42  22  43  1   
 43  23  25  ar  
 44  23  44  1   
 45  24  26  ar  
 46  24  45  1   
 47  25  26  ar  
 48  25  46  1   
 49  26  47  1   
@<TRIPOS>SUBSTRUCTURE
  1 ****  11 GROUP 4 **** **** 0

# MOE 2024.06 (io_trps.svl 2023.06)
