@<TRIPOS>MOLECULE
NONAME
47 50 1 0 0 
SMALL
USER_CHARGES


@<TRIPOS>ATOM
  1 O        1.1960    -0.6390     0.9560 O.3   1 <1>  -0.5600 
  2 C        2.0790    -1.2650     0.0530 C.3   1 <1>   0.4240 
  3 C       -0.1700    -0.7840     0.7270 C.3   1 <1>   0.1200 
  4 C        1.5630    -2.6590    -0.3720 C.ar  1 <1>  -0.1440 
  5 C        2.2580    -0.3440    -1.1650 C.3   1 <1>  -0.1600 
  6 C        3.4060    -1.3960     0.8150 C.3   1 <1>  -0.1600 
  7 C       -0.5480    -2.2480     0.9250 C.3   1 <1>  -0.0160 
  8 C        0.3200    -3.1260     0.0450 C.ar  1 <1>  -0.1440 
  9 C        2.3350    -3.4750    -1.1920 C.ar  1 <1>  -0.1500 
 10 C        2.8580     1.0050    -0.7730 C.3   1 <1>   0.2090 
 11 C        3.9800    -0.0280     1.1810 C.3   1 <1>   0.2090 
 12 C       -0.1310    -4.3790    -0.3380 C.ar  1 <1>  -0.1500 
 13 C        1.8850    -4.7250    -1.5770 C.ar  1 <1>  -0.1500 
 14 N        4.1410     0.7710    -0.0600 N.pl3 1 <1>  -0.8380 
 15 C        0.6530    -5.1880    -1.1530 C.ar  1 <1>   0.0820 
 16 C        5.1630     1.6920    -0.1530 C.ar  1 <1>   0.4100 
 17 O        0.2860    -6.4250    -1.5730 O.3   1 <1>  -0.3630 
 18 N        4.8530     2.9460    -0.4200 N.ar  1 <1>  -0.6200 
 19 C        6.4800     1.3160     0.0300 C.ar  1 <1>  -0.1500 
 20 C       -0.9400    -6.9990    -1.1800 C.3   1 <1>   0.0400 
 21 C        5.8620     3.7920    -0.4850 C.ar  1 <1>   0.4770 
 22 C        7.4430     2.2810    -0.0640 C.ar  1 <1>   0.1600 
 23 N        7.1490     3.5400    -0.3210 N.ar  1 <1>  -0.6200 
 24 C        5.5090     5.2280    -0.7860 C.3   1 <1>  -0.0970 
 25 H       -0.4010    -0.4540    -0.2700 H     1 <1>   0.0800 
 26 H       -0.6900    -0.1610     1.4340 H     1 <1>   0.0800 
 27 H        1.3200    -0.1990    -1.6640 H     1 <1>   0.0800 
 28 H        2.9220    -0.8060    -1.8710 H     1 <1>   0.0800 
 29 H        4.1310    -1.9110     0.2150 H     1 <1>   0.0800 
 30 H        3.2450    -1.9760     1.7040 H     1 <1>   0.0800 
 31 H       -1.5850    -2.3820     0.6780 H     1 <1>   0.0800 
 32 H       -0.4070    -2.5170     1.9560 H     1 <1>   0.0800 
 33 H        3.2970    -3.1450    -1.5420 H     1 <1>   0.1500 
 34 H        2.1850     1.5460    -0.1290 H     1 <1>   0.0800 
 35 H        3.0310     1.5940    -1.6580 H     1 <1>   0.0800 
 36 H        4.9250    -0.1480     1.6800 H     1 <1>   0.0800 
 37 H        3.3110     0.4880     1.8500 H     1 <1>   0.0800 
 38 H       -1.0910    -4.7130     0.0050 H     1 <1>   0.1500 
 39 H        2.4880    -5.3500    -2.2100 H     1 <1>   0.1500 
 40 H        6.7240     0.2930     0.2300 H     1 <1>   0.1500 
 41 H       -1.0080    -7.9770    -1.6220 H     1 <1>   0.0800 
 42 H       -1.7450    -6.3810    -1.5350 H     1 <1>   0.0800 
 43 H       -0.9590    -7.0810    -0.1070 H     1 <1>   0.0800 
 44 H        8.4800     2.0270     0.0720 H     1 <1>   0.1500 
 45 H        4.4510     5.3850    -0.6870 H     1 <1>   0.0800 
 46 H        5.8080     5.4630    -1.7900 H     1 <1>   0.0800 
 47 H        6.0240     5.8770    -0.1030 H     1 <1>   0.0800 
@<TRIPOS>BOND
  1   1   2  1   
  2   1   3  1   
  3   2   4  1   
  4   2   5  1   
  5   2   6  1   
  6   3   7  1   
  7   3  25  1   
  8   3  26  1   
  9   4   8  ar  
 10   4   9  ar  
 11   5  10  1   
 12   5  27  1   
 13   5  28  1   
 14   6  11  1   
 15   6  29  1   
 16   6  30  1   
 17   7   8  1   
 18   7  31  1   
 19   7  32  1   
 20   8  12  ar  
 21   9  13  ar  
 22   9  33  1   
 23  10  14  1   
 24  10  34  1   
 25  10  35  1   
 26  11  14  1   
 27  11  36  1   
 28  11  37  1   
 29  12  15  ar  
 30  12  38  1   
 31  13  15  ar  
 32  13  39  1   
 33  14  16  1   
 34  15  17  1   
 35  16  18  ar  
 36  16  19  ar  
 37  17  20  1   
 38  18  21  ar  
 39  19  22  ar  
 40  19  40  1   
 41  20  41  1   
 42  20  42  1   
 43  20  43  1   
 44  21  23  ar  
 45  21  24  1   
 46  22  23  ar  
 47  22  44  1   
 48  24  45  1   
 49  24  46  1   
 50  24  47  1   
@<TRIPOS>SUBSTRUCTURE
  1 ****   2 GROUP 4 **** **** 0

# MOE 2024.06 (io_trps.svl 2023.06)
