@<TRIPOS>MOLECULE
NONAME
46 48 1 0 0 
SMALL
USER_CHARGES


@<TRIPOS>ATOM
  1 O       -2.0230     0.9650    -1.5190 O.2   1 <1>  -0.5700 
  2 C       -1.7250     0.7100    -0.3790 C.2   1 <1>   0.5690 
  3 N       -1.6740    -0.5640     0.0760 N.am  1 <1>  -0.7300 
  4 C       -1.4080     1.8380     0.5730 C.3   1 <1>  -0.0990 
  5 C       -1.9220    -1.7710    -0.7480 C.3   1 <1>   0.2200 
  6 C       -0.3410     2.7520    -0.0230 C.3   1 <1>   0.1200 
  7 C       -3.2780    -2.3890    -0.4330 C.3   1 <1>  -0.0800 
  8 C       -0.9960    -2.8820    -0.2750 C.3   1 <1>   0.1200 
  9 O       -0.0090     3.7260     0.9400 O.3   1 <1>  -0.3630 
 10 C       -2.9850    -3.2650     0.7910 C.3   1 <1>   0.1200 
 11 C       -4.4420    -1.3980    -0.2410 C.3   1 <1>  -0.0160 
 12 O       -1.5940    -3.3770     0.8840 O.3   1 <1>  -0.5600 
 13 C        0.9270     4.6750     0.6850 C.ar  1 <1>   0.0820 
 14 C       -5.7540    -2.1380    -0.0310 C.ar  1 <1>  -0.1440 
 15 C        1.6030     4.7910    -0.5280 C.ar  1 <1>  -0.1500 
 16 C        1.2070     5.5670     1.7080 C.ar  1 <1>  -0.1500 
 17 C       -6.2880    -2.3440     1.2250 C.ar  1 <1>  -0.1500 
 18 C       -6.4780    -2.6440    -1.0910 C.ar  1 <1>  -0.1500 
 19 C        2.5460     5.7900    -0.7020 C.ar  1 <1>  -0.1500 
 20 C        2.1500     6.5650     1.5320 C.ar  1 <1>  -0.1500 
 21 C       -7.4830    -3.0320     1.3570 C.ar  1 <1>   0.1600 
 22 C       -7.6650    -3.3180    -0.8510 C.ar  1 <1>   0.1600 
 23 C        2.8200     6.6760     0.3260 C.ar  1 <1>  -0.1500 
 24 N       -8.1830    -3.5260     0.3490 N.ar  1 <1>  -0.6200 
 25 H       -1.4430    -0.7720     1.0500 H     1 <1>   0.3700 
 26 H       -2.3060     2.4020     0.7460 H     1 <1>   0.0800 
 27 H       -1.0560     1.4390     1.5060 H     1 <1>   0.0800 
 28 H       -1.7980    -1.5510    -1.7950 H     1 <1>   0.0800 
 29 H       -0.7150     3.2480    -0.9020 H     1 <1>   0.0800 
 30 H        0.5480     2.1930    -0.2610 H     1 <1>   0.0800 
 31 H       -3.5330    -3.0480    -1.2440 H     1 <1>   0.0800 
 32 H       -0.0020    -2.5340    -0.0540 H     1 <1>   0.0800 
 33 H       -0.9560    -3.6810    -0.9950 H     1 <1>   0.0800 
 34 H       -3.4100    -4.2490     0.6860 H     1 <1>   0.0800 
 35 H       -3.3360    -2.8130     1.7020 H     1 <1>   0.0800 
 36 H       -4.5230    -0.7700    -1.1120 H     1 <1>   0.0800 
 37 H       -4.2570    -0.7570     0.6020 H     1 <1>   0.0800 
 38 H        1.4100     4.1200    -1.3430 H     1 <1>   0.1500 
 39 H        0.6820     5.4740     2.6410 H     1 <1>   0.1500 
 40 H       -5.7900    -1.9760     2.1030 H     1 <1>   0.1500 
 41 H       -6.1320    -2.5210    -2.1010 H     1 <1>   0.1500 
 42 H        3.0670     5.8790    -1.6390 H     1 <1>   0.1500 
 43 H        2.3610     7.2520     2.3320 H     1 <1>   0.1500 
 44 H       -7.8850    -3.1830     2.3440 H     1 <1>   0.1500 
 45 H       -8.2160    -3.7060    -1.6900 H     1 <1>   0.1500 
 46 H        3.5530     7.4520     0.1880 H     1 <1>   0.1500 
@<TRIPOS>BOND
  1   1   2  2   
  2   2   3  am  
  3   2   4  1   
  4   3   5  1   
  5   3  25  1   
  6   4   6  1   
  7   4  26  1   
  8   4  27  1   
  9   5   7  1   
 10   5   8  1   
 11   5  28  1   
 12   6   9  1   
 13   6  29  1   
 14   6  30  1   
 15   7  10  1   
 16   7  11  1   
 17   7  31  1   
 18   8  12  1   
 19   8  32  1   
 20   8  33  1   
 21   9  13  1   
 22  10  12  1   
 23  10  34  1   
 24  10  35  1   
 25  11  14  1   
 26  11  36  1   
 27  11  37  1   
 28  13  15  ar  
 29  13  16  ar  
 30  14  17  ar  
 31  14  18  ar  
 32  15  19  ar  
 33  15  38  1   
 34  16  20  ar  
 35  16  39  1   
 36  17  21  ar  
 37  17  40  1   
 38  18  22  ar  
 39  18  41  1   
 40  19  23  ar  
 41  19  42  1   
 42  20  23  ar  
 43  20  43  1   
 44  21  24  ar  
 45  21  44  1   
 46  22  24  ar  
 47  22  45  1   
 48  23  46  1   
@<TRIPOS>SUBSTRUCTURE
  1 ****   2 GROUP 4 **** **** 0

# MOE 2024.06 (io_trps.svl 2023.06)
