@<TRIPOS>MOLECULE
NONAME
36 37 1 0 0 
SMALL
USER_CHARGES


@<TRIPOS>ATOM
  1 O       -0.3400    -0.0460     0.3200 O.2   1 <1>  -0.5700 
  2 C       -0.8970    -0.9800    -0.2220 C.2   1 <1>   0.7800 
  3 O       -0.2750    -2.1490    -0.3930 O.3   1 <1>  -0.4300 
  4 N       -2.1940    -0.8910    -0.6570 N.am  1 <1>  -0.6600 
  5 C        1.0400    -2.4870    -0.0060 C.3   1 <1>   0.2800 
  6 C       -2.9810     0.3560    -0.4530 C.3   1 <1>   0.1400 
  7 C       -2.9410    -2.0620    -1.1970 C.3   1 <1>   0.1400 
  8 C        1.1820    -2.3990     1.5180 C.3   1 <1>  -0.2400 
  9 C        1.2230    -3.9400    -0.4460 C.3   1 <1>  -0.2400 
 10 C        2.0540    -1.6040    -0.7420 C.3   1 <1>  -0.2400 
 11 C       -3.7920     0.2810     0.8430 C.3   1 <1>   0.0960 
 12 C       -3.7510    -2.7390    -0.0890 C.3   1 <1>   0.0200 
 13 N       -4.9420    -0.6380     0.7060 N.pl3 1 <1>   0.0480 
 14 C       -4.9780    -1.9330     0.2990 C.2   1 <1>   0.0060 
 15 C       -6.2280    -0.3210     0.9420 C.2   1 <1>  -0.3020 
 16 N       -6.1700    -2.4330     0.2630 N.2   1 <1>  -0.5650 
 17 C       -6.9580    -1.4220     0.6690 C.2   1 <1>   0.0770 
 18 H       -3.6340     0.5260    -1.2920 H     1 <1>   0.0800 
 19 H       -2.3080     1.1950    -0.3930 H     1 <1>   0.0800 
 20 H       -2.2520    -2.7750    -1.6170 H     1 <1>   0.0800 
 21 H       -3.5990    -1.7450    -1.9870 H     1 <1>   0.0800 
 22 H        0.4110    -2.9730     2.0000 H     1 <1>   0.0800 
 23 H        1.1290    -1.3800     1.8550 H     1 <1>   0.0800 
 24 H        2.1360    -2.7900     1.8200 H     1 <1>   0.0800 
 25 H        0.5030    -4.5710     0.0420 H     1 <1>   0.0800 
 26 H        2.2080    -4.2860    -0.1900 H     1 <1>   0.0800 
 27 H        1.1010    -4.0250    -1.5110 H     1 <1>   0.0800 
 28 H        2.0010    -0.5850    -0.4040 H     1 <1>   0.0800 
 29 H        1.8770    -1.6340    -1.8020 H     1 <1>   0.0800 
 30 H        3.0520    -1.9550    -0.5530 H     1 <1>   0.0800 
 31 H       -4.1670     1.2590     1.0800 H     1 <1>   0.0800 
 32 H       -3.1660    -0.0480     1.6530 H     1 <1>   0.0800 
 33 H       -3.1320    -2.9110     0.7720 H     1 <1>   0.0800 
 34 H       -4.0810    -3.6980    -0.4480 H     1 <1>   0.0800 
 35 H       -6.5530     0.6440     1.2840 H     1 <1>   0.1500 
 36 H       -8.0260    -1.5440     0.7450 H     1 <1>   0.1500 
@<TRIPOS>BOND
  1   1   2  2   
  2   2   3  1   
  3   2   4  am  
  4   3   5  1   
  5   4   6  1   
  6   4   7  1   
  7   5   8  1   
  8   5   9  1   
  9   5  10  1   
 10   6  11  1   
 11   6  18  1   
 12   6  19  1   
 13   7  12  1   
 14   7  20  1   
 15   7  21  1   
 16   8  22  1   
 17   8  23  1   
 18   8  24  1   
 19   9  25  1   
 20   9  26  1   
 21   9  27  1   
 22  10  28  1   
 23  10  29  1   
 24  10  30  1   
 25  11  13  1   
 26  11  31  1   
 27  11  32  1   
 28  12  14  1   
 29  12  33  1   
 30  12  34  1   
 31  13  14  1   
 32  13  15  1   
 33  14  16  2   
 34  15  17  2   
 35  15  35  1   
 36  16  17  1   
 37  17  36  1   
@<TRIPOS>SUBSTRUCTURE
  1 ****   4 GROUP 4 **** **** 0

# MOE 2024.06 (io_trps.svl 2023.06)
