@<TRIPOS>MOLECULE
NONAME
54 56 1 0 0 
SMALL
USER_CHARGES


@<TRIPOS>ATOM
  1 O        0.5450     1.4010    -0.3230 O.2   1 <1>  -0.5700 
  2 C        0.1850     2.5500    -0.4200 C.2   1 <1>   0.5690 
  3 N       -0.7070     3.1170     0.4510 N.am  1 <1>  -0.6600 
  4 C        0.7470     3.3880    -1.5690 C.3   1 <1>   0.1810 
  5 C       -1.1290     4.5480     0.3090 C.3   1 <1>   0.3640 
  6 C       -1.2560     2.3800     1.6280 C.3   1 <1>   0.0600 
  7 O        0.7550     4.7620    -1.2740 O.3   1 <1>  -0.5600 
  8 C       -2.6570     4.7010     0.3350 C.ar  1 <1>  -0.1430 
  9 C       -0.5180     5.2770    -0.9150 C.3   1 <1>   0.2610 
 10 C       -3.5470     3.9750    -0.4640 C.ar  1 <1>  -0.1430 
 11 C       -3.1690     5.6430     1.2210 C.ar  1 <1>  -0.1500 
 12 C       -0.4610     6.7850    -0.6350 C.2   1 <1>   0.5690 
 13 C       -4.9100     4.2050    -0.3470 C.ar  1 <1>  -0.1500 
 14 C       -3.1090     2.9200    -1.4750 C.3   1 <1>  -0.0960 
 15 C       -4.5290     5.8650     1.3260 C.ar  1 <1>  -0.1500 
 16 O       -1.2770     7.4740    -1.2020 O.2   1 <1>  -0.5700 
 17 N        0.4520     7.3500     0.2310 N.am  1 <1>  -0.6600 
 18 C       -5.4020     5.1420     0.5400 C.ar  1 <1>  -0.1500 
 19 C        0.5880     8.8500     0.3270 C.3   1 <1>   0.2010 
 20 C        1.5690     6.6370     0.9160 C.3   1 <1>   0.1400 
 21 C        2.0300     9.3660     0.2110 C.2   1 <1>   0.5690 
 22 C        2.9040     7.0100     0.2590 C.3   1 <1>   0.1400 
 23 O        2.1890    10.5640     0.1610 O.2   1 <1>  -0.5700 
 24 N        3.0920     8.4910     0.1870 N.am  1 <1>  -0.6600 
 25 C        4.4880     8.9650    -0.0020 C.3   1 <1>   0.1400 
 26 C        4.8990     8.8040    -1.4680 C.3   1 <1>  -0.1600 
 27 C        6.3260     9.3090    -1.7060 C.3   1 <1>  -0.2400 
 28 H        0.1640     3.2280    -2.4570 H     1 <1>   0.0800 
 29 H        1.7610     3.0890    -1.7630 H     1 <1>   0.0800 
 30 H       -0.7500     5.0460     1.1820 H     1 <1>   0.0800 
 31 H       -1.0410     2.9210     2.5320 H     1 <1>   0.0800 
 32 H       -0.8190     1.3990     1.7010 H     1 <1>   0.0800 
 33 H       -2.3220     2.2710     1.5290 H     1 <1>   0.0800 
 34 H       -1.1620     5.1410    -1.7640 H     1 <1>   0.0800 
 35 H       -2.5120     6.2270     1.8420 H     1 <1>   0.1500 
 36 H       -5.6080     3.6520    -0.9520 H     1 <1>   0.1500 
 37 H       -3.9210     2.6520    -2.1260 H     1 <1>   0.0800 
 38 H       -2.7880     2.0300    -0.9640 H     1 <1>   0.0800 
 39 H       -2.3090     3.2810    -2.0900 H     1 <1>   0.0800 
 40 H       -4.9060     6.6000     2.0150 H     1 <1>   0.1500 
 41 H       -6.4630     5.3090     0.6160 H     1 <1>   0.1500 
 42 H        0.0120     9.3290    -0.4440 H     1 <1>   0.0800 
 43 H        0.1940     9.1730     1.2720 H     1 <1>   0.0800 
 44 H        1.5920     6.9290     1.9520 H     1 <1>   0.0800 
 45 H        1.4420     5.5710     0.8860 H     1 <1>   0.0800 
 46 H        2.9330     6.6000    -0.7360 H     1 <1>   0.0800 
 47 H        3.7070     6.5730     0.8270 H     1 <1>   0.0800 
 48 H        4.5610    10.0030     0.2790 H     1 <1>   0.0800 
 49 H        5.1500     8.4050     0.6360 H     1 <1>   0.0800 
 50 H        4.8410     7.7690    -1.7520 H     1 <1>   0.0800 
 51 H        4.2190     9.3680    -2.0850 H     1 <1>   0.0800 
 52 H        7.0280     8.7530    -1.1090 H     1 <1>   0.0800 
 53 H        6.4010    10.3520    -1.4510 H     1 <1>   0.0800 
 54 H        6.5890     9.1920    -2.7420 H     1 <1>   0.0800 
@<TRIPOS>BOND
  1   1   2  2   
  2   2   3  am  
  3   2   4  1   
  4   3   5  1   
  5   3   6  1   
  6   4   7  1   
  7   4  28  1   
  8   4  29  1   
  9   5   8  1   
 10   5   9  1   
 11   5  30  1   
 12   6  31  1   
 13   6  32  1   
 14   6  33  1   
 15   7   9  1   
 16   8  10  ar  
 17   8  11  ar  
 18   9  12  1   
 19   9  34  1   
 20  10  13  ar  
 21  10  14  1   
 22  11  15  ar  
 23  11  35  1   
 24  12  16  2   
 25  12  17  am  
 26  13  18  ar  
 27  13  36  1   
 28  14  37  1   
 29  14  38  1   
 30  14  39  1   
 31  15  18  ar  
 32  15  40  1   
 33  17  19  1   
 34  17  20  1   
 35  18  41  1   
 36  19  21  1   
 37  19  42  1   
 38  19  43  1   
 39  20  22  1   
 40  20  44  1   
 41  20  45  1   
 42  21  23  2   
 43  21  24  am  
 44  22  24  1   
 45  22  46  1   
 46  22  47  1   
 47  24  25  1   
 48  25  26  1   
 49  25  48  1   
 50  25  49  1   
 51  26  27  1   
 52  26  50  1   
 53  26  51  1   
 54  27  52  1   
 55  27  53  1   
 56  27  54  1   
@<TRIPOS>SUBSTRUCTURE
  1 ****  12 GROUP 4 **** **** 0

# MOE 2024.06 (io_trps.svl 2023.06)
