@<TRIPOS>MOLECULE
NONAME
51 53 1 0 0 
SMALL
USER_CHARGES


@<TRIPOS>ATOM
  1 S        1.2610     1.3660    -0.0440 S.o2  1 <1>   1.3330 
  2 O        2.5270     2.0330     0.1820 O.2   1 <1>  -0.6500 
  3 O        0.9560     0.1840     0.7190 O.2   1 <1>  -0.6500 
  4 N        0.0110     2.5250     0.2630 N.am  1 <1>  -0.6930 
  5 C        1.0740     1.0310    -1.7830 C.3   1 <1>  -0.1350 
  6 C       -1.3280     2.2180     0.0450 C.ar  1 <1>   0.1990 
  7 C        0.4050     3.9470     0.5090 C.3   1 <1>   0.2570 
  8 C       -2.0480     2.8650    -0.9540 C.ar  1 <1>  -0.1500 
  9 C       -1.9720     1.2550     0.8180 C.ar  1 <1>  -0.1500 
 10 C        1.3570     4.5320    -0.5510 C.2   1 <1>   0.5690 
 11 C       -3.3740     2.5380    -1.1430 C.ar  1 <1>   0.1900 
 12 C       -3.3060     0.9380     0.6120 C.ar  1 <1>  -0.1500 
 13 O        1.0350     4.3990    -1.7090 O.2   1 <1>  -0.5700 
 14 N        2.5550     5.1360    -0.2260 N.am  1 <1>  -0.6600 
 15 F       -4.0440     3.1510    -2.0810 F     1 <1>  -0.1900 
 16 C       -4.0230     1.5860    -0.3790 C.ar  1 <1>  -0.1500 
 17 C        2.9340     5.5890     1.1660 C.3   1 <1>   0.2200 
 18 C        3.5440     5.3420    -1.3340 C.3   1 <1>   0.1400 
 19 C        3.4980     7.0200     1.1900 C.3   1 <1>   0.1200 
 20 C        3.9170     4.6050     1.8530 C.3   1 <1>   0.3430 
 21 C        5.0090     5.5170    -0.9000 C.3   1 <1>  -0.0800 
 22 O        4.8780     7.0120     0.9900 O.3   1 <1>  -0.5600 
 23 N        4.6360     3.7010     0.8940 N.4   1 <1>  -0.9590 
 24 C        5.2900     6.9160    -0.3310 C.3   1 <1>   0.1200 
 25 C        5.5980     4.3930    -0.0220 C.3   1 <1>   0.3430 
 26 C        5.2930     2.5750     1.6150 C.3   1 <1>   0.2630 
 27 H        1.1950     1.9280    -2.3570 H     1 <1>   0.0800 
 28 H        0.0980     0.6300    -1.9790 H     1 <1>   0.0800 
 29 H        1.8050     0.3160    -2.1030 H     1 <1>   0.0800 
 30 H       -0.4770     4.5620     0.5400 H     1 <1>   0.0800 
 31 H        0.8580     3.9810     1.4790 H     1 <1>   0.0800 
 32 H       -1.5840     3.6050    -1.5800 H     1 <1>   0.1500 
 33 H       -1.4210     0.7470     1.5900 H     1 <1>   0.1500 
 34 H       -3.7830     0.1890     1.2220 H     1 <1>   0.1500 
 35 H       -5.0580     1.3600    -0.5600 H     1 <1>   0.1500 
 36 H        2.0450     5.6380     1.7670 H     1 <1>   0.0800 
 37 H        3.4930     4.4930    -1.9960 H     1 <1>   0.0800 
 38 H        3.2350     6.2000    -1.9080 H     1 <1>   0.0800 
 39 H        3.3390     7.4460     2.1660 H     1 <1>   0.0800 
 40 H        3.0180     7.6560     0.4650 H     1 <1>   0.0800 
 41 H        3.3480     3.9980     2.5360 H     1 <1>   0.0800 
 42 H        4.6300     5.1630     2.4380 H     1 <1>   0.0800 
 43 H        5.5760     5.4910    -1.8140 H     1 <1>   0.0800 
 44 H        3.8780     3.2770     0.3130 H     1 <1>   0.4500 
 45 H        4.8080     7.6880    -0.9090 H     1 <1>   0.0800 
 46 H        6.3490     7.1080    -0.3400 H     1 <1>   0.0800 
 47 H        6.4090     4.8030     0.5590 H     1 <1>   0.0800 
 48 H        6.0190     3.6510    -0.6800 H     1 <1>   0.0800 
 49 H        6.0600     2.9470     2.2760 H     1 <1>   0.0800 
 50 H        5.7400     1.8930     0.9110 H     1 <1>   0.0800 
 51 H        4.5640     2.0320     2.1950 H     1 <1>   0.0800 
@<TRIPOS>BOND
  1   1   2  2   
  2   1   3  2   
  3   1   4  am  
  4   1   5  1   
  5   4   6  1   
  6   4   7  1   
  7   5  27  1   
  8   5  28  1   
  9   5  29  1   
 10   6   8  ar  
 11   6   9  ar  
 12   7  10  1   
 13   7  30  1   
 14   7  31  1   
 15   8  11  ar  
 16   8  32  1   
 17   9  12  ar  
 18   9  33  1   
 19  10  13  2   
 20  10  14  am  
 21  11  15  1   
 22  11  16  ar  
 23  12  16  ar  
 24  12  34  1   
 25  14  17  1   
 26  14  18  1   
 27  16  35  1   
 28  17  19  1   
 29  17  20  1   
 30  17  36  1   
 31  18  21  1   
 32  18  37  1   
 33  18  38  1   
 34  19  22  1   
 35  19  39  1   
 36  19  40  1   
 37  20  23  1   
 38  20  41  1   
 39  20  42  1   
 40  21  24  1   
 41  21  25  1   
 42  21  43  1   
 43  22  24  1   
 44  23  25  1   
 45  23  26  1   
 46  23  44  1   
 47  24  45  1   
 48  24  46  1   
 49  25  47  1   
 50  25  48  1   
 51  26  49  1   
 52  26  50  1   
 53  26  51  1   
@<TRIPOS>SUBSTRUCTURE
  1 ****  10 GROUP 4 **** **** 0

# MOE 2024.06 (io_trps.svl 2023.06)
