@<TRIPOS>MOLECULE
NONAME
48 50 1 0 0 
SMALL
USER_CHARGES


@<TRIPOS>ATOM
  1 CL       0.1390     2.0410     1.3940 Cl    1 <1>  -0.1770 
  2 C       -1.4740     1.9090     0.7460 C.ar  1 <1>   0.1770 
  3 C       -2.0010     0.6610     0.4760 C.ar  1 <1>  -0.1500 
  4 C       -2.2070     3.0550     0.5060 C.ar  1 <1>  -0.1500 
  5 C       -3.2810     0.5630    -0.0400 C.ar  1 <1>  -0.1500 
  6 C       -3.4860     2.9450    -0.0090 C.ar  1 <1>  -0.1500 
  7 C       -4.0540     1.6990    -0.2910 C.ar  1 <1>   0.0530 
  8 C       -5.3850     1.6130    -0.8390 C.2   1 <1>   0.0870 
  9 O       -5.7500     2.4710    -1.7590 O.3   1 <1>  -0.0190 
 10 C       -6.4450     0.7840    -0.6270 C.2   1 <1>  -0.0860 
 11 N       -6.9690     2.2790    -2.1850 N.2   1 <1>  -0.4100 
 12 C       -7.4090     1.2800    -1.5150 C.2   1 <1>   0.3720 
 13 C       -6.6080    -0.3310     0.2580 C.2   1 <1>   0.7160 
 14 N       -8.7040     0.8210    -1.7100 N.pl3 1 <1>  -0.8520 
 15 O       -5.8260    -0.5540     1.1600 O.2   1 <1>  -0.5700 
 16 N       -7.6550    -1.1840     0.0950 N.am  1 <1>  -0.7300 
 17 C       -9.6710     1.3180    -0.6920 C.3   1 <1>   0.2090 
 18 C       -7.9730    -2.3740     0.9160 C.3   1 <1>   0.2200 
 19 C      -10.9860     0.5430    -0.7770 C.3   1 <1>   0.1200 
 20 C       -7.9390    -3.6260     0.0220 C.3   1 <1>   0.1400 
 21 C       -9.4260    -2.2670     1.3920 C.3   1 <1>  -0.0990 
 22 O      -11.7980     0.9490     0.2780 O.3   1 <1>  -0.5600 
 23 N       -9.3400    -3.7760    -0.4140 N.am  1 <1>  -0.6600 
 24 C      -10.1790    -3.0230     0.3330 C.2   1 <1>   0.5690 
 25 C      -12.9730     0.2100     0.3930 C.3   1 <1>   0.0400 
 26 C       -9.7160    -4.6820    -1.5250 C.3   1 <1>   0.0600 
 27 O      -11.3730    -2.9380     0.1860 O.2   1 <1>  -0.5700 
 28 H       -1.4150    -0.2190     0.6710 H     1 <1>   0.1500 
 29 H       -1.7780     4.0170     0.7210 H     1 <1>   0.1500 
 30 H       -3.6870    -0.4100    -0.2520 H     1 <1>   0.1500 
 31 H       -4.0590     3.8360    -0.1970 H     1 <1>   0.1500 
 32 H       -9.0050     1.1750    -2.6270 H     1 <1>   0.4000 
 33 H       -8.3070    -0.9570    -0.6690 H     1 <1>   0.3700 
 34 H       -9.8610     2.3650    -0.8570 H     1 <1>   0.0800 
 35 H       -9.2560     1.1930     0.2940 H     1 <1>   0.0800 
 36 H       -7.2820    -2.4560     1.7400 H     1 <1>   0.0800 
 37 H      -10.8030    -0.5130    -0.6870 H     1 <1>   0.0800 
 38 H      -11.4930     0.7540    -1.7020 H     1 <1>   0.0800 
 39 H       -7.6520    -4.4910     0.5940 H     1 <1>   0.0800 
 40 H       -7.2740    -3.5000    -0.8150 H     1 <1>   0.0800 
 41 H       -9.7660    -1.2510     1.4810 H     1 <1>   0.0800 
 42 H       -9.5550    -2.7770     2.3270 H     1 <1>   0.0800 
 43 H      -13.5440     0.6120     1.2110 H     1 <1>   0.0800 
 44 H      -12.7310    -0.8190     0.5950 H     1 <1>   0.0800 
 45 H      -13.5380     0.2920    -0.5190 H     1 <1>   0.0800 
 46 H       -9.2350    -4.3650    -2.4330 H     1 <1>   0.0800 
 47 H      -10.7830    -4.6620    -1.6690 H     1 <1>   0.0800 
 48 H       -9.4150    -5.6890    -1.2930 H     1 <1>   0.0800 
@<TRIPOS>BOND
  1   1   2  1   
  2   2   3  ar  
  3   2   4  ar  
  4   3   5  ar  
  5   3  28  1   
  6   4   6  ar  
  7   4  29  1   
  8   5   7  ar  
  9   5  30  1   
 10   6   7  ar  
 11   6  31  1   
 12   7   8  1   
 13   8   9  1   
 14   8  10  2   
 15   9  11  1   
 16  10  12  1   
 17  10  13  1   
 18  11  12  2   
 19  12  14  1   
 20  13  15  2   
 21  13  16  am  
 22  14  17  1   
 23  14  32  1   
 24  16  18  1   
 25  16  33  1   
 26  17  19  1   
 27  17  34  1   
 28  17  35  1   
 29  18  20  1   
 30  18  21  1   
 31  18  36  1   
 32  19  22  1   
 33  19  37  1   
 34  19  38  1   
 35  20  23  1   
 36  20  39  1   
 37  20  40  1   
 38  21  24  1   
 39  21  41  1   
 40  21  42  1   
 41  22  25  1   
 42  23  24  am  
 43  23  26  1   
 44  24  27  2   
 45  25  43  1   
 46  25  44  1   
 47  25  45  1   
 48  26  46  1   
 49  26  47  1   
 50  26  48  1   
@<TRIPOS>SUBSTRUCTURE
  1 ****  13 GROUP 4 **** **** 0

# MOE 2024.06 (io_trps.svl 2023.06)
