@<TRIPOS>MOLECULE
NONAME
54 56 1 0 0 
SMALL
USER_CHARGES


@<TRIPOS>ATOM
  1 O       -2.4000     0.4850    -0.0080 O.2   1 <1>  -0.5700 
  2 C       -2.6410     1.3260    -0.8570 C.2   1 <1>   0.5440 
  3 N       -3.7080     1.0630    -1.6820 N.am  1 <1>  -0.6600 
  4 C       -1.8980     2.5740    -0.9340 C.ar  1 <1>   0.0860 
  5 C       -5.0390     1.5780    -1.2360 C.3   1 <1>   0.1400 
  6 C       -3.8050    -0.3070    -2.2870 C.3   1 <1>   0.1400 
  7 C       -1.0510     2.9650     0.1010 C.ar  1 <1>  -0.1500 
  8 C       -2.0020     3.4300    -2.0330 C.ar  1 <1>  -0.1500 
  9 C       -5.6730     0.6440    -0.1650 C.3   1 <1>   0.4230 
 10 C       -4.6910    -1.2570    -1.4440 C.3   1 <1>   0.3430 
 11 C       -0.3460     4.1540     0.0600 C.ar  1 <1>   0.0830 
 12 C       -1.3020     4.6210    -2.0880 C.ar  1 <1>  -0.1500 
 13 N       -4.9540    -0.6860    -0.0770 N.4   1 <1>  -0.9590 
 14 C       -7.1830     0.4390    -0.4170 C.3   1 <1>   0.1200 
 15 O        0.4420     4.4290     1.1270 O.3   1 <1>  -0.3630 
 16 C       -0.4740     4.9900    -1.0450 C.ar  1 <1>  -0.1500 
 17 C       -5.6300    -1.5860     0.9100 C.3   1 <1>   0.4230 
 18 O       -7.7310    -0.4280     0.5350 O.3   1 <1>  -0.5600 
 19 C        1.2470     5.6010     1.1680 C.3   1 <1>   0.1810 
 20 C       -7.1420    -1.6990     0.6030 C.3   1 <1>   0.1200 
 21 C       -4.9220    -2.9490     0.9750 C.3   1 <1>  -0.1600 
 22 C        2.0670     5.6760     2.4520 C.2   1 <1>   0.5690 
 23 C       -5.3390    -3.7690     2.2060 C.3   1 <1>  -0.1600 
 24 O        2.7630     6.6390     2.6480 O.2   1 <1>  -0.5700 
 25 N        2.0200     4.6820     3.3630 N.am  1 <1>  -0.8000 
 26 C       -4.5520    -5.0800     2.2790 C.3   1 <1>  -0.2400 
 27 H       -4.9310     2.5670    -0.8240 H     1 <1>   0.0800 
 28 H       -5.6850     1.6590    -2.0930 H     1 <1>   0.0800 
 29 H       -4.1950    -0.2350    -3.2880 H     1 <1>   0.0800 
 30 H       -2.8160    -0.7300    -2.3610 H     1 <1>   0.0800 
 31 H       -0.9350     2.3310     0.9610 H     1 <1>   0.1500 
 32 H       -2.6360     3.1610    -2.8600 H     1 <1>   0.1500 
 33 H       -5.5790     1.1420     0.7860 H     1 <1>   0.0800 
 34 H       -4.1880    -2.2060    -1.3620 H     1 <1>   0.0800 
 35 H       -5.6240    -1.4230    -1.9560 H     1 <1>   0.0800 
 36 H       -1.3990     5.2640    -2.9470 H     1 <1>   0.1500 
 37 H       -4.0040    -0.4440     0.2790 H     1 <1>   0.4500 
 38 H       -7.3670     0.0330    -1.3960 H     1 <1>   0.0800 
 39 H       -7.7030     1.3780    -0.3340 H     1 <1>   0.0800 
 40 H        0.0570     5.9220    -1.1140 H     1 <1>   0.1500 
 41 H       -5.5420    -1.1350     1.8860 H     1 <1>   0.0800 
 42 H        1.9150     5.5850     0.3260 H     1 <1>   0.0800 
 43 H        0.6030     6.4590     1.1120 H     1 <1>   0.0800 
 44 H       -7.6430    -2.2380     1.3880 H     1 <1>   0.0800 
 45 H       -7.3160    -2.2130    -0.3260 H     1 <1>   0.0800 
 46 H       -5.1370    -3.5240     0.0920 H     1 <1>   0.0800 
 47 H       -3.8590    -2.7850     1.0300 H     1 <1>   0.0800 
 48 H       -5.1540    -3.2030     3.1050 H     1 <1>   0.0800 
 49 H       -6.3900    -4.0020     2.1700 H     1 <1>   0.0800 
 50 H        2.5690     4.7400     4.2200 H     1 <1>   0.3700 
 51 H        1.4380     3.8540     3.2270 H     1 <1>   0.3700 
 52 H       -3.4960    -4.8880     2.3530 H     1 <1>   0.0800 
 53 H       -4.7350    -5.6840     1.4070 H     1 <1>   0.0800 
 54 H       -4.8540    -5.6420     3.1460 H     1 <1>   0.0800 
@<TRIPOS>BOND
  1   1   2  2   
  2   2   3  am  
  3   2   4  1   
  4   3   5  1   
  5   3   6  1   
  6   4   7  ar  
  7   4   8  ar  
  8   5   9  1   
  9   5  27  1   
 10   5  28  1   
 11   6  10  1   
 12   6  29  1   
 13   6  30  1   
 14   7  11  ar  
 15   7  31  1   
 16   8  12  ar  
 17   8  32  1   
 18   9  13  1   
 19   9  14  1   
 20   9  33  1   
 21  10  13  1   
 22  10  34  1   
 23  10  35  1   
 24  11  15  1   
 25  11  16  ar  
 26  12  16  ar  
 27  12  36  1   
 28  13  17  1   
 29  13  37  1   
 30  14  18  1   
 31  14  38  1   
 32  14  39  1   
 33  15  19  1   
 34  16  40  1   
 35  17  20  1   
 36  17  21  1   
 37  17  41  1   
 38  18  20  1   
 39  19  22  1   
 40  19  42  1   
 41  19  43  1   
 42  20  44  1   
 43  20  45  1   
 44  21  23  1   
 45  21  46  1   
 46  21  47  1   
 47  22  24  2   
 48  22  25  am  
 49  23  26  1   
 50  23  48  1   
 51  23  49  1   
 52  25  50  1   
 53  25  51  1   
 54  26  52  1   
 55  26  53  1   
 56  26  54  1   
@<TRIPOS>SUBSTRUCTURE
  1 ****   2 GROUP 4 **** **** 0

# MOE 2024.06 (io_trps.svl 2023.06)
