@<TRIPOS>MOLECULE
NONAME
39 40 1 0 0 
SMALL
USER_CHARGES


@<TRIPOS>ATOM
  1 F        4.2190     0.9180     1.8180 F     1 <1>  -0.1900 
  2 C        3.4260     0.1540     1.1180 C.ar  1 <1>   0.1900 
  3 C        3.0710     0.5420    -0.1750 C.ar  1 <1>   0.0860 
  4 C        2.9750    -1.0110     1.7170 C.ar  1 <1>  -0.1500 
  5 C        3.5640     1.7570    -0.7800 C.2   1 <1>   0.5440 
  6 C        2.2040    -0.3020    -0.8690 C.ar  1 <1>  -0.1500 
  7 C        2.1230    -1.8410     1.0080 C.ar  1 <1>  -0.1500 
  8 O        2.7940     2.6870    -0.9210 O.2   1 <1>  -0.5700 
  9 N        4.8620     1.8760    -1.2360 N.am  1 <1>  -0.6600 
 10 C        1.7550    -1.4640    -0.2720 C.ar  1 <1>   0.1900 
 11 C        5.3670     3.1800    -1.7880 C.3   1 <1>   0.1400 
 12 C        5.7400     0.7000    -1.4820 C.3   1 <1>   0.1400 
 13 F        0.9510    -2.2430    -0.9440 F     1 <1>  -0.1900 
 14 C        5.3610     4.3320    -0.7660 C.3   1 <1>   0.2000 
 15 C        6.9030     0.6870    -0.4930 C.3   1 <1>  -0.2400 
 16 O        5.9680     5.4370    -1.3760 O.3   1 <1>  -0.5600 
 17 C        6.1230     4.0160     0.5340 C.3   1 <1>  -0.1600 
 18 C        5.8910     6.6200    -0.6410 C.3   1 <1>   0.1200 
 19 C        6.1660     5.2410     1.4550 C.3   1 <1>  -0.1600 
 20 C        6.6700     6.4570     0.6700 C.3   1 <1>  -0.1600 
 21 H        3.2850    -1.2580     2.7170 H     1 <1>   0.1500 
 22 H        1.8840    -0.0450    -1.8630 H     1 <1>   0.1500 
 23 H        1.7470    -2.7560     1.4320 H     1 <1>   0.1500 
 24 H        4.7460     3.4620    -2.6200 H     1 <1>   0.0800 
 25 H        6.3730     3.0540    -2.1470 H     1 <1>   0.0800 
 26 H        6.1180     0.7430    -2.4900 H     1 <1>   0.0800 
 27 H        5.1810    -0.2150    -1.3870 H     1 <1>   0.0800 
 28 H        4.3420     4.5990    -0.5440 H     1 <1>   0.0800 
 29 H        7.5390     1.5380    -0.6480 H     1 <1>   0.0800 
 30 H        7.4900    -0.2010    -0.6390 H     1 <1>   0.0800 
 31 H        6.5380     0.6910     0.5170 H     1 <1>   0.0800 
 32 H        7.1240     3.7110     0.2880 H     1 <1>   0.0800 
 33 H        5.6420     3.2020     1.0460 H     1 <1>   0.0800 
 34 H        4.8540     6.8440    -0.4560 H     1 <1>   0.0800 
 35 H        6.3190     7.4060    -1.2390 H     1 <1>   0.0800 
 36 H        6.8060     5.0490     2.2980 H     1 <1>   0.0800 
 37 H        5.1740     5.4400     1.8230 H     1 <1>   0.0800 
 38 H        6.5640     7.3470     1.2650 H     1 <1>   0.0800 
 39 H        7.7130     6.3360     0.4370 H     1 <1>   0.0800 
@<TRIPOS>BOND
  1   1   2  1   
  2   2   3  ar  
  3   2   4  ar  
  4   3   5  1   
  5   3   6  ar  
  6   4   7  ar  
  7   4  21  1   
  8   5   8  2   
  9   5   9  am  
 10   6  10  ar  
 11   6  22  1   
 12   7  10  ar  
 13   7  23  1   
 14   9  11  1   
 15   9  12  1   
 16  10  13  1   
 17  11  14  1   
 18  11  24  1   
 19  11  25  1   
 20  12  15  1   
 21  12  26  1   
 22  12  27  1   
 23  14  16  1   
 24  14  17  1   
 25  14  28  1   
 26  15  29  1   
 27  15  30  1   
 28  15  31  1   
 29  16  18  1   
 30  17  19  1   
 31  17  32  1   
 32  17  33  1   
 33  18  20  1   
 34  18  34  1   
 35  18  35  1   
 36  19  20  1   
 37  19  36  1   
 38  19  37  1   
 39  20  38  1   
 40  20  39  1   
@<TRIPOS>SUBSTRUCTURE
  1 ****   5 GROUP 4 **** **** 0

# MOE 2024.06 (io_trps.svl 2023.06)
