@<TRIPOS>MOLECULE
NONAME
40 41 1 0 0 
SMALL
USER_CHARGES


@<TRIPOS>ATOM
  1 O       -0.3440     1.1480    -1.6600 O.3   1 <1>  -0.0190 
  2 N       -0.1660    -0.1280    -1.8200 N.2   1 <1>  -0.4100 
  3 C       -0.6360     1.2690    -0.3890 C.2   1 <1>   0.2980 
  4 C       -0.3590    -0.6760    -0.6880 C.2   1 <1>   0.3350 
  5 N       -0.6690     0.1800     0.2730 N.2   1 <1>  -0.5650 
  6 C       -0.9030     2.6630     0.1690 C.3   1 <1>   0.2900 
  7 C       -0.2550    -2.1550    -0.4090 C.3   1 <1>  -0.0590 
  8 N        0.3240     3.5190     0.2470 N.3   1 <1>  -0.8100 
  9 C        0.0040     4.9560     0.5370 C.3   1 <1>   0.1900 
 10 C        1.2770     2.9190     1.2220 C.3   1 <1>   0.2540 
 11 C       -0.9790     5.5570    -0.5020 C.3   1 <1>   0.1200 
 12 C        1.2680     5.8490     0.6240 C.3   1 <1>  -0.1600 
 13 C        2.6870     2.8540     0.6550 C.ar  1 <1>  -0.1440 
 14 O       -0.6700     5.0840    -1.7660 O.3   1 <1>  -0.6800 
 15 C        2.1110     5.9480    -0.6590 C.3   1 <1>  -0.2400 
 16 C        3.7540     3.4000     1.3550 C.ar  1 <1>   0.1600 
 17 C        2.9400     2.2400    -0.5560 C.ar  1 <1>  -0.1500 
 18 N        5.0160     3.3900     0.9550 N.ar  1 <1>  -0.6200 
 19 C        4.2470     2.2200    -0.9920 C.ar  1 <1>  -0.1500 
 20 C        5.2310     2.8010    -0.2100 C.ar  1 <1>   0.1600 
 21 H       -1.3370     2.5670     1.1490 H     1 <1>   0.0800 
 22 H       -1.6410     3.1070    -0.4720 H     1 <1>   0.0800 
 23 H        0.0000    -2.6830    -1.3090 H     1 <1>   0.0800 
 24 H       -1.1960    -2.5190    -0.0410 H     1 <1>   0.0800 
 25 H        0.5050    -2.3290     0.3300 H     1 <1>   0.0800 
 26 H       -0.4800     5.0090     1.4990 H     1 <1>   0.0800 
 27 H        0.9960     1.9110     1.4720 H     1 <1>   0.0800 
 28 H        1.2650     3.4730     2.1440 H     1 <1>   0.0800 
 29 H       -0.9280     6.6310    -0.5190 H     1 <1>   0.0800 
 30 H       -1.9920     5.2720    -0.2790 H     1 <1>   0.0800 
 31 H        1.8940     5.5210     1.4310 H     1 <1>   0.0800 
 32 H        0.9570     6.8450     0.8860 H     1 <1>   0.0800 
 33 H        0.0290     4.3980    -1.6440 H     1 <1>   0.4000 
 34 H        2.3670     4.9730    -1.0310 H     1 <1>   0.0800 
 35 H        3.0240     6.4800    -0.4570 H     1 <1>   0.0800 
 36 H        1.5790     6.4760    -1.4300 H     1 <1>   0.0800 
 37 H        3.5630     3.8750     2.3010 H     1 <1>   0.1500 
 38 H        2.1520     1.7990    -1.1400 H     1 <1>   0.1500 
 39 H        4.5010     1.7590    -1.9280 H     1 <1>   0.1500 
 40 H        6.2480     2.7790    -0.5630 H     1 <1>   0.1500 
@<TRIPOS>BOND
  1   1   2  1   
  2   1   3  1   
  3   2   4  2   
  4   3   5  2   
  5   3   6  1   
  6   4   5  1   
  7   4   7  1   
  8   6   8  1   
  9   6  21  1   
 10   6  22  1   
 11   7  23  1   
 12   7  24  1   
 13   7  25  1   
 14   8   9  1   
 15   8  10  1   
 16   9  11  1   
 17   9  12  1   
 18   9  26  1   
 19  10  13  1   
 20  10  27  1   
 21  10  28  1   
 22  11  14  1   
 23  11  29  1   
 24  11  30  1   
 25  12  15  1   
 26  12  31  1   
 27  12  32  1   
 28  13  16  ar  
 29  13  17  ar  
 30  14  33  1   
 31  15  34  1   
 32  15  35  1   
 33  15  36  1   
 34  16  18  ar  
 35  16  37  1   
 36  17  19  ar  
 37  17  38  1   
 38  18  20  ar  
 39  19  20  ar  
 40  19  39  1   
 41  20  40  1   
@<TRIPOS>SUBSTRUCTURE
  1 ****   8 GROUP 4 **** **** 0

# MOE 2024.06 (io_trps.svl 2023.06)
