@<TRIPOS>MOLECULE
NONAME
49 51 1 0 0 
SMALL
USER_CHARGES


@<TRIPOS>ATOM
  1 O        1.4710     2.2730    -0.1650 O.co2 1 <1>  -0.9000 
  2 C        0.7670     3.0790    -0.7840 C.2   1 <1>   0.9060 
  3 O        1.2030     3.6580    -1.7850 O.co2 1 <1>  -0.9000 
  4 C       -0.5350     3.5680    -0.1310 C.3   1 <1>   0.0380 
  5 C       -1.7310     2.6020    -0.2170 C.ar  1 <1>  -0.1440 
  6 C       -0.1170     3.8310     1.3070 C.3   1 <1>   0.3430 
  7 C       -0.8970     4.9890    -0.5900 C.3   1 <1>  -0.1600 
  8 C       -1.6660     1.4510    -0.9940 C.ar  1 <1>  -0.1500 
  9 C       -2.9050     2.8600     0.4840 C.ar  1 <1>  -0.1500 
 10 N        0.5940     5.1520     1.2960 N.4   1 <1>  -0.9590 
 11 C        0.2050     5.8410     0.0220 C.3   1 <1>   0.3430 
 12 C       -2.7420     0.5830    -1.0670 C.ar  1 <1>  -0.1500 
 13 C       -3.9810     1.9930     0.4120 C.ar  1 <1>  -0.1500 
 14 C        2.0720     4.9240     1.3190 C.3   1 <1>   0.5240 
 15 C       -3.9010     0.8520    -0.3640 C.ar  1 <1>  -0.1500 
 16 C        2.7650     6.2670     1.2550 C.2   1 <1>  -0.1810 
 17 C        3.4130     6.8350     0.2130 C.2   1 <1>  -0.3320 
 18 C        2.8540     7.1980     2.2820 C.2   1 <1>   0.1390 
 19 N        3.8400     8.0480     0.6360 N.pl3 1 <1>   0.3140 
 20 C        3.6500     6.2690    -1.1840 C.3   1 <1>  -0.0600 
 21 N        3.4840     8.2670     1.9160 N.2   1 <1>  -0.7070 
 22 C        4.5980     9.0590    -0.1320 C.3   1 <1>   0.0960 
 23 C        3.6500     9.9710    -0.9240 C.3   1 <1>  -0.1600 
 24 C        4.4270    11.0120    -1.7360 C.3   1 <1>  -0.2400 
 25 H        0.5060     3.0360     1.6850 H     1 <1>   0.0800 
 26 H       -0.9980     3.9000     1.9210 H     1 <1>   0.0800 
 27 H       -1.8500     5.3040    -0.2070 H     1 <1>   0.0800 
 28 H       -0.9110     5.0740    -1.6630 H     1 <1>   0.0800 
 29 H       -0.7780     1.2090    -1.5550 H     1 <1>   0.1500 
 30 H       -3.0040     3.7390     1.0930 H     1 <1>   0.1500 
 31 H        0.3390     5.7270     2.1020 H     1 <1>   0.4500 
 32 H       -0.1200     6.8540     0.1980 H     1 <1>   0.0800 
 33 H        1.0440     5.8540    -0.6580 H     1 <1>   0.0800 
 34 H       -2.6700    -0.3030    -1.6740 H     1 <1>   0.1500 
 35 H       -4.8840     2.2050     0.9580 H     1 <1>   0.1500 
 36 H        2.3760     4.3290     0.4730 H     1 <1>   0.0800 
 37 H        2.3600     4.4010     2.2160 H     1 <1>   0.0800 
 38 H       -4.7360     0.1760    -0.4230 H     1 <1>   0.1500 
 39 H        2.4530     7.0700     3.2730 H     1 <1>   0.1500 
 40 H        3.2510     5.2730    -1.2740 H     1 <1>   0.0800 
 41 H        4.7040     6.2210    -1.3920 H     1 <1>   0.0800 
 42 H        3.1760     6.8850    -1.9270 H     1 <1>   0.0800 
 43 H        5.2750     8.5530    -0.7950 H     1 <1>   0.0800 
 44 H        5.1740     9.6420     0.5630 H     1 <1>   0.0800 
 45 H        2.9940    10.4780    -0.2350 H     1 <1>   0.0800 
 46 H        3.0500     9.3780    -1.5920 H     1 <1>   0.0800 
 47 H        5.0170    11.6340    -1.0860 H     1 <1>   0.0800 
 48 H        3.7410    11.6410    -2.2770 H     1 <1>   0.0800 
 49 H        5.0790    10.5320    -2.4440 H     1 <1>   0.0800 
@<TRIPOS>BOND
  1   1   2  ar  
  2   2   3  ar  
  3   2   4  1   
  4   4   5  1   
  5   4   6  1   
  6   4   7  1   
  7   5   8  ar  
  8   5   9  ar  
  9   6  10  1   
 10   6  25  1   
 11   6  26  1   
 12   7  11  1   
 13   7  27  1   
 14   7  28  1   
 15   8  12  ar  
 16   8  29  1   
 17   9  13  ar  
 18   9  30  1   
 19  10  11  1   
 20  10  14  1   
 21  10  31  1   
 22  11  32  1   
 23  11  33  1   
 24  12  15  ar  
 25  12  34  1   
 26  13  15  ar  
 27  13  35  1   
 28  14  16  1   
 29  14  36  1   
 30  14  37  1   
 31  15  38  1   
 32  16  17  2   
 33  16  18  1   
 34  17  19  1   
 35  17  20  1   
 36  18  21  2   
 37  18  39  1   
 38  19  21  1   
 39  19  22  1   
 40  20  40  1   
 41  20  41  1   
 42  20  42  1   
 43  22  23  1   
 44  22  43  1   
 45  22  44  1   
 46  23  24  1   
 47  23  45  1   
 48  23  46  1   
 49  24  47  1   
 50  24  48  1   
 51  24  49  1   
@<TRIPOS>SUBSTRUCTURE
  1 ****  11 GROUP 4 **** **** 0

# MOE 2024.06 (io_trps.svl 2023.06)
