@<TRIPOS>MOLECULE
NONAME
53 56 1 0 0 
SMALL
USER_CHARGES


@<TRIPOS>ATOM
  1 O       -0.5990     1.0080    -1.4020 O.3   1 <1>  -0.0190 
  2 N       -0.2900     2.2490    -1.3060 N.2   1 <1>  -0.4100 
  3 C       -1.6330     0.7340    -0.6500 C.2   1 <1>   0.4250 
  4 C       -1.1580     2.7070    -0.4870 C.2   1 <1>   0.3350 
  5 N       -2.0260     1.7990    -0.0340 N.2   1 <1>  -0.5650 
  6 C       -2.1800    -0.6040    -0.5810 C.ar  1 <1>   0.0530 
  7 C       -1.2200     4.1660    -0.0280 C.3   1 <1>   0.5240 
  8 C       -3.2820    -0.8890     0.2260 C.ar  1 <1>  -0.1500 
  9 C       -1.6360    -1.6620    -1.3120 C.ar  1 <1>  -0.1500 
 10 N        0.1310     4.8350    -0.0650 N.4   1 <1>  -0.9590 
 11 C       -3.8120    -2.1630     0.3030 C.ar  1 <1>  -0.1500 
 12 C       -2.1640    -2.9380    -1.2380 C.ar  1 <1>  -0.1500 
 13 C        1.0610     4.2280     0.9340 C.3   1 <1>   0.3430 
 14 C        0.0240     6.3150     0.0650 C.3   1 <1>   0.3430 
 15 C       -3.2550    -3.1980    -0.4280 C.ar  1 <1>  -0.1430 
 16 C        2.4540     4.8330     0.7740 C.3   1 <1>  -0.1600 
 17 C        1.4030     6.9430    -0.1130 C.3   1 <1>  -0.1600 
 18 C       -3.8370    -4.5970    -0.3460 C.3   1 <1>  -0.0970 
 19 C        2.4300     6.3660     0.8790 C.3   1 <1>   0.1000 
 20 C        3.8280     6.9360     0.6570 C.2   1 <1>   0.2980 
 21 O        4.7250     6.7440     1.5900 O.3   1 <1>  -0.0190 
 22 N        4.2260     7.5860    -0.3610 N.2   1 <1>  -0.5650 
 23 N        5.7870     7.3240     1.1260 N.2   1 <1>  -0.4100 
 24 C        5.4880     7.8140    -0.0120 C.2   1 <1>   0.3350 
 25 C        6.4270     8.5990    -0.9310 C.3   1 <1>   0.1010 
 26 C        7.9020     8.2150    -0.7320 C.3   1 <1>  -0.2400 
 27 C        6.2460    10.1090    -0.7260 C.3   1 <1>  -0.2400 
 28 H       -1.6180     4.1950     0.9730 H     1 <1>   0.0800 
 29 H       -1.9040     4.6870    -0.6750 H     1 <1>   0.0800 
 30 H       -3.7330    -0.1010     0.8040 H     1 <1>   0.1500 
 31 H       -0.7870    -1.4930    -1.9520 H     1 <1>   0.1500 
 32 H        0.5200     4.6130    -0.9960 H     1 <1>   0.4500 
 33 H       -4.6640    -2.3480     0.9350 H     1 <1>   0.1500 
 34 H       -1.7220    -3.7320    -1.8150 H     1 <1>   0.1500 
 35 H        1.1200     3.1600     0.7870 H     1 <1>   0.0800 
 36 H        0.7000     4.4130     1.9330 H     1 <1>   0.0800 
 37 H       -0.3660     6.5720     1.0370 H     1 <1>   0.0800 
 38 H       -0.6450     6.7070    -0.6850 H     1 <1>   0.0800 
 39 H        2.8660     4.5370    -0.1760 H     1 <1>   0.0800 
 40 H        3.0980     4.4320     1.5380 H     1 <1>   0.0800 
 41 H        1.3280     8.0070     0.0340 H     1 <1>   0.0800 
 42 H        1.7360     6.7850    -1.1250 H     1 <1>   0.0800 
 43 H       -4.2670    -4.7690     0.6240 H     1 <1>   0.0800 
 44 H       -3.0720    -5.3340    -0.5130 H     1 <1>   0.0800 
 45 H       -4.6030    -4.7170    -1.0910 H     1 <1>   0.0800 
 46 H        2.1310     6.6420     1.8760 H     1 <1>   0.0800 
 47 H        6.1590     8.3600    -1.9460 H     1 <1>   0.0800 
 48 H        8.2230     8.4590     0.2660 H     1 <1>   0.0800 
 49 H        8.5260     8.7380    -1.4340 H     1 <1>   0.0800 
 50 H        8.0300     7.1570    -0.8810 H     1 <1>   0.0800 
 51 H        6.4970    10.3790     0.2850 H     1 <1>   0.0800 
 52 H        5.2230    10.3840    -0.9100 H     1 <1>   0.0800 
 53 H        6.8760    10.6590    -1.4010 H     1 <1>   0.0800 
@<TRIPOS>BOND
  1   1   2  1   
  2   1   3  1   
  3   2   4  2   
  4   3   5  2   
  5   3   6  1   
  6   4   5  1   
  7   4   7  1   
  8   6   8  ar  
  9   6   9  ar  
 10   7  10  1   
 11   7  28  1   
 12   7  29  1   
 13   8  11  ar  
 14   8  30  1   
 15   9  12  ar  
 16   9  31  1   
 17  10  13  1   
 18  10  14  1   
 19  10  32  1   
 20  11  15  ar  
 21  11  33  1   
 22  12  15  ar  
 23  12  34  1   
 24  13  16  1   
 25  13  35  1   
 26  13  36  1   
 27  14  17  1   
 28  14  37  1   
 29  14  38  1   
 30  15  18  1   
 31  16  19  1   
 32  16  39  1   
 33  16  40  1   
 34  17  19  1   
 35  17  41  1   
 36  17  42  1   
 37  18  43  1   
 38  18  44  1   
 39  18  45  1   
 40  19  20  1   
 41  19  46  1   
 42  20  21  1   
 43  20  22  2   
 44  21  23  1   
 45  22  24  1   
 46  23  24  2   
 47  24  25  1   
 48  25  26  1   
 49  25  27  1   
 50  25  47  1   
 51  26  48  1   
 52  26  49  1   
 53  26  50  1   
 54  27  51  1   
 55  27  52  1   
 56  27  53  1   
@<TRIPOS>SUBSTRUCTURE
  1 ****  13 GROUP 4 **** **** 0

# MOE 2024.06 (io_trps.svl 2023.06)
