@<TRIPOS>MOLECULE
NONAME
47 49 1 0 0 
SMALL
USER_CHARGES


@<TRIPOS>ATOM
  1 O        0.6930    -0.3480    -1.6690 O.2   1 <1>  -0.5700 
  2 C        1.3450    -1.1370    -1.0370 C.2   1 <1>   0.5690 
  3 N        0.8390    -1.7700     0.0420 N.am  1 <1>  -0.7300 
  4 C        2.7760    -1.4490    -1.4200 C.3   1 <1>  -0.0990 
  5 C        1.6050    -2.7600     0.8250 C.3   1 <1>   0.1400 
  6 C        3.0500    -2.9660    -1.3410 C.3   1 <1>  -0.0800 
  7 C        2.3800    -3.6790    -0.1380 C.3   1 <1>  -0.0800 
  8 C        4.5430    -3.3080    -1.2630 C.3   1 <1>  -0.1600 
  9 C        3.4950    -4.4690     0.5630 C.3   1 <1>  -0.1600 
 10 C        4.5810    -4.6290    -0.4940 C.3   1 <1>   0.2200 
 11 N        5.8890    -5.0360     0.1010 N.am  1 <1>  -0.6600 
 12 C        7.0450    -4.2820     0.0790 C.2   1 <1>   0.5440 
 13 C        6.0140    -6.5100     0.2800 C.3   1 <1>   0.0600 
 14 O        8.0470    -4.7790    -0.4010 O.2   1 <1>  -0.5700 
 15 C        7.1180    -2.9430     0.6350 C.ar  1 <1>   0.0860 
 16 C        6.4330    -2.6020     1.7970 C.ar  1 <1>  -0.1500 
 17 C        7.8790    -1.9480     0.0240 C.ar  1 <1>  -0.1500 
 18 C        6.4870    -1.3180     2.2970 C.ar  1 <1>   0.0820 
 19 C        7.9650    -0.6430     0.5110 C.ar  1 <1>   0.0860 
 20 O        5.7950    -1.0250     3.4070 O.3   1 <1>  -0.5320 
 21 C        7.2420    -0.3460     1.6680 C.ar  1 <1>  -0.1500 
 22 C        8.7740     0.3560    -0.1650 C.2   1 <1>   0.6340 
 23 O        9.3230     0.1590    -1.2280 O.2   1 <1>  -0.5700 
 24 O        8.9140     1.5510     0.4200 O.3   1 <1>  -0.4300 
 25 C        9.6940     2.5780    -0.1620 C.3   1 <1>   0.0400 
 26 H       -0.1170    -1.5420     0.3240 H     1 <1>   0.3700 
 27 H        2.9710    -1.0880    -2.4130 H     1 <1>   0.0800 
 28 H        3.4110    -0.9150    -0.7380 H     1 <1>   0.0800 
 29 H        2.2880    -2.2310     1.4690 H     1 <1>   0.0800 
 30 H        0.9370    -3.3420     1.4370 H     1 <1>   0.0800 
 31 H        2.6490    -3.4150    -2.2360 H     1 <1>   0.0800 
 32 H        1.6750    -4.3890    -0.5380 H     1 <1>   0.0800 
 33 H        5.0360    -2.5310    -0.7160 H     1 <1>   0.0800 
 34 H        4.9840    -3.4040    -2.2390 H     1 <1>   0.0800 
 35 H        3.1420    -5.4210     0.9150 H     1 <1>   0.0800 
 36 H        3.8820    -3.9010     1.3890 H     1 <1>   0.0800 
 37 H        4.2680    -5.4000    -1.1800 H     1 <1>   0.0800 
 38 H        5.2000    -6.8820     0.8760 H     1 <1>   0.0800 
 39 H        6.9400    -6.7450     0.7780 H     1 <1>   0.0800 
 40 H        6.0100    -6.9950    -0.6800 H     1 <1>   0.0800 
 41 H        5.8600    -3.3460     2.3190 H     1 <1>   0.1500 
 42 H        8.4280    -2.2080    -0.8670 H     1 <1>   0.1500 
 43 H        5.9190    -0.1100     3.7190 H     1 <1>   0.4500 
 44 H        7.2750     0.6490     2.0730 H     1 <1>   0.1500 
 45 H        9.6630     3.4380     0.4820 H     1 <1>   0.0800 
 46 H        9.2840     2.8210    -1.1280 H     1 <1>   0.0800 
 47 H       10.7060     2.2280    -0.2670 H     1 <1>   0.0800 
@<TRIPOS>BOND
  1   1   2  2   
  2   2   3  am  
  3   2   4  1   
  4   3   5  1   
  5   3  26  1   
  6   4   6  1   
  7   4  27  1   
  8   4  28  1   
  9   5   7  1   
 10   5  29  1   
 11   5  30  1   
 12   6   7  1   
 13   6   8  1   
 14   6  31  1   
 15   7   9  1   
 16   7  32  1   
 17   8  10  1   
 18   8  33  1   
 19   8  34  1   
 20   9  10  1   
 21   9  35  1   
 22   9  36  1   
 23  10  11  1   
 24  10  37  1   
 25  11  12  am  
 26  11  13  1   
 27  12  14  2   
 28  12  15  1   
 29  13  38  1   
 30  13  39  1   
 31  13  40  1   
 32  15  16  ar  
 33  15  17  ar  
 34  16  18  ar  
 35  16  41  1   
 36  17  19  ar  
 37  17  42  1   
 38  18  20  1   
 39  18  21  ar  
 40  19  21  ar  
 41  19  22  1   
 42  20  43  1   
 43  21  44  1   
 44  22  23  2   
 45  22  24  1   
 46  24  25  1   
 47  25  45  1   
 48  25  46  1   
 49  25  47  1   
@<TRIPOS>SUBSTRUCTURE
  1 ****  15 GROUP 4 **** **** 0

# MOE 2024.06 (io_trps.svl 2023.06)
