@<TRIPOS>MOLECULE
NONAME
48 50 1 0 0 
SMALL
USER_CHARGES


@<TRIPOS>ATOM
  1 O        0.2820    -0.2430    -1.8940 O.2   1 <1>  -0.5700 
  2 C        0.9670    -0.7600    -1.0460 C.2   1 <1>   0.5690 
  3 N        1.8000    -0.0260    -0.2450 N.am  1 <1>  -0.6600 
  4 C        0.8470    -2.2630    -0.8920 C.3   1 <1>  -0.0990 
  5 C        1.9890     1.4360    -0.5270 C.3   1 <1>   0.4000 
  6 C        2.6200    -0.5860     0.8760 C.3   1 <1>   0.0600 
  7 C       -0.2910    -2.6150     0.0730 C.3   1 <1>   0.0200 
  8 C        3.4700     1.8360    -0.4940 C.2   1 <1>   0.2980 
  9 C        1.1240     2.2360     0.4550 C.3   1 <1>  -0.2400 
 10 C       -0.3210    -4.1010     0.3650 C.2   1 <1>   0.2980 
 11 O        4.2390     1.3860    -1.4550 O.3   1 <1>  -0.0190 
 12 N        4.0610     2.5570     0.3800 N.2   1 <1>  -0.5650 
 13 O        0.6370    -4.6130     1.0920 O.3   1 <1>  -0.0190 
 14 N       -1.2040    -4.9170    -0.0310 N.2   1 <1>  -0.5650 
 15 N        5.4130     1.8580    -1.1700 N.2   1 <1>  -0.4100 
 16 C        5.2930     2.5400    -0.1030 C.2   1 <1>   0.3350 
 17 N        0.3370    -5.8710     1.1660 N.2   1 <1>  -0.4100 
 18 C       -0.7460    -6.0600     0.4960 C.2   1 <1>   0.4620 
 19 C        6.4120     3.2770     0.5900 C.3   1 <1>  -0.0590 
 20 C       -1.4600    -7.3110     0.3260 C.ar  1 <1>   0.0540 
 21 C       -0.8180    -8.5210     0.0210 C.ar  1 <1>   0.0820 
 22 C       -2.8480    -7.3300     0.4690 C.ar  1 <1>  -0.1500 
 23 O        0.5300    -8.5030    -0.1530 O.3   1 <1>  -0.3630 
 24 C       -1.5580    -9.6940    -0.1100 C.ar  1 <1>  -0.1500 
 25 C       -3.5780    -8.4950     0.3340 C.ar  1 <1>  -0.1500 
 26 C        1.2870    -9.6770    -0.3450 C.3   1 <1>   0.0400 
 27 C       -2.9310    -9.6820     0.0470 C.ar  1 <1>  -0.1500 
 28 H        1.7790    -2.6800    -0.5570 H     1 <1>   0.0800 
 29 H        0.6350    -2.6910    -1.8550 H     1 <1>   0.0800 
 30 H        1.6400     1.6580    -1.5210 H     1 <1>   0.0800 
 31 H        2.1430    -1.4440     1.3140 H     1 <1>   0.0800 
 32 H        2.7500     0.1510     1.6500 H     1 <1>   0.0800 
 33 H        3.5910    -0.8720     0.5070 H     1 <1>   0.0800 
 34 H       -1.2300    -2.3200    -0.3620 H     1 <1>   0.0800 
 35 H       -0.1740    -2.0840     1.0000 H     1 <1>   0.0800 
 36 H        1.4490     2.0790     1.4670 H     1 <1>   0.0800 
 37 H        0.0940     1.9450     0.3560 H     1 <1>   0.0800 
 38 H        1.2040     3.2840     0.2320 H     1 <1>   0.0800 
 39 H        6.1780     4.3240     0.6360 H     1 <1>   0.0800 
 40 H        7.3310     3.1450     0.0510 H     1 <1>   0.0800 
 41 H        6.5300     2.8980     1.5880 H     1 <1>   0.0800 
 42 H       -3.3600    -6.4100     0.6920 H     1 <1>   0.1500 
 43 H       -1.0850   -10.6300    -0.3390 H     1 <1>   0.1500 
 44 H       -4.6480    -8.4790     0.4530 H     1 <1>   0.1500 
 45 H        2.3240    -9.3980    -0.4000 H     1 <1>   0.0800 
 46 H        0.9850   -10.1410    -1.2670 H     1 <1>   0.0800 
 47 H        1.1300   -10.3340     0.4920 H     1 <1>   0.0800 
 48 H       -3.4970   -10.5920    -0.0570 H     1 <1>   0.1500 
@<TRIPOS>BOND
  1   1   2  2   
  2   2   3  am  
  3   2   4  1   
  4   3   5  1   
  5   3   6  1   
  6   4   7  1   
  7   4  28  1   
  8   4  29  1   
  9   5   8  1   
 10   5   9  1   
 11   5  30  1   
 12   6  31  1   
 13   6  32  1   
 14   6  33  1   
 15   7  10  1   
 16   7  34  1   
 17   7  35  1   
 18   8  11  1   
 19   8  12  2   
 20   9  36  1   
 21   9  37  1   
 22   9  38  1   
 23  10  13  1   
 24  10  14  2   
 25  11  15  1   
 26  12  16  1   
 27  13  17  1   
 28  14  18  1   
 29  15  16  2   
 30  16  19  1   
 31  17  18  2   
 32  18  20  1   
 33  19  39  1   
 34  19  40  1   
 35  19  41  1   
 36  20  21  ar  
 37  20  22  ar  
 38  21  23  1   
 39  21  24  ar  
 40  22  25  ar  
 41  22  42  1   
 42  23  26  1   
 43  24  27  ar  
 44  24  43  1   
 45  25  27  ar  
 46  25  44  1   
 47  26  45  1   
 48  26  46  1   
 49  26  47  1   
 50  27  48  1   
@<TRIPOS>SUBSTRUCTURE
  1 ****   4 GROUP 4 **** **** 0

# MOE 2024.06 (io_trps.svl 2023.06)
