@<TRIPOS>MOLECULE
NONAME
41 43 1 0 0 
SMALL
USER_CHARGES


@<TRIPOS>ATOM
  1 O        0.1260    -0.1940    -0.2870 O.2   1 <1>  -0.5700 
  2 C        1.2270    -0.6670    -0.0840 C.2   1 <1>   0.5440 
  3 N        2.3590     0.0970    -0.2550 N.am  1 <1>  -0.4940 
  4 C        1.3650    -2.0360     0.3670 C.ar  1 <1>   0.0860 
  5 C        2.5040     1.4200    -0.7430 C.2   1 <1>  -0.0880 
  6 C        0.4470    -2.5770     1.2740 C.ar  1 <1>  -0.1500 
  7 C        2.4160    -2.8550    -0.0810 C.ar  1 <1>  -0.1500 
  8 N        3.6770     2.1160    -0.7980 N.pl3 1 <1>   0.3140 
  9 C        1.5550     2.2480    -1.2390 C.2   1 <1>  -0.1500 
 10 C        0.6150    -3.8740     1.7080 C.ar  1 <1>   0.0830 
 11 C        2.5720    -4.1600     0.3660 C.ar  1 <1>  -0.1500 
 12 N        3.4910     3.3530    -1.3170 N.2   1 <1>  -0.7070 
 13 C        5.0430     1.6730    -0.3910 C.3   1 <1>   0.1760 
 14 C        2.2220     3.4170    -1.5730 C.2   1 <1>   0.1390 
 15 O       -0.1380    -4.5650     2.5700 O.3   1 <1>  -0.3630 
 16 C        1.6510    -4.6460     1.2700 C.ar  1 <1>   0.0830 
 17 C        5.5530     0.6000    -1.3790 C.3   1 <1>  -0.1600 
 18 C        5.0600     1.2330     1.0940 C.3   1 <1>  -0.1600 
 19 C        0.4490    -5.8600     2.6810 C.3   1 <1>   0.4000 
 20 O        1.5960    -5.8530     1.8340 O.3   1 <1>  -0.3630 
 21 C        7.0090     0.1720    -1.1500 C.3   1 <1>  -0.2400 
 22 C        6.3080     1.7230     1.8460 C.3   1 <1>  -0.2400 
 23 H        3.2150    -0.3480     0.0690 H     1 <1>   0.3700 
 24 H       -0.3820    -1.9900     1.6300 H     1 <1>   0.1500 
 25 H        3.1170    -2.4700    -0.8000 H     1 <1>   0.1500 
 26 H        0.5030     2.0610    -1.3580 H     1 <1>   0.1500 
 27 H        3.3760    -4.7880     0.0240 H     1 <1>   0.1500 
 28 H        5.6730     2.5400    -0.4900 H     1 <1>   0.0800 
 29 H        1.7460     4.2850    -1.9990 H     1 <1>   0.1500 
 30 H        5.4790     1.0050    -2.3750 H     1 <1>   0.0800 
 31 H        4.9260    -0.2720    -1.3350 H     1 <1>   0.0800 
 32 H        5.0000     0.1620     1.1680 H     1 <1>   0.0800 
 33 H        4.2040     1.6490     1.5990 H     1 <1>   0.0800 
 34 H       -0.2490    -6.6040     2.3390 H     1 <1>   0.0800 
 35 H        0.7510    -6.0350     3.6990 H     1 <1>   0.0800 
 36 H        7.6580     1.0310    -1.1440 H     1 <1>   0.0800 
 37 H        7.3250    -0.4840    -1.9430 H     1 <1>   0.0800 
 38 H        7.1140    -0.3560    -0.2190 H     1 <1>   0.0800 
 39 H        7.2100     1.3340     1.4090 H     1 <1>   0.0800 
 40 H        6.2650     1.4040     2.8720 H     1 <1>   0.0800 
 41 H        6.3550     2.7980     1.8290 H     1 <1>   0.0800 
@<TRIPOS>BOND
  1   1   2  2   
  2   2   3  am  
  3   2   4  1   
  4   3   5  1   
  5   3  23  1   
  6   4   6  ar  
  7   4   7  ar  
  8   5   8  1   
  9   5   9  2   
 10   6  10  ar  
 11   6  24  1   
 12   7  11  ar  
 13   7  25  1   
 14   8  12  1   
 15   8  13  1   
 16   9  14  1   
 17   9  26  1   
 18  10  15  1   
 19  10  16  ar  
 20  11  16  ar  
 21  11  27  1   
 22  12  14  2   
 23  13  17  1   
 24  13  18  1   
 25  13  28  1   
 26  14  29  1   
 27  15  19  1   
 28  16  20  1   
 29  17  21  1   
 30  17  30  1   
 31  17  31  1   
 32  18  22  1   
 33  18  32  1   
 34  18  33  1   
 35  19  20  1   
 36  19  34  1   
 37  19  35  1   
 38  21  36  1   
 39  21  37  1   
 40  21  38  1   
 41  22  39  1   
 42  22  40  1   
 43  22  41  1   
@<TRIPOS>SUBSTRUCTURE
  1 ****   3 GROUP 4 **** **** 0

# MOE 2024.06 (io_trps.svl 2023.06)
