@<TRIPOS>MOLECULE
NONAME
48 50 1 0 0 
SMALL
USER_CHARGES


@<TRIPOS>ATOM
  1 CL       0.9210     0.4790    -1.1760 Cl    1 <1>  -0.1770 
  2 C        0.5380     1.8980    -0.2260 C.ar  1 <1>   0.1770 
  3 C        1.5180     2.5890     0.4830 C.ar  1 <1>  -0.1440 
  4 C       -0.7840     2.3020    -0.2120 C.ar  1 <1>  -0.1500 
  5 C        1.1280     3.7060     1.2130 C.ar  1 <1>  -0.1500 
  6 C        2.9880     2.1790     0.4940 C.3   1 <1>   0.3640 
  7 C       -1.1530     3.4160     0.5190 C.ar  1 <1>  -0.1500 
  8 C       -0.1950     4.1150     1.2310 C.ar  1 <1>  -0.1500 
  9 N        3.1170     0.8220     1.0750 N.am  1 <1>  -0.7300 
 10 C        3.6710     2.3140    -0.8950 C.3   1 <1>   0.2610 
 11 C        3.8200    -0.1760     0.4950 C.2   1 <1>   0.5690 
 12 O        4.8070     1.4660    -1.0170 O.3   1 <1>  -0.5600 
 13 C        4.0090     3.7920    -1.1560 C.2   1 <1>   0.5690 
 14 O        3.8980    -1.2580     1.0160 O.2   1 <1>  -0.5700 
 15 C        4.5180     0.0950    -0.8400 C.3   1 <1>   0.1810 
 16 O        3.1570     4.4440    -1.7100 O.2   1 <1>  -0.5700 
 17 N        5.2000     4.3970    -0.7880 N.am  1 <1>  -0.6600 
 18 C        5.5490     5.7370    -1.3690 C.3   1 <1>   0.1400 
 19 C        6.3100     3.7100    -0.0470 C.3   1 <1>   0.1400 
 20 C        6.3190     6.6300    -0.3820 C.3   1 <1>   0.3430 
 21 C        7.0870     4.6630     0.8850 C.3   1 <1>   0.3430 
 22 N        7.5190     5.9260     0.1930 N.4   1 <1>  -0.9590 
 23 C        8.2930     6.7980     1.1410 C.3   1 <1>   0.3430 
 24 C        8.9940     7.9740     0.4450 C.3   1 <1>   0.1200 
 25 O        9.6920     8.6710     1.4130 O.3   1 <1>  -0.6800 
 26 H       -1.5170     1.7480    -0.7710 H     1 <1>   0.1500 
 27 H        1.8470     4.2740     1.7760 H     1 <1>   0.1500 
 28 H        3.5070     2.8440     1.1610 H     1 <1>   0.0800 
 29 H       -2.1810     3.7380     0.5340 H     1 <1>   0.1500 
 30 H       -0.4820     4.9840     1.7990 H     1 <1>   0.1500 
 31 H        2.5690     0.6040     1.9100 H     1 <1>   0.3700 
 32 H        2.9820     2.0160    -1.6640 H     1 <1>   0.0800 
 33 H        3.8900    -0.2330    -1.6490 H     1 <1>   0.0800 
 34 H        5.4450    -0.4480    -0.8760 H     1 <1>   0.0800 
 35 H        6.1400     5.5880    -2.2560 H     1 <1>   0.0800 
 36 H        4.6570     6.2620    -1.6680 H     1 <1>   0.0800 
 37 H        5.9150     2.9140     0.5600 H     1 <1>   0.0800 
 38 H        6.9860     3.2690    -0.7600 H     1 <1>   0.0800 
 39 H        5.6490     6.9170     0.4130 H     1 <1>   0.0800 
 40 H        6.6250     7.5270    -0.8940 H     1 <1>   0.0800 
 41 H        7.9490     4.1440     1.2720 H     1 <1>   0.0800 
 42 H        6.4530     4.9110     1.7210 H     1 <1>   0.0800 
 43 H        8.1360     5.6540    -0.5850 H     1 <1>   0.4500 
 44 H        7.6320     7.1880     1.8970 H     1 <1>   0.0800 
 45 H        9.0500     6.2070     1.6300 H     1 <1>   0.0800 
 46 H        8.2870     8.6500    -0.0030 H     1 <1>   0.0800 
 47 H        9.7020     7.6260    -0.2890 H     1 <1>   0.0800 
 48 H       10.1840     9.4330     1.0360 H     1 <1>   0.4000 
@<TRIPOS>BOND
  1   1   2  1   
  2   2   3  ar  
  3   2   4  ar  
  4   3   5  ar  
  5   3   6  1   
  6   4   7  ar  
  7   4  26  1   
  8   5   8  ar  
  9   5  27  1   
 10   6   9  1   
 11   6  10  1   
 12   6  28  1   
 13   7   8  ar  
 14   7  29  1   
 15   8  30  1   
 16   9  11  am  
 17   9  31  1   
 18  10  12  1   
 19  10  13  1   
 20  10  32  1   
 21  11  14  2   
 22  11  15  1   
 23  12  15  1   
 24  13  16  2   
 25  13  17  am  
 26  15  33  1   
 27  15  34  1   
 28  17  18  1   
 29  17  19  1   
 30  18  20  1   
 31  18  35  1   
 32  18  36  1   
 33  19  21  1   
 34  19  37  1   
 35  19  38  1   
 36  20  22  1   
 37  20  39  1   
 38  20  40  1   
 39  21  22  1   
 40  21  41  1   
 41  21  42  1   
 42  22  23  1   
 43  22  43  1   
 44  23  24  1   
 45  23  44  1   
 46  23  45  1   
 47  24  25  1   
 48  24  46  1   
 49  24  47  1   
 50  25  48  1   
@<TRIPOS>SUBSTRUCTURE
  1 ****  13 GROUP 4 **** **** 0

# MOE 2024.06 (io_trps.svl 2023.06)
