@<TRIPOS>MOLECULE
NONAME
42 44 1 0 0 
SMALL
USER_CHARGES


@<TRIPOS>ATOM
  1 F        0.3700     0.9310    -0.7730 F     1 <1>  -0.1900 
  2 C        1.0380     1.9460    -0.2860 C.ar  1 <1>   0.1900 
  3 C        2.3460     2.1230    -0.6600 C.ar  1 <1>  -0.1500 
  4 C        0.3730     2.8010     0.5980 C.ar  1 <1>  -0.1500 
  5 C        3.0350     3.2170    -0.1250 C.ar  1 <1>   0.0000 
  6 C        1.0500     3.8770     1.1260 C.ar  1 <1>  -0.1500 
  7 C        2.3860     4.0790     0.7570 C.ar  1 <1>  -0.1520 
  8 C        4.3480     3.7090    -0.2710 C.2   1 <1>  -0.1500 
  9 N        3.2700     5.0550     1.1360 N.pl3 1 <1>   0.0330 
 10 C        4.4610     4.8250     0.4940 C.2   1 <1>  -0.3320 
 11 C        5.6620     5.7200     0.6720 C.3   1 <1>   0.5230 
 12 N        5.8250     6.4630    -0.6010 N.4   1 <1>  -0.9590 
 13 C        7.1740     7.1310    -0.7390 C.3   1 <1>   0.3430 
 14 C        4.7020     7.4400    -0.8080 C.3   1 <1>   0.2630 
 15 C        7.6770     7.9760     0.4640 C.3   1 <1>   0.2000 
 16 O        6.5760     8.4820     1.1930 O.3   1 <1>  -0.2170 
 17 C        8.4330     9.2400     0.0450 C.3   1 <1>  -0.0990 
 18 N        6.4400     9.7810     1.0440 N.2   1 <1>  -0.5130 
 19 C        7.4250    10.2750     0.4440 C.2   1 <1>   0.3280 
 20 C        7.6780    11.7360     0.0950 C.3   1 <1>  -0.0990 
 21 C        6.5490    12.6770     0.5390 C.3   1 <1>  -0.2400 
 22 H        2.8290     1.4470    -1.3390 H     1 <1>   0.1500 
 23 H       -0.6530     2.6020     0.8480 H     1 <1>   0.1500 
 24 H        0.5660     4.5520     1.8110 H     1 <1>   0.1500 
 25 H        5.0830     3.2290    -0.8940 H     1 <1>   0.1500 
 26 H        3.0470     5.7940     1.8140 H     1 <1>   0.2700 
 27 H        6.5330     5.1140     0.8630 H     1 <1>   0.0800 
 28 H        5.5190     6.3970     1.4990 H     1 <1>   0.0800 
 29 H        5.7240     5.7460    -1.3320 H     1 <1>   0.4500 
 30 H        7.1440     7.7740    -1.6040 H     1 <1>   0.0800 
 31 H        7.9200     6.3820    -0.9460 H     1 <1>   0.0800 
 32 H        4.6810     8.1730    -0.0180 H     1 <1>   0.0800 
 33 H        3.7560     6.9230    -0.8210 H     1 <1>   0.0800 
 34 H        4.8210     7.9550    -1.7470 H     1 <1>   0.0800 
 35 H        8.2670     7.3770     1.1340 H     1 <1>   0.0800 
 36 H        8.6500     9.2740    -1.0060 H     1 <1>   0.0800 
 37 H        9.3380     9.3590     0.6150 H     1 <1>   0.0800 
 38 H        7.8050    11.8230    -0.9690 H     1 <1>   0.0800 
 39 H        8.5940    12.0470     0.5650 H     1 <1>   0.0800 
 40 H        5.6220    12.4020     0.0680 H     1 <1>   0.0800 
 41 H        6.7840    13.6930     0.2720 H     1 <1>   0.0800 
 42 H        6.4180    12.6260     1.6070 H     1 <1>   0.0800 
@<TRIPOS>BOND
  1   1   2  1   
  2   2   3  ar  
  3   2   4  ar  
  4   3   5  ar  
  5   3  22  1   
  6   4   6  ar  
  7   4  23  1   
  8   5   7  ar  
  9   5   8  1   
 10   6   7  ar  
 11   6  24  1   
 12   7   9  1   
 13   8  10  2   
 14   8  25  1   
 15   9  10  1   
 16   9  26  1   
 17  10  11  1   
 18  11  12  1   
 19  11  27  1   
 20  11  28  1   
 21  12  13  1   
 22  12  14  1   
 23  12  29  1   
 24  13  15  1   
 25  13  30  1   
 26  13  31  1   
 27  14  32  1   
 28  14  33  1   
 29  14  34  1   
 30  15  16  1   
 31  15  17  1   
 32  15  35  1   
 33  16  18  1   
 34  17  19  1   
 35  17  36  1   
 36  17  37  1   
 37  18  19  2   
 38  19  20  1   
 39  20  21  1   
 40  20  38  1   
 41  20  39  1   
 42  21  40  1   
 43  21  41  1   
 44  21  42  1   
@<TRIPOS>SUBSTRUCTURE
  1 ****  11 GROUP 4 **** **** 0

# MOE 2024.06 (io_trps.svl 2023.06)
