@<TRIPOS>MOLECULE
NONAME
44 47 1 0 0 
SMALL
USER_CHARGES


@<TRIPOS>ATOM
  1 S       -3.5110    -3.3200    -4.2290 S.3   1 <1>  -0.4600 
  2 C       -2.9030    -1.7990    -3.4290 C.3   1 <1>   0.2510 
  3 C       -4.1990    -4.1520    -2.7660 C.3   1 <1>   0.2510 
  4 C       -3.2950    -1.9910    -1.9830 C.2   1 <1>   0.1080 
  5 C       -3.9430    -3.1620    -1.6550 C.2   1 <1>  -0.1810 
  6 N       -3.1160    -1.2090    -0.9670 N.2   1 <1>  -0.7070 
  7 C       -4.1860    -3.0860    -0.3270 C.2   1 <1>  -0.0880 
  8 N       -3.6670    -1.8840     0.0750 N.pl3 1 <1>   0.3140 
  9 N       -4.8410    -4.0870     0.4310 N.am  1 <1>  -0.4940 
 10 C       -3.5910    -1.3090     1.4230 C.3   1 <1>   0.0160 
 11 C       -5.4250    -4.1490     1.6640 C.2   1 <1>   0.5690 
 12 O       -5.4630    -3.2420     2.4610 O.2   1 <1>  -0.5700 
 13 C       -6.0820    -5.4850     2.0100 C.3   1 <1>   0.1710 
 14 N       -6.4850    -6.2510     0.7900 N.3   1 <1>  -0.8100 
 15 C       -6.5930    -7.6950     1.0600 C.3   1 <1>   0.2530 
 16 C       -7.7520    -5.7130     0.2370 C.3   1 <1>   0.1100 
 17 C       -6.3660    -8.4840    -0.2180 C.ar  1 <1>  -0.1430 
 18 C       -8.0720    -6.2140    -1.1790 C.3   1 <1>   0.1200 
 19 C       -7.2770    -8.4150    -1.2650 C.ar  1 <1>   0.0830 
 20 C       -5.2560    -9.3060    -0.3490 C.ar  1 <1>  -0.1500 
 21 O       -8.3480    -7.5990    -1.1980 O.3   1 <1>  -0.3630 
 22 C       -7.1020    -9.1800    -2.4060 C.ar  1 <1>  -0.1500 
 23 C       -5.0700   -10.0590    -1.4960 C.ar  1 <1>  -0.1500 
 24 C       -5.9960   -10.0020    -2.5240 C.ar  1 <1>  -0.1500 
 25 H       -3.3980    -0.9560    -3.8730 H     1 <1>   0.0800 
 26 H       -1.8370    -1.7490    -3.5540 H     1 <1>   0.0800 
 27 H       -3.6670    -5.0760    -2.6240 H     1 <1>   0.0800 
 28 H       -5.2480    -4.3180    -2.9360 H     1 <1>   0.0800 
 29 H       -5.0230    -4.9640    -0.0730 H     1 <1>   0.3700 
 30 H       -2.9190    -0.4710     1.4140 H     1 <1>   0.0800 
 31 H       -3.2270    -2.0530     2.1060 H     1 <1>   0.0800 
 32 H       -4.5680    -0.9810     1.7210 H     1 <1>   0.0800 
 33 H       -6.9350    -5.3120     2.6430 H     1 <1>   0.0800 
 34 H       -5.3590    -6.0470     2.5730 H     1 <1>   0.0800 
 35 H       -7.5600    -7.9320     1.4710 H     1 <1>   0.0800 
 36 H       -5.8480    -7.9920     1.7780 H     1 <1>   0.0800 
 37 H       -7.6820    -4.6400     0.1840 H     1 <1>   0.0800 
 38 H       -8.5760    -5.9480     0.8900 H     1 <1>   0.0800 
 39 H       -7.2560    -6.0110    -1.8510 H     1 <1>   0.0800 
 40 H       -8.9510    -5.7150    -1.5460 H     1 <1>   0.0800 
 41 H       -4.5310    -9.3690     0.4430 H     1 <1>   0.1500 
 42 H       -7.8300    -9.1240    -3.1950 H     1 <1>   0.1500 
 43 H       -4.2060   -10.6950    -1.5880 H     1 <1>   0.1500 
 44 H       -5.8550   -10.5930    -3.4120 H     1 <1>   0.1500 
@<TRIPOS>BOND
  1   1   2  1   
  2   1   3  1   
  3   2   4  1   
  4   2  25  1   
  5   2  26  1   
  6   3   5  1   
  7   3  27  1   
  8   3  28  1   
  9   4   5  1   
 10   4   6  2   
 11   5   7  2   
 12   6   8  1   
 13   7   8  1   
 14   7   9  1   
 15   8  10  1   
 16   9  11  am  
 17   9  29  1   
 18  10  30  1   
 19  10  31  1   
 20  10  32  1   
 21  11  12  2   
 22  11  13  1   
 23  13  14  1   
 24  13  33  1   
 25  13  34  1   
 26  14  15  1   
 27  14  16  1   
 28  15  17  1   
 29  15  35  1   
 30  15  36  1   
 31  16  18  1   
 32  16  37  1   
 33  16  38  1   
 34  17  19  ar  
 35  17  20  ar  
 36  18  21  1   
 37  18  39  1   
 38  18  40  1   
 39  19  21  1   
 40  19  22  ar  
 41  20  23  ar  
 42  20  41  1   
 43  22  24  ar  
 44  22  42  1   
 45  23  24  ar  
 46  23  43  1   
 47  24  44  1   
@<TRIPOS>SUBSTRUCTURE
  1 ****   9 GROUP 4 **** **** 0

# MOE 2024.06 (io_trps.svl 2023.06)
