@<TRIPOS>MOLECULE
NONAME
46 48 1 0 0 
SMALL
USER_CHARGES


@<TRIPOS>ATOM
  1 CL       0.3730     0.7090     1.6060 Cl    1 <1>  -0.1770 
  2 C        1.7670     1.4490     0.8610 C.ar  1 <1>   0.1770 
  3 C        1.9810     2.8060     1.0280 C.ar  1 <1>  -0.1500 
  4 C        2.6320     0.6670     0.1170 C.ar  1 <1>  -0.1500 
  5 C        3.0870     3.3990     0.4380 C.ar  1 <1>  -0.1500 
  6 C        3.7370     1.2570    -0.4740 C.ar  1 <1>  -0.1500 
  7 C        3.9570     2.6150    -0.3090 C.ar  1 <1>   0.1020 
  8 S        5.4190     3.3020    -1.1090 S.3   1 <1>  -0.3320 
  9 C        5.4470     5.1040    -0.7160 C.3   1 <1>   0.0700 
 10 C        6.6770     5.6960    -1.4050 C.3   1 <1>   0.2090 
 11 N        6.9210     7.0830    -0.9220 N.pl3 1 <1>  -0.8690 
 12 C        7.9240     7.6420    -0.2360 C.ar  1 <1>   0.7710 
 13 N        7.8020     8.9280     0.0130 N.ar  1 <1>  -0.6200 
 14 N        8.9800     6.9130     0.1660 N.ar  1 <1>  -0.1790 
 15 C        8.7720     9.5290     0.6790 C.ar  1 <1>   0.4100 
 16 C        9.9860     7.4830     0.8720 C.ar  1 <1>   0.2110 
 17 N        8.6550    10.8650     0.9040 N.pl3 1 <1>  -0.8380 
 18 C        9.8910     8.8060     1.1420 C.ar  1 <1>  -0.1500 
 19 C        9.8190    11.8120     1.0000 C.3   1 <1>   0.2090 
 20 C        7.3330    11.5680     0.9160 C.3   1 <1>   0.2090 
 21 C        9.7630    12.8610    -0.1260 C.3   1 <1>   0.2000 
 22 C        7.2650    12.5660    -0.2450 C.3   1 <1>  -0.1600 
 23 O       10.7550    13.8060     0.0730 O.3   1 <1>  -0.6800 
 24 C        8.4150    13.5850    -0.1880 C.3   1 <1>  -0.1600 
 25 H        1.2890     3.3850     1.6130 H     1 <1>   0.1500 
 26 H        2.4400    -0.3850     0.0030 H     1 <1>   0.1500 
 27 H        3.2460     4.4500     0.5710 H     1 <1>   0.1500 
 28 H        4.4240     0.6700    -1.0570 H     1 <1>   0.1500 
 29 H        5.5080     5.1920     0.3540 H     1 <1>   0.0800 
 30 H        4.5350     5.5330    -1.0920 H     1 <1>   0.0800 
 31 H        6.5130     5.7110    -2.4710 H     1 <1>   0.0800 
 32 H        7.5280     5.0700    -1.2080 H     1 <1>   0.0800 
 33 H        6.1940     7.7570    -1.1910 H     1 <1>   0.4000 
 34 H        8.9730     5.9290    -0.0810 H     1 <1>   0.4570 
 35 H       10.8170     6.8760     1.1970 H     1 <1>   0.1500 
 36 H       10.6450     9.3120     1.7150 H     1 <1>   0.1500 
 37 H       10.7520    11.2870     0.9150 H     1 <1>   0.0800 
 38 H        9.7830    12.3060     1.9560 H     1 <1>   0.0800 
 39 H        7.2240    12.0920     1.8510 H     1 <1>   0.0800 
 40 H        6.5190    10.8670     0.8410 H     1 <1>   0.0800 
 41 H        9.9660    12.3740    -1.0650 H     1 <1>   0.0800 
 42 H        6.3230    13.0840    -0.2110 H     1 <1>   0.0800 
 43 H        7.3050    12.0200    -1.1720 H     1 <1>   0.0800 
 44 H       10.4840    14.4450     0.7590 H     1 <1>   0.4000 
 45 H        8.3820    14.2120    -1.0620 H     1 <1>   0.0800 
 46 H        8.2890    14.1990     0.6870 H     1 <1>   0.0800 
@<TRIPOS>BOND
  1   1   2  1   
  2   2   3  ar  
  3   2   4  ar  
  4   3   5  ar  
  5   3  25  1   
  6   4   6  ar  
  7   4  26  1   
  8   5   7  ar  
  9   5  27  1   
 10   6   7  ar  
 11   6  28  1   
 12   7   8  1   
 13   8   9  1   
 14   9  10  1   
 15   9  29  1   
 16   9  30  1   
 17  10  11  1   
 18  10  31  1   
 19  10  32  1   
 20  11  12  1   
 21  11  33  1   
 22  12  13  ar  
 23  12  14  ar  
 24  13  15  ar  
 25  14  16  ar  
 26  14  34  1   
 27  15  17  1   
 28  15  18  ar  
 29  16  18  ar  
 30  16  35  1   
 31  17  19  1   
 32  17  20  1   
 33  18  36  1   
 34  19  21  1   
 35  19  37  1   
 36  19  38  1   
 37  20  22  1   
 38  20  39  1   
 39  20  40  1   
 40  21  23  1   
 41  21  24  1   
 42  21  41  1   
 43  22  24  1   
 44  22  42  1   
 45  22  43  1   
 46  23  44  1   
 47  24  45  1   
 48  24  46  1   
@<TRIPOS>SUBSTRUCTURE
  1 ****  11 GROUP 4 **** **** 0

# MOE 2024.06 (io_trps.svl 2023.06)
