@<TRIPOS>MOLECULE
NONAME
31 31 1 0 0 
SMALL
USER_CHARGES


@<TRIPOS>ATOM
  1 F       -1.5390    -0.2760    -0.4720 F     1 <1>  -0.3400 
  2 C       -1.4630     0.8500     0.2190 C.3   1 <1>   1.3000 
  3 F       -1.9480     0.6160     1.4320 F     1 <1>  -0.3400 
  4 F       -0.1800     1.1700     0.3330 F     1 <1>  -0.3400 
  5 O       -2.1820     1.8530    -0.4250 O.3   1 <1>  -0.5600 
  6 C       -2.1570     3.1040     0.1800 C.3   1 <1>   0.2000 
  7 C       -3.6050     3.5920     0.2860 C.3   1 <1>  -0.1600 
  8 C       -1.3180     4.0420    -0.6960 C.3   1 <1>  -0.1600 
  9 C       -3.6720     5.0370     0.8060 C.3   1 <1>  -0.1600 
 10 C       -1.3770     5.4860    -0.1740 C.3   1 <1>  -0.1600 
 11 C       -2.8300     5.9940    -0.0610 C.3   1 <1>  -0.0190 
 12 C       -2.9090     7.4230     0.4750 C.2   1 <1>   0.6590 
 13 O       -2.1320     7.8510     1.2910 O.2   1 <1>  -0.5700 
 14 O       -3.9000     8.1620    -0.0070 O.3   1 <1>  -0.4300 
 15 C       -4.0930     9.4930     0.4110 C.3   1 <1>   0.1200 
 16 C       -5.3070    10.0490    -0.3270 C.3   1 <1>  -0.2400 
 17 H       -1.7280     3.0470     1.1700 H     1 <1>   0.0800 
 18 H       -4.1520     2.9490     0.9530 H     1 <1>   0.0800 
 19 H       -4.0670     3.5460    -0.6860 H     1 <1>   0.0800 
 20 H       -1.6930     4.0170    -1.7050 H     1 <1>   0.0800 
 21 H       -0.2940     3.7130    -0.7050 H     1 <1>   0.0800 
 22 H       -3.3110     5.0680     1.8210 H     1 <1>   0.0800 
 23 H       -4.6980     5.3660     0.8130 H     1 <1>   0.0800 
 24 H       -0.8220     6.1300    -0.8360 H     1 <1>   0.0800 
 25 H       -0.9050     5.5320     0.7940 H     1 <1>   0.0800 
 26 H       -3.2510     6.0060    -1.0510 H     1 <1>   0.0800 
 27 H       -3.2050    10.0560     0.1780 H     1 <1>   0.0800 
 28 H       -4.2530     9.4950     1.4770 H     1 <1>   0.0800 
 29 H       -5.1350    10.0300    -1.3880 H     1 <1>   0.0800 
 30 H       -5.4790    11.0670    -0.0260 H     1 <1>   0.0800 
 31 H       -6.1810     9.4700    -0.0920 H     1 <1>   0.0800 
@<TRIPOS>BOND
  1   1   2  1   
  2   2   3  1   
  3   2   4  1   
  4   2   5  1   
  5   5   6  1   
  6   6   7  1   
  7   6   8  1   
  8   6  17  1   
  9   7   9  1   
 10   7  18  1   
 11   7  19  1   
 12   8  10  1   
 13   8  20  1   
 14   8  21  1   
 15   9  11  1   
 16   9  22  1   
 17   9  23  1   
 18  10  11  1   
 19  10  24  1   
 20  10  25  1   
 21  11  12  1   
 22  11  26  1   
 23  12  13  2   
 24  12  14  1   
 25  14  15  1   
 26  15  16  1   
 27  15  27  1   
 28  15  28  1   
 29  16  29  1   
 30  16  30  1   
 31  16  31  1   
@<TRIPOS>SUBSTRUCTURE
  1 ****   9 GROUP 4 **** **** 0

# MOE 2024.06 (io_trps.svl 2023.06)
