@<TRIPOS>MOLECULE
Untitled Document
36 38 1 0 0 
SMALL
USER_CHARGES


@<TRIPOS>ATOM
  1 N       -0.8590     6.1750    -0.2300 N.ar  1 <1>  -0.1790 
  2 C        0.2710     5.4940    -0.4220 C.ar  1 <1>   0.4610 
  3 C       -2.0960     5.6110     0.0230 C.ar  1 <1>   0.3610 
  4 N        1.4240     6.1720    -0.6350 N.pl3 1 <1>  -0.8380 
  5 C        0.1620     4.0780    -0.3720 C.ar  1 <1>  -0.1500 
  6 C       -2.2040     4.2110     0.0860 C.ar  1 <1>   0.0000 
  7 C       -3.2260     6.4140     0.2180 C.ar  1 <1>  -0.1500 
  8 C        1.5340     7.6260    -0.9920 C.3   1 <1>   0.2090 
  9 C        2.7930     5.5630    -0.5230 C.3   1 <1>   0.2090 
 10 C       -1.0180     3.4430    -0.1260 C.ar  1 <1>  -0.1430 
 11 C       -3.4700     3.6610     0.3500 C.ar  1 <1>  -0.1500 
 12 C       -4.4510     5.8470     0.4740 C.ar  1 <1>  -0.1500 
 13 C        2.2530     8.3720     0.1350 C.3   1 <1>  -0.1600 
 14 C        3.5670     6.2660     0.5970 C.3   1 <1>  -0.1600 
 15 C       -1.0760     1.9200    -0.0840 C.3   1 <1>  -0.0970 
 16 C       -4.5700     4.4620     0.5400 C.ar  1 <1>  -0.1500 
 17 C        3.6490     7.7840     0.3800 C.3   1 <1>  -0.1600 
 18 H       -0.7790     7.1830    -0.2220 H     1 <1>   0.4570 
 19 H        1.0420     3.4930    -0.5510 H     1 <1>   0.1500 
 20 H       -3.1450     7.4850     0.1700 H     1 <1>   0.1500 
 21 H        0.5730     8.0720    -1.1730 H     1 <1>   0.0800 
 22 H        2.1050     7.7220    -1.9020 H     1 <1>   0.0800 
 23 H        3.3160     5.6820    -1.4580 H     1 <1>   0.0800 
 24 H        2.7580     4.5150    -0.2980 H     1 <1>   0.0800 
 25 H       -3.5920     2.5940     0.4070 H     1 <1>   0.1500 
 26 H       -5.3260     6.4590     0.6260 H     1 <1>   0.1500 
 27 H        1.6700     8.3110     1.0370 H     1 <1>   0.0800 
 28 H        2.3480     9.4110    -0.1270 H     1 <1>   0.0800 
 29 H        4.5620     5.8590     0.6500 H     1 <1>   0.0800 
 30 H        3.0840     6.0600     1.5370 H     1 <1>   0.0800 
 31 H       -0.1080     1.4870    -0.2650 H     1 <1>   0.0800 
 32 H       -1.7510     1.5520    -0.8370 H     1 <1>   0.0800 
 33 H       -1.4140     1.5860     0.8810 H     1 <1>   0.0800 
 34 H       -5.5350     4.0250     0.7420 H     1 <1>   0.1500 
 35 H        4.1000     8.2520     1.2380 H     1 <1>   0.0800 
 36 H        4.2760     7.9860    -0.4730 H     1 <1>   0.0800 
@<TRIPOS>BOND
  1   1   2  ar  
  2   1   3  ar  
  3   1  18  1   
  4   2   4  1   
  5   2   5  ar  
  6   3   6  ar  
  7   3   7  ar  
  8   4   8  1   
  9   4   9  1   
 10   5  10  ar  
 11   5  19  1   
 12   6  10  ar  
 13   6  11  ar  
 14   7  12  ar  
 15   7  20  1   
 16   8  13  1   
 17   8  21  1   
 18   8  22  1   
 19   9  14  1   
 20   9  23  1   
 21   9  24  1   
 22  10  15  1   
 23  11  16  ar  
 24  11  25  1   
 25  12  16  ar  
 26  12  26  1   
 27  13  17  1   
 28  13  27  1   
 29  13  28  1   
 30  14  17  1   
 31  14  29  1   
 32  14  30  1   
 33  15  31  1   
 34  15  32  1   
 35  15  33  1   
 36  16  34  1   
 37  17  35  1   
 38  17  36  1   
@<TRIPOS>SUBSTRUCTURE
  1 ****   2 GROUP 4 **** **** 0

# MOE 2024.06 (io_trps.svl 2023.06)
