@<TRIPOS>MOLECULE
NONAME
42 44 1 0 0 
SMALL
USER_CHARGES


@<TRIPOS>ATOM
  1 O       -0.8980    -0.4500     1.1900 O.2   1 <1>  -0.5700 
  2 C       -1.8890    -0.2970     0.4950 C.2   1 <1>   0.7160 
  3 N       -2.2930     0.9940     0.2370 N.am  1 <1>  -0.7300 
  4 C       -2.6410    -1.4250    -0.0660 C.2   1 <1>   0.4300 
  5 C       -1.6480     2.2390     0.7270 C.3   1 <1>   0.0600 
  6 N       -3.6710    -1.3050    -0.8410 N.2   1 <1>  -0.4100 
  7 N       -2.3530    -2.7210     0.1500 N.2   1 <1>  -0.5650 
  8 O       -4.0860    -2.4920    -1.1460 O.3   1 <1>  -0.0190 
  9 C       -3.2650    -3.2960    -0.5210 C.2   1 <1>   0.2980 
 10 C       -3.4480    -4.8040    -0.6740 C.3   1 <1>   0.2900 
 11 N       -4.6760    -5.3360    -0.0330 N.3   1 <1>  -0.8100 
 12 C       -5.9320    -4.8930    -0.6590 C.3   1 <1>   0.1100 
 13 C       -4.7130    -6.8080    -0.0070 C.3   1 <1>   0.1100 
 14 C       -6.9590    -5.9210    -0.1980 C.3   1 <1>   0.2000 
 15 C       -6.1650    -7.2240    -0.2890 C.3   1 <1>  -0.0800 
 16 O       -7.2470    -5.6460     1.1270 O.3   1 <1>  -0.6800 
 17 C       -6.6700    -8.3760     0.5990 C.3   1 <1>  -0.0170 
 18 C       -5.8310    -9.6280     0.3900 C.ar  1 <1>  -0.1440 
 19 C       -4.8510   -10.0080     1.2840 C.ar  1 <1>  -0.1500 
 20 C       -6.0020   -10.4440    -0.7100 C.ar  1 <1>  -0.1500 
 21 C       -4.1040   -11.1480     1.0370 C.ar  1 <1>   0.1600 
 22 C       -5.2010   -11.5640    -0.8630 C.ar  1 <1>   0.1600 
 23 N       -4.2520   -11.9320    -0.0180 N.ar  1 <1>  -0.6200 
 24 H       -3.1260     1.1070    -0.3470 H     1 <1>   0.3700 
 25 H       -0.7860     2.0060     1.3310 H     1 <1>   0.0800 
 26 H       -2.3460     2.8010     1.3220 H     1 <1>   0.0800 
 27 H       -1.3310     2.8380    -0.1090 H     1 <1>   0.0800 
 28 H       -2.5940    -5.2780    -0.2210 H     1 <1>   0.0800 
 29 H       -3.4460    -5.0520    -1.7210 H     1 <1>   0.0800 
 30 H       -6.2040    -3.8970    -0.3530 H     1 <1>   0.0800 
 31 H       -5.8470    -4.9290    -1.7320 H     1 <1>   0.0800 
 32 H       -4.0600    -7.2370    -0.7490 H     1 <1>   0.0800 
 33 H       -4.3970    -7.1430     0.9670 H     1 <1>   0.0800 
 34 H       -7.8720    -5.9190    -0.7670 H     1 <1>   0.0800 
 35 H       -6.2070    -7.5530    -1.3130 H     1 <1>   0.0800 
 36 H       -6.3940    -5.4080     1.5510 H     1 <1>   0.4000 
 37 H       -7.6970    -8.5900     0.3610 H     1 <1>   0.0800 
 38 H       -6.6350    -8.0910     1.6370 H     1 <1>   0.0800 
 39 H       -4.6600    -9.4310     2.1700 H     1 <1>   0.1500 
 40 H       -6.7500   -10.2200    -1.4480 H     1 <1>   0.1500 
 41 H       -3.3430   -11.4290     1.7460 H     1 <1>   0.1500 
 42 H       -5.3490   -12.1890    -1.7270 H     1 <1>   0.1500 
@<TRIPOS>BOND
  1   1   2  2   
  2   2   3  am  
  3   2   4  1   
  4   3   5  1   
  5   3  24  1   
  6   4   6  2   
  7   4   7  1   
  8   5  25  1   
  9   5  26  1   
 10   5  27  1   
 11   6   8  1   
 12   7   9  2   
 13   8   9  1   
 14   9  10  1   
 15  10  11  1   
 16  10  28  1   
 17  10  29  1   
 18  11  12  1   
 19  11  13  1   
 20  12  14  1   
 21  12  30  1   
 22  12  31  1   
 23  13  15  1   
 24  13  32  1   
 25  13  33  1   
 26  14  15  1   
 27  14  16  1   
 28  14  34  1   
 29  15  17  1   
 30  15  35  1   
 31  16  36  1   
 32  17  18  1   
 33  17  37  1   
 34  17  38  1   
 35  18  19  ar  
 36  18  20  ar  
 37  19  21  ar  
 38  19  39  1   
 39  20  22  ar  
 40  20  40  1   
 41  21  23  ar  
 42  21  41  1   
 43  22  23  ar  
 44  22  42  1   
@<TRIPOS>SUBSTRUCTURE
  1 ****  11 GROUP 4 **** **** 0

# MOE 2024.06 (io_trps.svl 2023.06)
