@<TRIPOS>MOLECULE
NONAME
40 42 1 0 0 
SMALL
USER_CHARGES


@<TRIPOS>ATOM
  1 F        0.8300     1.9190    -2.0240 F     1 <1>  -0.1900 
  2 C        1.9570     2.1620    -1.3940 C.ar  1 <1>   0.1900 
  3 C        1.9900     2.8950    -0.2230 C.ar  1 <1>   0.3920 
  4 C        3.1360     1.6860    -1.9030 C.ar  1 <1>   0.1600 
  5 O        0.8380     3.3750     0.2930 O.3   1 <1>  -0.3630 
  6 N        3.1300     3.1360     0.3990 N.ar  1 <1>  -0.6200 
  7 N        4.2840     1.9140    -1.2950 N.ar  1 <1>  -0.6200 
  8 C        0.8110     4.0600     1.5300 C.3   1 <1>   0.0400 
  9 C        4.2150     2.6110    -0.1600 C.ar  1 <1>   0.7200 
 10 N        5.4080     2.8380     0.4850 N.pl3 1 <1>  -0.8380 
 11 C        5.6600     4.1350     1.1900 C.3   1 <1>   0.2090 
 12 C        6.5110     1.8370     0.4410 C.3   1 <1>   0.2090 
 13 C        7.0090     4.8140     0.8310 C.3   1 <1>   0.4230 
 14 C        7.6630     2.2940    -0.4800 C.3   1 <1>  -0.0800 
 15 N        7.3540     4.8320    -0.6480 N.4   1 <1>  -0.9590 
 16 C        8.1910     4.2240     1.6400 C.3   1 <1>   0.1200 
 17 C        9.0060     2.4570     0.2650 C.3   1 <1>   0.1200 
 18 C        7.2800     3.5040    -1.3540 C.3   1 <1>   0.3430 
 19 C        6.5960     5.8690    -1.4020 C.3   1 <1>   0.2630 
 20 O        9.1950     3.7410     0.7870 O.3   1 <1>  -0.5600 
 21 H        3.1320     1.1150    -2.8150 H     1 <1>   0.1500 
 22 H       -0.2080     4.3200     1.7500 H     1 <1>   0.0800 
 23 H        1.4110     4.9490     1.4500 H     1 <1>   0.0800 
 24 H        1.1990     3.4100     2.2960 H     1 <1>   0.0800 
 25 H        4.8760     4.8310     0.9490 H     1 <1>   0.0800 
 26 H        5.6080     3.9680     2.2520 H     1 <1>   0.0800 
 27 H        6.8630     1.6540     1.4420 H     1 <1>   0.0800 
 28 H        6.1250     0.8960     0.0830 H     1 <1>   0.0800 
 29 H        6.9190     5.8350     1.1620 H     1 <1>   0.0800 
 30 H        7.8070     1.4700    -1.1560 H     1 <1>   0.0800 
 31 H        8.3650     5.0510    -0.6360 H     1 <1>   0.4500 
 32 H        7.8830     3.4430     2.3130 H     1 <1>   0.0800 
 33 H        8.6310     5.0060     2.2340 H     1 <1>   0.0800 
 34 H        9.8190     2.2860    -0.4200 H     1 <1>   0.0800 
 35 H        9.1010     1.7440     1.0670 H     1 <1>   0.0800 
 36 H        6.2790     3.3490    -1.7230 H     1 <1>   0.0800 
 37 H        7.9340     3.5320    -2.2090 H     1 <1>   0.0800 
 38 H        5.5450     5.6250    -1.4110 H     1 <1>   0.0800 
 39 H        6.9450     5.9190    -2.4210 H     1 <1>   0.0800 
 40 H        6.7260     6.8370    -0.9470 H     1 <1>   0.0800 
@<TRIPOS>BOND
  1   1   2  1   
  2   2   3  ar  
  3   2   4  ar  
  4   3   5  1   
  5   3   6  ar  
  6   4   7  ar  
  7   4  21  1   
  8   5   8  1   
  9   6   9  ar  
 10   7   9  ar  
 11   8  22  1   
 12   8  23  1   
 13   8  24  1   
 14   9  10  1   
 15  10  11  1   
 16  10  12  1   
 17  11  13  1   
 18  11  25  1   
 19  11  26  1   
 20  12  14  1   
 21  12  27  1   
 22  12  28  1   
 23  13  15  1   
 24  13  16  1   
 25  13  29  1   
 26  14  17  1   
 27  14  18  1   
 28  14  30  1   
 29  15  18  1   
 30  15  19  1   
 31  15  31  1   
 32  16  20  1   
 33  16  32  1   
 34  16  33  1   
 35  17  20  1   
 36  17  34  1   
 37  17  35  1   
 38  18  36  1   
 39  18  37  1   
 40  19  38  1   
 41  19  39  1   
 42  19  40  1   
@<TRIPOS>SUBSTRUCTURE
  1 ****  10 GROUP 4 **** **** 0

# MOE 2024.06 (io_trps.svl 2023.06)
