@<TRIPOS>MOLECULE
NONAME
50 52 1 0 0 
SMALL
USER_CHARGES


@<TRIPOS>ATOM
  1 O        0.4640    -0.5930     1.1960 O.2   1 <1>  -0.5700 
  2 C        1.2210    -0.8560     0.2800 C.2   1 <1>   0.7150 
  3 N        2.0720     0.1160    -0.1510 N.am  1 <1>  -0.7300 
  4 C        1.2150    -2.1620    -0.3440 C.2   1 <1>   0.0550 
  5 C        2.1800     1.4560     0.4460 C.3   1 <1>   0.3210 
  6 O        0.4420    -3.1310     0.1360 O.3   1 <1>  -0.2800 
  7 C        1.8870    -2.6590    -1.4220 C.2   1 <1>  -0.1500 
  8 C        3.5700     1.9760     0.1560 C.2   1 <1>  -0.1810 
  9 C        0.5860    -4.2130    -0.5930 C.2   1 <1>  -0.0400 
 10 C        1.4770    -3.9840    -1.5830 C.2   1 <1>  -0.1500 
 11 C        3.9890     2.8690    -0.7560 C.2   1 <1>  -0.0400 
 12 C        4.7460     1.6080     0.8080 C.2   1 <1>   0.1080 
 13 C       -0.2170    -5.4540    -0.2360 C.3   1 <1>   0.5230 
 14 O        5.2830     2.9900    -0.6330 O.3   1 <1>  -0.0190 
 15 C        3.2680     3.6810    -1.8120 C.3   1 <1>  -0.0600 
 16 N        5.7540     2.2290     0.3120 N.2   1 <1>  -0.4100 
 17 C        4.8530     0.6180     1.9500 C.3   1 <1>  -0.0590 
 18 N       -1.6720    -5.1250    -0.2400 N.4   1 <1>  -0.9590 
 19 C       -2.0870    -4.4530     1.0300 C.3   1 <1>   0.3430 
 20 C       -2.5120    -6.3160    -0.5420 C.3   1 <1>   0.3430 
 21 C       -3.5430    -4.0010     0.9210 C.3   1 <1>  -0.1600 
 22 C       -3.9750    -5.8940    -0.6800 C.3   1 <1>  -0.1600 
 23 C       -4.4770    -5.1700     0.5770 C.3   1 <1>  -0.0800 
 24 C       -5.9130    -4.6720     0.3770 C.3   1 <1>  -0.2400 
 25 H        2.7630    -0.0800    -0.8740 H     1 <1>   0.3700 
 26 H        2.0110     1.4100     1.5090 H     1 <1>   0.0800 
 27 H        1.4390     2.1020     0.0080 H     1 <1>   0.0800 
 28 H        2.5980    -2.1530    -2.0520 H     1 <1>   0.1500 
 29 H        1.8300    -4.6480    -2.3550 H     1 <1>   0.1500 
 30 H        0.0810    -5.8160     0.7340 H     1 <1>   0.0800 
 31 H       -0.0100    -6.2190    -0.9660 H     1 <1>   0.0800 
 32 H        2.2150     3.4680    -1.8040 H     1 <1>   0.0800 
 33 H        3.6640     3.4460    -2.7830 H     1 <1>   0.0800 
 34 H        3.4130     4.7300    -1.6230 H     1 <1>   0.0800 
 35 H        4.4230    -0.3230     1.6640 H     1 <1>   0.0800 
 36 H        4.3360     0.9990     2.8110 H     1 <1>   0.0800 
 37 H        5.8860     0.4650     2.2060 H     1 <1>   0.0800 
 38 H       -1.8050    -4.4320    -0.9880 H     1 <1>   0.4500 
 39 H       -1.4670    -3.5920     1.2250 H     1 <1>   0.0800 
 40 H       -1.9840    -5.1360     1.8580 H     1 <1>   0.0800 
 41 H       -2.4220    -7.0380     0.2540 H     1 <1>   0.0800 
 42 H       -2.1860    -6.7780    -1.4610 H     1 <1>   0.0800 
 43 H       -3.6170    -3.2290     0.1740 H     1 <1>   0.0800 
 44 H       -3.8410    -3.5670     1.8590 H     1 <1>   0.0800 
 45 H       -4.5750    -6.7710    -0.8510 H     1 <1>   0.0800 
 46 H       -4.0810    -5.2580    -1.5430 H     1 <1>   0.0800 
 47 H       -4.4760    -5.8660     1.4010 H     1 <1>   0.0800 
 48 H       -5.9670    -3.9680    -0.4360 H     1 <1>   0.0800 
 49 H       -6.2700    -4.1880     1.2690 H     1 <1>   0.0800 
 50 H       -6.5700    -5.4960     0.1590 H     1 <1>   0.0800 
@<TRIPOS>BOND
  1   1   2  2   
  2   2   3  am  
  3   2   4  1   
  4   3   5  1   
  5   3  25  1   
  6   4   6  1   
  7   4   7  2   
  8   5   8  1   
  9   5  26  1   
 10   5  27  1   
 11   6   9  1   
 12   7  10  1   
 13   7  28  1   
 14   8  11  2   
 15   8  12  1   
 16   9  10  2   
 17   9  13  1   
 18  10  29  1   
 19  11  14  1   
 20  11  15  1   
 21  12  16  2   
 22  12  17  1   
 23  13  18  1   
 24  13  30  1   
 25  13  31  1   
 26  14  16  1   
 27  15  32  1   
 28  15  33  1   
 29  15  34  1   
 30  17  35  1   
 31  17  36  1   
 32  17  37  1   
 33  18  19  1   
 34  18  20  1   
 35  18  38  1   
 36  19  21  1   
 37  19  39  1   
 38  19  40  1   
 39  20  22  1   
 40  20  41  1   
 41  20  42  1   
 42  21  23  1   
 43  21  43  1   
 44  21  44  1   
 45  22  23  1   
 46  22  45  1   
 47  22  46  1   
 48  23  24  1   
 49  23  47  1   
 50  24  48  1   
 51  24  49  1   
 52  24  50  1   
@<TRIPOS>SUBSTRUCTURE
  1 ****   4 GROUP 4 **** **** 0

# MOE 2024.06 (io_trps.svl 2023.06)
