@<TRIPOS>MOLECULE
NONAME
33 34 1 0 0 
SMALL
USER_CHARGES


@<TRIPOS>ATOM
  1 O        2.6630     0.6510    -1.3230 O.2   1 <1>  -0.5700 
  2 C        1.8160     1.2220    -0.6630 C.2   1 <1>   0.7060 
  3 O        1.1350     0.5200     0.2450 O.3   1 <1>  -0.4300 
  4 C        1.5660     2.6390    -0.7950 C.2   1 <1>   0.0590 
  5 C        1.3050    -0.8680     0.4020 C.3   1 <1>   0.1200 
  6 C        0.2590     3.1880    -0.5710 C.2   1 <1>   0.1410 
  7 C        2.5730     3.5070    -1.1500 C.2   1 <1>  -0.1500 
  8 C        0.3390    -1.3380     1.4840 C.3   1 <1>  -0.2400 
  9 N       -0.8630     2.5730    -0.2860 N.2   1 <1>  -0.5650 
 10 N        0.0850     4.5480    -0.6760 N.pl3 1 <1>   0.3340 
 11 C        2.3520     4.9000    -1.2640 C.2   1 <1>  -0.1500 
 12 C       -1.8050     3.5470    -0.1840 C.2   1 <1>   0.1410 
 13 C        1.1150     5.4030    -1.0220 C.2   1 <1>  -0.1810 
 14 C       -1.2130     4.7540    -0.4260 C.2   1 <1>  -0.3020 
 15 C       -3.2090     3.3130     0.1320 C.2   1 <1>   0.8060 
 16 O       -3.7080     2.2230     0.3370 O.2   1 <1>  -0.5700 
 17 O       -3.9980     4.3950     0.1990 O.3   1 <1>  -0.4300 
 18 C       -5.3720     4.2890     0.4970 C.3   1 <1>   0.1200 
 19 C       -5.9660     5.6940     0.4920 C.3   1 <1>  -0.2400 
 20 H        2.3270    -1.0590     0.6820 H     1 <1>   0.0800 
 21 H        1.0900    -1.3460    -0.5400 H     1 <1>   0.0800 
 22 H        3.5650     3.1350    -1.3480 H     1 <1>   0.1500 
 23 H        0.5600    -0.8480     2.4150 H     1 <1>   0.0800 
 24 H        0.4320    -2.3990     1.6220 H     1 <1>   0.0800 
 25 H       -0.6730    -1.1150     1.1950 H     1 <1>   0.0800 
 26 H        3.1800     5.5330    -1.5410 H     1 <1>   0.1500 
 27 H        0.8760     6.4490    -1.0870 H     1 <1>   0.1500 
 28 H       -1.6620     5.7290    -0.4300 H     1 <1>   0.1500 
 29 H       -5.4770     3.8280     1.4650 H     1 <1>   0.0800 
 30 H       -5.8380     3.6690    -0.2510 H     1 <1>   0.0800 
 31 H       -5.4850     6.3030     1.2360 H     1 <1>   0.0800 
 32 H       -7.0160     5.6430     0.7170 H     1 <1>   0.0800 
 33 H       -5.8460     6.1440    -0.4770 H     1 <1>   0.0800 
@<TRIPOS>BOND
  1   1   2  2   
  2   2   3  1   
  3   2   4  1   
  4   3   5  1   
  5   4   6  1   
  6   4   7  2   
  7   5   8  1   
  8   5  20  1   
  9   5  21  1   
 10   6   9  2   
 11   6  10  1   
 12   7  11  1   
 13   7  22  1   
 14   8  23  1   
 15   8  24  1   
 16   8  25  1   
 17   9  12  1   
 18  10  13  1   
 19  10  14  1   
 20  11  13  2   
 21  11  26  1   
 22  12  14  2   
 23  12  15  1   
 24  13  27  1   
 25  14  28  1   
 26  15  16  2   
 27  15  17  1   
 28  17  18  1   
 29  18  19  1   
 30  18  29  1   
 31  18  30  1   
 32  19  31  1   
 33  19  32  1   
 34  19  33  1   
@<TRIPOS>SUBSTRUCTURE
  1 ****   9 GROUP 4 **** **** 0

# MOE 2024.06 (io_trps.svl 2023.06)
