@<TRIPOS>MOLECULE
NONAME
55 59 1 0 0 
SMALL
USER_CHARGES


@<TRIPOS>ATOM
  1 S       -1.3440     0.3080     0.3040 S.3   1 <1>  -0.0800 
  2 C        0.1040     0.7890    -0.5770 C.2   1 <1>   0.3250 
  3 C       -1.8010    -0.7470    -1.0000 C.2   1 <1>  -0.1400 
  4 N        0.1910     0.1930    -1.7160 N.2   1 <1>  -0.5650 
  5 C        0.9840     1.7570     0.0440 C.ar  1 <1>   0.0530 
  6 C       -0.8570    -0.6680    -1.9480 C.2   1 <1>   0.0770 
  7 C       -3.0770    -1.5500    -0.8840 C.3   1 <1>   0.5230 
  8 C        1.5750     2.8190    -0.6600 C.ar  1 <1>  -0.1440 
  9 C        1.2720     1.6510     1.4070 C.ar  1 <1>  -0.1500 
 10 N       -4.2200    -0.7080    -1.3320 N.4   1 <1>  -0.9590 
 11 C        2.4030     3.7190    -0.0080 C.ar  1 <1>  -0.1500 
 12 C        1.3300     3.0230    -2.1500 C.3   1 <1>  -0.0970 
 13 C        2.0960     2.5520     2.0520 C.ar  1 <1>  -0.1500 
 14 C       -4.6370     0.2750    -0.2700 C.3   1 <1>   0.3430 
 15 C       -5.3780    -1.5420    -1.7660 C.3   1 <1>   0.3430 
 16 C        2.6640     3.5910     1.3430 C.ar  1 <1>  -0.1500 
 17 C       -5.7340     1.2310    -0.7660 C.3   1 <1>   0.1440 
 18 C       -6.4790    -0.6430    -2.3360 C.3   1 <1>  -0.1600 
 19 C       -6.1740     2.0820     0.4000 C.ar  1 <1>   0.1670 
 20 C       -6.9280     0.4320    -1.3290 C.3   1 <1>  -0.1600 
 21 C       -5.2060     2.2880    -1.7740 C.3   1 <1>  -0.1600 
 22 N       -6.4680     1.6140     1.5900 N.ar  1 <1>  -0.6200 
 23 C       -6.2150     3.4040     0.0790 C.ar  1 <1>  -0.1430 
 24 C       -5.8130     3.6420    -1.3550 C.3   1 <1>  -0.0170 
 25 C       -6.8270     2.5480     2.4630 C.ar  1 <1>   0.4770 
 26 C       -6.5940     4.2840     1.0610 C.ar  1 <1>   0.1600 
 27 N       -6.9030     3.8570     2.2680 N.ar  1 <1>  -0.6200 
 28 C       -7.1860     2.0660     3.8480 C.3   1 <1>  -0.0970 
 29 H       -0.8410    -1.2140    -2.8780 H     1 <1>   0.1500 
 30 H       -3.2200    -1.8870     0.1300 H     1 <1>   0.0800 
 31 H       -2.9940    -2.4150    -1.5220 H     1 <1>   0.0800 
 32 H        0.8510     0.8440     1.9790 H     1 <1>   0.1500 
 33 H       -3.8900    -0.1670    -2.1410 H     1 <1>   0.4500 
 34 H        2.8570     4.5310    -0.5490 H     1 <1>   0.1500 
 35 H        0.2760     3.0120    -2.3610 H     1 <1>   0.0800 
 36 H        1.8050     2.2360    -2.7090 H     1 <1>   0.0800 
 37 H        1.7300     3.9630    -2.4870 H     1 <1>   0.0800 
 38 H        2.2990     2.4450     3.1040 H     1 <1>   0.1500 
 39 H       -3.7970     0.8660     0.0520 H     1 <1>   0.0800 
 40 H       -5.0130    -0.2570     0.5900 H     1 <1>   0.0800 
 41 H       -5.7680    -2.0930    -0.9240 H     1 <1>   0.0800 
 42 H       -5.0680    -2.2480    -2.5200 H     1 <1>   0.0800 
 43 H        3.3090     4.2970     1.8380 H     1 <1>   0.1500 
 44 H       -7.3270    -1.2540    -2.5950 H     1 <1>   0.0800 
 45 H       -6.1330    -0.1840    -3.2460 H     1 <1>   0.0800 
 46 H       -7.6370     1.1000    -1.7880 H     1 <1>   0.0800 
 47 H       -7.4370    -0.0530    -0.5110 H     1 <1>   0.0800 
 48 H       -5.4510     2.0570    -2.7950 H     1 <1>   0.0800 
 49 H       -4.1350     2.3680    -1.6900 H     1 <1>   0.0800 
 50 H       -6.6870     3.8690    -1.9410 H     1 <1>   0.0800 
 51 H       -5.0990     4.4440    -1.4410 H     1 <1>   0.0800 
 52 H       -6.6440     5.3420     0.8640 H     1 <1>   0.1500 
 53 H       -7.5730     1.0650     3.8060 H     1 <1>   0.0800 
 54 H       -7.9330     2.7070     4.2780 H     1 <1>   0.0800 
 55 H       -6.3110     2.0820     4.4690 H     1 <1>   0.0800 
@<TRIPOS>BOND
  1   1   2  1   
  2   1   3  1   
  3   2   4  2   
  4   2   5  1   
  5   3   6  2   
  6   3   7  1   
  7   4   6  1   
  8   5   8  ar  
  9   5   9  ar  
 10   6  29  1   
 11   7  10  1   
 12   7  30  1   
 13   7  31  1   
 14   8  11  ar  
 15   8  12  1   
 16   9  13  ar  
 17   9  32  1   
 18  10  14  1   
 19  10  15  1   
 20  10  33  1   
 21  11  16  ar  
 22  11  34  1   
 23  12  35  1   
 24  12  36  1   
 25  12  37  1   
 26  13  16  ar  
 27  13  38  1   
 28  14  17  1   
 29  14  39  1   
 30  14  40  1   
 31  15  18  1   
 32  15  41  1   
 33  15  42  1   
 34  16  43  1   
 35  17  19  1   
 36  17  20  1   
 37  17  21  1   
 38  18  20  1   
 39  18  44  1   
 40  18  45  1   
 41  19  22  ar  
 42  19  23  ar  
 43  20  46  1   
 44  20  47  1   
 45  21  24  1   
 46  21  48  1   
 47  21  49  1   
 48  22  25  ar  
 49  23  24  1   
 50  23  26  ar  
 51  24  50  1   
 52  24  51  1   
 53  25  27  ar  
 54  25  28  1   
 55  26  27  ar  
 56  26  52  1   
 57  28  53  1   
 58  28  54  1   
 59  28  55  1   
@<TRIPOS>SUBSTRUCTURE
  1 ****  14 GROUP 4 **** **** 0

# MOE 2024.06 (io_trps.svl 2023.06)
