@<TRIPOS>MOLECULE
NONAME
41 43 1 0 0 
SMALL
USER_CHARGES


@<TRIPOS>ATOM
  1 CL      -1.4770    -2.4250    -1.8890 Cl    1 <1>  -0.1770 
  2 C       -1.9750    -2.3480    -0.2100 C.ar  1 <1>   0.1770 
  3 C       -1.8310    -1.1690     0.5140 C.ar  1 <1>   0.0820 
  4 C       -2.5090    -3.4750     0.3780 C.ar  1 <1>  -0.1500 
  5 O       -1.4510    -0.0180    -0.0710 O.3   1 <1>  -0.3630 
  6 C       -2.1410    -1.1580     1.8640 C.ar  1 <1>  -0.1500 
  7 C       -2.9050    -3.4510     1.7150 C.ar  1 <1>   0.0860 
  8 C       -2.4870     0.6180    -0.7910 C.3   1 <1>   0.1200 
  9 C       -2.6680    -2.2910     2.4560 C.ar  1 <1>  -0.1500 
 10 C       -3.6170    -4.5660     2.2970 C.2   1 <1>   0.5440 
 11 C       -1.9450     1.9280    -1.3650 C.3   1 <1>  -0.1600 
 12 O       -3.0630    -5.3310     3.0660 O.2   1 <1>  -0.5700 
 13 N       -4.9390    -4.7590     1.9960 N.am  1 <1>  -0.6600 
 14 C       -3.0260     2.6730    -2.1560 C.3   1 <1>  -0.2400 
 15 C       -5.8090    -3.6400     1.6310 C.3   1 <1>   0.2350 
 16 C       -5.2890    -5.7910     1.0280 C.3   1 <1>   0.2350 
 17 C       -5.7850    -3.5550     0.1070 C.3   1 <1>  -0.2420 
 18 C       -5.4210    -5.0700    -0.3180 C.3   1 <1>  -0.2420 
 19 C       -6.0860    -2.0660    -0.0710 C.2   1 <1>   0.9470 
 20 C       -5.7200    -4.0090    -1.2820 C.3   1 <1>  -0.2000 
 21 C       -5.0900    -6.2290    -1.2550 C.2   1 <1>   0.9470 
 22 O       -5.1580    -1.2660    -0.2520 O.co2 1 <1>  -0.9000 
 23 O       -7.2520    -1.6780     0.0750 O.co2 1 <1>  -0.9000 
 24 O       -3.9210    -6.3830    -1.6310 O.co2 1 <1>  -0.9000 
 25 O       -5.9820    -7.0370    -1.5420 O.co2 1 <1>  -0.9000 
 26 H       -2.6550    -4.3660    -0.2110 H     1 <1>   0.1500 
 27 H       -1.9970    -0.2560     2.4290 H     1 <1>   0.1500 
 28 H       -2.8230    -0.0400    -1.5740 H     1 <1>   0.0800 
 29 H       -3.3100     0.7960    -0.1180 H     1 <1>   0.0800 
 30 H       -2.9360    -2.2820     3.4960 H     1 <1>   0.1500 
 31 H       -1.6020     2.5500    -0.5570 H     1 <1>   0.0800 
 32 H       -1.1160     1.7080    -2.0140 H     1 <1>   0.0800 
 33 H       -3.8640     2.9000    -1.5190 H     1 <1>   0.0800 
 34 H       -3.3740     2.0660    -2.9740 H     1 <1>   0.0800 
 35 H       -2.6320     3.5920    -2.5500 H     1 <1>   0.0800 
 36 H       -6.8110    -3.8690     1.9510 H     1 <1>   0.0800 
 37 H       -5.5020    -2.7240     2.1110 H     1 <1>   0.0800 
 38 H       -4.5510    -6.5780     1.0150 H     1 <1>   0.0800 
 39 H       -6.2400    -6.2140     1.3020 H     1 <1>   0.0800 
 40 H       -4.9180    -3.6400    -1.9000 H     1 <1>   0.1000 
 41 H       -6.6400    -4.0750    -1.8360 H     1 <1>   0.1000 
@<TRIPOS>BOND
  1   1   2  1   
  2   2   3  ar  
  3   2   4  ar  
  4   3   5  1   
  5   3   6  ar  
  6   4   7  ar  
  7   4  26  1   
  8   5   8  1   
  9   6   9  ar  
 10   6  27  1   
 11   7   9  ar  
 12   7  10  1   
 13   8  11  1   
 14   8  28  1   
 15   8  29  1   
 16   9  30  1   
 17  10  12  2   
 18  10  13  am  
 19  11  14  1   
 20  11  31  1   
 21  11  32  1   
 22  13  15  1   
 23  13  16  1   
 24  14  33  1   
 25  14  34  1   
 26  14  35  1   
 27  15  17  1   
 28  15  36  1   
 29  15  37  1   
 30  16  18  1   
 31  16  38  1   
 32  16  39  1   
 33  17  18  1   
 34  17  19  1   
 35  17  20  1   
 36  18  20  1   
 37  18  21  1   
 38  19  22  ar  
 39  19  23  ar  
 40  20  40  1   
 41  20  41  1   
 42  21  24  ar  
 43  21  25  ar  
@<TRIPOS>SUBSTRUCTURE
  1 ****   4 GROUP 4 **** **** 0

# MOE 2024.06 (io_trps.svl 2023.06)
