@<TRIPOS>MOLECULE
NONAME
51 52 1 0 0 
SMALL
USER_CHARGES


@<TRIPOS>ATOM
  1 CL       1.1580     0.1540     2.7530 Cl    1 <1>  -0.1770 
  2 C        2.1400     1.2180     1.7780 C.ar  1 <1>   0.1770 
  3 C        2.6710     2.3610     2.3480 C.ar  1 <1>  -0.1500 
  4 C        2.3710     0.9020     0.4520 C.ar  1 <1>  -0.1500 
  5 C        3.4500     3.2080     1.5770 C.ar  1 <1>  -0.1500 
  6 C        3.1500     1.7510    -0.3170 C.ar  1 <1>  -0.1500 
  7 C        3.6900     2.9040     0.2370 C.ar  1 <1>   0.0820 
  8 O        4.4370     3.6790    -0.5880 O.3   1 <1>  -0.3630 
  9 C        4.9940     4.8970    -0.1400 C.3   1 <1>   0.1200 
 10 C        5.7770     5.5250    -1.2940 C.3   1 <1>   0.1400 
 11 N        6.1420     6.9460    -0.9890 N.am  1 <1>  -0.6600 
 12 C        7.1620     7.2030    -0.0950 C.2   1 <1>   0.5690 
 13 C        5.3870     7.9590    -1.7900 C.3   1 <1>   0.1400 
 14 O        7.6750     6.2970     0.5200 O.2   1 <1>  -0.5700 
 15 C        7.7090     8.6070     0.2050 C.3   1 <1>  -0.0190 
 16 C        3.9630     8.1290    -1.2490 C.3   1 <1>   0.1200 
 17 C        6.6810     9.5410     0.8800 C.3   1 <1>  -0.1600 
 18 C        8.4370     9.2510    -1.0030 C.3   1 <1>  -0.1600 
 19 O        3.3500     9.1930    -1.8930 O.3   1 <1>  -0.6800 
 20 C        7.2970    10.8850     1.3160 C.3   1 <1>   0.2000 
 21 C        8.3850    10.7890    -0.9990 C.3   1 <1>  -0.1600 
 22 O        6.2780    11.8540     1.2510 O.3   1 <1>  -0.5600 
 23 C        8.4890    11.3310     0.4270 C.3   1 <1>   0.2000 
 24 C        5.4800    11.9490     2.3900 C.3   1 <1>   0.0400 
 25 O        8.5150    12.7090     0.3570 O.3   1 <1>  -0.6800 
 26 H        2.4750     2.5800     3.3820 H     1 <1>   0.1500 
 27 H        1.9480     0.0080     0.0320 H     1 <1>   0.1500 
 28 H        3.8580     4.0890     2.0340 H     1 <1>   0.1500 
 29 H        3.3430     1.5250    -1.3500 H     1 <1>   0.1500 
 30 H        4.1880     5.5390     0.1650 H     1 <1>   0.0800 
 31 H        5.6500     4.6890     0.6870 H     1 <1>   0.0800 
 32 H        5.1820     5.4840    -2.1900 H     1 <1>   0.0800 
 33 H        6.6760     4.9560    -1.4580 H     1 <1>   0.0800 
 34 H        5.8850     8.9080    -1.7710 H     1 <1>   0.0800 
 35 H        5.3410     7.6380    -2.8170 H     1 <1>   0.0800 
 36 H        8.4730     8.4570     0.9500 H     1 <1>   0.0800 
 37 H        3.9680     8.3330    -0.1930 H     1 <1>   0.0800 
 38 H        3.3780     7.2470    -1.4460 H     1 <1>   0.0800 
 39 H        6.2700     9.0460     1.7420 H     1 <1>   0.0800 
 40 H        5.8780     9.7470     0.2010 H     1 <1>   0.0800 
 41 H        9.4670     8.9370    -0.9740 H     1 <1>   0.0800 
 42 H        8.0420     8.8920    -1.9360 H     1 <1>   0.0800 
 43 H        3.7300    10.0480    -1.6100 H     1 <1>   0.4000 
 44 H        7.6550    10.8180     2.3300 H     1 <1>   0.0800 
 45 H        7.4550    11.1180    -1.4290 H     1 <1>   0.0800 
 46 H        9.1920    11.1760    -1.5970 H     1 <1>   0.0800 
 47 H        9.4190    11.0070     0.8620 H     1 <1>   0.0800 
 48 H        4.7390    12.7090     2.2170 H     1 <1>   0.0800 
 49 H        6.0930    12.2280     3.2300 H     1 <1>   0.0800 
 50 H        4.9950    11.0060     2.5710 H     1 <1>   0.0800 
 51 H        7.5860    13.0010     0.4990 H     1 <1>   0.4000 
@<TRIPOS>BOND
  1   1   2  1   
  2   2   3  ar  
  3   2   4  ar  
  4   3   5  ar  
  5   3  26  1   
  6   4   6  ar  
  7   4  27  1   
  8   5   7  ar  
  9   5  28  1   
 10   6   7  ar  
 11   6  29  1   
 12   7   8  1   
 13   8   9  1   
 14   9  10  1   
 15   9  30  1   
 16   9  31  1   
 17  10  11  1   
 18  10  32  1   
 19  10  33  1   
 20  11  12  am  
 21  11  13  1   
 22  12  14  2   
 23  12  15  1   
 24  13  16  1   
 25  13  34  1   
 26  13  35  1   
 27  15  17  1   
 28  15  18  1   
 29  15  36  1   
 30  16  19  1   
 31  16  37  1   
 32  16  38  1   
 33  17  20  1   
 34  17  39  1   
 35  17  40  1   
 36  18  21  1   
 37  18  41  1   
 38  18  42  1   
 39  19  43  1   
 40  20  22  1   
 41  20  23  1   
 42  20  44  1   
 43  21  23  1   
 44  21  45  1   
 45  21  46  1   
 46  22  24  1   
 47  23  25  1   
 48  23  47  1   
 49  24  48  1   
 50  24  49  1   
 51  24  50  1   
 52  25  51  1   
@<TRIPOS>SUBSTRUCTURE
  1 ****  11 GROUP 4 **** **** 0

# MOE 2024.06 (io_trps.svl 2023.06)
