@<TRIPOS>MOLECULE
NONAME
47 49 1 0 0 
SMALL
USER_CHARGES


@<TRIPOS>ATOM
  1 O        1.5960    -0.0960    -1.3110 O.3   1 <1>  -0.6800 
  2 C        1.5110    -0.1220     0.0680 C.3   1 <1>   0.2800 
  3 C        2.8950     0.2090     0.7060 C.3   1 <1>  -0.0800 
  4 C        1.0800    -1.5490     0.4530 C.3   1 <1>  -0.1600 
  5 C        0.4120     0.8870     0.4690 C.3   1 <1>  -0.1600 
  6 C        3.7520    -1.0090     1.0850 C.3   1 <1>  -0.0800 
  7 C        3.8380     1.0710    -0.1360 C.3   1 <1>   0.2090 
  8 C        2.0960    -2.6350     0.0350 C.3   1 <1>  -0.1600 
  9 C        0.6740     2.3510     0.0730 C.3   1 <1>  -0.2400 
 10 C        3.5580    -2.1530     0.0770 C.3   1 <1>  -0.1600 
 11 C        5.1940    -0.4900     1.1140 C.3   1 <1>   0.2090 
 12 N        5.1890     0.8300     0.4230 N.pl3 1 <1>  -0.8380 
 13 C        6.2750     1.2770    -0.3550 C.ar  1 <1>   0.4100 
 14 N        7.1350     0.3350    -0.7170 N.ar  1 <1>  -0.6200 
 15 C        6.4340     2.6610    -0.7450 C.ar  1 <1>   0.4100 
 16 C        8.1100     0.7880    -1.4890 C.ar  1 <1>   0.1600 
 17 N        7.4200     3.0760    -1.5280 N.ar  1 <1>  -0.6200 
 18 N        5.5760     3.6870    -0.3030 N.pl3 1 <1>  -0.8380 
 19 C        8.2430     2.1030    -1.8830 C.ar  1 <1>   0.1600 
 20 C        5.4960     3.9120     1.1640 C.3   1 <1>   0.1290 
 21 C        5.4020     4.9130    -1.1270 C.3   1 <1>   0.1290 
 22 H        0.7460    -0.3770    -1.6920 H     1 <1>   0.4000 
 23 H        2.7200     0.7460     1.6200 H     1 <1>   0.0800 
 24 H        0.9750    -1.5840     1.5230 H     1 <1>   0.0800 
 25 H        0.1140    -1.7780     0.0380 H     1 <1>   0.0800 
 26 H       -0.5210     0.5770     0.0320 H     1 <1>   0.0800 
 27 H        0.2810     0.8460     1.5360 H     1 <1>   0.0800 
 28 H        3.4860    -1.3680     2.0640 H     1 <1>   0.0800 
 29 H        3.5730     2.1100    -0.0790 H     1 <1>   0.0800 
 30 H        3.8400     0.7650    -1.1680 H     1 <1>   0.0800 
 31 H        1.9780    -3.4850     0.6840 H     1 <1>   0.0800 
 32 H        1.8780    -2.9620    -0.9670 H     1 <1>   0.0800 
 33 H        0.8710     2.4320    -0.9820 H     1 <1>   0.0800 
 34 H        1.5130     2.7500     0.6140 H     1 <1>   0.0800 
 35 H       -0.1870     2.9520     0.3040 H     1 <1>   0.0800 
 36 H        3.8370    -1.7960    -0.9010 H     1 <1>   0.0800 
 37 H        4.2050    -2.9790     0.3160 H     1 <1>   0.0800 
 38 H        5.8580    -1.1950     0.6450 H     1 <1>   0.0800 
 39 H        5.5140    -0.3410     2.1300 H     1 <1>   0.0800 
 40 H        8.8340     0.0680    -1.8230 H     1 <1>   0.1500 
 41 H        9.0670     2.3750    -2.5180 H     1 <1>   0.1500 
 42 H        4.4710     4.0690     1.4490 H     1 <1>   0.0800 
 43 H        6.0800     4.7730     1.4360 H     1 <1>   0.0800 
 44 H        5.8750     3.0570     1.6980 H     1 <1>   0.0800 
 45 H        4.4830     5.4060    -0.8630 H     1 <1>   0.0800 
 46 H        5.3660     4.6490    -2.1700 H     1 <1>   0.0800 
 47 H        6.2300     5.5820    -0.9650 H     1 <1>   0.0800 
@<TRIPOS>BOND
  1   1   2  1   
  2   1  22  1   
  3   2   3  1   
  4   2   4  1   
  5   2   5  1   
  6   3   6  1   
  7   3   7  1   
  8   3  23  1   
  9   4   8  1   
 10   4  24  1   
 11   4  25  1   
 12   5   9  1   
 13   5  26  1   
 14   5  27  1   
 15   6  10  1   
 16   6  11  1   
 17   6  28  1   
 18   7  12  1   
 19   7  29  1   
 20   7  30  1   
 21   8  10  1   
 22   8  31  1   
 23   8  32  1   
 24   9  33  1   
 25   9  34  1   
 26   9  35  1   
 27  10  36  1   
 28  10  37  1   
 29  11  12  1   
 30  11  38  1   
 31  11  39  1   
 32  12  13  1   
 33  13  14  ar  
 34  13  15  ar  
 35  14  16  ar  
 36  15  17  ar  
 37  15  18  1   
 38  16  19  ar  
 39  16  40  1   
 40  17  19  ar  
 41  18  20  1   
 42  18  21  1   
 43  19  41  1   
 44  20  42  1   
 45  20  43  1   
 46  20  44  1   
 47  21  45  1   
 48  21  46  1   
 49  21  47  1   
@<TRIPOS>SUBSTRUCTURE
  1 ****   7 GROUP 4 **** **** 0

# MOE 2024.06 (io_trps.svl 2023.06)
