@<TRIPOS>MOLECULE
NONAME
52 54 1 0 0 
SMALL
USER_CHARGES


@<TRIPOS>ATOM
  1 O       -0.6390     0.6010     1.2940 O.2   1 <1>  -0.5700 
  2 C       -1.6420     1.1920     0.9410 C.2   1 <1>   0.5440 
  3 N       -2.8000     0.4750     0.7360 N.am  1 <1>  -0.6600 
  4 C       -1.5980     2.6250     0.7280 C.ar  1 <1>   0.0860 
  5 C       -3.8950     0.9040    -0.1730 C.3   1 <1>   0.1400 
  6 C       -2.9020    -0.9830     0.9780 C.3   1 <1>   0.1400 
  7 C       -0.6060     3.2040    -0.0590 C.ar  1 <1>  -0.1500 
  8 C       -2.5370     3.4780     1.3030 C.ar  1 <1>  -0.1500 
  9 C       -4.6980    -0.3650    -0.4990 C.3   1 <1>   0.2000 
 10 C       -3.7250    -1.5090    -0.1980 C.3   1 <1>  -0.0800 
 11 C       -0.5490     4.5670    -0.2870 C.ar  1 <1>   0.0830 
 12 C       -2.5030     4.8430     1.0850 C.ar  1 <1>  -0.1500 
 13 O       -5.7960    -0.4680     0.3650 O.3   1 <1>  -0.5600 
 14 C       -4.3910    -2.8690     0.0760 C.3   1 <1>   0.0200 
 15 O        0.4810     4.9750    -1.0800 O.3   1 <1>  -0.3630 
 16 C       -1.5180     5.4100     0.2810 C.ar  1 <1>   0.0830 
 17 C       -6.9470     0.1960    -0.0560 C.3   1 <1>   0.0400 
 18 C       -3.3920    -4.0090     0.1950 C.2   1 <1>  -0.0400 
 19 C        1.1130     6.2180    -0.8610 C.3   1 <1>   0.3200 
 20 O       -1.4880     6.7470     0.0290 O.3   1 <1>  -0.3630 
 21 O       -3.8310    -5.1990     0.5070 O.3   1 <1>  -0.0190 
 22 C       -2.0610    -4.0940     0.0390 C.2   1 <1>  -0.1500 
 23 C        2.4820     6.1650    -1.4530 C.1   1 <1>  -0.2000 
 24 C       -2.4770     7.6340     0.5050 C.3   1 <1>   0.0400 
 25 N       -2.8690    -6.0730     0.5720 N.2   1 <1>  -0.4100 
 26 C       -1.7890    -5.4350     0.2960 C.2   1 <1>   0.1080 
 27 C        3.5730     6.1250    -1.9250 C.1   1 <1>  -0.1770 
 28 C       -0.4140    -6.0620     0.2580 C.3   1 <1>  -0.0590 
 29 H       -4.5130     1.6480     0.2970 H     1 <1>   0.0800 
 30 H       -3.4650     1.3060    -1.0730 H     1 <1>   0.0800 
 31 H       -1.9330    -1.4480     1.0290 H     1 <1>   0.0800 
 32 H       -3.4240    -1.1430     1.9060 H     1 <1>   0.0800 
 33 H        0.1430     2.5700    -0.5000 H     1 <1>   0.1500 
 34 H       -3.3000     3.0560     1.9350 H     1 <1>   0.1500 
 35 H       -5.0430    -0.3900    -1.5190 H     1 <1>   0.0800 
 36 H       -3.0660    -1.6080    -1.0420 H     1 <1>   0.0800 
 37 H       -3.2570     5.4470     1.5550 H     1 <1>   0.1500 
 38 H       -5.0720    -3.0990    -0.7240 H     1 <1>   0.0800 
 39 H       -4.9640    -2.8190     0.9860 H     1 <1>   0.0800 
 40 H       -7.7040     0.0570     0.6960 H     1 <1>   0.0800 
 41 H       -7.2820    -0.2290    -0.9860 H     1 <1>   0.0800 
 42 H       -6.7390     1.2450    -0.1690 H     1 <1>   0.0800 
 43 H        0.5320     6.9840    -1.3400 H     1 <1>   0.0800 
 44 H        1.1700     6.3960     0.1980 H     1 <1>   0.0800 
 45 H       -1.3380    -3.3430    -0.2190 H     1 <1>   0.1500 
 46 H       -2.2430     8.6200     0.1440 H     1 <1>   0.0800 
 47 H       -2.4640     7.6280     1.5810 H     1 <1>   0.0800 
 48 H       -3.4350     7.3260     0.1270 H     1 <1>   0.0800 
 49 H        4.5580     6.0790    -2.3530 H     1 <1>   0.1770 
 50 H        0.2440    -5.5400     0.9280 H     1 <1>   0.0800 
 51 H       -0.0190    -6.0130    -0.7400 H     1 <1>   0.0800 
 52 H       -0.4730    -7.0930     0.5600 H     1 <1>   0.0800 
@<TRIPOS>BOND
  1   1   2  2   
  2   2   3  am  
  3   2   4  1   
  4   3   5  1   
  5   3   6  1   
  6   4   7  ar  
  7   4   8  ar  
  8   5   9  1   
  9   5  29  1   
 10   5  30  1   
 11   6  10  1   
 12   6  31  1   
 13   6  32  1   
 14   7  11  ar  
 15   7  33  1   
 16   8  12  ar  
 17   8  34  1   
 18   9  10  1   
 19   9  13  1   
 20   9  35  1   
 21  10  14  1   
 22  10  36  1   
 23  11  15  1   
 24  11  16  ar  
 25  12  16  ar  
 26  12  37  1   
 27  13  17  1   
 28  14  18  1   
 29  14  38  1   
 30  14  39  1   
 31  15  19  1   
 32  16  20  1   
 33  17  40  1   
 34  17  41  1   
 35  17  42  1   
 36  18  21  1   
 37  18  22  2   
 38  19  23  1   
 39  19  43  1   
 40  19  44  1   
 41  20  24  1   
 42  21  25  1   
 43  22  26  1   
 44  22  45  1   
 45  23  27  3   
 46  24  46  1   
 47  24  47  1   
 48  24  48  1   
 49  25  26  2   
 50  26  28  1   
 51  27  49  1   
 52  28  50  1   
 53  28  51  1   
 54  28  52  1   
@<TRIPOS>SUBSTRUCTURE
  1 ****   2 GROUP 4 **** **** 0

# MOE 2024.06 (io_trps.svl 2023.06)
