@<TRIPOS>MOLECULE
NONAME
50 51 1 0 0 
SMALL
USER_CHARGES


@<TRIPOS>ATOM
  1 S        0.1210     0.3810    -0.3940 S.o2  1 <1>   1.3330 
  2 O       -0.1210     0.8250    -1.7490 O.2   1 <1>  -0.6500 
  3 O        0.0010    -1.0220    -0.0720 O.2   1 <1>  -0.6500 
  4 N       -0.9240     1.2380     0.6330 N.am  1 <1>  -0.8490 
  5 C        1.7360     1.0000     0.0740 C.3   1 <1>  -0.0550 
  6 C       -2.2700     1.3630     0.0670 C.3   1 <1>   0.1160 
  7 C       -1.0070     0.6630     1.9810 C.3   1 <1>   0.1160 
  8 C        2.8960     0.3680    -0.7340 C.3   1 <1>  -0.0800 
  9 C        4.2410     1.0650    -0.5510 C.3   1 <1>   0.2200 
 10 C        3.2360    -1.0080    -0.1650 C.3   1 <1>   0.1200 
 11 N        4.1370     2.5450    -0.4700 N.am  1 <1>  -0.7300 
 12 C        4.7950     0.4120     0.7220 C.3   1 <1>   0.1200 
 13 O        4.0310    -0.7410     0.9430 O.3   1 <1>  -0.5600 
 14 C        5.1880     3.3840    -0.2240 C.2   1 <1>   0.5440 
 15 O        6.2770     2.8930    -0.0010 O.2   1 <1>  -0.5700 
 16 C        5.0090     4.8260    -0.2580 C.ar  1 <1>   0.0860 
 17 C        3.7750     5.4250     0.0080 C.ar  1 <1>  -0.1500 
 18 C        6.0740     5.6750    -0.5620 C.ar  1 <1>  -0.1500 
 19 C        3.6120     6.7980    -0.0450 C.ar  1 <1>  -0.1500 
 20 C        5.9150     7.0470    -0.6160 C.ar  1 <1>  -0.1500 
 21 C        4.6800     7.6190    -0.3610 C.ar  1 <1>  -0.1440 
 22 C        4.5020     9.1290    -0.4220 C.3   1 <1>  -0.0170 
 23 C        4.7670     9.7590     0.9500 C.3   1 <1>  -0.1600 
 24 C        4.5940    11.2820     0.9140 C.3   1 <1>  -0.2400 
 25 H        1.7200     2.0590    -0.0830 H     1 <1>   0.0800 
 26 H        1.9020     0.8340     1.1210 H     1 <1>   0.0800 
 27 H       -2.9060     1.9220     0.7320 H     1 <1>   0.0800 
 28 H       -2.6990     0.3880    -0.0990 H     1 <1>   0.0800 
 29 H       -2.2280     1.8860    -0.8740 H     1 <1>   0.0800 
 30 H       -1.6140     1.2880     2.6130 H     1 <1>   0.0800 
 31 H       -0.0260     0.5920     2.4180 H     1 <1>   0.0800 
 32 H       -1.4390    -0.3240     1.9450 H     1 <1>   0.0800 
 33 H        2.6390     0.2990    -1.7770 H     1 <1>   0.0800 
 34 H        4.8960     0.8110    -1.3680 H     1 <1>   0.0800 
 35 H        3.8210    -1.5830    -0.8620 H     1 <1>   0.0800 
 36 H        2.3820    -1.5840     0.1460 H     1 <1>   0.0800 
 37 H        3.3150     2.9460    -0.9210 H     1 <1>   0.3700 
 38 H        4.6850     1.0530     1.5780 H     1 <1>   0.0800 
 39 H        5.8260     0.1290     0.5990 H     1 <1>   0.0800 
 40 H        2.9310     4.8140     0.2690 H     1 <1>   0.1500 
 41 H        7.0410     5.2450    -0.7600 H     1 <1>   0.1500 
 42 H        2.6480     7.2290     0.1640 H     1 <1>   0.1500 
 43 H        6.7600     7.6700    -0.8540 H     1 <1>   0.1500 
 44 H        5.1800     9.5420    -1.1480 H     1 <1>   0.0800 
 45 H        3.5020     9.3610    -0.7420 H     1 <1>   0.0800 
 46 H        4.0880     9.3400     1.6720 H     1 <1>   0.0800 
 47 H        5.7690     9.5210     1.2630 H     1 <1>   0.0800 
 48 H        3.5900    11.5410     0.6250 H     1 <1>   0.0800 
 49 H        5.2820    11.7230     0.2150 H     1 <1>   0.0800 
 50 H        4.7860    11.6960     1.8880 H     1 <1>   0.0800 
@<TRIPOS>BOND
  1   1   2  2   
  2   1   3  2   
  3   1   4  am  
  4   1   5  1   
  5   4   6  1   
  6   4   7  1   
  7   5   8  1   
  8   5  25  1   
  9   5  26  1   
 10   6  27  1   
 11   6  28  1   
 12   6  29  1   
 13   7  30  1   
 14   7  31  1   
 15   7  32  1   
 16   8   9  1   
 17   8  10  1   
 18   8  33  1   
 19   9  11  1   
 20   9  12  1   
 21   9  34  1   
 22  10  13  1   
 23  10  35  1   
 24  10  36  1   
 25  11  14  am  
 26  11  37  1   
 27  12  13  1   
 28  12  38  1   
 29  12  39  1   
 30  14  15  2   
 31  14  16  1   
 32  16  17  ar  
 33  16  18  ar  
 34  17  19  ar  
 35  17  40  1   
 36  18  20  ar  
 37  18  41  1   
 38  19  21  ar  
 39  19  42  1   
 40  20  21  ar  
 41  20  43  1   
 42  21  22  1   
 43  22  23  1   
 44  22  44  1   
 45  22  45  1   
 46  23  24  1   
 47  23  46  1   
 48  23  47  1   
 49  24  48  1   
 50  24  49  1   
 51  24  50  1   
@<TRIPOS>SUBSTRUCTURE
  1 ****  11 GROUP 4 **** **** 0

# MOE 2024.06 (io_trps.svl 2023.06)
