@<TRIPOS>MOLECULE
NONAME
42 44 1 0 0 
SMALL
USER_CHARGES


@<TRIPOS>ATOM
  1 CL      -1.3810    -1.2370    -3.0450 Cl    1 <1>  -0.1770 
  2 C       -2.0280    -1.3860    -1.4300 C.ar  1 <1>   0.1770 
  3 C       -2.2330    -0.2700    -0.6370 C.ar  1 <1>   0.1770 
  4 C       -2.3370    -2.6490    -0.9570 C.ar  1 <1>  -0.1500 
  5 CL      -1.8520     1.3310    -1.2240 Cl    1 <1>  -0.1770 
  6 C       -2.7480    -0.4110     0.6380 C.ar  1 <1>  -0.1500 
  7 C       -2.8650    -2.8020     0.3210 C.ar  1 <1>  -0.1440 
  8 C       -3.0600    -1.6760     1.1140 C.ar  1 <1>  -0.1500 
  9 C       -3.2250    -4.1830     0.8470 C.3   1 <1>   0.4870 
 10 N       -4.2920    -4.7380    -0.0330 N.4   1 <1>  -0.9590 
 11 C       -5.6100    -4.9420     0.6500 C.3   1 <1>   0.4230 
 12 C       -3.7910    -5.9790    -0.7070 C.3   1 <1>   0.2630 
 13 C       -6.6970    -5.2200    -0.3940 C.3   1 <1>  -0.1600 
 14 C       -6.1270    -3.6420     1.2740 C.3   1 <1>  -0.1600 
 15 C       -7.0620    -3.8440    -0.9740 C.3   1 <1>  -0.0800 
 16 C       -6.6720    -2.8190     0.0980 C.3   1 <1>  -0.0800 
 17 C       -8.5520    -3.6270    -1.2690 C.3   1 <1>  -0.1600 
 18 C       -7.9280    -1.9900     0.4000 C.3   1 <1>  -0.1600 
 19 C       -8.8180    -2.1970    -0.8190 C.3   1 <1>   0.2000 
 20 O      -10.1410    -2.0420    -0.4760 O.3   1 <1>  -0.6800 
 21 H       -2.1510    -3.4910    -1.6010 H     1 <1>   0.1500 
 22 H       -2.8980     0.4640     1.2480 H     1 <1>   0.1500 
 23 H       -3.4540    -1.7620     2.1140 H     1 <1>   0.1500 
 24 H       -3.5660    -4.1160     1.8670 H     1 <1>   0.0800 
 25 H       -2.3500    -4.8120     0.8260 H     1 <1>   0.0800 
 26 H       -4.4610    -4.0140    -0.7440 H     1 <1>   0.4500 
 27 H       -5.5440    -5.7350     1.3790 H     1 <1>   0.0800 
 28 H       -3.6740    -6.7750     0.0110 H     1 <1>   0.0800 
 29 H       -2.8370    -5.7930    -1.1730 H     1 <1>   0.0800 
 30 H       -4.4780    -6.3030    -1.4710 H     1 <1>   0.0800 
 31 H       -6.4260    -5.9250    -1.1560 H     1 <1>   0.0800 
 32 H       -7.5460    -5.6260     0.1290 H     1 <1>   0.0800 
 33 H       -6.9400    -3.9070     1.9290 H     1 <1>   0.0800 
 34 H       -5.4140    -3.1000     1.8630 H     1 <1>   0.0800 
 35 H       -6.4900    -3.6480    -1.8670 H     1 <1>   0.0800 
 36 H       -5.9030    -2.1740    -0.2970 H     1 <1>   0.0800 
 37 H       -9.1580    -4.3060    -0.6950 H     1 <1>   0.0800 
 38 H       -8.7700    -3.7500    -2.3160 H     1 <1>   0.0800 
 39 H       -7.6910    -0.9490     0.5310 H     1 <1>   0.0800 
 40 H       -8.4260    -2.3560     1.2800 H     1 <1>   0.0800 
 41 H       -8.5760    -1.4930    -1.5990 H     1 <1>   0.0800 
 42 H      -10.3950    -2.6760     0.2200 H     1 <1>   0.4000 
@<TRIPOS>BOND
  1   1   2  1   
  2   2   3  ar  
  3   2   4  ar  
  4   3   5  1   
  5   3   6  ar  
  6   4   7  ar  
  7   4  21  1   
  8   6   8  ar  
  9   6  22  1   
 10   7   8  ar  
 11   7   9  1   
 12   8  23  1   
 13   9  10  1   
 14   9  24  1   
 15   9  25  1   
 16  10  11  1   
 17  10  12  1   
 18  10  26  1   
 19  11  13  1   
 20  11  14  1   
 21  11  27  1   
 22  12  28  1   
 23  12  29  1   
 24  12  30  1   
 25  13  15  1   
 26  13  31  1   
 27  13  32  1   
 28  14  16  1   
 29  14  33  1   
 30  14  34  1   
 31  15  16  1   
 32  15  17  1   
 33  15  35  1   
 34  16  18  1   
 35  16  36  1   
 36  17  19  1   
 37  17  37  1   
 38  17  38  1   
 39  18  19  1   
 40  18  39  1   
 41  18  40  1   
 42  19  20  1   
 43  19  41  1   
 44  20  42  1   
@<TRIPOS>SUBSTRUCTURE
  1 ****  16 GROUP 4 **** **** 0

# MOE 2024.06 (io_trps.svl 2023.06)
