@<TRIPOS>MOLECULE
NONAME
46 48 1 0 0 
SMALL
USER_CHARGES


@<TRIPOS>ATOM
  1 S        0.2300     0.3540    -1.2450 S.o2  1 <1>   1.4470 
  2 O        0.7820    -0.3140    -2.4030 O.2   1 <1>  -0.6500 
  3 O       -0.1540     1.7500    -1.3180 O.2   1 <1>  -0.6500 
  4 N        1.3360     0.1770     0.0370 N.am  1 <1>  -0.8490 
  5 C       -1.1800    -0.6140    -0.6410 C.ar  1 <1>  -0.0090 
  6 C        1.4050     1.3000     0.9950 C.3   1 <1>   0.1960 
  7 C        2.6000    -0.5380    -0.2370 C.3   1 <1>   0.1960 
  8 C       -2.2710    -0.0020    -0.0350 C.ar  1 <1>  -0.1500 
  9 C       -1.1920    -1.9990    -0.7430 C.ar  1 <1>  -0.1500 
 10 C        2.3670     2.4660     0.6260 C.3   1 <1>   0.2200 
 11 C        3.7760     0.3090    -0.7800 C.3   1 <1>  -0.0190 
 12 C       -3.3420    -0.7310     0.4560 C.ar  1 <1>  -0.1440 
 13 C       -2.2520    -2.7470    -0.2620 C.ar  1 <1>  -0.1500 
 14 N        2.6970     2.5330    -0.8230 N.am  1 <1>  -0.7300 
 15 C        3.6690     2.3960     1.4510 C.3   1 <1>   0.1200 
 16 C        3.3440     1.5660    -1.5030 C.2   1 <1>   0.5690 
 17 C        4.8140     0.6560     0.2990 C.3   1 <1>   0.1200 
 18 C       -3.3360    -2.1190     0.3420 C.ar  1 <1>   0.0830 
 19 C       -4.5050     0.0120     1.1060 C.3   1 <1>  -0.0160 
 20 O        4.2190     1.1080     1.4800 O.3   1 <1>  -0.5600 
 21 O        3.6000     1.7050    -2.6710 O.2   1 <1>  -0.5700 
 22 O       -4.4030    -2.8050     0.8280 O.3   1 <1>  -0.3620 
 23 C       -5.5920     0.3170     0.0720 C.3   1 <1>  -0.2400 
 24 C       -4.5050    -4.2070     0.7140 C.3   1 <1>   0.0400 
 25 H        0.4170     1.7070     1.1250 H     1 <1>   0.0800 
 26 H        1.6890     0.9080     1.9560 H     1 <1>   0.0800 
 27 H        2.9170    -1.0180     0.6740 H     1 <1>   0.0800 
 28 H        2.4030    -1.3330    -0.9360 H     1 <1>   0.0800 
 29 H       -2.2810     1.0720     0.0490 H     1 <1>   0.1500 
 30 H       -0.3590    -2.4970    -1.2090 H     1 <1>   0.1500 
 31 H        1.8820     3.3890     0.8890 H     1 <1>   0.0800 
 32 H        4.2900    -0.2970    -1.5030 H     1 <1>   0.0800 
 33 H       -2.2120    -3.8140    -0.3680 H     1 <1>   0.1500 
 34 H        2.1980     3.2230    -1.3910 H     1 <1>   0.3700 
 35 H        3.4510     2.6570     2.4710 H     1 <1>   0.0800 
 36 H        4.4030     3.0900     1.0770 H     1 <1>   0.0800 
 37 H        5.5090     1.4000    -0.0530 H     1 <1>   0.0800 
 38 H        5.3700    -0.2290     0.5550 H     1 <1>   0.0800 
 39 H       -4.9210    -0.5780     1.9040 H     1 <1>   0.0800 
 40 H       -4.1550     0.9320     1.5380 H     1 <1>   0.0800 
 41 H       -5.9660    -0.6000    -0.3480 H     1 <1>   0.0800 
 42 H       -5.1920     0.9220    -0.7220 H     1 <1>   0.0800 
 43 H       -6.4070     0.8430     0.5350 H     1 <1>   0.0800 
 44 H       -5.4390    -4.5090     1.1530 H     1 <1>   0.0800 
 45 H       -3.6880    -4.6610     1.2450 H     1 <1>   0.0800 
 46 H       -4.4880    -4.4740    -0.3280 H     1 <1>   0.0800 
@<TRIPOS>BOND
  1   1   2  2   
  2   1   3  2   
  3   1   4  am  
  4   1   5  1   
  5   4   6  1   
  6   4   7  1   
  7   5   8  ar  
  8   5   9  ar  
  9   6  10  1   
 10   6  25  1   
 11   6  26  1   
 12   7  11  1   
 13   7  27  1   
 14   7  28  1   
 15   8  12  ar  
 16   8  29  1   
 17   9  13  ar  
 18   9  30  1   
 19  10  14  1   
 20  10  15  1   
 21  10  31  1   
 22  11  16  1   
 23  11  17  1   
 24  11  32  1   
 25  12  18  ar  
 26  12  19  1   
 27  13  18  ar  
 28  13  33  1   
 29  14  16  am  
 30  14  34  1   
 31  15  20  1   
 32  15  35  1   
 33  15  36  1   
 34  16  21  2   
 35  17  20  1   
 36  17  37  1   
 37  17  38  1   
 38  18  22  1   
 39  19  23  1   
 40  19  39  1   
 41  19  40  1   
 42  22  24  1   
 43  23  41  1   
 44  23  42  1   
 45  23  43  1   
 46  24  44  1   
 47  24  45  1   
 48  24  46  1   
@<TRIPOS>SUBSTRUCTURE
  1 ****   1 GROUP 4 **** **** 0

# MOE 2024.06 (io_trps.svl 2023.06)
