@<TRIPOS>MOLECULE
NONAME
35 36 1 0 0 
SMALL
USER_CHARGES


@<TRIPOS>ATOM
  1 O        0.1370    -0.0930    -0.1270 O.2   1 <1>  -0.5700 
  2 C        1.1910    -0.6890    -0.1760 C.2   1 <1>   0.5440 
  3 N        2.3760     0.0000    -0.2740 N.am  1 <1>  -0.4940 
  4 C        1.1940    -2.1300    -0.1740 C.ar  1 <1>   0.0860 
  5 C        2.6260     1.3620    -0.0680 C.2   1 <1>   0.2040 
  6 C        2.2090    -2.8830     0.3880 C.ar  1 <1>   0.1600 
  7 C        0.1680    -2.8610    -0.7410 C.ar  1 <1>   0.1600 
  8 O        1.7630     2.1490     0.5300 O.3   1 <1>  -0.0190 
  9 C        3.7090     2.1040    -0.3750 C.2   1 <1>  -0.1810 
 10 N        2.2330    -4.1970     0.3620 N.ar  1 <1>  -0.6200 
 11 N        0.1570    -4.1770    -0.7810 N.ar  1 <1>  -0.6200 
 12 N        2.2140     3.3720     0.6410 N.2   1 <1>  -0.4100 
 13 C        3.3810     3.3730     0.1040 C.2   1 <1>   0.1080 
 14 C        4.9980     1.7030    -1.0720 C.3   1 <1>  -0.0590 
 15 C        1.1970    -4.7780    -0.2240 C.ar  1 <1>   0.4770 
 16 C        4.2540     4.6130     0.0240 C.3   1 <1>   0.0210 
 17 C        1.1990    -6.2980    -0.2570 C.3   1 <1>  -0.0170 
 18 C        5.2330     4.6810     1.2000 C.3   1 <1>  -0.2400 
 19 C        0.5270    -6.9040     0.9840 C.3   1 <1>  -0.2400 
 20 H        3.1840    -0.5310    -0.5870 H     1 <1>   0.3700 
 21 H        3.0270    -2.3870     0.8810 H     1 <1>   0.1500 
 22 H       -0.6670    -2.3360    -1.1770 H     1 <1>   0.1500 
 23 H        4.9740     0.6670    -1.3550 H     1 <1>   0.0800 
 24 H        5.8360     1.8620    -0.4170 H     1 <1>   0.0800 
 25 H        5.1330     2.2950    -1.9600 H     1 <1>   0.0800 
 26 H        3.6210     5.4830     0.0370 H     1 <1>   0.0800 
 27 H        4.7940     4.6160    -0.9050 H     1 <1>   0.0800 
 28 H        2.2150    -6.6440    -0.3200 H     1 <1>   0.0800 
 29 H        0.6850    -6.6290    -1.1410 H     1 <1>   0.0800 
 30 H        4.6880     4.6980     2.1280 H     1 <1>   0.0800 
 31 H        5.8300     5.5740     1.1340 H     1 <1>   0.0800 
 32 H        5.8850     3.8260     1.1980 H     1 <1>   0.0800 
 33 H        1.0450    -6.5920     1.8740 H     1 <1>   0.0800 
 34 H        0.5450    -7.9780     0.9290 H     1 <1>   0.0800 
 35 H       -0.4960    -6.5760     1.0460 H     1 <1>   0.0800 
@<TRIPOS>BOND
  1   1   2  2   
  2   2   3  am  
  3   2   4  1   
  4   3   5  1   
  5   3  20  1   
  6   4   6  ar  
  7   4   7  ar  
  8   5   8  1   
  9   5   9  2   
 10   6  10  ar  
 11   6  21  1   
 12   7  11  ar  
 13   7  22  1   
 14   8  12  1   
 15   9  13  1   
 16   9  14  1   
 17  10  15  ar  
 18  11  15  ar  
 19  12  13  2   
 20  13  16  1   
 21  14  23  1   
 22  14  24  1   
 23  14  25  1   
 24  15  17  1   
 25  16  18  1   
 26  16  26  1   
 27  16  27  1   
 28  17  19  1   
 29  17  28  1   
 30  17  29  1   
 31  18  30  1   
 32  18  31  1   
 33  18  32  1   
 34  19  33  1   
 35  19  34  1   
 36  19  35  1   
@<TRIPOS>SUBSTRUCTURE
  1 ****   3 GROUP 4 **** **** 0

# MOE 2024.06 (io_trps.svl 2023.06)
