@<TRIPOS>MOLECULE
NONAME
39 42 1 0 0 
SMALL
USER_CHARGES


@<TRIPOS>ATOM
  1 O       -2.1310     0.7350    -1.9030 O.2   1 <1>  -0.5700 
  2 C       -2.0910    -0.2820    -1.2530 C.2   1 <1>   0.5690 
  3 N       -1.9720    -0.2360     0.0930 N.am  1 <1>  -0.7300 
  4 C       -2.1480    -1.6350    -1.9470 C.3   1 <1>  -0.0190 
  5 C       -2.0420    -1.4550     0.9460 C.3   1 <1>   0.2200 
  6 C       -0.8060    -2.3750    -1.7970 C.3   1 <1>   0.1200 
  7 C       -3.3480    -2.5240    -1.5420 C.3   1 <1>   0.1100 
  8 C       -0.9750    -2.5270     0.5850 C.3   1 <1>   0.1200 
  9 C       -3.4680    -2.0580     0.9070 C.3   1 <1>   0.1100 
 10 O       -0.2070    -2.2130    -0.5420 O.3   1 <1>  -0.5600 
 11 N       -4.1470    -2.0080    -0.4120 N.3   1 <1>  -0.8100 
 12 C       -5.4990    -2.6070    -0.3920 C.3   1 <1>   0.2900 
 13 C       -5.4950    -4.0930    -0.0350 C.2   1 <1>   0.0060 
 14 N       -5.1920    -5.0490    -0.8480 N.2   1 <1>  -0.5650 
 15 N       -5.8320    -4.5240     1.2080 N.pl3 1 <1>   0.0330 
 16 C       -5.3260    -6.1830    -0.1070 C.ar  1 <1>   0.2270 
 17 C       -5.7240    -5.8750     1.1800 C.ar  1 <1>  -0.1520 
 18 C       -5.1230    -7.5130    -0.4720 C.ar  1 <1>  -0.1500 
 19 C       -5.9300    -6.8730     2.1350 C.ar  1 <1>  -0.1500 
 20 C       -5.3230    -8.5060     0.4630 C.ar  1 <1>  -0.1500 
 21 C       -5.7270    -8.1850     1.7650 C.ar  1 <1>  -0.1500 
 22 H       -1.9570     0.6820     0.5320 H     1 <1>   0.3700 
 23 H       -2.2650    -1.4440    -2.9970 H     1 <1>   0.0800 
 24 H       -1.8520    -1.1620     1.9630 H     1 <1>   0.0800 
 25 H       -0.1080    -1.9750    -2.5120 H     1 <1>   0.0800 
 26 H       -0.9130    -3.4280    -1.9910 H     1 <1>   0.0800 
 27 H       -3.0190    -3.5250    -1.3170 H     1 <1>   0.0800 
 28 H       -3.9900    -2.5990    -2.4030 H     1 <1>   0.0800 
 29 H       -1.4180    -3.4960     0.4370 H     1 <1>   0.0800 
 30 H       -0.2870    -2.6130     1.4080 H     1 <1>   0.0800 
 31 H       -4.0700    -1.5060     1.6070 H     1 <1>   0.0800 
 32 H       -3.4230    -3.0740     1.2570 H     1 <1>   0.0800 
 33 H       -6.1100    -2.0670     0.3100 H     1 <1>   0.0800 
 34 H       -5.9510    -2.4870    -1.3610 H     1 <1>   0.0800 
 35 H       -6.1250    -3.9570     2.0060 H     1 <1>   0.2700 
 36 H       -4.8150    -7.7290    -1.4780 H     1 <1>   0.1500 
 37 H       -6.2410    -6.6190     3.1330 H     1 <1>   0.1500 
 38 H       -5.1720    -9.5380     0.1980 H     1 <1>   0.1500 
 39 H       -5.8780    -8.9790     2.4760 H     1 <1>   0.1500 
@<TRIPOS>BOND
  1   1   2  2   
  2   2   3  am  
  3   2   4  1   
  4   3   5  1   
  5   3  22  1   
  6   4   6  1   
  7   4   7  1   
  8   4  23  1   
  9   5   8  1   
 10   5   9  1   
 11   5  24  1   
 12   6  10  1   
 13   6  25  1   
 14   6  26  1   
 15   7  11  1   
 16   7  27  1   
 17   7  28  1   
 18   8  10  1   
 19   8  29  1   
 20   8  30  1   
 21   9  11  1   
 22   9  31  1   
 23   9  32  1   
 24  11  12  1   
 25  12  13  1   
 26  12  33  1   
 27  12  34  1   
 28  13  14  2   
 29  13  15  1   
 30  14  16  1   
 31  15  17  1   
 32  15  35  1   
 33  16  17  ar  
 34  16  18  ar  
 35  17  19  ar  
 36  18  20  ar  
 37  18  36  1   
 38  19  21  ar  
 39  19  37  1   
 40  20  21  ar  
 41  20  38  1   
 42  21  39  1   
@<TRIPOS>SUBSTRUCTURE
  1 ****  11 GROUP 4 **** **** 0

# MOE 2024.06 (io_trps.svl 2023.06)
