@<TRIPOS>MOLECULE
NONAME
36 38 1 0 0 
SMALL
USER_CHARGES


@<TRIPOS>ATOM
  1 O       -3.6700     1.5000    -0.9320 O.3   1 <1>  -0.0190 
  2 N       -2.5150     1.5650    -1.5230 N.2   1 <1>  -0.4100 
  3 C       -3.5720     1.6760     0.3590 C.2   1 <1>  -0.0400 
  4 C       -1.6560     1.8170    -0.5980 C.2   1 <1>   0.1080 
  5 C       -2.2810     1.9030     0.6440 C.2   1 <1>  -0.1500 
  6 C       -4.8160     1.5890     1.2290 C.3   1 <1>   0.3890 
  7 C       -0.1680     1.9880    -0.8360 C.3   1 <1>   0.0210 
  8 N       -5.0640     0.1870     1.6730 N.pl3 1 <1>  -0.8690 
  9 C        0.5980     0.7080    -0.4740 C.3   1 <1>  -0.1600 
 10 C       -4.8310    -0.9300     0.9480 C.2   1 <1>   0.2710 
 11 C        2.1040     0.8640    -0.7110 C.3   1 <1>  -0.2400 
 12 N       -4.3300    -1.9430     1.6540 N.2   1 <1>  -0.6210 
 13 C       -5.0680    -1.0270    -0.4010 C.2   1 <1>  -0.1410 
 14 C       -4.0140    -3.0300     1.0240 C.2   1 <1>   0.9190 
 15 C       -4.6830    -2.1890    -1.0200 C.cat 1 <1>   0.7910 
 16 N       -4.1640    -3.1890    -0.3110 N.pl3 1 <1>  -0.6690 
 17 N       -3.5190    -4.0400     1.7360 N.pl3 1 <1>  -0.8500 
 18 N       -4.6990    -2.5980    -2.2980 N.pl3 1 <1>  -0.3930 
 19 C       -3.8780    -4.1770    -1.2180 C.2   1 <1>   0.5030 
 20 N       -4.1900    -3.8530    -2.4170 N.2   1 <1>  -0.2600 
 21 H       -1.8020     2.0930     1.5870 H     1 <1>   0.1500 
 22 H       -5.6710     1.9590     0.6890 H     1 <1>   0.0800 
 23 H       -4.6770     2.2070     2.0990 H     1 <1>   0.0800 
 24 H        0.1910     2.8110    -0.2440 H     1 <1>   0.0800 
 25 H       -0.0040     2.2280    -1.8720 H     1 <1>   0.0800 
 26 H       -4.9270     0.0650     2.6830 H     1 <1>   0.4000 
 27 H        0.2260    -0.1060    -1.0740 H     1 <1>   0.0800 
 28 H        0.4240     0.4660     0.5600 H     1 <1>   0.0800 
 29 H        2.3020     1.0830    -1.7460 H     1 <1>   0.0800 
 30 H        2.6140    -0.0470    -0.4520 H     1 <1>   0.0800 
 31 H        2.5020     1.6600    -0.1060 H     1 <1>   0.0800 
 32 H       -5.5170    -0.2280    -0.9550 H     1 <1>   0.1500 
 33 H       -3.4240    -3.9010     2.7430 H     1 <1>   0.4000 
 34 H       -3.2830    -4.9640     1.3910 H     1 <1>   0.4000 
 35 H       -5.0140    -2.0350    -3.0980 H     1 <1>   0.4500 
 36 H       -3.4360    -5.1190    -0.9320 H     1 <1>   0.1500 
@<TRIPOS>BOND
  1   1   2  1   
  2   1   3  1   
  3   2   4  2   
  4   3   5  2   
  5   3   6  1   
  6   4   5  1   
  7   4   7  1   
  8   5  21  1   
  9   6   8  1   
 10   6  22  1   
 11   6  23  1   
 12   7   9  1   
 13   7  24  1   
 14   7  25  1   
 15   8  10  1   
 16   8  26  1   
 17   9  11  1   
 18   9  27  1   
 19   9  28  1   
 20  10  12  1   
 21  10  13  2   
 22  11  29  1   
 23  11  30  1   
 24  11  31  1   
 25  12  14  2   
 26  13  15  1   
 27  13  32  1   
 28  14  16  1   
 29  14  17  1   
 30  15  16  ar  
 31  15  18  ar  
 32  16  19  1   
 33  17  33  1   
 34  17  34  1   
 35  18  20  1   
 36  18  35  1   
 37  19  20  2   
 38  19  36  1   
@<TRIPOS>SUBSTRUCTURE
  1 ****  13 GROUP 4 **** **** 0

# MOE 2024.06 (io_trps.svl 2023.06)
