@<TRIPOS>MOLECULE
NONAME
33 34 1 0 0 
SMALL
USER_CHARGES


@<TRIPOS>ATOM
  1 S       -0.4560    -0.7580    -1.7270 S.3   1 <1>  -0.0800 
  2 C        0.7770    -1.4860    -0.6910 C.2   1 <1>  -0.0450 
  3 C        0.5090     0.6760    -1.9900 C.2   1 <1>  -0.1100 
  4 C        1.8380    -0.6390    -0.6110 C.2   1 <1>  -0.1810 
  5 C        0.5280    -2.7950    -0.1390 C.2   1 <1>   0.7150 
  6 C        1.6810     0.5790    -1.3370 C.2   1 <1>  -0.1500 
  7 C        3.1190    -0.9020     0.1610 C.3   1 <1>  -0.0590 
  8 O        1.2470    -3.7230    -0.4680 O.2   1 <1>  -0.5700 
  9 N       -0.4900    -3.0500     0.7570 N.am  1 <1>  -0.6600 
 10 C       -0.6750    -4.4230     1.3160 C.3   1 <1>   0.3200 
 11 C       -1.4620    -2.0250     1.2420 C.3   1 <1>   0.1400 
 12 C       -1.4480    -5.2930     0.3400 C.2   1 <1>   0.0060 
 13 C       -2.8320    -2.1980     0.5730 C.3   1 <1>   0.1200 
 14 N       -2.6150    -5.8080     0.5670 N.2   1 <1>  -0.5650 
 15 N       -0.9490    -5.5970    -0.8770 N.pl3 1 <1>   0.0330 
 16 O       -3.7100    -1.2520     1.0850 O.3   1 <1>  -0.6800 
 17 C       -2.8920    -6.4840    -0.5660 C.2   1 <1>   0.0770 
 18 C       -1.8850    -6.3660    -1.4600 C.2   1 <1>  -0.3020 
 19 H        0.0950     1.4490    -2.6130 H     1 <1>   0.1500 
 20 H        2.4520     1.3290    -1.3410 H     1 <1>   0.1500 
 21 H        3.0880    -1.8630     0.6420 H     1 <1>   0.0800 
 22 H        3.2570    -0.1450     0.9120 H     1 <1>   0.0800 
 23 H        3.9590    -0.8840    -0.5100 H     1 <1>   0.0800 
 24 H       -1.2110    -4.3740     2.2470 H     1 <1>   0.0800 
 25 H        0.2820    -4.8730     1.5130 H     1 <1>   0.0800 
 26 H       -1.0930    -1.0350     1.0370 H     1 <1>   0.0800 
 27 H       -1.5700    -2.1220     2.3080 H     1 <1>   0.0800 
 28 H       -3.2460    -3.1740     0.7590 H     1 <1>   0.0800 
 29 H       -2.7570    -2.0360    -0.4880 H     1 <1>   0.0800 
 30 H       -0.0450    -5.2680    -1.2440 H     1 <1>   0.2700 
 31 H       -4.0690    -1.5440     1.9460 H     1 <1>   0.4000 
 32 H       -3.8150    -7.0280    -0.6810 H     1 <1>   0.1500 
 33 H       -1.7870    -6.7730    -2.4490 H     1 <1>   0.1500 
@<TRIPOS>BOND
  1   1   2  1   
  2   1   3  1   
  3   2   4  2   
  4   2   5  1   
  5   3   6  2   
  6   3  19  1   
  7   4   6  1   
  8   4   7  1   
  9   5   8  2   
 10   5   9  am  
 11   6  20  1   
 12   7  21  1   
 13   7  22  1   
 14   7  23  1   
 15   9  10  1   
 16   9  11  1   
 17  10  12  1   
 18  10  24  1   
 19  10  25  1   
 20  11  13  1   
 21  11  26  1   
 22  11  27  1   
 23  12  14  2   
 24  12  15  1   
 25  13  16  1   
 26  13  28  1   
 27  13  29  1   
 28  14  17  1   
 29  15  18  1   
 30  15  30  1   
 31  16  31  1   
 32  17  18  2   
 33  17  32  1   
 34  18  33  1   
@<TRIPOS>SUBSTRUCTURE
  1 ****   9 GROUP 4 **** **** 0

# MOE 2024.06 (io_trps.svl 2023.06)
