@<TRIPOS>MOLECULE
NONAME
49 51 1 0 0 
SMALL
USER_CHARGES


@<TRIPOS>ATOM
  1 S        0.2480    -0.4180     1.5760 S.o2  1 <1>   1.4470 
  2 O       -0.4550     0.3490     2.5780 O.2   1 <1>  -0.6500 
  3 O        1.0250    -1.5700     1.9830 O.2   1 <1>  -0.6500 
  4 N       -0.9200    -1.0140     0.4990 N.am  1 <1>  -0.8490 
  5 C        1.2770     0.6590     0.5400 C.ar  1 <1>  -0.0090 
  6 C       -1.6850    -2.1140     1.1100 C.3   1 <1>   0.1960 
  7 C       -1.8390     0.0300     0.0190 C.3   1 <1>   0.1960 
  8 C        1.0960     2.0360     0.5320 C.ar  1 <1>  -0.1500 
  9 C        2.2540     0.1290    -0.2950 C.ar  1 <1>  -0.1500 
 10 C       -2.5960    -2.7870     0.0530 C.3   1 <1>   0.4230 
 11 C       -2.7540    -0.5600    -1.0640 C.3   1 <1>  -0.1600 
 12 C        1.8560     2.8650    -0.2760 C.ar  1 <1>   0.0830 
 13 C        3.0260     0.9430    -1.1070 C.ar  1 <1>  -0.1500 
 14 N       -3.3360    -4.0070     0.5300 N.4   1 <1>  -0.9590 
 15 C       -3.5850    -1.7550    -0.5220 C.3   1 <1>  -0.1060 
 16 O        1.5900     4.1910    -0.2070 O.3   1 <1>  -0.3620 
 17 C        2.8300     2.3120    -1.1010 C.ar  1 <1>  -0.1500 
 18 C       -4.0750    -4.6770    -0.5710 C.3   1 <1>   0.3430 
 19 C       -2.5480    -4.9610     1.3570 C.3   1 <1>   0.2630 
 20 C       -4.5320    -1.2860     0.5980 C.2   1 <1>   0.9060 
 21 C       -4.3830    -2.3970    -1.6800 C.3   1 <1>  -0.1600 
 22 C        2.3230     5.1290    -0.9640 C.3   1 <1>   0.0400 
 23 C       -5.0570    -3.7040    -1.2310 C.3   1 <1>  -0.1600 
 24 O       -4.7880    -2.0610     1.5330 O.co2 1 <1>  -0.9000 
 25 O       -5.0190    -0.1580     0.5430 O.co2 1 <1>  -0.9000 
 26 H       -0.9920    -2.8460     1.4830 H     1 <1>   0.0800 
 27 H       -2.2670    -1.7410     1.9380 H     1 <1>   0.0800 
 28 H       -2.4280     0.4220     0.8360 H     1 <1>   0.0800 
 29 H       -1.2830     0.8460    -0.4080 H     1 <1>   0.0800 
 30 H        0.3480     2.4820     1.1670 H     1 <1>   0.1500 
 31 H        2.4130    -0.9370    -0.3080 H     1 <1>   0.1500 
 32 H       -1.9460    -3.0950    -0.7480 H     1 <1>   0.0800 
 33 H       -3.4180     0.2130    -1.4110 H     1 <1>   0.0800 
 34 H       -2.1480    -0.8640    -1.8990 H     1 <1>   0.0800 
 35 H        3.7790     0.5100    -1.7430 H     1 <1>   0.1500 
 36 H       -4.0700    -3.5580     1.1430 H     1 <1>   0.4500 
 37 H        3.4390     2.9250    -1.7380 H     1 <1>   0.1500 
 38 H       -3.3750    -5.0350    -1.3080 H     1 <1>   0.0800 
 39 H       -4.6230    -5.5190    -0.1820 H     1 <1>   0.0800 
 40 H       -1.7240    -5.3590     0.7880 H     1 <1>   0.0800 
 41 H       -3.1760    -5.7740     1.6810 H     1 <1>   0.0800 
 42 H       -2.1630    -4.4640     2.2330 H     1 <1>   0.0800 
 43 H       -5.1350    -1.7040    -2.0210 H     1 <1>   0.0800 
 44 H       -3.7260    -2.6040    -2.5070 H     1 <1>   0.0800 
 45 H        1.9450     6.1090    -0.7380 H     1 <1>   0.0800 
 46 H        2.1850     4.9170    -2.0100 H     1 <1>   0.0800 
 47 H        3.3610     5.0650    -0.6900 H     1 <1>   0.0800 
 48 H       -5.5100    -4.1820    -2.0810 H     1 <1>   0.0800 
 49 H       -5.8480    -3.4830    -0.5340 H     1 <1>   0.0800 
@<TRIPOS>BOND
  1   1   2  2   
  2   1   3  2   
  3   1   4  am  
  4   1   5  1   
  5   4   6  1   
  6   4   7  1   
  7   5   8  ar  
  8   5   9  ar  
  9   6  10  1   
 10   6  26  1   
 11   6  27  1   
 12   7  11  1   
 13   7  28  1   
 14   7  29  1   
 15   8  12  ar  
 16   8  30  1   
 17   9  13  ar  
 18   9  31  1   
 19  10  14  1   
 20  10  15  1   
 21  10  32  1   
 22  11  15  1   
 23  11  33  1   
 24  11  34  1   
 25  12  16  1   
 26  12  17  ar  
 27  13  17  ar  
 28  13  35  1   
 29  14  18  1   
 30  14  19  1   
 31  14  36  1   
 32  15  20  1   
 33  15  21  1   
 34  16  22  1   
 35  17  37  1   
 36  18  23  1   
 37  18  38  1   
 38  18  39  1   
 39  19  40  1   
 40  19  41  1   
 41  19  42  1   
 42  20  24  ar  
 43  20  25  ar  
 44  21  23  1   
 45  21  43  1   
 46  21  44  1   
 47  22  45  1   
 48  22  46  1   
 49  22  47  1   
 50  23  48  1   
 51  23  49  1   
@<TRIPOS>SUBSTRUCTURE
  1 ****   4 GROUP 4 **** **** 0

# MOE 2024.06 (io_trps.svl 2023.06)
