@<TRIPOS>MOLECULE
NONAME
49 52 1 0 0 
SMALL
USER_CHARGES


@<TRIPOS>ATOM
  1 O       -0.9550    -0.3850     2.7990 O.co2 1 <1>  -0.9000 
  2 C       -1.5020    -0.6830     1.7190 C.2   1 <1>   0.9790 
  3 O       -1.1670    -1.7330     1.1470 O.co2 1 <1>  -0.9000 
  4 C       -2.5220     0.1680     1.1730 C.ar  1 <1>  -0.1790 
  5 C       -2.2060     1.2840     0.3900 C.ar  1 <1>   0.4100 
  6 C       -3.8600    -0.0990     1.4110 C.ar  1 <1>  -0.1500 
  7 N       -3.1070     2.1210    -0.1130 N.ar  1 <1>  -0.6200 
  8 N       -0.9080     1.6400     0.0850 N.pl3 1 <1>  -0.8380 
  9 C       -4.7930     0.7590     0.8820 C.ar  1 <1>  -0.1500 
 10 C       -4.3870     1.8590     0.1350 C.ar  1 <1>   0.3100 
 11 C        0.1140     1.8530     1.1530 C.3   1 <1>   0.2090 
 12 C       -0.4560     1.7370    -1.3210 C.3   1 <1>   0.2090 
 13 C       -5.3720     2.7750    -0.3980 C.ar  1 <1>   0.0000 
 14 C        0.7450     3.2690     1.1440 C.3   1 <1>   0.4230 
 15 C       -0.0530     3.1830    -1.6700 C.3   1 <1>  -0.0800 
 16 C       -5.3750     3.1170    -1.7490 C.ar  1 <1>  -0.1500 
 17 C       -6.3440     3.3530     0.4190 C.ar  1 <1>  -0.1500 
 18 N       -0.1690     4.3810     0.6410 N.4   1 <1>  -0.9590 
 19 C        2.1340     3.2970     0.4680 C.3   1 <1>   0.1200 
 20 C        1.4610     3.3940    -1.8130 C.3   1 <1>   0.1200 
 21 C       -0.7260     4.2170    -0.7540 C.3   1 <1>   0.3430 
 22 C       -6.3090     3.9960    -2.2670 C.ar  1 <1>  -0.1500 
 23 C       -7.2800     4.2330    -0.0930 C.ar  1 <1>  -0.1500 
 24 C       -1.3440     4.4860     1.5630 C.3   1 <1>   0.2630 
 25 O        2.1630     2.7410    -0.8100 O.3   1 <1>  -0.5600 
 26 C       -7.2640     4.5560    -1.4380 C.ar  1 <1>  -0.1500 
 27 H       -4.1400    -0.9600     1.9950 H     1 <1>   0.1500 
 28 H       -5.8400     0.5800     1.0420 H     1 <1>   0.1500 
 29 H       -0.3600     1.7480     2.1100 H     1 <1>   0.0800 
 30 H        0.8710     1.0900     1.0890 H     1 <1>   0.0800 
 31 H        0.3600     1.0520    -1.4840 H     1 <1>   0.0800 
 32 H       -1.2660     1.4260    -1.9610 H     1 <1>   0.0800 
 33 H        0.9500     3.4850     2.1780 H     1 <1>   0.0800 
 34 H       -0.4590     3.3640    -2.6480 H     1 <1>   0.0800 
 35 H       -4.6340     2.6800    -2.3960 H     1 <1>   0.1500 
 36 H       -6.3620     3.1110     1.4670 H     1 <1>   0.1500 
 37 H        0.3600     5.2570     0.6710 H     1 <1>   0.4500 
 38 H        2.8100     2.7080     1.0620 H     1 <1>   0.0800 
 39 H        2.5230     4.2980     0.4210 H     1 <1>   0.0800 
 40 H        1.7290     4.4370    -1.8180 H     1 <1>   0.0800 
 41 H        1.7900     2.9580    -2.7420 H     1 <1>   0.0800 
 42 H       -1.7640     3.9380    -0.6830 H     1 <1>   0.0800 
 43 H       -0.6990     5.1740    -1.2460 H     1 <1>   0.0800 
 44 H       -6.2960     4.2440    -3.3150 H     1 <1>   0.1500 
 45 H       -8.0240     4.6680     0.5530 H     1 <1>   0.1500 
 46 H       -1.9180     3.5730     1.5320 H     1 <1>   0.0800 
 47 H       -1.9860     5.2980     1.2650 H     1 <1>   0.0800 
 48 H       -1.0180     4.6510     2.5770 H     1 <1>   0.0800 
 49 H       -7.9930     5.2400    -1.8380 H     1 <1>   0.1500 
@<TRIPOS>BOND
  1   1   2  ar  
  2   2   3  ar  
  3   2   4  1   
  4   4   5  ar  
  5   4   6  ar  
  6   5   7  ar  
  7   5   8  1   
  8   6   9  ar  
  9   6  27  1   
 10   7  10  ar  
 11   8  11  1   
 12   8  12  1   
 13   9  10  ar  
 14   9  28  1   
 15  10  13  1   
 16  11  14  1   
 17  11  29  1   
 18  11  30  1   
 19  12  15  1   
 20  12  31  1   
 21  12  32  1   
 22  13  16  ar  
 23  13  17  ar  
 24  14  18  1   
 25  14  19  1   
 26  14  33  1   
 27  15  20  1   
 28  15  21  1   
 29  15  34  1   
 30  16  22  ar  
 31  16  35  1   
 32  17  23  ar  
 33  17  36  1   
 34  18  21  1   
 35  18  24  1   
 36  18  37  1   
 37  19  25  1   
 38  19  38  1   
 39  19  39  1   
 40  20  25  1   
 41  20  40  1   
 42  20  41  1   
 43  21  42  1   
 44  21  43  1   
 45  22  26  ar  
 46  22  44  1   
 47  23  26  ar  
 48  23  45  1   
 49  24  46  1   
 50  24  47  1   
 51  24  48  1   
 52  26  49  1   
@<TRIPOS>SUBSTRUCTURE
  1 ****   7 GROUP 4 **** **** 0

# MOE 2024.06 (io_trps.svl 2023.06)
