@<TRIPOS>MOLECULE
NONAME
51 53 1 0 0 
SMALL
USER_CHARGES


@<TRIPOS>ATOM
  1 O       -2.7800     1.5480    -1.5200 O.2   1 <1>  -0.5700 
  2 C       -2.4420     1.2600    -0.3930 C.2   1 <1>   0.5690 
  3 N       -2.4160    -0.0420     0.0090 N.am  1 <1>  -0.7300 
  4 C       -2.0420     2.4340     0.5700 C.3   1 <1>   0.5640 
  5 C       -2.7270    -1.2170    -0.8410 C.3   1 <1>   0.2200 
  6 N       -1.6490     3.6630    -0.2160 N.4   1 <1>  -0.9590 
  7 C       -0.8880     2.0310     1.5060 C.3   1 <1>  -0.2400 
  8 C       -3.2670     2.7990     1.4200 C.3   1 <1>  -0.2400 
  9 C       -3.9400    -1.9390    -0.2680 C.3   1 <1>  -0.0800 
 10 C       -1.6370    -2.2590    -0.6370 C.3   1 <1>   0.1200 
 11 C       -0.4720     3.4930    -1.1050 C.3   1 <1>   0.3430 
 12 C       -1.4470     4.9450     0.5040 C.3   1 <1>   0.3430 
 13 C       -3.3180    -2.8770     0.7800 C.3   1 <1>   0.1200 
 14 C       -4.7030    -2.7130    -1.3620 C.3   1 <1>  -0.0170 
 15 O       -1.9320    -2.8260     0.5990 O.3   1 <1>  -0.5600 
 16 C       -0.1560     4.9060    -1.5710 C.3   1 <1>  -0.1600 
 17 C       -0.7260     5.8380    -0.4970 C.3   1 <1>  -0.1600 
 18 C       -5.9000    -3.4610    -0.7930 C.ar  1 <1>  -0.1430 
 19 C       -5.8890    -4.8300    -0.6080 C.ar  1 <1>  -0.1500 
 20 C       -7.0630    -2.8090    -0.4350 C.ar  1 <1>  -0.1500 
 21 C       -7.0050    -5.4600    -0.0830 C.ar  1 <1>   0.1600 
 22 C       -8.1240    -3.5340     0.0820 C.ar  1 <1>   0.1600 
 23 N       -8.1220    -4.8440     0.2690 N.ar  1 <1>  -0.6200 
 24 H       -2.1110    -0.3240     0.9470 H     1 <1>   0.3700 
 25 H       -2.8420    -0.9320    -1.8740 H     1 <1>   0.0800 
 26 H       -2.4350     3.7900    -0.8700 H     1 <1>   0.4500 
 27 H       -1.2050     1.2370     2.1590 H     1 <1>   0.0800 
 28 H       -0.5770     2.8490     2.1280 H     1 <1>   0.0800 
 29 H       -0.0460     1.6660     0.9460 H     1 <1>   0.0800 
 30 H       -3.6250     1.9230     1.9330 H     1 <1>   0.0800 
 31 H       -4.0660     3.1580     0.7960 H     1 <1>   0.0800 
 32 H       -3.0330     3.5350     2.1670 H     1 <1>   0.0800 
 33 H       -4.6210    -1.2480     0.1960 H     1 <1>   0.0800 
 34 H       -0.6480    -1.8370    -0.6190 H     1 <1>   0.0800 
 35 H       -1.6920    -3.0340    -1.3820 H     1 <1>   0.0800 
 36 H        0.3640     3.1050    -0.5470 H     1 <1>   0.0800 
 37 H       -0.6900     2.8380    -1.9350 H     1 <1>   0.0800 
 38 H       -2.3840     5.3770     0.8180 H     1 <1>   0.0800 
 39 H       -0.8170     4.7910     1.3650 H     1 <1>   0.0800 
 40 H       -3.6350    -3.8990     0.6660 H     1 <1>   0.0800 
 41 H       -3.5340    -2.5480     1.7810 H     1 <1>   0.0800 
 42 H       -4.0460    -3.4100    -1.8530 H     1 <1>   0.0800 
 43 H       -5.0550    -2.0220    -2.1090 H     1 <1>   0.0800 
 44 H        0.9050     5.0360    -1.6970 H     1 <1>   0.0800 
 45 H       -0.6370     5.0870    -2.5170 H     1 <1>   0.0800 
 46 H       -1.4190     6.5370    -0.9340 H     1 <1>   0.0800 
 47 H        0.0520     6.3950    -0.0030 H     1 <1>   0.0800 
 48 H       -5.0260    -5.4160    -0.8670 H     1 <1>   0.1500 
 49 H       -7.1560    -1.7460    -0.5530 H     1 <1>   0.1500 
 50 H       -6.9780    -6.5270     0.0550 H     1 <1>   0.1500 
 51 H       -9.0230    -3.0090     0.3550 H     1 <1>   0.1500 
@<TRIPOS>BOND
  1   1   2  2   
  2   2   3  am  
  3   2   4  1   
  4   3   5  1   
  5   3  24  1   
  6   4   6  1   
  7   4   7  1   
  8   4   8  1   
  9   5   9  1   
 10   5  10  1   
 11   5  25  1   
 12   6  11  1   
 13   6  12  1   
 14   6  26  1   
 15   7  27  1   
 16   7  28  1   
 17   7  29  1   
 18   8  30  1   
 19   8  31  1   
 20   8  32  1   
 21   9  13  1   
 22   9  14  1   
 23   9  33  1   
 24  10  15  1   
 25  10  34  1   
 26  10  35  1   
 27  11  16  1   
 28  11  36  1   
 29  11  37  1   
 30  12  17  1   
 31  12  38  1   
 32  12  39  1   
 33  13  15  1   
 34  13  40  1   
 35  13  41  1   
 36  14  18  1   
 37  14  42  1   
 38  14  43  1   
 39  16  17  1   
 40  16  44  1   
 41  16  45  1   
 42  17  46  1   
 43  17  47  1   
 44  18  19  ar  
 45  18  20  ar  
 46  19  21  ar  
 47  19  48  1   
 48  20  22  ar  
 49  20  49  1   
 50  21  23  ar  
 51  21  50  1   
 52  22  23  ar  
 53  22  51  1   
@<TRIPOS>SUBSTRUCTURE
  1 ****   3 GROUP 4 **** **** 0

# MOE 2024.06 (io_trps.svl 2023.06)
