@<TRIPOS>MOLECULE
NONAME
57 59 1 0 0 
SMALL
USER_CHARGES


@<TRIPOS>ATOM
  1 O       -0.0430    -1.4700    -1.3230 O.3   1 <1>  -0.3630 
  2 C       -0.2950    -2.5830    -0.5850 C.ar  1 <1>   0.0820 
  3 C        0.9540    -1.4240    -2.3190 C.3   1 <1>   0.0400 
  4 C       -1.2280    -2.5040     0.4500 C.ar  1 <1>  -0.1440 
  5 C        0.3530    -3.7900    -0.8370 C.ar  1 <1>  -0.1500 
  6 C       -1.4870    -3.6440     1.1960 C.ar  1 <1>  -0.1500 
  7 C       -1.9890    -1.2200     0.8160 C.3   1 <1>   0.0630 
  8 C        0.0900    -4.9210    -0.0840 C.ar  1 <1>  -0.1430 
  9 C       -0.8500    -4.8480     0.9380 C.ar  1 <1>  -0.1430 
 10 C       -2.9000    -0.7410    -0.3210 C.3   1 <1>  -0.2400 
 11 C       -1.0480    -0.1050     1.2860 C.3   1 <1>  -0.2400 
 12 C        0.8490    -6.1980    -0.4240 C.3   1 <1>  -0.0970 
 13 C       -1.2270    -6.0500     1.7850 C.3   1 <1>   0.4860 
 14 N       -2.0700    -6.9640     0.9750 N.4   1 <1>  -0.9590 
 15 C       -3.2340    -6.3160     0.2830 C.3   1 <1>   0.3430 
 16 C       -2.5960    -8.1500     1.6850 C.3   1 <1>   0.3430 
 17 C       -4.3950    -7.3220     0.3750 C.3   1 <1>   0.2000 
 18 C       -3.7280    -8.6390     0.7780 C.3   1 <1>  -0.0800 
 19 O       -5.2770    -6.9390     1.3790 O.3   1 <1>  -0.6800 
 20 C       -3.2300    -9.3900    -0.4860 C.3   1 <1>  -0.0170 
 21 C       -1.8890   -10.0870    -0.3110 C.ar  1 <1>   0.1670 
 22 N       -0.8130    -9.3130    -0.3990 N.ar  1 <1>  -0.6200 
 23 C       -1.8520   -11.4530    -0.0790 C.ar  1 <1>  -0.1500 
 24 C        0.3490    -9.9430    -0.2730 C.ar  1 <1>   0.1600 
 25 C       -0.6370   -12.0860     0.0660 C.ar  1 <1>  -0.1500 
 26 C        0.4890   -11.3000    -0.0400 C.ar  1 <1>  -0.1500 
 27 H        0.9810    -0.4260    -2.7170 H     1 <1>   0.0800 
 28 H        0.7030    -2.1200    -3.0990 H     1 <1>   0.0800 
 29 H        1.9030    -1.6640    -1.8740 H     1 <1>   0.0800 
 30 H        1.0740    -3.8600    -1.6280 H     1 <1>   0.1500 
 31 H       -2.2040    -3.5850     1.9970 H     1 <1>   0.1500 
 32 H       -2.6350    -1.4380     1.6480 H     1 <1>   0.0800 
 33 H       -2.3230    -0.4110    -1.1650 H     1 <1>   0.0800 
 34 H       -3.5090     0.0790     0.0120 H     1 <1>   0.0800 
 35 H       -3.5440    -1.5410    -0.6390 H     1 <1>   0.0800 
 36 H       -0.4290     0.2450     0.4810 H     1 <1>   0.0800 
 37 H       -0.4110    -0.4690     2.0720 H     1 <1>   0.0800 
 38 H       -1.6160     0.7270     1.6610 H     1 <1>   0.0800 
 39 H        1.7900    -5.9610    -0.8880 H     1 <1>   0.0800 
 40 H        0.2780    -6.7930    -1.1150 H     1 <1>   0.0800 
 41 H        1.0620    -6.7770     0.4550 H     1 <1>   0.0800 
 42 H       -1.7700    -5.7190     2.6540 H     1 <1>   0.0800 
 43 H       -0.3360    -6.5590     2.1150 H     1 <1>   0.0800 
 44 H       -1.4560    -7.3560     0.2340 H     1 <1>   0.4500 
 45 H       -3.5120    -5.3860     0.7520 H     1 <1>   0.0800 
 46 H       -2.9800    -6.1270    -0.7470 H     1 <1>   0.0800 
 47 H       -1.8340    -8.9000     1.8310 H     1 <1>   0.0800 
 48 H       -2.9960    -7.8610     2.6430 H     1 <1>   0.0800 
 49 H       -4.9560    -7.3850    -0.5430 H     1 <1>   0.0800 
 50 H       -4.3990    -9.2800     1.3240 H     1 <1>   0.0800 
 51 H       -4.8640    -6.8810     2.2610 H     1 <1>   0.4000 
 52 H       -3.1220    -8.7120    -1.3150 H     1 <1>   0.0800 
 53 H       -3.9750   -10.1080    -0.7820 H     1 <1>   0.0800 
 54 H       -2.7600   -12.0270    -0.0160 H     1 <1>   0.1500 
 55 H        1.2450    -9.3530    -0.3630 H     1 <1>   0.1500 
 56 H       -0.5690   -13.1460     0.2460 H     1 <1>   0.1500 
 57 H        1.4680   -11.7360     0.0530 H     1 <1>   0.1500 
@<TRIPOS>BOND
  1   1   2  1   
  2   1   3  1   
  3   2   4  ar  
  4   2   5  ar  
  5   3  27  1   
  6   3  28  1   
  7   3  29  1   
  8   4   6  ar  
  9   4   7  1   
 10   5   8  ar  
 11   5  30  1   
 12   6   9  ar  
 13   6  31  1   
 14   7  10  1   
 15   7  11  1   
 16   7  32  1   
 17   8   9  ar  
 18   8  12  1   
 19   9  13  1   
 20  10  33  1   
 21  10  34  1   
 22  10  35  1   
 23  11  36  1   
 24  11  37  1   
 25  11  38  1   
 26  12  39  1   
 27  12  40  1   
 28  12  41  1   
 29  13  14  1   
 30  13  42  1   
 31  13  43  1   
 32  14  15  1   
 33  14  16  1   
 34  14  44  1   
 35  15  17  1   
 36  15  45  1   
 37  15  46  1   
 38  16  18  1   
 39  16  47  1   
 40  16  48  1   
 41  17  18  1   
 42  17  19  1   
 43  17  49  1   
 44  18  20  1   
 45  18  50  1   
 46  19  51  1   
 47  20  21  1   
 48  20  52  1   
 49  20  53  1   
 50  21  22  ar  
 51  21  23  ar  
 52  22  24  ar  
 53  23  25  ar  
 54  23  54  1   
 55  24  26  ar  
 56  24  55  1   
 57  25  26  ar  
 58  25  56  1   
 59  26  57  1   
@<TRIPOS>SUBSTRUCTURE
  1 ****  14 GROUP 4 **** **** 0

# MOE 2024.06 (io_trps.svl 2023.06)
