@<TRIPOS>MOLECULE
NONAME
49 51 1 0 0 
SMALL
USER_CHARGES


@<TRIPOS>ATOM
  1 O       -2.8780    -1.2680    -3.0920 O.2   1 <1>  -0.5700 
  2 C       -2.9030    -1.4730    -1.9020 C.2   1 <1>   0.5690 
  3 N       -2.6050    -0.4990    -0.9930 N.am  1 <1>  -0.6600 
  4 C       -3.2670    -2.8640    -1.4340 C.3   1 <1>  -0.0190 
  5 C       -2.7430    -0.7260     0.4740 C.3   1 <1>   0.2200 
  6 C       -2.1990     0.8730    -1.4110 C.3   1 <1>   0.0600 
  7 C       -2.0930    -3.4990    -0.6650 C.3   1 <1>   0.1200 
  8 C       -4.6550    -2.8880    -0.7630 C.3   1 <1>   0.1400 
  9 C       -1.7300    -1.7860     0.9840 C.3   1 <1>   0.1200 
 10 C       -4.2240    -0.9680     0.8490 C.3   1 <1>   0.1400 
 11 O       -2.0320    -3.1250     0.6780 O.3   1 <1>  -0.5600 
 12 N       -4.6890    -2.3770     0.6460 N.am  1 <1>  -0.6600 
 13 C       -4.9210    -3.1760     1.7470 C.2   1 <1>   0.5690 
 14 O       -5.0140    -2.7060     2.8590 O.2   1 <1>  -0.5700 
 15 C       -5.0050    -4.6970     1.6360 C.3   1 <1>   0.1810 
 16 O       -6.1780    -5.1130     0.9490 O.3   1 <1>  -0.3630 
 17 C       -6.3950    -6.4260     0.6760 C.ar  1 <1>   0.0820 
 18 C       -7.5290    -6.7280    -0.0600 C.ar  1 <1>  -0.1500 
 19 C       -5.5520    -7.4550     1.0890 C.ar  1 <1>  -0.1500 
 20 C       -7.8280    -8.0380    -0.3910 C.ar  1 <1>  -0.1500 
 21 C       -5.8520    -8.7650     0.7580 C.ar  1 <1>  -0.1500 
 22 C       -6.9840    -9.0680     0.0190 C.ar  1 <1>   0.0820 
 23 O       -7.1980   -10.3800    -0.2600 O.3   1 <1>  -0.3620 
 24 C       -8.3370   -10.7980    -0.9750 C.3   1 <1>   0.1200 
 25 C       -8.2840   -12.3170    -1.0990 C.3   1 <1>  -0.2400 
 26 H       -3.3690    -3.4430    -2.3340 H     1 <1>   0.0800 
 27 H       -2.4680     0.1970     0.9550 H     1 <1>   0.0800 
 28 H       -1.2480     1.1220    -0.9730 H     1 <1>   0.0800 
 29 H       -2.9370     1.5860    -1.0880 H     1 <1>   0.0800 
 30 H       -2.1070     0.9370    -2.4820 H     1 <1>   0.0800 
 31 H       -1.1530    -3.2530    -1.1310 H     1 <1>   0.0800 
 32 H       -2.2030    -4.5690    -0.6780 H     1 <1>   0.0800 
 33 H       -5.0220    -3.8960    -0.8000 H     1 <1>   0.0800 
 34 H       -5.3340    -2.2960    -1.3530 H     1 <1>   0.0800 
 35 H       -1.6940    -1.7290     2.0570 H     1 <1>   0.0800 
 36 H       -0.7460    -1.5670     0.6080 H     1 <1>   0.0800 
 37 H       -4.8500    -0.3040     0.2790 H     1 <1>   0.0800 
 38 H       -4.3460    -0.6940     1.8820 H     1 <1>   0.0800 
 39 H       -5.0270    -5.1220     2.6220 H     1 <1>   0.0800 
 40 H       -4.1450    -5.0580     1.1040 H     1 <1>   0.0800 
 41 H       -8.1770    -5.9280    -0.3710 H     1 <1>   0.1500 
 42 H       -4.6680    -7.2630     1.6670 H     1 <1>   0.1500 
 43 H       -8.7150    -8.2350    -0.9630 H     1 <1>   0.1500 
 44 H       -5.2080    -9.5670     1.0720 H     1 <1>   0.1500 
 45 H       -9.2130   -10.4920    -0.4290 H     1 <1>   0.0800 
 46 H       -8.3190   -10.3360    -1.9470 H     1 <1>   0.0800 
 47 H       -8.2860   -12.7680    -0.1230 H     1 <1>   0.0800 
 48 H       -7.3970   -12.6130    -1.6300 H     1 <1>   0.0800 
 49 H       -9.1430   -12.6690    -1.6420 H     1 <1>   0.0800 
@<TRIPOS>BOND
  1   1   2  2   
  2   2   3  am  
  3   2   4  1   
  4   3   5  1   
  5   3   6  1   
  6   4   7  1   
  7   4   8  1   
  8   4  26  1   
  9   5   9  1   
 10   5  10  1   
 11   5  27  1   
 12   6  28  1   
 13   6  29  1   
 14   6  30  1   
 15   7  11  1   
 16   7  31  1   
 17   7  32  1   
 18   8  12  1   
 19   8  33  1   
 20   8  34  1   
 21   9  11  1   
 22   9  35  1   
 23   9  36  1   
 24  10  12  1   
 25  10  37  1   
 26  10  38  1   
 27  12  13  am  
 28  13  14  2   
 29  13  15  1   
 30  15  16  1   
 31  15  39  1   
 32  15  40  1   
 33  16  17  1   
 34  17  18  ar  
 35  17  19  ar  
 36  18  20  ar  
 37  18  41  1   
 38  19  21  ar  
 39  19  42  1   
 40  20  22  ar  
 41  20  43  1   
 42  21  22  ar  
 43  21  44  1   
 44  22  23  1   
 45  23  24  1   
 46  24  25  1   
 47  24  45  1   
 48  24  46  1   
 49  25  47  1   
 50  25  48  1   
 51  25  49  1   
@<TRIPOS>SUBSTRUCTURE
  1 ****  15 GROUP 4 **** **** 0

# MOE 2024.06 (io_trps.svl 2023.06)
