@<TRIPOS>MOLECULE
NONAME
47 49 1 0 0 
SMALL
USER_CHARGES


@<TRIPOS>ATOM
  1 O        0.6650     1.4890    -0.7800 O.2   1 <1>  -0.5700 
  2 C        0.3940     2.6560    -0.9060 C.2   1 <1>   0.5690 
  3 N       -0.3020     3.3110     0.0490 N.am  1 <1>  -0.7300 
  4 C        0.8020     3.4090    -2.1740 C.3   1 <1>   0.1810 
  5 C       -0.7510     4.7190    -0.0750 C.3   1 <1>   0.3640 
  6 O        0.7610     4.8110    -2.0090 O.3   1 <1>  -0.5600 
  7 C       -2.2370     4.7770     0.2740 C.ar  1 <1>  -0.1440 
  8 C       -0.4650     5.3060    -1.4820 C.3   1 <1>   0.2610 
  9 C       -2.7080     5.7700     1.1220 C.ar  1 <1>  -0.1500 
 10 C       -3.1360     3.8520    -0.2430 C.ar  1 <1>  -0.1500 
 11 C       -0.4330     6.8360    -1.4070 C.2   1 <1>   0.5690 
 12 C       -4.0510     5.8370     1.4500 C.ar  1 <1>  -0.1500 
 13 C       -4.4790     3.9180     0.0850 C.ar  1 <1>  -0.1500 
 14 O       -1.4690     7.4540    -1.3490 O.2   1 <1>  -0.5700 
 15 N        0.7630     7.4760    -1.4050 N.am  1 <1>  -0.7300 
 16 C       -4.9380     4.9100     0.9330 C.ar  1 <1>  -0.1500 
 17 C        0.9510     8.9340    -1.3450 C.3   1 <1>   0.3210 
 18 C        2.1560     9.2220    -0.4780 C.2   1 <1>  -0.1810 
 19 C        2.2280     9.0400     0.8980 C.2   1 <1>   0.1390 
 20 C        3.3720     9.7000    -0.8200 C.2   1 <1>  -0.3020 
 21 N        3.3860     9.3730     1.3780 N.2   1 <1>  -0.7070 
 22 N        4.0980     9.7850     0.3130 N.pl3 1 <1>   0.3140 
 23 C        5.4900    10.2580     0.4380 C.3   1 <1>   0.0960 
 24 C        5.5470    11.7920     0.4780 C.3   1 <1>  -0.1600 
 25 C        6.9890    12.2940     0.6070 C.3   1 <1>  -0.2400 
 26 H       -0.6110     2.7960     0.8750 H     1 <1>   0.3700 
 27 H        0.1440     3.1410    -2.9800 H     1 <1>   0.0800 
 28 H        1.8080     3.1390    -2.4400 H     1 <1>   0.0800 
 29 H       -0.2040     5.3000     0.6480 H     1 <1>   0.0800 
 30 H       -1.2520     5.0230    -2.1580 H     1 <1>   0.0800 
 31 H       -2.0370     6.5070     1.5280 H     1 <1>   0.1500 
 32 H       -2.8000     3.0720    -0.9040 H     1 <1>   0.1500 
 33 H       -4.4060     6.6130     2.1050 H     1 <1>   0.1500 
 34 H       -5.1680     3.1970    -0.3190 H     1 <1>   0.1500 
 35 H        1.6170     6.9230    -1.5230 H     1 <1>   0.3700 
 36 H       -5.9820     4.9620     1.1870 H     1 <1>   0.1500 
 37 H        1.1140     9.3130    -2.3390 H     1 <1>   0.0800 
 38 H        0.0760     9.4090    -0.9340 H     1 <1>   0.0800 
 39 H        1.4210     8.6660     1.5050 H     1 <1>   0.1500 
 40 H        3.7570     9.9810    -1.7830 H     1 <1>   0.1500 
 41 H        5.9020     9.8500     1.3430 H     1 <1>   0.0800 
 42 H        6.0540     9.8830    -0.3960 H     1 <1>   0.0800 
 43 H        5.1110    12.1920    -0.4210 H     1 <1>   0.0800 
 44 H        4.9730    12.1430     1.3200 H     1 <1>   0.0800 
 45 H        7.5800    11.9710    -0.2330 H     1 <1>   0.0800 
 46 H        7.4380    11.9230     1.5120 H     1 <1>   0.0800 
 47 H        7.0020    13.3700     0.6380 H     1 <1>   0.0800 
@<TRIPOS>BOND
  1   1   2  2   
  2   2   3  am  
  3   2   4  1   
  4   3   5  1   
  5   3  26  1   
  6   4   6  1   
  7   4  27  1   
  8   4  28  1   
  9   5   7  1   
 10   5   8  1   
 11   5  29  1   
 12   6   8  1   
 13   7   9  ar  
 14   7  10  ar  
 15   8  11  1   
 16   8  30  1   
 17   9  12  ar  
 18   9  31  1   
 19  10  13  ar  
 20  10  32  1   
 21  11  14  2   
 22  11  15  am  
 23  12  16  ar  
 24  12  33  1   
 25  13  16  ar  
 26  13  34  1   
 27  15  17  1   
 28  15  35  1   
 29  16  36  1   
 30  17  18  1   
 31  17  37  1   
 32  17  38  1   
 33  18  19  1   
 34  18  20  2   
 35  19  21  2   
 36  19  39  1   
 37  20  22  1   
 38  20  40  1   
 39  21  22  1   
 40  22  23  1   
 41  23  24  1   
 42  23  41  1   
 43  23  42  1   
 44  24  25  1   
 45  24  43  1   
 46  24  44  1   
 47  25  45  1   
 48  25  46  1   
 49  25  47  1   
@<TRIPOS>SUBSTRUCTURE
  1 ****  15 GROUP 4 **** **** 0

# MOE 2024.06 (io_trps.svl 2023.06)
