@<TRIPOS>MOLECULE
NONAME
56 58 1 0 0 
SMALL
USER_CHARGES


@<TRIPOS>ATOM
  1 O        0.2230     0.1170    -1.1700 O.3   1 <1>  -0.5600 
  2 C        1.4940    -0.4710    -1.3140 C.3   1 <1>   0.2000 
  3 C        0.2040     1.5120    -1.2010 C.3   1 <1>   0.1200 
  4 C        2.4870     0.0590    -0.2410 C.3   1 <1>   0.5660 
  5 C        1.3440    -1.9970    -1.1980 C.3   1 <1>   0.1200 
  6 C        1.0370     2.0730    -0.0360 C.3   1 <1>   0.3430 
  7 N        2.4390     1.5430    -0.0520 N.4   1 <1>  -0.9590 
  8 C        3.9230    -0.3100    -0.5910 C.ar  1 <1>  -0.1430 
  9 O        1.1500    -2.3620     0.1320 O.3   1 <1>  -0.6800 
 10 C        3.1970     1.9570     1.1500 C.3   1 <1>   0.5240 
 11 C        4.6460    -1.1030     0.2890 C.ar  1 <1>  -0.1500 
 12 C        4.5300     0.1330    -1.7620 C.ar  1 <1>  -0.1500 
 13 C        3.5370     3.4210     0.9600 C.2   1 <1>  -0.1810 
 14 C        5.9600    -1.4420     0.0200 C.ar  1 <1>   0.0830 
 15 C        5.8470    -0.1960    -2.0320 C.ar  1 <1>  -0.1500 
 16 C        4.6170     3.9540     0.3260 C.2   1 <1>  -0.3320 
 17 C        2.7690     4.4920     1.4220 C.2   1 <1>  -0.1500 
 18 O        6.5850    -2.2380     0.9200 O.3   1 <1>  -0.3620 
 19 C        6.5770    -0.9630    -1.1410 C.ar  1 <1>   0.0830 
 20 N        4.5350     5.3160     0.3670 N.pl3 1 <1>   0.0480 
 21 C        5.7850     3.2200    -0.3230 C.3   1 <1>  -0.0600 
 22 C        3.3940     5.6440     1.0480 C.2   1 <1>  -0.1320 
 23 C        6.9700    -3.5200     0.4730 C.3   1 <1>   0.0400 
 24 O        7.8710    -1.2110    -1.4540 O.3   1 <1>  -0.3630 
 25 C        5.5200     6.2810    -0.1800 C.3   1 <1>   0.0160 
 26 C        2.9850     6.9930     1.3000 C.1   1 <1>   0.5370 
 27 C        8.8550    -0.7010    -0.5790 C.3   1 <1>   0.0400 
 28 N        2.6660     8.0720     1.4800 N.1   1 <1>  -0.5570 
 29 H        1.8430    -0.2350    -2.3030 H     1 <1>   0.0800 
 30 H        0.5790     1.8490    -2.1520 H     1 <1>   0.0800 
 31 H       -0.8210     1.8260    -1.1060 H     1 <1>   0.0800 
 32 H        2.2280    -0.4140     0.6910 H     1 <1>   0.0800 
 33 H        2.2330    -2.4930    -1.5490 H     1 <1>   0.0800 
 34 H        0.5000    -2.3310    -1.7790 H     1 <1>   0.0800 
 35 H        0.5530     1.7970     0.8860 H     1 <1>   0.0800 
 36 H        1.0520     3.1490    -0.0950 H     1 <1>   0.0800 
 37 H        2.9460     1.9690    -0.8340 H     1 <1>   0.4500 
 38 H        0.8170    -3.2830     0.1920 H     1 <1>   0.4000 
 39 H        2.6180     1.8090     2.0460 H     1 <1>   0.0800 
 40 H        4.1140     1.3950     1.2310 H     1 <1>   0.0800 
 41 H        4.2020    -1.4830     1.1940 H     1 <1>   0.1500 
 42 H        3.9990     0.7350    -2.4790 H     1 <1>   0.1500 
 43 H        6.3240     0.1420    -2.9360 H     1 <1>   0.1500 
 44 H        1.8510     4.4220     1.9830 H     1 <1>   0.1500 
 45 H        5.7330     2.1630    -0.1410 H     1 <1>   0.0800 
 46 H        6.7160     3.5750     0.0840 H     1 <1>   0.0800 
 47 H        5.7890     3.3860    -1.3860 H     1 <1>   0.0800 
 48 H        7.3620    -4.0660     1.3120 H     1 <1>   0.0800 
 49 H        7.7270    -3.4250    -0.2850 H     1 <1>   0.0800 
 50 H        6.1070    -4.0250     0.0760 H     1 <1>   0.0800 
 51 H        6.0790     5.8270    -0.9760 H     1 <1>   0.0800 
 52 H        6.1930     6.5810     0.6030 H     1 <1>   0.0800 
 53 H        5.0110     7.1460    -0.5640 H     1 <1>   0.0800 
 54 H        9.8200    -0.8850    -1.0160 H     1 <1>   0.0800 
 55 H        8.7850    -1.1980     0.3710 H     1 <1>   0.0800 
 56 H        8.7010     0.3570    -0.4600 H     1 <1>   0.0800 
@<TRIPOS>BOND
  1   1   2  1   
  2   1   3  1   
  3   2   4  1   
  4   2   5  1   
  5   2  29  1   
  6   3   6  1   
  7   3  30  1   
  8   3  31  1   
  9   4   7  1   
 10   4   8  1   
 11   4  32  1   
 12   5   9  1   
 13   5  33  1   
 14   5  34  1   
 15   6   7  1   
 16   6  35  1   
 17   6  36  1   
 18   7  10  1   
 19   7  37  1   
 20   8  11  ar  
 21   8  12  ar  
 22   9  38  1   
 23  10  13  1   
 24  10  39  1   
 25  10  40  1   
 26  11  14  ar  
 27  11  41  1   
 28  12  15  ar  
 29  12  42  1   
 30  13  16  2   
 31  13  17  1   
 32  14  18  1   
 33  14  19  ar  
 34  15  19  ar  
 35  15  43  1   
 36  16  20  1   
 37  16  21  1   
 38  17  22  2   
 39  17  44  1   
 40  18  23  1   
 41  19  24  1   
 42  20  22  1   
 43  20  25  1   
 44  21  45  1   
 45  21  46  1   
 46  21  47  1   
 47  22  26  1   
 48  23  48  1   
 49  23  49  1   
 50  23  50  1   
 51  24  27  1   
 52  25  51  1   
 53  25  52  1   
 54  25  53  1   
 55  26  28  3   
 56  27  54  1   
 57  27  55  1   
 58  27  56  1   
@<TRIPOS>SUBSTRUCTURE
  1 ****   7 GROUP 4 **** **** 0

# MOE 2024.06 (io_trps.svl 2023.06)
