@<TRIPOS>MOLECULE
NONAME
49 52 1 0 0 
SMALL
USER_CHARGES


@<TRIPOS>ATOM
  1 O        0.5990     0.8070     1.2680 O.3   1 <1>  -0.0190 
  2 N        1.2220    -0.2550     0.8470 N.2   1 <1>  -0.4100 
  3 C        0.8050     1.8360     0.4900 C.2   1 <1>  -0.0400 
  4 C        1.8380     0.0940    -0.2240 C.2   1 <1>   0.1080 
  5 C        1.6080     1.4360    -0.5100 C.2   1 <1>  -0.1500 
  6 C        0.1470     3.1610     0.8420 C.3   1 <1>   0.0200 
  7 C        2.6930    -0.8380    -1.0530 C.3   1 <1>  -0.0590 
  8 C        0.6490     4.3310    -0.0260 C.3   1 <1>  -0.0800 
  9 C       -0.0890     5.6550     0.1830 C.3   1 <1>   0.2000 
 10 C        2.1310     4.6780     0.2020 C.3   1 <1>   0.1100 
 11 O       -0.3160     5.8510     1.5330 O.3   1 <1>  -0.6800 
 12 C        0.9590     6.6730    -0.2450 C.3   1 <1>   0.1100 
 13 N        2.2110     6.1420     0.3150 N.3   1 <1>  -0.8100 
 14 C        3.4170     6.7090    -0.3170 C.3   1 <1>   0.2900 
 15 C        3.4390     8.2280    -0.2250 C.2   1 <1>  -0.0400 
 16 O        2.9090     8.9220    -1.2310 O.3   1 <1>  -0.2800 
 17 C        3.9250     9.0480     0.7290 C.2   1 <1>  -0.1810 
 18 C        3.0470    10.2140    -0.9360 C.ar  1 <1>   0.1400 
 19 C        3.6800    10.3650     0.2830 C.ar  1 <1>   0.0000 
 20 C        4.5980     8.7110     2.0450 C.3   1 <1>  -0.0590 
 21 C        2.6420    11.3050    -1.6920 C.ar  1 <1>  -0.1500 
 22 C        3.9210    11.6490     0.7740 C.ar  1 <1>  -0.1500 
 23 C        2.8850    12.5710    -1.1980 C.ar  1 <1>  -0.1500 
 24 C        3.5250    12.7470     0.0340 C.ar  1 <1>  -0.1430 
 25 C        3.7720    14.1560     0.5400 C.3   1 <1>  -0.0970 
 26 H        2.0000     1.9790    -1.3480 H     1 <1>   0.1500 
 27 H       -0.9170     3.0570     0.7220 H     1 <1>   0.0800 
 28 H        0.3370     3.3690     1.8800 H     1 <1>   0.0800 
 29 H        2.3120    -0.8880    -2.0560 H     1 <1>   0.0800 
 30 H        2.6780    -1.8250    -0.6270 H     1 <1>   0.0800 
 31 H        3.7060    -0.4840    -1.0730 H     1 <1>   0.0800 
 32 H        0.5310     4.0620    -1.0600 H     1 <1>   0.0800 
 33 H       -1.0210     5.7310    -0.3490 H     1 <1>   0.0800 
 34 H        2.7220     4.3170    -0.6230 H     1 <1>   0.0800 
 35 H        2.4990     4.2360     1.1130 H     1 <1>   0.0800 
 36 H        0.5600     6.0640     1.9250 H     1 <1>   0.4000 
 37 H        0.7410     7.6590     0.1310 H     1 <1>   0.0800 
 38 H        1.0170     6.7060    -1.3200 H     1 <1>   0.0800 
 39 H        4.2840     6.3190     0.1860 H     1 <1>   0.0800 
 40 H        3.4700     6.4200    -1.3520 H     1 <1>   0.0800 
 41 H        4.0490     9.1570     2.8560 H     1 <1>   0.0800 
 42 H        5.6030     9.0920     2.0510 H     1 <1>   0.0800 
 43 H        4.6240     7.6480     2.1940 H     1 <1>   0.0800 
 44 H        2.1530    11.1460    -2.6350 H     1 <1>   0.1500 
 45 H        4.4130    11.7600     1.7230 H     1 <1>   0.1500 
 46 H        2.5810    13.4330    -1.7660 H     1 <1>   0.1500 
 47 H        4.3860    14.6940    -0.1600 H     1 <1>   0.0800 
 48 H        4.2730    14.1400     1.4920 H     1 <1>   0.0800 
 49 H        2.8370    14.6730     0.6540 H     1 <1>   0.0800 
@<TRIPOS>BOND
  1   1   2  1   
  2   1   3  1   
  3   2   4  2   
  4   3   5  2   
  5   3   6  1   
  6   4   5  1   
  7   4   7  1   
  8   5  26  1   
  9   6   8  1   
 10   6  27  1   
 11   6  28  1   
 12   7  29  1   
 13   7  30  1   
 14   7  31  1   
 15   8   9  1   
 16   8  10  1   
 17   8  32  1   
 18   9  11  1   
 19   9  12  1   
 20   9  33  1   
 21  10  13  1   
 22  10  34  1   
 23  10  35  1   
 24  11  36  1   
 25  12  13  1   
 26  12  37  1   
 27  12  38  1   
 28  13  14  1   
 29  14  15  1   
 30  14  39  1   
 31  14  40  1   
 32  15  16  1   
 33  15  17  2   
 34  16  18  1   
 35  17  19  1   
 36  17  20  1   
 37  18  19  ar  
 38  18  21  ar  
 39  19  22  ar  
 40  20  41  1   
 41  20  42  1   
 42  20  43  1   
 43  21  23  ar  
 44  21  44  1   
 45  22  24  ar  
 46  22  45  1   
 47  23  24  ar  
 48  23  46  1   
 49  24  25  1   
 50  25  47  1   
 51  25  48  1   
 52  25  49  1   
@<TRIPOS>SUBSTRUCTURE
  1 ****  13 GROUP 4 **** **** 0

# MOE 2024.06 (io_trps.svl 2023.06)
