@<TRIPOS>MOLECULE
NONAME
45 47 1 0 0 
SMALL
USER_CHARGES


@<TRIPOS>ATOM
  1 CL       2.4120     0.7240     0.6090 Cl    1 <1>  -0.1770 
  2 C        3.8750    -0.2330     0.6300 C.ar  1 <1>   0.1770 
  3 C        5.1130     0.3520     0.8610 C.ar  1 <1>   0.0860 
  4 C        3.7660    -1.5950     0.4120 C.ar  1 <1>   0.1600 
  5 C        5.3160     1.7680     1.0790 C.2   1 <1>   0.5440 
  6 C        6.1770    -0.5420     0.8800 C.ar  1 <1>  -0.1500 
  7 N        4.7900    -2.4350     0.4070 N.ar  1 <1>  -0.6200 
  8 O        6.0590     2.1420     1.9650 O.2   1 <1>  -0.5700 
  9 N        4.7790     2.7350     0.2630 N.am  1 <1>  -0.6600 
 10 C        5.9700    -1.8900     0.6520 C.ar  1 <1>   0.1600 
 11 C        4.6750     2.5890    -1.2240 C.3   1 <1>   0.1400 
 12 C        4.3900     4.0640     0.8140 C.3   1 <1>   0.1400 
 13 C        5.9800     3.0240    -1.9280 C.3   1 <1>   0.3430 
 14 C        5.5220     5.0910     0.6820 C.3   1 <1>  -0.1600 
 15 N        6.7950     3.9440    -1.0760 N.4   1 <1>  -0.9590 
 16 C        6.1170     5.2180    -0.7220 C.3   1 <1>   0.3430 
 17 C        8.1980     4.1120    -1.5300 C.3   1 <1>   0.4860 
 18 C        9.0070     4.6790    -0.3850 C.ar  1 <1>  -0.1440 
 19 C        9.1850     3.9150     0.7670 C.ar  1 <1>   0.4100 
 20 C        9.5760     5.9330    -0.4540 C.ar  1 <1>  -0.1500 
 21 N        9.8650     4.3050     1.8210 N.ar  1 <1>  -0.6200 
 22 N        8.6560     2.6710     0.9000 N.pl3 1 <1>  -0.9000 
 23 C       10.2940     6.3510     0.6490 C.ar  1 <1>  -0.1500 
 24 C       10.4050     5.5100     1.7430 C.ar  1 <1>   0.1600 
 25 H        2.7890    -2.0110     0.2350 H     1 <1>   0.1500 
 26 H        7.1710    -0.1830     1.0790 H     1 <1>   0.1500 
 27 H        6.8170    -2.5590     0.6730 H     1 <1>   0.1500 
 28 H        3.8570     3.1900    -1.5840 H     1 <1>   0.0800 
 29 H        4.4530     1.5700    -1.4870 H     1 <1>   0.0800 
 30 H        4.1370     3.9530     1.8570 H     1 <1>   0.0800 
 31 H        3.5060     4.4160     0.3080 H     1 <1>   0.0800 
 32 H        5.7470     3.4880    -2.8720 H     1 <1>   0.0800 
 33 H        6.5570     2.1370    -2.1330 H     1 <1>   0.0800 
 34 H        6.3020     4.8570     1.3860 H     1 <1>   0.0800 
 35 H        5.1310     6.0500     0.9690 H     1 <1>   0.0800 
 36 H        6.8950     3.4440    -0.1690 H     1 <1>   0.4500 
 37 H        6.8310     6.0260    -0.7200 H     1 <1>   0.0800 
 38 H        5.3450     5.4490    -1.4370 H     1 <1>   0.0800 
 39 H        8.2430     4.7660    -2.3850 H     1 <1>   0.0800 
 40 H        8.6130     3.1540    -1.8010 H     1 <1>   0.0800 
 41 H        9.4830     6.5710    -1.3170 H     1 <1>   0.1500 
 42 H        9.3700     2.0690     1.3230 H     1 <1>   0.4000 
 43 H        7.8940     2.6510     1.6020 H     1 <1>   0.4000 
 44 H       10.7660     7.3170     0.6640 H     1 <1>   0.1500 
 45 H       10.9690     5.8460     2.5980 H     1 <1>   0.1500 
@<TRIPOS>BOND
  1   1   2  1   
  2   2   3  ar  
  3   2   4  ar  
  4   3   5  1   
  5   3   6  ar  
  6   4   7  ar  
  7   4  25  1   
  8   5   8  2   
  9   5   9  am  
 10   6  10  ar  
 11   6  26  1   
 12   7  10  ar  
 13   9  11  1   
 14   9  12  1   
 15  10  27  1   
 16  11  13  1   
 17  11  28  1   
 18  11  29  1   
 19  12  14  1   
 20  12  30  1   
 21  12  31  1   
 22  13  15  1   
 23  13  32  1   
 24  13  33  1   
 25  14  16  1   
 26  14  34  1   
 27  14  35  1   
 28  15  16  1   
 29  15  17  1   
 30  15  36  1   
 31  16  37  1   
 32  16  38  1   
 33  17  18  1   
 34  17  39  1   
 35  17  40  1   
 36  18  19  ar  
 37  18  20  ar  
 38  19  21  ar  
 39  19  22  1   
 40  20  23  ar  
 41  20  41  1   
 42  21  24  ar  
 43  22  42  1   
 44  22  43  1   
 45  23  24  ar  
 46  23  44  1   
 47  24  45  1   
@<TRIPOS>SUBSTRUCTURE
  1 ****   5 GROUP 4 **** **** 0

# MOE 2024.06 (io_trps.svl 2023.06)
