@<TRIPOS>MOLECULE
NONAME
38 40 1 0 0 
SMALL
USER_CHARGES


@<TRIPOS>ATOM
  1 S        1.1270     0.8220    -2.3570 S.3   1 <1>  -0.0800 
  2 C        0.7710    -0.3990    -1.1570 C.2   1 <1>   0.1980 
  3 C        2.1480     1.6200    -1.1970 C.2   1 <1>  -0.1100 
  4 N        1.3470    -0.2190    -0.0330 N.2   1 <1>  -0.5650 
  5 C       -0.1680    -1.5250    -1.5720 C.3   1 <1>   0.5230 
  6 C        2.1310     0.9230    -0.0500 C.2   1 <1>   0.0460 
  7 N       -0.5230    -2.3730    -0.3900 N.4   1 <1>  -0.9590 
  8 C        2.8840     1.2660     1.2170 C.3   1 <1>  -0.0590 
  9 C       -1.1890    -3.6800    -0.6860 C.3   1 <1>   0.3430 
 10 C       -1.3560    -1.6810     0.6380 C.3   1 <1>   0.3430 
 11 C       -1.9920    -4.0220     0.5750 C.3   1 <1>   0.4240 
 12 C       -2.4870    -2.6440     1.0000 C.3   1 <1>  -0.1600 
 13 O       -1.1070    -4.4500     1.5460 O.3   1 <1>  -0.6800 
 14 C       -3.0300    -5.1250     0.3730 C.ar  1 <1>  -0.1440 
 15 C       -4.3680    -4.9650     0.7180 C.ar  1 <1>  -0.1500 
 16 C       -2.6260    -6.3420    -0.1660 C.ar  1 <1>  -0.1500 
 17 C       -5.2780    -5.9860     0.5100 C.ar  1 <1>  -0.1500 
 18 C       -3.5350    -7.3630    -0.3740 C.ar  1 <1>  -0.1500 
 19 C       -4.8640    -7.1850    -0.0390 C.ar  1 <1>  -0.1500 
 20 H        2.6500     2.5220    -1.4980 H     1 <1>   0.1500 
 21 H        0.3280    -2.1230    -2.3160 H     1 <1>   0.0800 
 22 H       -1.0590    -1.1050    -2.0070 H     1 <1>   0.0800 
 23 H        0.3680    -2.5730     0.0960 H     1 <1>   0.4500 
 24 H        3.4560     2.1660     1.0820 H     1 <1>   0.0800 
 25 H        3.5530     0.4640     1.4700 H     1 <1>   0.0800 
 26 H        2.1920     1.4110     2.0250 H     1 <1>   0.0800 
 27 H       -0.4780    -4.4570    -0.9120 H     1 <1>   0.0800 
 28 H       -1.8750    -3.5690    -1.5090 H     1 <1>   0.0800 
 29 H       -1.7500    -0.7490     0.2670 H     1 <1>   0.0800 
 30 H       -0.7500    -1.4790     1.5080 H     1 <1>   0.0800 
 31 H       -3.3510    -2.3680     0.4230 H     1 <1>   0.0800 
 32 H       -2.7410    -2.5980     2.0450 H     1 <1>   0.0800 
 33 H       -1.5890    -5.0330     2.1690 H     1 <1>   0.4000 
 34 H       -4.7350    -4.0540     1.1570 H     1 <1>   0.1500 
 35 H       -1.5950    -6.5180    -0.4240 H     1 <1>   0.1500 
 36 H       -6.3130    -5.8520     0.7770 H     1 <1>   0.1500 
 37 H       -3.2120    -8.3010    -0.7940 H     1 <1>   0.1500 
 38 H       -5.5730    -7.9790    -0.2000 H     1 <1>   0.1500 
@<TRIPOS>BOND
  1   1   2  1   
  2   1   3  1   
  3   2   4  2   
  4   2   5  1   
  5   3   6  2   
  6   3  20  1   
  7   4   6  1   
  8   5   7  1   
  9   5  21  1   
 10   5  22  1   
 11   6   8  1   
 12   7   9  1   
 13   7  10  1   
 14   7  23  1   
 15   8  24  1   
 16   8  25  1   
 17   8  26  1   
 18   9  11  1   
 19   9  27  1   
 20   9  28  1   
 21  10  12  1   
 22  10  29  1   
 23  10  30  1   
 24  11  12  1   
 25  11  13  1   
 26  11  14  1   
 27  12  31  1   
 28  12  32  1   
 29  13  33  1   
 30  14  15  ar  
 31  14  16  ar  
 32  15  17  ar  
 33  15  34  1   
 34  16  18  ar  
 35  16  35  1   
 36  17  19  ar  
 37  17  36  1   
 38  18  19  ar  
 39  18  37  1   
 40  19  38  1   
@<TRIPOS>SUBSTRUCTURE
  1 ****   7 GROUP 4 **** **** 0

# MOE 2024.06 (io_trps.svl 2023.06)
