@<TRIPOS>MOLECULE
NONAME
53 54 1 0 0 
SMALL
USER_CHARGES


@<TRIPOS>ATOM
  1 S        1.2490     0.7940    -1.6970 S.o2  1 <1>   1.3330 
  2 O        1.1610    -0.6440    -1.8110 O.2   1 <1>  -0.6500 
  3 O        0.9590     1.6260    -2.8420 O.2   1 <1>  -0.6500 
  4 N        0.2070     1.2830    -0.4460 N.am  1 <1>  -0.8490 
  5 C        2.8800     1.2010    -1.0690 C.3   1 <1>  -0.0550 
  6 C       -0.0950     2.7190    -0.4690 C.3   1 <1>   0.1160 
  7 C       -1.0430     0.5160    -0.4390 C.3   1 <1>   0.1160 
  8 C        3.3580     0.3030     0.0930 C.3   1 <1>  -0.0800 
  9 C        4.7910     0.5440     0.5430 C.3   1 <1>   0.2200 
 10 C        2.5670     0.4400     1.4000 C.3   1 <1>   0.1200 
 11 N        5.0730     1.9950     0.6450 N.am  1 <1>  -0.7300 
 12 C        4.7390    -0.0400     1.9470 C.3   1 <1>   0.1200 
 13 O        3.4930     0.3420     2.4440 O.3   1 <1>  -0.5600 
 14 C        5.7090     2.7330    -0.2950 C.2   1 <1>   0.5690 
 15 O        6.0840     2.2520    -1.3340 O.2   1 <1>  -0.5700 
 16 C        5.9010     4.2100    -0.0440 C.3   1 <1>  -0.0990 
 17 C        4.6460     4.9940    -0.4410 C.3   1 <1>  -0.0170 
 18 C        4.8240     6.4700    -0.1320 C.ar  1 <1>  -0.1440 
 19 C        5.3800     7.3160    -1.0780 C.ar  1 <1>  -0.1500 
 20 C        4.4380     6.9810     1.0970 C.ar  1 <1>  -0.1500 
 21 C        5.5500     8.6620    -0.8030 C.ar  1 <1>  -0.1440 
 22 C        4.6040     8.3250     1.3830 C.ar  1 <1>  -0.1440 
 23 C        5.1620     9.1610     0.4290 C.ar  1 <1>  -0.1500 
 24 C        6.1620     9.5820    -1.8430 C.3   1 <1>  -0.0970 
 25 C        4.1820     8.8780     2.7320 C.3   1 <1>  -0.0970 
 26 H        3.5840     1.1000    -1.8740 H     1 <1>   0.0800 
 27 H        2.8920     2.2280    -0.7660 H     1 <1>   0.0800 
 28 H       -0.6820     2.9880     0.3920 H     1 <1>   0.0800 
 29 H       -0.6440     2.9750    -1.3610 H     1 <1>   0.0800 
 30 H        0.8160     3.2920    -0.4510 H     1 <1>   0.0800 
 31 H       -1.6770     0.8400     0.3690 H     1 <1>   0.0800 
 32 H       -0.8330    -0.5310    -0.3010 H     1 <1>   0.0800 
 33 H       -1.5650     0.6430    -1.3730 H     1 <1>   0.0800 
 34 H        3.2830    -0.7240    -0.2230 H     1 <1>   0.0800 
 35 H        5.5180     0.0560    -0.0850 H     1 <1>   0.0800 
 36 H        1.8310    -0.3390     1.5060 H     1 <1>   0.0800 
 37 H        2.0900     1.4020     1.4810 H     1 <1>   0.0800 
 38 H        4.7340     2.4200     1.5110 H     1 <1>   0.3700 
 39 H        5.5190     0.3330     2.5870 H     1 <1>   0.0800 
 40 H        4.7690    -1.1160     1.9170 H     1 <1>   0.0800 
 41 H        6.1230     4.3710     0.9940 H     1 <1>   0.0800 
 42 H        6.7390     4.5550    -0.6210 H     1 <1>   0.0800 
 43 H        3.7920     4.6170     0.0940 H     1 <1>   0.0800 
 44 H        4.4570     4.8630    -1.4930 H     1 <1>   0.0800 
 45 H        5.6840     6.9240    -2.0320 H     1 <1>   0.1500 
 46 H        4.0090     6.3310     1.8370 H     1 <1>   0.1500 
 47 H        5.2970    10.2050     0.6480 H     1 <1>   0.1500 
 48 H        5.7840    10.5820    -1.7300 H     1 <1>   0.0800 
 49 H        5.9240     9.2400    -2.8340 H     1 <1>   0.0800 
 50 H        7.2310     9.5990    -1.7290 H     1 <1>   0.0800 
 51 H        3.9290     9.9190     2.6510 H     1 <1>   0.0800 
 52 H        4.9870     8.7700     3.4360 H     1 <1>   0.0800 
 53 H        3.3220     8.3490     3.1020 H     1 <1>   0.0800 
@<TRIPOS>BOND
  1   1   2  2   
  2   1   3  2   
  3   1   4  am  
  4   1   5  1   
  5   4   6  1   
  6   4   7  1   
  7   5   8  1   
  8   5  26  1   
  9   5  27  1   
 10   6  28  1   
 11   6  29  1   
 12   6  30  1   
 13   7  31  1   
 14   7  32  1   
 15   7  33  1   
 16   8   9  1   
 17   8  10  1   
 18   8  34  1   
 19   9  11  1   
 20   9  12  1   
 21   9  35  1   
 22  10  13  1   
 23  10  36  1   
 24  10  37  1   
 25  11  14  am  
 26  11  38  1   
 27  12  13  1   
 28  12  39  1   
 29  12  40  1   
 30  14  15  2   
 31  14  16  1   
 32  16  17  1   
 33  16  41  1   
 34  16  42  1   
 35  17  18  1   
 36  17  43  1   
 37  17  44  1   
 38  18  19  ar  
 39  18  20  ar  
 40  19  21  ar  
 41  19  45  1   
 42  20  22  ar  
 43  20  46  1   
 44  21  23  ar  
 45  21  24  1   
 46  22  23  ar  
 47  22  25  1   
 48  23  47  1   
 49  24  48  1   
 50  24  49  1   
 51  24  50  1   
 52  25  51  1   
 53  25  52  1   
 54  25  53  1   
@<TRIPOS>SUBSTRUCTURE
  1 ****  17 GROUP 4 **** **** 0

# MOE 2024.06 (io_trps.svl 2023.06)
