@<TRIPOS>MOLECULE
NONAME
45 47 1 0 0 
SMALL
USER_CHARGES


@<TRIPOS>ATOM
  1 S        0.7290     0.6560     1.0370 S.3   1 <1>  -0.0800 
  2 C        1.6080     1.3180    -0.3350 C.2   1 <1>  -0.1400 
  3 C        1.1150    -0.9860     0.5540 C.2   1 <1>  -0.1100 
  4 C        2.1370     0.3210    -1.0740 C.2   1 <1>  -0.1500 
  5 C        1.6330     2.8320    -0.4600 C.3   1 <1>   0.3800 
  6 C        1.8560    -0.9880    -0.5690 C.2   1 <1>  -0.1500 
  7 O        2.1060     3.1520    -1.7190 O.3   1 <1>  -0.6800 
  8 C        2.5350     3.4980     0.6050 C.3   1 <1>  -0.0800 
  9 C        2.5090     5.0370     0.4950 C.3   1 <1>  -0.1600 
 10 C        3.9930     2.9900     0.5520 C.3   1 <1>  -0.1600 
 11 C        3.4240     5.7030     1.5210 C.3   1 <1>   0.3430 
 12 C        4.8880     3.6900     1.5720 C.3   1 <1>   0.3430 
 13 N        4.7970     5.1570     1.3780 N.4   1 <1>  -0.9590 
 14 C        5.7920     5.9340     2.1640 C.3   1 <1>   0.5240 
 15 C        6.1510     7.1680     1.3440 C.2   1 <1>   0.1080 
 16 N        5.9680     7.2240     0.0540 N.2   1 <1>  -0.7070 
 17 C        6.6950     8.3440     1.8460 C.2   1 <1>  -0.1500 
 18 N        6.4040     8.4500    -0.3060 N.pl3 1 <1>   0.3140 
 19 C        6.8420     9.1380     0.7650 C.2   1 <1>  -0.3020 
 20 C        6.3840     8.9190    -1.7080 C.3   1 <1>   0.0960 
 21 C        7.6820     8.5430    -2.4340 C.3   1 <1>  -0.2400 
 22 H        0.7400    -1.7850     1.1690 H     1 <1>   0.1500 
 23 H        2.7260     0.4460    -1.9660 H     1 <1>   0.1500 
 24 H        0.6280     3.2110    -0.3880 H     1 <1>   0.0800 
 25 H        2.2240    -1.8650    -1.0730 H     1 <1>   0.1500 
 26 H        1.6100     2.6300    -2.3790 H     1 <1>   0.4000 
 27 H        2.1300     3.2340     1.5670 H     1 <1>   0.0800 
 28 H        1.5040     5.3930     0.6430 H     1 <1>   0.0800 
 29 H        2.8160     5.3460    -0.4890 H     1 <1>   0.0800 
 30 H        4.4030     3.1420    -0.4320 H     1 <1>   0.0800 
 31 H        4.0170     1.9320     0.7480 H     1 <1>   0.0800 
 32 H        3.0540     5.5160     2.5150 H     1 <1>   0.0800 
 33 H        3.4340     6.7690     1.3490 H     1 <1>   0.0800 
 34 H        5.9060     3.3590     1.4380 H     1 <1>   0.0800 
 35 H        4.5700     3.4310     2.5690 H     1 <1>   0.0800 
 36 H        5.0810     5.3940     0.4060 H     1 <1>   0.4500 
 37 H        6.6850     5.3520     2.3110 H     1 <1>   0.0800 
 38 H        5.3910     6.2160     3.1230 H     1 <1>   0.0800 
 39 H        6.9430     8.5660     2.8700 H     1 <1>   0.1500 
 40 H        7.2320    10.1390     0.6990 H     1 <1>   0.1500 
 41 H        6.2540     9.9860    -1.7120 H     1 <1>   0.0800 
 42 H        5.5430     8.4700    -2.2040 H     1 <1>   0.0800 
 43 H        8.5280     8.9960    -1.9500 H     1 <1>   0.0800 
 44 H        7.6440     8.8880    -3.4520 H     1 <1>   0.0800 
 45 H        7.8060     7.4740    -2.4410 H     1 <1>   0.0800 
@<TRIPOS>BOND
  1   1   2  1   
  2   1   3  1   
  3   2   4  2   
  4   2   5  1   
  5   3   6  2   
  6   3  22  1   
  7   4   6  1   
  8   4  23  1   
  9   5   7  1   
 10   5   8  1   
 11   5  24  1   
 12   6  25  1   
 13   7  26  1   
 14   8   9  1   
 15   8  10  1   
 16   8  27  1   
 17   9  11  1   
 18   9  28  1   
 19   9  29  1   
 20  10  12  1   
 21  10  30  1   
 22  10  31  1   
 23  11  13  1   
 24  11  32  1   
 25  11  33  1   
 26  12  13  1   
 27  12  34  1   
 28  12  35  1   
 29  13  14  1   
 30  13  36  1   
 31  14  15  1   
 32  14  37  1   
 33  14  38  1   
 34  15  16  2   
 35  15  17  1   
 36  16  18  1   
 37  17  19  2   
 38  17  39  1   
 39  18  19  1   
 40  18  20  1   
 41  19  40  1   
 42  20  21  1   
 43  20  41  1   
 44  20  42  1   
 45  21  43  1   
 46  21  44  1   
 47  21  45  1   
@<TRIPOS>SUBSTRUCTURE
  1 ****  13 GROUP 4 **** **** 0

# MOE 2024.06 (io_trps.svl 2023.06)
