@<TRIPOS>MOLECULE
NONAME
42 45 1 0 0 
SMALL
USER_CHARGES


@<TRIPOS>ATOM
  1 S       -1.0220    -0.5590     1.5420 S.3   1 <1>  -0.0800 
  2 C       -1.5650    -0.9120    -0.0940 C.2   1 <1>  -0.1400 
  3 C       -1.2720     1.1610     1.3090 C.2   1 <1>  -0.1100 
  4 C       -1.8930     0.2320    -0.7290 C.2   1 <1>  -0.1500 
  5 C       -1.5760    -2.3740    -0.5210 C.3   1 <1>   0.3800 
  6 C       -1.7300     1.4090     0.0690 C.2   1 <1>  -0.1500 
  7 O       -1.9390    -2.4310    -1.8540 O.3   1 <1>  -0.6800 
  8 C       -2.5550    -3.2360     0.3110 C.3   1 <1>  -0.0800 
  9 C       -2.5580    -4.7110    -0.1420 C.3   1 <1>  -0.1600 
 10 C       -3.9990    -2.6870     0.3130 C.3   1 <1>  -0.1600 
 11 C       -3.5050    -5.5670     0.7020 C.3   1 <1>   0.2090 
 12 C       -4.9370    -3.5600     1.1510 C.3   1 <1>   0.2090 
 13 N       -4.8650    -4.9700     0.6900 N.pl3 1 <1>  -0.8380 
 14 C       -5.8460    -5.4980    -0.1200 C.ar  1 <1>   0.4100 
 15 N       -6.2960    -4.7350    -1.0750 N.ar  1 <1>  -0.6200 
 16 C       -6.3250    -6.8200     0.0700 C.ar  1 <1>   0.0000 
 17 C       -7.1810    -5.2850    -1.9110 C.ar  1 <1>   0.4700 
 18 C       -7.2380    -7.2830    -0.8830 C.ar  1 <1>   0.3100 
 19 C       -5.9750    -7.6770     1.1350 C.ar  1 <1>  -0.1500 
 20 N       -7.6600    -6.4880    -1.8860 N.ar  1 <1>  -0.6200 
 21 C       -7.7330    -8.5910    -0.7830 C.ar  1 <1>  -0.1500 
 22 C       -6.4760    -8.9500     1.2200 C.ar  1 <1>  -0.1500 
 23 C       -7.3610    -9.4170     0.2470 C.ar  1 <1>  -0.1500 
 24 H       -1.0460     1.8120     2.1350 H     1 <1>   0.1500 
 25 H       -2.2460     0.3010    -1.7430 H     1 <1>   0.1500 
 26 H       -0.5780    -2.7710    -0.4460 H     1 <1>   0.0800 
 27 H       -1.9620     2.3810    -0.3300 H     1 <1>   0.1500 
 28 H       -2.8830    -2.2000    -1.9230 H     1 <1>   0.4000 
 29 H       -2.2030    -3.2160     1.3280 H     1 <1>   0.0800 
 30 H       -1.5650    -5.1170    -0.0750 H     1 <1>   0.0800 
 31 H       -2.8720    -4.7830    -1.1690 H     1 <1>   0.0800 
 32 H       -4.3880    -2.6510    -0.6890 H     1 <1>   0.0800 
 33 H       -4.0200    -1.6890     0.7110 H     1 <1>   0.0800 
 34 H       -3.1520    -5.6220     1.7180 H     1 <1>   0.0800 
 35 H       -3.5360    -6.5650     0.2980 H     1 <1>   0.0800 
 36 H       -5.9480    -3.1980     1.0630 H     1 <1>   0.0800 
 37 H       -4.6550    -3.5140     2.1880 H     1 <1>   0.0800 
 38 H       -7.5250    -4.6370    -2.6990 H     1 <1>   0.1500 
 39 H       -5.3070    -7.3090     1.8920 H     1 <1>   0.1500 
 40 H       -8.4200    -8.9250    -1.5380 H     1 <1>   0.1500 
 41 H       -6.1990    -9.5980     2.0340 H     1 <1>   0.1500 
 42 H       -7.7470   -10.4200     0.3170 H     1 <1>   0.1500 
@<TRIPOS>BOND
  1   1   2  1   
  2   1   3  1   
  3   2   4  2   
  4   2   5  1   
  5   3   6  2   
  6   3  24  1   
  7   4   6  1   
  8   4  25  1   
  9   5   7  1   
 10   5   8  1   
 11   5  26  1   
 12   6  27  1   
 13   7  28  1   
 14   8   9  1   
 15   8  10  1   
 16   8  29  1   
 17   9  11  1   
 18   9  30  1   
 19   9  31  1   
 20  10  12  1   
 21  10  32  1   
 22  10  33  1   
 23  11  13  1   
 24  11  34  1   
 25  11  35  1   
 26  12  13  1   
 27  12  36  1   
 28  12  37  1   
 29  13  14  1   
 30  14  15  ar  
 31  14  16  ar  
 32  15  17  ar  
 33  16  18  ar  
 34  16  19  ar  
 35  17  20  ar  
 36  17  38  1   
 37  18  20  ar  
 38  18  21  ar  
 39  19  22  ar  
 40  19  39  1   
 41  21  23  ar  
 42  21  40  1   
 43  22  23  ar  
 44  22  41  1   
 45  23  42  1   
@<TRIPOS>SUBSTRUCTURE
  1 ****  13 GROUP 4 **** **** 0

# MOE 2024.06 (io_trps.svl 2023.06)
