@<TRIPOS>MOLECULE
NONAME
49 52 1 0 0 
SMALL
USER_CHARGES


@<TRIPOS>ATOM
  1 O       -2.5650     0.8470    -1.2590 O.2   1 <1>  -0.5700 
  2 C       -2.1490     0.6480    -0.1450 C.2   1 <1>   0.5690 
  3 N       -2.0640    -0.5950     0.3800 N.am  1 <1>  -0.7300 
  4 C       -1.7110     1.8300     0.6830 C.3   1 <1>  -0.0990 
  5 C       -2.4760    -1.8300    -0.3210 C.3   1 <1>   0.2200 
  6 C       -0.6240     2.6130    -0.0620 C.3   1 <1>   0.0960 
  7 C       -3.8870    -2.1950     0.1080 C.3   1 <1>  -0.0800 
  8 C       -1.6770    -3.0130     0.2100 C.3   1 <1>   0.1200 
  9 N       -0.2150     3.7920     0.7210 N.pl3 1 <1>   0.3140 
 10 C       -3.6480    -2.9920     1.3970 C.3   1 <1>   0.1200 
 11 C       -4.6070    -3.0290    -0.9710 C.3   1 <1>  -0.0170 
 12 O       -2.3060    -3.3880     1.3960 O.3   1 <1>  -0.5600 
 13 N        0.6010     3.7090     1.7470 N.2   1 <1>  -0.4180 
 14 C       -0.5700     5.0610     0.5920 C.2   1 <1>   0.0060 
 15 C       -6.0580    -3.3010    -0.5900 C.ar  1 <1>  -0.1440 
 16 N        0.7260     4.9010     2.2070 N.2   1 <1>   0.0000 
 17 N        0.0000     5.7580     1.4980 N.2   1 <1>  -0.3380 
 18 C       -1.5110     5.6180    -0.4600 C.3   1 <1>  -0.0600 
 19 C       -7.0640    -2.3090    -0.6860 C.ar  1 <1>   0.0000 
 20 C       -6.4290    -4.5330    -0.1370 C.ar  1 <1>  -0.1500 
 21 C       -8.3750    -2.6630    -0.2840 C.ar  1 <1>   0.3100 
 22 C       -6.8490    -0.9930    -1.1580 C.ar  1 <1>  -0.1500 
 23 C       -7.7580    -4.7810     0.2280 C.ar  1 <1>   0.1600 
 24 N       -8.7040    -3.8990     0.1700 N.ar  1 <1>  -0.6200 
 25 C       -9.3920    -1.6980    -0.3560 C.ar  1 <1>  -0.1500 
 26 C       -7.8640    -0.0770    -1.2190 C.ar  1 <1>  -0.1500 
 27 C       -9.1520    -0.4300    -0.8110 C.ar  1 <1>  -0.1500 
 28 H       -1.7740    -0.7460     1.3500 H     1 <1>   0.3700 
 29 H       -2.5670     2.4580     0.8510 H     1 <1>   0.0800 
 30 H       -1.3330     1.4930     1.6310 H     1 <1>   0.0800 
 31 H       -2.3710    -1.7080    -1.3870 H     1 <1>   0.0800 
 32 H       -0.9860     2.9350    -1.0220 H     1 <1>   0.0800 
 33 H        0.2390     1.9910    -0.2150 H     1 <1>   0.0800 
 34 H       -4.4670    -1.3130     0.3130 H     1 <1>   0.0800 
 35 H       -0.6480    -2.7690     0.4050 H     1 <1>   0.0800 
 36 H       -1.7310    -3.8470    -0.4680 H     1 <1>   0.0800 
 37 H       -4.2680    -3.8670     1.4710 H     1 <1>   0.0800 
 38 H       -3.8030    -2.3720     2.2630 H     1 <1>   0.0800 
 39 H       -4.0910    -3.9630    -1.1130 H     1 <1>   0.0800 
 40 H       -4.5830    -2.5130    -1.9150 H     1 <1>   0.0800 
 41 H       -1.6540     6.6720    -0.2990 H     1 <1>   0.0800 
 42 H       -2.4660     5.1300    -0.4020 H     1 <1>   0.0800 
 43 H       -1.0960     5.4750    -1.4420 H     1 <1>   0.0800 
 44 H       -5.7220    -5.3380    -0.0450 H     1 <1>   0.1500 
 45 H       -5.8690    -0.6980    -1.4820 H     1 <1>   0.1500 
 46 H       -8.0070    -5.7670     0.5820 H     1 <1>   0.1500 
 47 H      -10.3750    -1.9930    -0.0390 H     1 <1>   0.1500 
 48 H       -7.6860     0.9210    -1.5800 H     1 <1>   0.1500 
 49 H       -9.9420     0.3000    -0.8610 H     1 <1>   0.1500 
@<TRIPOS>BOND
  1   1   2  2   
  2   2   3  am  
  3   2   4  1   
  4   3   5  1   
  5   3  28  1   
  6   4   6  1   
  7   4  29  1   
  8   4  30  1   
  9   5   7  1   
 10   5   8  1   
 11   5  31  1   
 12   6   9  1   
 13   6  32  1   
 14   6  33  1   
 15   7  10  1   
 16   7  11  1   
 17   7  34  1   
 18   8  12  1   
 19   8  35  1   
 20   8  36  1   
 21   9  13  1   
 22   9  14  1   
 23  10  12  1   
 24  10  37  1   
 25  10  38  1   
 26  11  15  1   
 27  11  39  1   
 28  11  40  1   
 29  13  16  2   
 30  14  17  2   
 31  14  18  1   
 32  15  19  ar  
 33  15  20  ar  
 34  16  17  1   
 35  18  41  1   
 36  18  42  1   
 37  18  43  1   
 38  19  21  ar  
 39  19  22  ar  
 40  20  23  ar  
 41  20  44  1   
 42  21  24  ar  
 43  21  25  ar  
 44  22  26  ar  
 45  22  45  1   
 46  23  24  ar  
 47  23  46  1   
 48  25  27  ar  
 49  25  47  1   
 50  26  27  ar  
 51  26  48  1   
 52  27  49  1   
@<TRIPOS>SUBSTRUCTURE
  1 ****   3 GROUP 4 **** **** 0

# MOE 2024.06 (io_trps.svl 2023.06)
