@<TRIPOS>MOLECULE
NONAME
46 49 1 0 0 
SMALL
USER_CHARGES


@<TRIPOS>ATOM
  1 S       -0.3550    -2.9120     3.4540 S.3   1 <1>  -0.3320 
  2 C       -0.3500    -3.5160     1.7580 C.ar  1 <1>   0.1020 
  3 C        1.0740    -1.7540     3.6220 C.3   1 <1>  -0.0100 
  4 C       -1.3300    -4.3960     1.3950 C.ar  1 <1>  -0.1500 
  5 C        0.6160    -3.1040     0.8340 C.ar  1 <1>  -0.1500 
  6 C       -1.3970    -4.9130     0.0930 C.ar  1 <1>   0.3100 
  7 C        0.5730    -3.5930    -0.4450 C.ar  1 <1>  -0.1500 
  8 N       -2.3970    -5.7800    -0.1860 N.ar  1 <1>  -0.6200 
  9 C       -0.4260    -4.5040    -0.8540 C.ar  1 <1>   0.0000 
 10 C       -2.4600    -6.2560    -1.4000 C.ar  1 <1>   0.4100 
 11 C       -0.5220    -5.0390    -2.1580 C.ar  1 <1>  -0.1430 
 12 N       -3.4720    -7.1350    -1.7260 N.3   1 <1>  -0.5900 
 13 C       -1.5400    -5.9070    -2.4050 C.ar  1 <1>  -0.1500 
 14 C        0.4690    -4.6680    -3.2520 C.3   1 <1>  -0.0970 
 15 C       -4.8890    -6.6150    -1.7530 C.3   1 <1>   0.2450 
 16 C       -3.9170    -8.1780    -0.7300 C.3   1 <1>   0.2450 
 17 C       -5.1220    -7.2870    -0.3850 C.3   1 <1>   0.0850 
 18 N       -6.3690    -8.0660    -0.2680 N.pl3 1 <1>   0.4850 
 19 N       -7.3660    -8.0180    -1.1790 N.2   1 <1>  -0.7070 
 20 C       -6.6960    -8.8890     0.7590 C.2   1 <1>  -0.3320 
 21 C       -8.2830    -8.8080    -0.7200 C.2   1 <1>   0.1080 
 22 C       -7.9230    -9.3840     0.4910 C.2   1 <1>  -0.1500 
 23 C       -5.8190    -9.1660     1.9710 C.3   1 <1>  -0.0600 
 24 C       -9.5830    -9.0460    -1.4500 C.3   1 <1>  -0.0590 
 25 H        1.0770    -1.3890     4.6340 H     1 <1>   0.0800 
 26 H        0.9310    -0.9470     2.9270 H     1 <1>   0.0800 
 27 H        1.9740    -2.3040     3.4130 H     1 <1>   0.0800 
 28 H       -2.0710    -4.7110     2.1040 H     1 <1>   0.1500 
 29 H        1.3840    -2.4140     1.1200 H     1 <1>   0.1500 
 30 H        1.3160    -3.2760    -1.1530 H     1 <1>   0.1500 
 31 H       -1.6820    -6.3560    -3.3700 H     1 <1>   0.1500 
 32 H        1.4650    -4.9500    -2.9600 H     1 <1>   0.0800 
 33 H        0.4390    -3.6090    -3.4340 H     1 <1>   0.0800 
 34 H        0.2310    -5.1750    -4.1710 H     1 <1>   0.0800 
 35 H       -5.4250    -7.0460    -2.5800 H     1 <1>   0.0000 
 36 H       -4.9240    -5.5400    -1.7190 H     1 <1>   0.0000 
 37 H       -3.2190    -8.3020     0.0780 H     1 <1>   0.0000 
 38 H       -4.1750    -9.0950    -1.2310 H     1 <1>   0.0000 
 39 H       -4.9580    -6.6360     0.4560 H     1 <1>   0.0000 
 40 H       -8.5180   -10.0690     1.0680 H     1 <1>   0.1500 
 41 H       -5.5800    -8.2460     2.4770 H     1 <1>   0.0800 
 42 H       -4.9060    -9.6480     1.6720 H     1 <1>   0.0800 
 43 H       -6.3340    -9.8100     2.6610 H     1 <1>   0.0800 
 44 H       -9.3780    -9.4500    -2.4240 H     1 <1>   0.0800 
 45 H      -10.1060    -8.1140    -1.5620 H     1 <1>   0.0800 
 46 H      -10.2010    -9.7350    -0.9050 H     1 <1>   0.0800 
@<TRIPOS>BOND
  1   1   2  1   
  2   1   3  1   
  3   2   4  ar  
  4   2   5  ar  
  5   3  25  1   
  6   3  26  1   
  7   3  27  1   
  8   4   6  ar  
  9   4  28  1   
 10   5   7  ar  
 11   5  29  1   
 12   6   8  ar  
 13   6   9  ar  
 14   7   9  ar  
 15   7  30  1   
 16   8  10  ar  
 17   9  11  ar  
 18  10  12  1   
 19  10  13  ar  
 20  11  13  ar  
 21  11  14  1   
 22  12  15  1   
 23  12  16  1   
 24  13  31  1   
 25  14  32  1   
 26  14  33  1   
 27  14  34  1   
 28  15  17  1   
 29  15  35  1   
 30  15  36  1   
 31  16  17  1   
 32  16  37  1   
 33  16  38  1   
 34  17  18  1   
 35  17  39  1   
 36  18  19  1   
 37  18  20  1   
 38  19  21  2   
 39  20  22  2   
 40  20  23  1   
 41  21  22  1   
 42  21  24  1   
 43  22  40  1   
 44  23  41  1   
 45  23  42  1   
 46  23  43  1   
 47  24  44  1   
 48  24  45  1   
 49  24  46  1   
@<TRIPOS>SUBSTRUCTURE
  1 ****   8 GROUP 4 **** **** 0

# MOE 2024.06 (io_trps.svl 2023.06)
