@<TRIPOS>MOLECULE
NONAME
46 48 1 0 0 
SMALL
USER_CHARGES


@<TRIPOS>ATOM
  1 S        0.6000     0.5390     0.0610 S.o2  1 <1>   1.3330 
  2 O       -0.5540     1.4080     0.0920 O.2   1 <1>  -0.6500 
  3 O        0.4700    -0.7990    -0.4720 O.2   1 <1>  -0.6500 
  4 N        1.1610     0.4060     1.6600 N.am  1 <1>  -0.8490 
  5 C        1.9430     1.3590    -0.7990 C.3   1 <1>  -0.0550 
  6 C        1.0750     1.6660     2.4070 C.3   1 <1>   0.1160 
  7 C        0.4660    -0.6550     2.3940 C.3   1 <1>   0.1160 
  8 C        3.1820     0.4700    -1.0470 C.3   1 <1>  -0.0800 
  9 C        4.3170     1.1420    -1.8050 C.3   1 <1>   0.2200 
 10 C        3.8860    -0.0340     0.2160 C.3   1 <1>   0.1200 
 11 N        4.5710     2.4960    -1.2660 N.am  1 <1>  -0.7300 
 12 C        5.4800     0.2360    -1.4210 C.3   1 <1>   0.1200 
 13 O        5.2450    -0.1430    -0.0960 O.3   1 <1>  -0.5600 
 14 C        4.0250     3.6600    -1.7160 C.2   1 <1>   0.5440 
 15 O        3.4140     3.6240    -2.7680 O.2   1 <1>  -0.5700 
 16 C        4.1550     4.9040    -0.9790 C.ar  1 <1>   0.0860 
 17 C        4.2390     4.9470     0.4450 C.ar  1 <1>   0.3100 
 18 C        4.1950     6.0930    -1.6840 C.ar  1 <1>  -0.1500 
 19 N        4.1660     3.8000     1.1870 N.ar  1 <1>  -0.6200 
 20 C        4.3950     6.2050     1.0800 C.ar  1 <1>   0.0000 
 21 C        4.3350     7.3260    -1.0510 C.ar  1 <1>  -0.1500 
 22 C        4.2770     3.8820     2.4780 C.ar  1 <1>   0.1600 
 23 C        4.5050     6.2500     2.4800 C.ar  1 <1>  -0.1500 
 24 C        4.4370     7.3790     0.3090 C.ar  1 <1>  -0.1500 
 25 C        4.4480     5.0820     3.1740 C.ar  1 <1>  -0.1500 
 26 H        1.5820     1.6930    -1.7530 H     1 <1>   0.0800 
 27 H        2.2230     2.2320    -0.2450 H     1 <1>   0.0800 
 28 H        1.5080     1.5450     3.3850 H     1 <1>   0.0800 
 29 H        0.0470     1.9720     2.5150 H     1 <1>   0.0800 
 30 H        1.6130     2.4440     1.8930 H     1 <1>   0.0800 
 31 H        0.8500    -0.7280     3.3970 H     1 <1>   0.0800 
 32 H        0.6190    -1.6020     1.9050 H     1 <1>   0.0800 
 33 H       -0.5920    -0.4530     2.4320 H     1 <1>   0.0800 
 34 H        2.8700    -0.3930    -1.6100 H     1 <1>   0.0800 
 35 H        4.1550     1.1800    -2.8690 H     1 <1>   0.0800 
 36 H        3.5150    -0.9940     0.5300 H     1 <1>   0.0800 
 37 H        3.7980     0.6730     1.0230 H     1 <1>   0.0800 
 38 H        4.9060     2.4960    -0.2920 H     1 <1>   0.3700 
 39 H        6.4330     0.7300    -1.4950 H     1 <1>   0.0800 
 40 H        5.4800    -0.6560    -2.0220 H     1 <1>   0.0800 
 41 H        4.1190     6.0760    -2.7590 H     1 <1>   0.1500 
 42 H        4.3640     8.2250    -1.6460 H     1 <1>   0.1500 
 43 H        4.2360     2.9700     3.0520 H     1 <1>   0.1500 
 44 H        4.6330     7.1960     2.9770 H     1 <1>   0.1500 
 45 H        4.5490     8.3260     0.8080 H     1 <1>   0.1500 
 46 H        4.5320     5.0590     4.2460 H     1 <1>   0.1500 
@<TRIPOS>BOND
  1   1   2  2   
  2   1   3  2   
  3   1   4  am  
  4   1   5  1   
  5   4   6  1   
  6   4   7  1   
  7   5   8  1   
  8   5  26  1   
  9   5  27  1   
 10   6  28  1   
 11   6  29  1   
 12   6  30  1   
 13   7  31  1   
 14   7  32  1   
 15   7  33  1   
 16   8   9  1   
 17   8  10  1   
 18   8  34  1   
 19   9  11  1   
 20   9  12  1   
 21   9  35  1   
 22  10  13  1   
 23  10  36  1   
 24  10  37  1   
 25  11  14  am  
 26  11  38  1   
 27  12  13  1   
 28  12  39  1   
 29  12  40  1   
 30  14  15  2   
 31  14  16  1   
 32  16  17  ar  
 33  16  18  ar  
 34  17  19  ar  
 35  17  20  ar  
 36  18  21  ar  
 37  18  41  1   
 38  19  22  ar  
 39  20  23  ar  
 40  20  24  ar  
 41  21  24  ar  
 42  21  42  1   
 43  22  25  ar  
 44  22  43  1   
 45  23  25  ar  
 46  23  44  1   
 47  24  45  1   
 48  25  46  1   
@<TRIPOS>SUBSTRUCTURE
  1 ****  19 GROUP 4 **** **** 0

# MOE 2024.06 (io_trps.svl 2023.06)
