@<TRIPOS>MOLECULE
NONAME
48 50 1 0 0 
SMALL
USER_CHARGES


@<TRIPOS>ATOM
  1 O       -0.7300     0.6520    -1.9810 O.2   1 <1>  -0.5700 
  2 C       -1.6280     1.1410    -1.3210 C.2   1 <1>   0.5440 
  3 N       -2.7170     0.3750    -0.9560 N.am  1 <1>  -0.6600 
  4 C       -1.5520     2.5450    -0.9590 C.ar  1 <1>   0.0860 
  5 C       -2.8400    -1.0760    -1.3320 C.3   1 <1>   0.1400 
  6 C       -3.9320     0.9800    -0.3270 C.3   1 <1>   0.1400 
  7 C       -1.1200     2.9890     0.2980 C.ar  1 <1>  -0.1440 
  8 C       -1.9420     3.5030    -1.8940 C.ar  1 <1>  -0.1500 
  9 C       -3.2470    -1.9960    -0.1450 C.3   1 <1>  -0.1060 
 10 C       -4.7300    -0.0350     0.4970 C.3   1 <1>  -0.1600 
 11 C       -1.1010     4.3440     0.5890 C.ar  1 <1>  -0.1500 
 12 C       -0.6490     2.0080     1.3670 C.3   1 <1>  -0.0170 
 13 C       -1.9210     4.8530    -1.5990 C.ar  1 <1>  -0.1500 
 14 C       -4.3010    -2.9680    -0.7060 C.2   1 <1>   0.9060 
 15 C       -3.8020    -1.1270     1.0180 C.3   1 <1>   0.2000 
 16 C       -2.0580    -2.8660     0.3460 C.3   1 <1>  -0.0650 
 17 C       -1.5020     5.2750    -0.3520 C.ar  1 <1>  -0.1500 
 18 C        0.8650     1.8140     1.2760 C.3   1 <1>  -0.2400 
 19 O       -4.0800    -3.5250    -1.7870 O.co2 1 <1>  -0.9000 
 20 O       -5.3460    -3.2050    -0.0790 O.co2 1 <1>  -0.9000 
 21 O       -4.4960    -1.8880     1.9350 O.3   1 <1>  -0.6800 
 22 C       -0.7970    -2.1110     0.8010 C.3   1 <1>  -0.1950 
 23 C        0.3150    -1.8180    -0.1540 C.3   1 <1>  -0.2000 
 24 C        0.5000    -2.8470     0.9220 C.3   1 <1>  -0.2000 
 25 H       -3.5900    -1.1330    -2.1030 H     1 <1>   0.0800 
 26 H       -1.9300    -1.4360    -1.7760 H     1 <1>   0.0800 
 27 H       -3.6320     1.7790     0.3280 H     1 <1>   0.0800 
 28 H       -4.5610     1.3960    -1.0960 H     1 <1>   0.0800 
 29 H       -2.2630     3.1710    -2.8660 H     1 <1>   0.1500 
 30 H       -5.4970    -0.4720    -0.1190 H     1 <1>   0.0800 
 31 H       -5.2060     0.4710     1.3170 H     1 <1>   0.0800 
 32 H       -0.7660     4.6850     1.5540 H     1 <1>   0.1500 
 33 H       -0.9040     2.3820     2.3430 H     1 <1>   0.0800 
 34 H       -1.1380     1.0560     1.2560 H     1 <1>   0.0800 
 35 H       -2.2270     5.5730    -2.3380 H     1 <1>   0.1500 
 36 H       -3.0000    -0.6550     1.5540 H     1 <1>   0.0800 
 37 H       -2.4020    -3.4730     1.1660 H     1 <1>   0.0800 
 38 H       -1.7830    -3.5450    -0.4430 H     1 <1>   0.0800 
 39 H       -1.4830     6.3240    -0.1150 H     1 <1>   0.1500 
 40 H        1.3740     2.7430     1.4630 H     1 <1>   0.0800 
 41 H        1.1330     1.4690     0.2920 H     1 <1>   0.0800 
 42 H        1.1900     1.0850     1.9970 H     1 <1>   0.0800 
 43 H       -5.0440    -2.5220     1.3770 H     1 <1>   0.4000 
 44 H       -0.9920    -1.3980     1.5810 H     1 <1>   0.1000 
 45 H        0.2180    -2.1410    -1.1760 H     1 <1>   0.1000 
 46 H        0.8110    -0.8670    -0.0780 H     1 <1>   0.1000 
 47 H        1.1480    -2.6180     1.7500 H     1 <1>   0.1000 
 48 H        0.5390    -3.8840     0.6390 H     1 <1>   0.1000 
@<TRIPOS>BOND
  1   1   2  2   
  2   2   3  am  
  3   2   4  1   
  4   3   5  1   
  5   3   6  1   
  6   4   7  ar  
  7   4   8  ar  
  8   5   9  1   
  9   5  25  1   
 10   5  26  1   
 11   6  10  1   
 12   6  27  1   
 13   6  28  1   
 14   7  11  ar  
 15   7  12  1   
 16   8  13  ar  
 17   8  29  1   
 18   9  14  1   
 19   9  15  1   
 20   9  16  1   
 21  10  15  1   
 22  10  30  1   
 23  10  31  1   
 24  11  17  ar  
 25  11  32  1   
 26  12  18  1   
 27  12  33  1   
 28  12  34  1   
 29  13  17  ar  
 30  13  35  1   
 31  14  19  ar  
 32  14  20  ar  
 33  15  21  1   
 34  15  36  1   
 35  16  22  1   
 36  16  37  1   
 37  16  38  1   
 38  17  39  1   
 39  18  40  1   
 40  18  41  1   
 41  18  42  1   
 42  21  43  1   
 43  22  23  1   
 44  22  24  1   
 45  22  44  1   
 46  23  24  1   
 47  23  45  1   
 48  23  46  1   
 49  24  47  1   
 50  24  48  1   
@<TRIPOS>SUBSTRUCTURE
  1 ****   3 GROUP 4 **** **** 0

# MOE 2024.06 (io_trps.svl 2023.06)
