@<TRIPOS>MOLECULE
NONAME
59 61 1 0 0 
SMALL
USER_CHARGES


@<TRIPOS>ATOM
  1 O        0.3610    -0.0020     1.0280 O.2   1 <1>  -0.5700 
  2 C        1.2280    -0.7010     0.5690 C.2   1 <1>   0.5690 
  3 N        1.0350    -2.0130     0.3150 N.am  1 <1>  -0.7300 
  4 C        2.5760    -0.0880     0.2730 C.3   1 <1>  -0.0990 
  5 C       -0.2230    -2.7290     0.5860 C.3   1 <1>   0.2840 
  6 C        2.4570     1.4360     0.3430 C.3   1 <1>   0.3430 
  7 C        0.0150    -4.1980     0.2950 C.ar  1 <1>  -0.1440 
  8 N        3.7510     2.1220     0.0360 N.4   1 <1>  -0.9590 
  9 C        0.5230    -5.0310     1.2810 C.ar  1 <1>  -0.1500 
 10 C       -0.2650    -4.7210    -0.9590 C.ar  1 <1>  -0.1500 
 11 C        4.7530     1.9410     1.1320 C.3   1 <1>   0.3430 
 12 C        3.4900     3.5670    -0.2350 C.3   1 <1>   0.3430 
 13 C        0.7490    -6.3700     1.0130 C.ar  1 <1>  -0.1500 
 14 C       -0.0410    -6.0610    -1.2280 C.ar  1 <1>  -0.1500 
 15 C        6.0740     2.5980     0.7380 C.3   1 <1>  -0.1600 
 16 C        4.7850     4.2570    -0.6580 C.3   1 <1>  -0.1600 
 17 C        0.4700    -6.8950    -0.2380 C.ar  1 <1>   0.0830 
 18 C        5.8820     4.0840     0.4020 C.3   1 <1>   0.1000 
 19 O        0.7200    -8.2160    -0.4160 O.3   1 <1>  -0.3630 
 20 C        7.1890     4.7160    -0.0520 C.2   1 <1>   0.2980 
 21 C        0.4520    -8.8550    -1.6440 C.3   1 <1>   0.0400 
 22 O        7.7740     4.2660    -1.1330 O.3   1 <1>  -0.0190 
 23 N        7.7830     5.6700     0.5400 N.2   1 <1>  -0.5650 
 24 N        8.8360     5.0000    -1.2390 N.2   1 <1>  -0.4100 
 25 C        8.8350     5.8170    -0.2590 C.2   1 <1>   0.3350 
 26 C        9.8930     6.8840     0.0280 C.3   1 <1>   0.1010 
 27 C        9.4640     8.2400    -0.5490 C.3   1 <1>  -0.2400 
 28 C       11.2790     6.4970    -0.5130 C.3   1 <1>  -0.2400 
 29 H        1.7690    -2.6230    -0.0520 H     1 <1>   0.3700 
 30 H        2.8850    -0.3910    -0.7100 H     1 <1>   0.0800 
 31 H        3.2710    -0.4540     1.0040 H     1 <1>   0.0800 
 32 H       -1.0060    -2.3390    -0.0430 H     1 <1>   0.0800 
 33 H       -0.5100    -2.5880     1.6150 H     1 <1>   0.0800 
 34 H        2.1110     1.7220     1.3250 H     1 <1>   0.0800 
 35 H        1.7050     1.7470    -0.3650 H     1 <1>   0.0800 
 36 H        4.1380     1.7140    -0.8260 H     1 <1>   0.4500 
 37 H        0.7460    -4.6430     2.2600 H     1 <1>   0.1500 
 38 H       -0.6600    -4.0870    -1.7330 H     1 <1>   0.1500 
 39 H        4.9200     0.8920     1.3160 H     1 <1>   0.0800 
 40 H        4.3840     2.3880     2.0420 H     1 <1>   0.0800 
 41 H        3.1020     4.0420     0.6530 H     1 <1>   0.0800 
 42 H        2.7570     3.6710    -1.0200 H     1 <1>   0.0800 
 43 H        1.1420    -7.0190     1.7750 H     1 <1>   0.1500 
 44 H       -0.2680    -6.4350    -2.2080 H     1 <1>   0.1500 
 45 H        6.4970     2.0750    -0.1020 H     1 <1>   0.0800 
 46 H        6.7690     2.5080     1.5550 H     1 <1>   0.0800 
 47 H        4.5940     5.3070    -0.8010 H     1 <1>   0.0800 
 48 H        5.1100     3.8580    -1.6040 H     1 <1>   0.0800 
 49 H        5.5730     4.5980     1.2980 H     1 <1>   0.0800 
 50 H        0.7200    -9.8910    -1.5470 H     1 <1>   0.0800 
 51 H        1.0450    -8.3950    -2.4140 H     1 <1>   0.0800 
 52 H       -0.5990    -8.7680    -1.8600 H     1 <1>   0.0800 
 53 H        9.9720     6.9810     1.0970 H     1 <1>   0.0800 
 54 H        9.3660     8.1750    -1.6190 H     1 <1>   0.0800 
 55 H       10.1880     8.9980    -0.3100 H     1 <1>   0.0800 
 56 H        8.5140     8.5300    -0.1350 H     1 <1>   0.0800 
 57 H       11.2550     6.4140    -1.5860 H     1 <1>   0.0800 
 58 H       11.5810     5.5500    -0.1040 H     1 <1>   0.0800 
 59 H       12.0090     7.2380    -0.2400 H     1 <1>   0.0800 
@<TRIPOS>BOND
  1   1   2  2   
  2   2   3  am  
  3   2   4  1   
  4   3   5  1   
  5   3  29  1   
  6   4   6  1   
  7   4  30  1   
  8   4  31  1   
  9   5   7  1   
 10   5  32  1   
 11   5  33  1   
 12   6   8  1   
 13   6  34  1   
 14   6  35  1   
 15   7   9  ar  
 16   7  10  ar  
 17   8  11  1   
 18   8  12  1   
 19   8  36  1   
 20   9  13  ar  
 21   9  37  1   
 22  10  14  ar  
 23  10  38  1   
 24  11  15  1   
 25  11  39  1   
 26  11  40  1   
 27  12  16  1   
 28  12  41  1   
 29  12  42  1   
 30  13  17  ar  
 31  13  43  1   
 32  14  17  ar  
 33  14  44  1   
 34  15  18  1   
 35  15  45  1   
 36  15  46  1   
 37  16  18  1   
 38  16  47  1   
 39  16  48  1   
 40  17  19  1   
 41  18  20  1   
 42  18  49  1   
 43  19  21  1   
 44  20  22  1   
 45  20  23  2   
 46  21  50  1   
 47  21  51  1   
 48  21  52  1   
 49  22  24  1   
 50  23  25  1   
 51  24  25  2   
 52  25  26  1   
 53  26  27  1   
 54  26  28  1   
 55  26  53  1   
 56  27  54  1   
 57  27  55  1   
 58  27  56  1   
 59  28  57  1   
 60  28  58  1   
 61  28  59  1   
@<TRIPOS>SUBSTRUCTURE
  1 ****   4 GROUP 4 **** **** 0

# MOE 2024.06 (io_trps.svl 2023.06)
