@<TRIPOS>MOLECULE
NONAME
47 49 1 0 0 
SMALL
USER_CHARGES


@<TRIPOS>ATOM
  1 S       -2.0130    -0.1090     0.7100 S.o2  1 <1>   1.0900 
  2 O       -1.2620    -0.2030     1.9400 O.2   1 <1>  -0.6500 
  3 O       -3.2100     0.6950     0.6510 O.2   1 <1>  -0.6500 
  4 C       -2.4450    -1.7710     0.1990 C.3   1 <1>  -0.0550 
  5 C       -0.9110     0.4710    -0.5660 C.3   1 <1>  -0.1350 
  6 C       -1.2800    -2.7700     0.2940 C.3   1 <1>  -0.0990 
  7 C       -1.7180    -4.1330    -0.1840 C.2   1 <1>   0.5690 
  8 O       -1.9790    -4.2760    -1.3520 O.2   1 <1>  -0.5700 
  9 N       -1.8320    -5.1430     0.7090 N.am  1 <1>  -0.7300 
 10 C       -2.2830    -6.5100     0.3640 C.3   1 <1>   0.2200 
 11 C       -3.7730    -6.6210     0.6340 C.3   1 <1>  -0.0800 
 12 C       -1.7100    -7.5150     1.3560 C.3   1 <1>   0.1200 
 13 C       -3.8110    -6.9640     2.1280 C.3   1 <1>   0.1200 
 14 C       -4.4240    -7.7140    -0.2360 C.3   1 <1>  -0.0160 
 15 O       -2.5590    -7.4890     2.4640 O.3   1 <1>  -0.5600 
 16 C       -5.9380    -7.7410    -0.0540 C.ar  1 <1>  -0.1440 
 17 C       -6.7870    -6.7690    -0.6370 C.ar  1 <1>   0.0000 
 18 C       -6.5220    -8.7230     0.6910 C.ar  1 <1>  -0.1500 
 19 C       -8.1770    -6.8760    -0.3860 C.ar  1 <1>   0.3100 
 20 C       -6.3420    -5.7030    -1.4550 C.ar  1 <1>  -0.1500 
 21 C       -7.9110    -8.7410     0.8710 C.ar  1 <1>   0.1600 
 22 N       -8.7210    -7.8650     0.3680 N.ar  1 <1>  -0.6200 
 23 C       -9.0430    -5.9200    -0.9400 C.ar  1 <1>  -0.1500 
 24 C       -7.2140    -4.7890    -1.9810 C.ar  1 <1>  -0.1500 
 25 C       -8.5820    -4.8950    -1.7210 C.ar  1 <1>  -0.1500 
 26 H       -3.2430    -2.1260     0.8230 H     1 <1>   0.0800 
 27 H       -2.8160    -1.7530    -0.8090 H     1 <1>   0.0800 
 28 H       -0.0230    -0.1280    -0.6060 H     1 <1>   0.0800 
 29 H       -0.6230     1.4850    -0.3630 H     1 <1>   0.0800 
 30 H       -1.3950     0.4440    -1.5240 H     1 <1>   0.0800 
 31 H       -0.4620    -2.4490    -0.3230 H     1 <1>   0.0800 
 32 H       -0.9320    -2.8310     1.3100 H     1 <1>   0.0800 
 33 H       -1.6700    -4.9920     1.7080 H     1 <1>   0.3700 
 34 H       -2.0150    -6.7420    -0.6530 H     1 <1>   0.0800 
 35 H       -4.2690    -5.6840     0.4500 H     1 <1>   0.0800 
 36 H       -0.7070    -7.2750     1.6620 H     1 <1>   0.0800 
 37 H       -1.7380    -8.5100     0.9480 H     1 <1>   0.0800 
 38 H       -4.5710    -7.6840     2.3750 H     1 <1>   0.0800 
 39 H       -3.9590    -6.0760     2.7180 H     1 <1>   0.0800 
 40 H       -4.0130    -8.6750     0.0200 H     1 <1>   0.0800 
 41 H       -4.1980    -7.5440    -1.2740 H     1 <1>   0.0800 
 42 H       -5.9430    -9.4980     1.1580 H     1 <1>   0.1500 
 43 H       -5.2960    -5.6020    -1.6740 H     1 <1>   0.1500 
 44 H       -8.3300    -9.5330     1.4670 H     1 <1>   0.1500 
 45 H      -10.0920    -6.0240    -0.7290 H     1 <1>   0.1500 
 46 H       -6.8610    -3.9830    -2.6000 H     1 <1>   0.1500 
 47 H       -9.2590    -4.1700    -2.1390 H     1 <1>   0.1500 
@<TRIPOS>BOND
  1   1   2  2   
  2   1   3  2   
  3   1   4  1   
  4   1   5  1   
  5   4   6  1   
  6   4  26  1   
  7   4  27  1   
  8   5  28  1   
  9   5  29  1   
 10   5  30  1   
 11   6   7  1   
 12   6  31  1   
 13   6  32  1   
 14   7   8  2   
 15   7   9  am  
 16   9  10  1   
 17   9  33  1   
 18  10  11  1   
 19  10  12  1   
 20  10  34  1   
 21  11  13  1   
 22  11  14  1   
 23  11  35  1   
 24  12  15  1   
 25  12  36  1   
 26  12  37  1   
 27  13  15  1   
 28  13  38  1   
 29  13  39  1   
 30  14  16  1   
 31  14  40  1   
 32  14  41  1   
 33  16  17  ar  
 34  16  18  ar  
 35  17  19  ar  
 36  17  20  ar  
 37  18  21  ar  
 38  18  42  1   
 39  19  22  ar  
 40  19  23  ar  
 41  20  24  ar  
 42  20  43  1   
 43  21  22  ar  
 44  21  44  1   
 45  23  25  ar  
 46  23  45  1   
 47  24  25  ar  
 48  24  46  1   
 49  25  47  1   
@<TRIPOS>SUBSTRUCTURE
  1 ****  11 GROUP 4 **** **** 0

# MOE 2024.06 (io_trps.svl 2023.06)
