@<TRIPOS>MOLECULE
STOCK7S-73411
30 31 1 0 0 
SMALL
USER_CHARGES


@<TRIPOS>ATOM
  1 BR       0.8310    -0.3220     2.0390 Br    1 <1>  -0.0840 
  2 C        2.0250     0.9620     1.2530 C.2   1 <1>   0.7170 
  3 N        1.7850     2.2060     1.1240 N.2   1 <1>  -0.2710 
  4 N        3.2280     0.5640     0.7850 N.pl3 1 <1>  -0.7070 
  5 N        2.9260     2.6710     0.5170 N.pl3 1 <1>  -0.4660 
  6 C        3.7990     1.6620     0.3260 C.cat 1 <1>   1.0680 
  7 C        2.9620     4.1000     0.1010 C.3   1 <1>   0.2630 
  8 N        5.0560     1.6860    -0.2160 N.pl3 1 <1>  -0.6000 
  9 C        5.8810     2.9410    -0.3100 C.3   1 <1>   0.1550 
 10 C        5.6030     0.4880    -0.9220 C.3   1 <1>   0.1550 
 11 C        7.4180     2.7490    -0.3380 C.3   1 <1>   0.3330 
 12 C        6.5890    -0.2690    -0.0230 C.3   1 <1>  -0.1730 
 13 N        7.9270     1.7330     0.6340 N.4   1 <1>  -0.9100 
 14 C        7.9810     0.3580     0.0770 C.3   1 <1>   0.3330 
 15 H        3.5780    -0.3870     0.8110 H     1 <1>   0.4410 
 16 H        1.9590     4.4910     0.0590 H     1 <1>   0.0670 
 17 H        3.4030     4.1970    -0.8750 H     1 <1>   0.0670 
 18 H        3.5220     4.6770     0.8160 H     1 <1>   0.0670 
 19 H        5.6500     3.5750     0.5290 H     1 <1>   0.0670 
 20 H        5.6010     3.4740    -1.2030 H     1 <1>   0.0670 
 21 H        6.0810     0.7830    -1.8420 H     1 <1>   0.0670 
 22 H        4.7960    -0.1740    -1.1920 H     1 <1>   0.0670 
 23 H        7.8760     3.7020    -0.1240 H     1 <1>   0.0670 
 24 H        7.7230     2.4730    -1.3340 H     1 <1>   0.0670 
 25 H        6.7250    -1.2480    -0.4500 H     1 <1>   0.0670 
 26 H        6.1770    -0.4180     0.9590 H     1 <1>   0.0670 
 27 H        7.3910     1.7420     1.5100 H     1 <1>   0.4410 
 28 H        8.8910     1.9930     0.8930 H     1 <1>   0.4410 
 29 H        8.4420     0.3800    -0.8980 H     1 <1>   0.0670 
 30 H        8.5920    -0.2600     0.7150 H     1 <1>   0.0670 
@<TRIPOS>BOND
  1   1   2  1   
  2   2   3  2   
  3   2   4  1   
  4   3   5  1   
  5   4   6  ar  
  6   4  15  1   
  7   5   6  ar  
  8   5   7  1   
  9   6   8  ar  
 10   7  16  1   
 11   7  17  1   
 12   7  18  1   
 13   8   9  1   
 14   8  10  1   
 15   9  11  1   
 16   9  19  1   
 17   9  20  1   
 18  10  12  1   
 19  10  21  1   
 20  10  22  1   
 21  11  13  1   
 22  11  23  1   
 23  11  24  1   
 24  12  14  1   
 25  12  25  1   
 26  12  26  1   
 27  13  14  1   
 28  13  27  1   
 29  13  28  1   
 30  14  29  1   
 31  14  30  1   
@<TRIPOS>SUBSTRUCTURE
  1 ****   8 GROUP 4 **** **** 0

# MOE 2024.06 (io_trps.svl 2023.06)
