@<TRIPOS>MOLECULE
NONAME
47 49 1 0 0 
SMALL
USER_CHARGES


@<TRIPOS>ATOM
  1 F       -0.4600    -1.0830    -0.4030 F     1 <1>  -0.3400 
  2 C       -1.7380    -1.0900    -0.7530 C.3   1 <1>   0.2600 
  3 C       -2.5520    -0.6150     0.4490 C.3   1 <1>  -0.1600 
  4 C       -2.0950    -2.5170    -1.1700 C.3   1 <1>  -0.1600 
  5 C       -4.0480    -0.7560     0.1610 C.3   1 <1>   0.1400 
  6 C       -3.5970    -2.6310    -1.4370 C.3   1 <1>   0.1400 
  7 N       -4.3490    -2.1620    -0.2370 N.am  1 <1>  -0.6600 
  8 C       -5.1570    -2.9640     0.5460 C.2   1 <1>   0.5690 
  9 O       -5.5960    -2.5510     1.5980 O.2   1 <1>  -0.5700 
 10 C       -5.5210    -4.3950     0.1040 C.3   1 <1>   0.2610 
 11 O       -4.4160    -5.2640     0.2790 O.3   1 <1>  -0.5600 
 12 C       -6.7950    -4.9250     0.8170 C.3   1 <1>   0.3640 
 13 C       -4.6270    -6.5740    -0.1860 C.3   1 <1>   0.1810 
 14 N       -6.9110    -6.4200     0.8370 N.am  1 <1>  -0.6600 
 15 C       -8.0480    -4.2750     0.2020 C.ar  1 <1>  -0.1440 
 16 C       -5.8990    -7.2160     0.3710 C.2   1 <1>   0.5690 
 17 C       -8.1180    -6.9750     1.5140 C.3   1 <1>   0.0600 
 18 C       -8.6230    -4.6410    -1.0200 C.ar  1 <1>  -0.1440 
 19 C       -8.6260    -3.2410     0.9290 C.ar  1 <1>  -0.1500 
 20 O       -5.9780    -8.4220     0.3550 O.2   1 <1>  -0.5700 
 21 C       -9.7500    -3.9670    -1.4710 C.ar  1 <1>  -0.1500 
 22 C       -8.0980    -5.7660    -1.9080 C.3   1 <1>  -0.0970 
 23 C       -9.7460    -2.5770     0.4680 C.ar  1 <1>  -0.1500 
 24 C      -10.3100    -2.9410    -0.7360 C.ar  1 <1>  -0.1500 
 25 H       -1.8310    -0.4080    -1.5800 H     1 <1>   0.0800 
 26 H       -2.3120    -1.2080     1.3140 H     1 <1>   0.0800 
 27 H       -2.3250     0.4140     0.6600 H     1 <1>   0.0800 
 28 H       -1.5520    -2.7810    -2.0600 H     1 <1>   0.0800 
 29 H       -1.8310    -3.2040    -0.3850 H     1 <1>   0.0800 
 30 H       -4.3350    -0.0960    -0.6400 H     1 <1>   0.0800 
 31 H       -4.6100    -0.4720     1.0350 H     1 <1>   0.0800 
 32 H       -3.8290    -3.6520    -1.6780 H     1 <1>   0.0800 
 33 H       -3.8680    -2.0200    -2.2810 H     1 <1>   0.0800 
 34 H       -5.7280    -4.3510    -0.9470 H     1 <1>   0.0800 
 35 H       -6.7330    -4.6280     1.8500 H     1 <1>   0.0800 
 36 H       -4.6750    -6.5530    -1.2590 H     1 <1>   0.0800 
 37 H       -3.7780    -7.1630     0.1110 H     1 <1>   0.0800 
 38 H       -8.1920    -6.5760     2.5110 H     1 <1>   0.0800 
 39 H       -8.0610    -8.0480     1.5770 H     1 <1>   0.0800 
 40 H       -9.0040    -6.7100     0.9640 H     1 <1>   0.0800 
 41 H       -8.2010    -2.9330     1.8700 H     1 <1>   0.1500 
 42 H      -10.2070    -4.2400    -2.4060 H     1 <1>   0.1500 
 43 H       -8.5210    -5.7070    -2.8940 H     1 <1>   0.0800 
 44 H       -8.3680    -6.7190    -1.4890 H     1 <1>   0.0800 
 45 H       -7.0330    -5.7230    -2.0110 H     1 <1>   0.0800 
 46 H      -10.1750    -1.7770     1.0470 H     1 <1>   0.1500 
 47 H      -11.1830    -2.4280    -1.1010 H     1 <1>   0.1500 
@<TRIPOS>BOND
  1   1   2  1   
  2   2   3  1   
  3   2   4  1   
  4   2  25  1   
  5   3   5  1   
  6   3  26  1   
  7   3  27  1   
  8   4   6  1   
  9   4  28  1   
 10   4  29  1   
 11   5   7  1   
 12   5  30  1   
 13   5  31  1   
 14   6   7  1   
 15   6  32  1   
 16   6  33  1   
 17   7   8  am  
 18   8   9  2   
 19   8  10  1   
 20  10  11  1   
 21  10  12  1   
 22  10  34  1   
 23  11  13  1   
 24  12  14  1   
 25  12  15  1   
 26  12  35  1   
 27  13  16  1   
 28  13  36  1   
 29  13  37  1   
 30  14  16  am  
 31  14  17  1   
 32  15  18  ar  
 33  15  19  ar  
 34  16  20  2   
 35  17  38  1   
 36  17  39  1   
 37  17  40  1   
 38  18  21  ar  
 39  18  22  1   
 40  19  23  ar  
 41  19  41  1   
 42  21  24  ar  
 43  21  42  1   
 44  22  43  1   
 45  22  44  1   
 46  22  45  1   
 47  23  24  ar  
 48  23  46  1   
 49  24  47  1   
@<TRIPOS>SUBSTRUCTURE
  1 ****  10 GROUP 4 **** **** 0

# MOE 2024.06 (io_trps.svl 2023.06)
