@<TRIPOS>MOLECULE
NONAME
35 35 1 0 0 
SMALL
USER_CHARGES


@<TRIPOS>ATOM
  1 O       -5.6720     1.7040    -1.2350 O.2   1 <1>  -0.5700 
  2 C       -6.1440     1.7610    -0.1160 C.2   1 <1>   0.7800 
  3 O       -7.4330     1.5710     0.1250 O.3   1 <1>  -0.4300 
  4 N       -5.3950     2.0410     0.9770 N.am  1 <1>  -0.7300 
  5 C       -8.4470     1.2760    -0.8140 C.3   1 <1>   0.2800 
  6 C       -3.9380     2.3500     1.1270 C.3   1 <1>   0.2200 
  7 C       -9.7310     1.1580     0.0070 C.3   1 <1>  -0.2400 
  8 C       -8.5900     2.4280    -1.8160 C.3   1 <1>  -0.2400 
  9 C       -8.1600    -0.0640    -1.5010 C.3   1 <1>  -0.2400 
 10 C       -3.6340     3.8280     0.8320 C.3   1 <1>  -0.0800 
 11 C       -3.0520     1.6250     0.1050 C.3   1 <1>   0.3430 
 12 C       -3.3010     3.8850    -0.6650 C.3   1 <1>   0.3430 
 13 C       -4.7220     4.8370     1.2450 C.3   1 <1>  -0.2400 
 14 N       -3.0950     2.4820    -1.1080 N.4   1 <1>  -0.9060 
 15 H       -5.9430     2.1150     1.8380 H     1 <1>   0.3700 
 16 H       -3.6370     2.0860     2.1280 H     1 <1>   0.0800 
 17 H      -10.5650     0.9330    -0.6330 H     1 <1>   0.0800 
 18 H       -9.9380     2.0820     0.5160 H     1 <1>   0.0800 
 19 H       -9.6410     0.3700     0.7330 H     1 <1>   0.0800 
 20 H       -9.4500     2.2620    -2.4400 H     1 <1>   0.0800 
 21 H       -7.7340     2.4950    -2.4600 H     1 <1>   0.0800 
 22 H       -8.7240     3.3610    -1.2990 H     1 <1>   0.0800 
 23 H       -8.9980    -0.3470    -2.1110 H     1 <1>   0.0800 
 24 H       -8.0000    -0.8340    -0.7690 H     1 <1>   0.0800 
 25 H       -7.3020     0.0010    -2.1440 H     1 <1>   0.0800 
 26 H       -2.7330     4.0860     1.3620 H     1 <1>   0.0800 
 27 H       -3.4150     0.6290    -0.0920 H     1 <1>   0.0800 
 28 H       -2.0430     1.5760     0.4780 H     1 <1>   0.0800 
 29 H       -2.4140     4.4780    -0.8280 H     1 <1>   0.0800 
 30 H       -4.1220     4.3210    -1.2130 H     1 <1>   0.0800 
 31 H       -5.6280     4.6940     0.6810 H     1 <1>   0.0800 
 32 H       -4.3810     5.8450     1.0790 H     1 <1>   0.0800 
 33 H       -4.9520     4.7330     2.2920 H     1 <1>   0.0800 
 34 H       -2.3100     2.3460    -1.7550 H     1 <1>   0.4500 
 35 H       -3.9700     2.1980    -1.5990 H     1 <1>   0.4500 
@<TRIPOS>BOND
  1   1   2  2   
  2   2   3  1   
  3   2   4  am  
  4   3   5  1   
  5   4   6  1   
  6   4  15  1   
  7   5   7  1   
  8   5   8  1   
  9   5   9  1   
 10   6  10  1   
 11   6  11  1   
 12   6  16  1   
 13   7  17  1   
 14   7  18  1   
 15   7  19  1   
 16   8  20  1   
 17   8  21  1   
 18   8  22  1   
 19   9  23  1   
 20   9  24  1   
 21   9  25  1   
 22  10  12  1   
 23  10  13  1   
 24  10  26  1   
 25  11  14  1   
 26  11  27  1   
 27  11  28  1   
 28  12  14  1   
 29  12  29  1   
 30  12  30  1   
 31  13  31  1   
 32  13  32  1   
 33  13  33  1   
 34  14  34  1   
 35  14  35  1   
@<TRIPOS>SUBSTRUCTURE
  1 ****   2 GROUP 4 **** **** 0

# MOE 2024.06 (io_trps.svl 2023.06)
