@<TRIPOS>MOLECULE
NONAME
56 58 1 0 0 
SMALL
USER_CHARGES


@<TRIPOS>ATOM
  1 O       -0.4880    -1.1750     1.7480 O.2   1 <1>  -0.5700 
  2 C       -0.4510    -1.6150     0.6250 C.2   1 <1>   0.5690 
  3 N        0.6970    -1.6380    -0.1080 N.am  1 <1>  -0.7300 
  4 C       -1.7720    -2.1150     0.0170 C.3   1 <1>   0.4040 
  5 C        2.0070    -1.1670     0.3800 C.3   1 <1>   0.2200 
  6 N       -2.7100    -1.0150    -0.4460 N.4   1 <1>  -0.9590 
  7 C        2.4930    -0.0310    -0.5260 C.3   1 <1>  -0.1600 
  8 C        2.9890    -2.3440     0.3730 C.3   1 <1>  -0.1600 
  9 C       -3.0650    -0.1050     0.6880 C.3   1 <1>   0.3430 
 10 C       -3.9200    -1.5790    -1.1040 C.3   1 <1>   0.3430 
 11 C        3.9040     0.4280    -0.1290 C.3   1 <1>  -0.1600 
 12 C        4.4000    -1.8880     0.7720 C.3   1 <1>  -0.1600 
 13 C       -3.9240     1.0480     0.1780 C.3   1 <1>  -0.1600 
 14 C       -4.7970    -0.4460    -1.6250 C.3   1 <1>  -0.1600 
 15 C        4.8910    -0.7470    -0.1290 C.3   1 <1>  -0.1600 
 16 C       -5.1970     0.5430    -0.5180 C.3   1 <1>   0.2800 
 17 O       -5.7680     1.6210    -1.2000 O.3   1 <1>  -0.5600 
 18 C       -6.2130    -0.0750     0.4810 C.3   1 <1>  -0.1600 
 19 C       -6.5560     2.5180    -0.4670 C.3   1 <1>   0.1200 
 20 C       -7.6630     0.2930     0.1530 C.3   1 <1>   0.2800 
 21 C       -7.8080     1.8160     0.0860 C.3   1 <1>  -0.1600 
 22 O       -7.9440    -0.1990    -1.0930 O.3   1 <1>  -0.6800 
 23 C       -8.6630    -0.3470     1.1120 C.3   1 <1>  -0.2400 
 24 H        0.7440    -2.0410    -1.0450 H     1 <1>   0.3700 
 25 H       -2.2650    -2.7110     0.7660 H     1 <1>   0.0800 
 26 H       -1.5350    -2.7590    -0.8120 H     1 <1>   0.0800 
 27 H        1.9160    -0.7950     1.3880 H     1 <1>   0.0800 
 28 H       -2.2080    -0.4390    -1.1360 H     1 <1>   0.4500 
 29 H        1.8190     0.8030    -0.4490 H     1 <1>   0.0800 
 30 H        2.5140    -0.3640    -1.5490 H     1 <1>   0.0800 
 31 H        3.0310    -2.7790    -0.6100 H     1 <1>   0.0800 
 32 H        2.6530    -3.0940     1.0680 H     1 <1>   0.0800 
 33 H       -2.1710     0.2970     1.1390 H     1 <1>   0.0800 
 34 H       -3.6020    -0.6540     1.4460 H     1 <1>   0.0800 
 35 H       -4.4790    -2.1740    -0.3990 H     1 <1>   0.0800 
 36 H       -3.6340    -2.2130    -1.9280 H     1 <1>   0.0800 
 37 H        3.8740     0.8660     0.8540 H     1 <1>   0.0800 
 38 H        4.2460     1.1850    -0.8150 H     1 <1>   0.0800 
 39 H        5.0810    -2.7200     0.7050 H     1 <1>   0.0800 
 40 H        4.3910    -1.5540     1.7960 H     1 <1>   0.0800 
 41 H       -3.3440     1.6390    -0.5080 H     1 <1>   0.0800 
 42 H       -4.1790     1.6750     1.0130 H     1 <1>   0.0800 
 43 H       -5.6740    -0.8760    -2.0710 H     1 <1>   0.0800 
 44 H       -4.2650     0.0760    -2.4010 H     1 <1>   0.0800 
 45 H        5.8540    -0.4080     0.2140 H     1 <1>   0.0800 
 46 H        5.0120    -1.1130    -1.1350 H     1 <1>   0.0800 
 47 H       -6.0080     0.2900     1.4710 H     1 <1>   0.0800 
 48 H       -6.1200    -1.1440     0.5310 H     1 <1>   0.0800 
 49 H       -6.8390     3.3220    -1.1250 H     1 <1>   0.0800 
 50 H       -5.9610     2.9260     0.3310 H     1 <1>   0.0800 
 51 H       -8.6710     2.0780    -0.5020 H     1 <1>   0.0800 
 52 H       -7.9840     2.2040     1.0730 H     1 <1>   0.0800 
 53 H       -7.4760     0.3720    -1.7380 H     1 <1>   0.4000 
 54 H       -8.4890    -0.0090     2.1170 H     1 <1>   0.0800 
 55 H       -8.5710    -1.4180     1.0910 H     1 <1>   0.0800 
 56 H       -9.6660    -0.0770     0.8330 H     1 <1>   0.0800 
@<TRIPOS>BOND
  1   1   2  2   
  2   2   3  am  
  3   2   4  1   
  4   3   5  1   
  5   3  24  1   
  6   4   6  1   
  7   4  25  1   
  8   4  26  1   
  9   5   7  1   
 10   5   8  1   
 11   5  27  1   
 12   6   9  1   
 13   6  10  1   
 14   6  28  1   
 15   7  11  1   
 16   7  29  1   
 17   7  30  1   
 18   8  12  1   
 19   8  31  1   
 20   8  32  1   
 21   9  13  1   
 22   9  33  1   
 23   9  34  1   
 24  10  14  1   
 25  10  35  1   
 26  10  36  1   
 27  11  15  1   
 28  11  37  1   
 29  11  38  1   
 30  12  15  1   
 31  12  39  1   
 32  12  40  1   
 33  13  16  1   
 34  13  41  1   
 35  13  42  1   
 36  14  16  1   
 37  14  43  1   
 38  14  44  1   
 39  15  45  1   
 40  15  46  1   
 41  16  17  1   
 42  16  18  1   
 43  17  19  1   
 44  18  20  1   
 45  18  47  1   
 46  18  48  1   
 47  19  21  1   
 48  19  49  1   
 49  19  50  1   
 50  20  21  1   
 51  20  22  1   
 52  20  23  1   
 53  21  51  1   
 54  21  52  1   
 55  22  53  1   
 56  23  54  1   
 57  23  55  1   
 58  23  56  1   
@<TRIPOS>SUBSTRUCTURE
  1 ****   6 GROUP 4 **** **** 0

# MOE 2024.06 (io_trps.svl 2023.06)
