@<TRIPOS>MOLECULE
NONAME
61 64 1 0 0 
SMALL
USER_CHARGES


@<TRIPOS>ATOM
  1 O       -1.3500     0.1130    -1.6860 O.2   1 <1>  -0.5700 
  2 C       -1.4190     0.3020    -0.4970 C.2   1 <1>   0.5690 
  3 N       -1.5660    -0.7160     0.3820 N.am  1 <1>  -0.7300 
  4 C       -1.3470     1.7240     0.0270 C.3   1 <1>  -0.0990 
  5 C       -1.6510    -2.1500     0.0120 C.3   1 <1>   0.2200 
  6 C        0.0940     2.2680     0.1330 C.3   1 <1>  -0.0800 
  7 C       -3.0850    -2.6590     0.0810 C.3   1 <1>  -0.0800 
  8 C       -1.0120    -2.9770     1.1190 C.3   1 <1>   0.1200 
  9 C        0.0860     3.6740     0.7570 C.3   1 <1>  -0.1600 
 10 C        0.7960     2.3130    -1.2390 C.3   1 <1>  -0.1600 
 11 C       -3.2560    -3.0230     1.5620 C.3   1 <1>   0.1200 
 12 C       -4.1670    -1.7110    -0.4680 C.3   1 <1>  -0.0160 
 13 O       -1.9760    -3.0240     2.1260 O.3   1 <1>  -0.5600 
 14 C        1.4790     4.3040     0.7890 C.3   1 <1>   0.3430 
 15 C        2.1720     2.9720    -1.1730 C.3   1 <1>   0.3430 
 16 C       -5.5360    -2.3740    -0.4370 C.ar  1 <1>  -0.1440 
 17 N        2.0450     4.3350    -0.5910 N.4   1 <1>  -0.9590 
 18 C       -5.9370    -3.2530    -1.4230 C.ar  1 <1>  -0.1500 
 19 C       -6.4450    -2.1360     0.5740 C.ar  1 <1>  -0.1500 
 20 C        3.3340     5.0770    -0.6430 C.3   1 <1>   0.4860 
 21 C       -7.1890    -3.8390    -1.3500 C.ar  1 <1>   0.1600 
 22 C       -7.6740    -2.7750     0.5530 C.ar  1 <1>   0.1600 
 23 C        3.0730     6.5220    -0.2670 C.ar  1 <1>  -0.1440 
 24 N       -8.0670    -3.6230    -0.3830 N.ar  1 <1>  -0.6200 
 25 C        3.4760     7.0060     0.9690 C.ar  1 <1>  -0.1500 
 26 C        2.4230     7.3690    -1.1540 C.ar  1 <1>  -0.1500 
 27 C        3.2200     8.3190     1.3210 C.ar  1 <1>  -0.1500 
 28 C        2.1670     8.6820    -0.8000 C.ar  1 <1>  -0.1500 
 29 C        2.5630     9.1570     0.4370 C.ar  1 <1>  -0.1500 
 30 H       -1.6820    -0.5520     1.3850 H     1 <1>   0.3700 
 31 H       -1.9260     2.3460    -0.6320 H     1 <1>   0.0800 
 32 H       -1.8180     1.7560     0.9930 H     1 <1>   0.0800 
 33 H       -1.1930    -2.3250    -0.9480 H     1 <1>   0.0800 
 34 H        0.6540     1.6110     0.7790 H     1 <1>   0.0800 
 35 H       -3.1320    -3.5770    -0.4790 H     1 <1>   0.0800 
 36 H       -0.1060    -2.5420     1.5000 H     1 <1>   0.0800 
 37 H       -0.8280    -3.9850     0.7880 H     1 <1>   0.0800 
 38 H       -0.2880     3.6170     1.7650 H     1 <1>   0.0800 
 39 H       -0.5760     4.3220     0.2070 H     1 <1>   0.0800 
 40 H        0.1840     2.8370    -1.9530 H     1 <1>   0.0800 
 41 H        0.9290     1.3120    -1.6120 H     1 <1>   0.0800 
 42 H       -3.6920    -4.0000     1.6830 H     1 <1>   0.0800 
 43 H       -3.8440    -2.2940     2.0900 H     1 <1>   0.0800 
 44 H       -3.9250    -1.4430    -1.4820 H     1 <1>   0.0800 
 45 H       -4.2000    -0.8030     0.1060 H     1 <1>   0.0800 
 46 H        2.1220     3.7290     1.4370 H     1 <1>   0.0800 
 47 H        1.4060     5.3060     1.1840 H     1 <1>   0.0800 
 48 H        2.5880     3.0280    -2.1670 H     1 <1>   0.0800 
 49 H        2.8280     2.3730    -0.5630 H     1 <1>   0.0800 
 50 H        1.3810     4.8690    -1.1650 H     1 <1>   0.4500 
 51 H       -5.2880    -3.4860    -2.2470 H     1 <1>   0.1500 
 52 H       -6.2130    -1.4610     1.3760 H     1 <1>   0.1500 
 53 H        4.0460     4.6400     0.0370 H     1 <1>   0.0800 
 54 H        3.7440     5.0400    -1.6390 H     1 <1>   0.0800 
 55 H       -7.4850    -4.5210    -2.1280 H     1 <1>   0.1500 
 56 H       -8.3710    -2.5780     1.3500 H     1 <1>   0.1500 
 57 H        3.9950     6.3750     1.6720 H     1 <1>   0.1500 
 58 H        2.1110     7.0280    -2.1260 H     1 <1>   0.1500 
 59 H        3.5320     8.6960     2.2800 H     1 <1>   0.1500 
 60 H        1.6620     9.3420    -1.4870 H     1 <1>   0.1500 
 61 H        2.3650    10.1790     0.7110 H     1 <1>   0.1500 
@<TRIPOS>BOND
  1   1   2  2   
  2   2   3  am  
  3   2   4  1   
  4   3   5  1   
  5   3  30  1   
  6   4   6  1   
  7   4  31  1   
  8   4  32  1   
  9   5   7  1   
 10   5   8  1   
 11   5  33  1   
 12   6   9  1   
 13   6  10  1   
 14   6  34  1   
 15   7  11  1   
 16   7  12  1   
 17   7  35  1   
 18   8  13  1   
 19   8  36  1   
 20   8  37  1   
 21   9  14  1   
 22   9  38  1   
 23   9  39  1   
 24  10  15  1   
 25  10  40  1   
 26  10  41  1   
 27  11  13  1   
 28  11  42  1   
 29  11  43  1   
 30  12  16  1   
 31  12  44  1   
 32  12  45  1   
 33  14  17  1   
 34  14  46  1   
 35  14  47  1   
 36  15  17  1   
 37  15  48  1   
 38  15  49  1   
 39  16  18  ar  
 40  16  19  ar  
 41  17  20  1   
 42  17  50  1   
 43  18  21  ar  
 44  18  51  1   
 45  19  22  ar  
 46  19  52  1   
 47  20  23  1   
 48  20  53  1   
 49  20  54  1   
 50  21  24  ar  
 51  21  55  1   
 52  22  24  ar  
 53  22  56  1   
 54  23  25  ar  
 55  23  26  ar  
 56  25  27  ar  
 57  25  57  1   
 58  26  28  ar  
 59  26  58  1   
 60  27  29  ar  
 61  27  59  1   
 62  28  29  ar  
 63  28  60  1   
 64  29  61  1   
@<TRIPOS>SUBSTRUCTURE
  1 ****   4 GROUP 4 **** **** 0

# MOE 2024.06 (io_trps.svl 2023.06)
