@<TRIPOS>MOLECULE
NONAME
48 51 1 0 0 
SMALL
USER_CHARGES


@<TRIPOS>ATOM
  1 O        3.3150     2.9140    -0.1650 O.3   1 <1>  -0.0190 
  2 N        4.0840     1.9170     0.1480 N.2   1 <1>  -0.4100 
  3 C        2.1360     2.5190    -0.5630 C.2   1 <1>  -0.0400 
  4 C        3.3940     0.8540    -0.0670 C.2   1 <1>   0.1080 
  5 C        2.1210     1.1780    -0.5310 C.2   1 <1>  -0.1500 
  6 C        1.0970     3.5460    -0.9650 C.3   1 <1>   0.0200 
  7 C        3.9050    -0.5530     0.1550 C.3   1 <1>  -0.0590 
  8 C        0.4500     4.2330     0.2580 C.3   1 <1>  -0.0800 
  9 C       -0.3860     5.4380    -0.1790 C.3   1 <1>   0.2000 
 10 C        1.4760     4.8630     1.2030 C.3   1 <1>   0.3430 
 11 O       -1.4010     5.6410     0.7480 O.3   1 <1>  -0.6800 
 12 C        0.5800     6.6340    -0.1520 C.3   1 <1>   0.3430 
 13 N        1.7990     6.1630     0.5760 N.4   1 <1>  -0.9590 
 14 C        2.4590     7.1560     1.4580 C.3   1 <1>   0.4860 
 15 C        2.7650     8.4150     0.6560 C.ar  1 <1>  -0.1440 
 16 C        3.7970     8.4680    -0.2920 C.ar  1 <1>  -0.0230 
 17 C        1.9850     9.5390     0.8890 C.ar  1 <1>  -0.1500 
 18 N        4.6430     7.3550    -0.5750 N.pl3 1 <1>   0.5930 
 19 C        4.0060     9.6560    -0.9870 C.ar  1 <1>  -0.1500 
 20 C        2.2110    10.7100     0.1890 C.ar  1 <1>  -0.1500 
 21 N        4.1680     6.1300    -0.9340 N.2   1 <1>  -0.7070 
 22 C        5.9930     7.3210    -0.5060 C.2   1 <1>  -0.3020 
 23 C        3.2210    10.7680    -0.7500 C.ar  1 <1>  -0.1500 
 24 C        5.2200     5.3820    -1.0850 C.2   1 <1>   0.1390 
 25 C        6.3950     6.0750    -0.8270 C.2   1 <1>  -0.1500 
 26 H        1.3420     0.4840    -0.7900 H     1 <1>   0.1500 
 27 H        1.5700     4.2670    -1.6110 H     1 <1>   0.0800 
 28 H        0.3300     3.0540    -1.5370 H     1 <1>   0.0800 
 29 H        3.2760    -1.0640     0.8610 H     1 <1>   0.0800 
 30 H        4.9080    -0.5240     0.5410 H     1 <1>   0.0800 
 31 H        3.9060    -1.0920    -0.7740 H     1 <1>   0.0800 
 32 H       -0.1460     3.5020     0.7790 H     1 <1>   0.0800 
 33 H       -0.8490     5.3140    -1.1450 H     1 <1>   0.0800 
 34 H        2.3540     4.2520     1.3350 H     1 <1>   0.0800 
 35 H        1.0200     5.0260     2.1660 H     1 <1>   0.0800 
 36 H       -1.0980     5.5880     1.6740 H     1 <1>   0.4000 
 37 H        0.1180     7.4710     0.3440 H     1 <1>   0.0800 
 38 H        0.8500     6.9220    -1.1560 H     1 <1>   0.0800 
 39 H        2.5200     5.9620    -0.1510 H     1 <1>   0.4500 
 40 H        1.8150     7.3990     2.2870 H     1 <1>   0.0800 
 41 H        3.3770     6.7450     1.8470 H     1 <1>   0.0800 
 42 H        1.1930     9.5240     1.6190 H     1 <1>   0.1500 
 43 H        4.7900     9.7170    -1.7240 H     1 <1>   0.1500 
 44 H        1.6020    11.5810     0.3750 H     1 <1>   0.1500 
 45 H        6.5780     8.1810    -0.2340 H     1 <1>   0.1500 
 46 H        3.3970    11.6800    -1.2960 H     1 <1>   0.1500 
 47 H        5.1900     4.3420    -1.3750 H     1 <1>   0.1500 
 48 H        7.3930     5.6720    -0.8820 H     1 <1>   0.1500 
@<TRIPOS>BOND
  1   1   2  1   
  2   1   3  1   
  3   2   4  2   
  4   3   5  2   
  5   3   6  1   
  6   4   5  1   
  7   4   7  1   
  8   5  26  1   
  9   6   8  1   
 10   6  27  1   
 11   6  28  1   
 12   7  29  1   
 13   7  30  1   
 14   7  31  1   
 15   8   9  1   
 16   8  10  1   
 17   8  32  1   
 18   9  11  1   
 19   9  12  1   
 20   9  33  1   
 21  10  13  1   
 22  10  34  1   
 23  10  35  1   
 24  11  36  1   
 25  12  13  1   
 26  12  37  1   
 27  12  38  1   
 28  13  14  1   
 29  13  39  1   
 30  14  15  1   
 31  14  40  1   
 32  14  41  1   
 33  15  16  ar  
 34  15  17  ar  
 35  16  18  1   
 36  16  19  ar  
 37  17  20  ar  
 38  17  42  1   
 39  18  21  1   
 40  18  22  1   
 41  19  23  ar  
 42  19  43  1   
 43  20  23  ar  
 44  20  44  1   
 45  21  24  2   
 46  22  25  2   
 47  22  45  1   
 48  23  46  1   
 49  24  25  1   
 50  24  47  1   
 51  25  48  1   
@<TRIPOS>SUBSTRUCTURE
  1 ****  13 GROUP 4 **** **** 0

# MOE 2024.06 (io_trps.svl 2023.06)
