@<TRIPOS>MOLECULE
NONAME
46 48 1 0 0 
SMALL
USER_CHARGES


@<TRIPOS>ATOM
  1 O        1.7300     0.1630     1.5430 O.3   1 <1>  -0.6800 
  2 C        1.8160    -0.0920     0.1760 C.3   1 <1>   0.2000 
  3 C        2.7130    -1.3040    -0.0780 C.3   1 <1>  -0.0800 
  4 C        2.6080     1.0430    -0.4790 C.3   1 <1>   0.3430 
  5 C        4.1410    -0.7450    -0.0240 C.3   1 <1>   0.3430 
  6 C        2.5140    -2.5080     0.8630 C.3   1 <1>   0.0210 
  7 N        4.0490     0.7350    -0.2140 N.4   1 <1>  -0.9590 
  8 C        3.4400    -3.6510     0.4920 C.2   1 <1>   0.1080 
  9 C        4.5280     1.4410     1.0050 C.3   1 <1>   0.4860 
 10 N        4.7340    -3.5390     0.4830 N.2   1 <1>  -0.7070 
 11 C        3.0190    -4.9250     0.1300 C.2   1 <1>  -0.1500 
 12 C        4.5780     2.9270     0.7110 C.ar  1 <1>  -0.1440 
 13 N        5.1770    -4.7620     0.1220 N.pl3 1 <1>   0.3000 
 14 C        4.1560    -5.6140    -0.1020 C.2   1 <1>  -0.3320 
 15 C        5.5800     3.4510    -0.0920 C.ar  1 <1>  -0.1500 
 16 C        3.6160     3.7730     1.2410 C.ar  1 <1>  -0.1500 
 17 C        4.3320    -7.0620    -0.5240 C.3   1 <1>  -0.0600 
 18 C        5.6380     4.8080    -0.3960 C.ar  1 <1>   0.0280 
 19 C        3.6570     5.1240     0.9560 C.ar  1 <1>  -0.1500 
 20 C        4.6550     5.6320     0.1460 C.ar  1 <1>  -0.1500 
 21 C        6.6940     5.3180    -1.2440 C.2   1 <1>  -0.1780 
 22 C        6.7820     6.5260    -1.8240 C.2   1 <1>  -0.3000 
 23 H        1.0640    -0.4160     1.9710 H     1 <1>   0.4000 
 24 H        0.8220    -0.1900    -0.2280 H     1 <1>   0.0800 
 25 H        2.5440    -1.6420    -1.0860 H     1 <1>   0.0800 
 26 H        2.3110     2.0030    -0.0920 H     1 <1>   0.0800 
 27 H        2.4300     1.0240    -1.5420 H     1 <1>   0.0800 
 28 H        4.7480    -1.2060    -0.7870 H     1 <1>   0.0800 
 29 H        4.5760    -0.9740     0.9360 H     1 <1>   0.0800 
 30 H        1.4960    -2.8480     0.8100 H     1 <1>   0.0800 
 31 H        2.7230    -2.2330     1.8820 H     1 <1>   0.0800 
 32 H        4.6250     1.0510    -1.0020 H     1 <1>   0.4500 
 33 H        3.8650     1.2480     1.8340 H     1 <1>   0.0800 
 34 H        5.5140     1.0970     1.2700 H     1 <1>   0.0800 
 35 H        2.0030    -5.2700     0.0610 H     1 <1>   0.1500 
 36 H        6.1760    -4.9900     0.0430 H     1 <1>   0.2700 
 37 H        6.3410     2.8070    -0.4970 H     1 <1>   0.1500 
 38 H        2.8340     3.3930     1.8780 H     1 <1>   0.1500 
 39 H        3.3720    -7.5340    -0.6360 H     1 <1>   0.0800 
 40 H        4.8920    -7.6010     0.2190 H     1 <1>   0.0800 
 41 H        4.8510    -7.1170    -1.4640 H     1 <1>   0.0800 
 42 H        2.9130     5.7860     1.3660 H     1 <1>   0.1500 
 43 H        4.6720     6.6870    -0.0600 H     1 <1>   0.1500 
 44 H        7.4930     4.6160    -1.4090 H     1 <1>   0.1500 
 45 H        7.6090     6.8290    -2.4430 H     1 <1>   0.1500 
 46 H        6.0460     7.3060    -1.7370 H     1 <1>   0.1500 
@<TRIPOS>BOND
  1   1   2  1   
  2   1  23  1   
  3   2   3  1   
  4   2   4  1   
  5   2  24  1   
  6   3   5  1   
  7   3   6  1   
  8   3  25  1   
  9   4   7  1   
 10   4  26  1   
 11   4  27  1   
 12   5   7  1   
 13   5  28  1   
 14   5  29  1   
 15   6   8  1   
 16   6  30  1   
 17   6  31  1   
 18   7   9  1   
 19   7  32  1   
 20   8  10  2   
 21   8  11  1   
 22   9  12  1   
 23   9  33  1   
 24   9  34  1   
 25  10  13  1   
 26  11  14  2   
 27  11  35  1   
 28  12  15  ar  
 29  12  16  ar  
 30  13  14  1   
 31  13  36  1   
 32  14  17  1   
 33  15  18  ar  
 34  15  37  1   
 35  16  19  ar  
 36  16  38  1   
 37  17  39  1   
 38  17  40  1   
 39  17  41  1   
 40  18  20  ar  
 41  18  21  1   
 42  19  20  ar  
 43  19  42  1   
 44  20  43  1   
 45  21  22  2   
 46  21  44  1   
 47  22  45  1   
 48  22  46  1   
@<TRIPOS>SUBSTRUCTURE
  1 ****   7 GROUP 4 **** **** 0

# MOE 2024.06 (io_trps.svl 2023.06)
