@<TRIPOS>MOLECULE
NONAME
40 42 1 0 0 
SMALL
USER_CHARGES


@<TRIPOS>ATOM
  1 O       -0.7260     0.9910     0.5620 O.2   1 <1>  -0.5700 
  2 C       -0.3740     2.1420     0.3780 C.2   1 <1>   0.7160 
  3 N       -1.3320     3.1240     0.2380 N.am  1 <1>  -0.6600 
  4 C        1.0400     2.4320     0.3070 C.2   1 <1>  -0.0860 
  5 C       -2.7420     2.9130     0.6940 C.3   1 <1>   0.1400 
  6 C       -1.1190     4.3920    -0.5120 C.3   1 <1>   0.1400 
  7 C        2.0270     1.6450    -0.1980 C.2   1 <1>  -0.0100 
  8 C        1.7230     3.5780     0.7700 C.2   1 <1>  -0.1500 
  9 C       -3.7330     2.9480    -0.4960 C.3   1 <1>   0.0000 
 10 C       -2.0790     4.4660    -1.7050 C.3   1 <1>  -0.1600 
 11 O        3.2020     2.2190    -0.0940 O.3   1 <1>  -0.2800 
 12 C        3.0280     3.3840     0.4920 C.2   1 <1>  -0.0100 
 13 C       -5.1860     2.7820    -0.0160 C.3   1 <1>   0.2000 
 14 C       -3.5440     4.2630    -1.2810 C.3   1 <1>  -0.1600 
 15 C       -3.5580     1.7040    -1.3830 C.3   1 <1>  -0.1600 
 16 O       -5.4220     3.4970     1.1610 O.3   1 <1>  -0.5600 
 17 C       -5.3850     1.2770     0.1940 C.3   1 <1>  -0.1600 
 18 C       -4.3290     0.5840    -0.6780 C.3   1 <1>  -0.1600 
 19 C       -6.7660     3.6500     1.4960 C.3   1 <1>   0.0400 
 20 H       -2.8310     1.9820     1.2250 H     1 <1>   0.0800 
 21 H       -2.9870     3.6980     1.3880 H     1 <1>   0.0800 
 22 H       -1.2950     5.2220     0.1500 H     1 <1>   0.0800 
 23 H       -0.1100     4.4570    -0.8780 H     1 <1>   0.0800 
 24 H        1.9540     0.6670    -0.6410 H     1 <1>   0.1500 
 25 H        1.2580     4.4180     1.2530 H     1 <1>   0.1500 
 26 H       -1.9750     5.4240    -2.1810 H     1 <1>   0.0800 
 27 H       -1.7990     3.7150    -2.4230 H     1 <1>   0.0800 
 28 H        3.8880     4.0050     0.6760 H     1 <1>   0.1500 
 29 H       -5.8540     3.1360    -0.7830 H     1 <1>   0.0800 
 30 H       -4.1760     4.2720    -2.1520 H     1 <1>   0.0800 
 31 H       -3.8420     5.0860    -0.6540 H     1 <1>   0.0800 
 32 H       -4.0060     1.8790    -2.3460 H     1 <1>   0.0800 
 33 H       -2.5260     1.4370    -1.5330 H     1 <1>   0.0800 
 34 H       -5.2210     1.0190     1.2270 H     1 <1>   0.0800 
 35 H       -6.3760     0.9830    -0.1000 H     1 <1>   0.0800 
 36 H       -3.6540     0.0240    -0.0510 H     1 <1>   0.0800 
 37 H       -4.7760    -0.0860    -1.3910 H     1 <1>   0.0800 
 38 H       -6.8200     4.2300     2.4000 H     1 <1>   0.0800 
 39 H       -7.2070     2.6830     1.6610 H     1 <1>   0.0800 
 40 H       -7.2740     4.1690     0.7020 H     1 <1>   0.0800 
@<TRIPOS>BOND
  1   1   2  2   
  2   2   3  am  
  3   2   4  1   
  4   3   5  1   
  5   3   6  1   
  6   4   7  2   
  7   4   8  1   
  8   5   9  1   
  9   5  20  1   
 10   5  21  1   
 11   6  10  1   
 12   6  22  1   
 13   6  23  1   
 14   7  11  1   
 15   7  24  1   
 16   8  12  2   
 17   8  25  1   
 18   9  13  1   
 19   9  14  1   
 20   9  15  1   
 21  10  14  1   
 22  10  26  1   
 23  10  27  1   
 24  11  12  1   
 25  12  28  1   
 26  13  16  1   
 27  13  17  1   
 28  13  29  1   
 29  14  30  1   
 30  14  31  1   
 31  15  18  1   
 32  15  32  1   
 33  15  33  1   
 34  16  19  1   
 35  17  18  1   
 36  17  34  1   
 37  17  35  1   
 38  18  36  1   
 39  18  37  1   
 40  19  38  1   
 41  19  39  1   
 42  19  40  1   
@<TRIPOS>SUBSTRUCTURE
  1 ****   3 GROUP 4 **** **** 0

# MOE 2024.06 (io_trps.svl 2023.06)
