@<TRIPOS>MOLECULE
NONAME
58 61 1 0 0 
SMALL
USER_CHARGES


@<TRIPOS>ATOM
  1 O       -0.1810     0.7470    -0.3880 O.2   1 <1>  -0.5700 
  2 C        0.8630     1.1500     0.0680 C.2   1 <1>   0.5690 
  3 N        0.9530     2.2440     0.8980 N.am  1 <1>  -0.6600 
  4 C        2.1200     0.3940    -0.3270 C.3   1 <1>  -0.0990 
  5 C       -0.1360     3.2570     1.1630 C.3   1 <1>   0.2200 
  6 C        2.1840     2.5860     1.6800 C.3   1 <1>   0.1400 
  7 C        1.8850    -0.5730    -1.4960 C.3   1 <1>   0.0960 
  8 C        0.2820     4.6910     0.7040 C.3   1 <1>   0.1380 
  9 C       -1.5790     2.9250     0.7560 C.3   1 <1>  -0.1600 
 10 C        2.6440     4.0190     1.3750 C.3   1 <1>  -0.1600 
 11 N        3.1300    -1.2990    -1.8180 N.pl3 1 <1>   0.0480 
 12 C        0.6430     4.8530    -0.8020 C.2   1 <1>  -0.2760 
 13 C       -0.8960     5.6600     0.9970 C.3   1 <1>   0.1200 
 14 C        1.5120     5.0450     1.5770 C.3   1 <1>  -0.1600 
 15 C       -2.5470     4.0100     1.2610 C.3   1 <1>   0.1200 
 16 C        3.4540    -2.6020    -1.6080 C.2   1 <1>   0.0060 
 17 C        4.2230    -0.7640    -2.3930 C.2   1 <1>  -0.3020 
 18 C        0.4760     3.9430    -1.7710 C.2   1 <1>  -0.2880 
 19 C        1.2440     6.2050    -1.2050 C.3   1 <1>  -0.0220 
 20 O       -1.8540     5.0820     1.8370 O.3   1 <1>  -0.5600 
 21 N        4.6490    -2.9060    -2.0010 N.2   1 <1>  -0.5650 
 22 C        2.5200    -3.6280    -0.9860 C.3   1 <1>   0.0200 
 23 C        5.1340    -1.7540    -2.4940 C.2   1 <1>   0.0770 
 24 C        0.8710     4.1470    -3.2280 C.3   1 <1>   0.2580 
 25 C        1.1910     6.4140    -2.7250 C.3   1 <1>   0.1200 
 26 C        2.3980    -3.4470     0.5310 C.3   1 <1>  -0.2400 
 27 O        1.6800     5.2780    -3.3660 O.3   1 <1>  -0.5600 
 28 H        2.8670     1.1080    -0.6210 H     1 <1>   0.0800 
 29 H        2.4690    -0.1560     0.5260 H     1 <1>   0.0800 
 30 H       -0.1990     3.3030     2.2370 H     1 <1>   0.0800 
 31 H        1.9530     2.5070     2.7290 H     1 <1>   0.0800 
 32 H        2.9900     1.9060     1.4810 H     1 <1>   0.0800 
 33 H        1.5690    -0.0270    -2.3670 H     1 <1>   0.0800 
 34 H        1.1150    -1.2790    -1.2440 H     1 <1>   0.0800 
 35 H       -1.8690     1.9800     1.1780 H     1 <1>   0.0800 
 36 H       -1.6780     2.8550    -0.3090 H     1 <1>   0.0800 
 37 H        3.4700     4.2670     2.0180 H     1 <1>   0.0800 
 38 H        3.0020     4.0600     0.3600 H     1 <1>   0.0800 
 39 H       -1.3930     5.9360     0.0830 H     1 <1>   0.0800 
 40 H       -0.5430     6.5580     1.4720 H     1 <1>   0.0800 
 41 H        1.8730     6.0340     1.3630 H     1 <1>   0.0800 
 42 H        1.2210     5.0420     2.6140 H     1 <1>   0.0800 
 43 H       -3.1960     3.6070     2.0180 H     1 <1>   0.0800 
 44 H       -3.1530     4.3890     0.4550 H     1 <1>   0.0800 
 45 H        4.2950     0.2650    -2.6930 H     1 <1>   0.1500 
 46 H        0.0470     2.9740    -1.6260 H     1 <1>   0.1500 
 47 H        2.2720     6.2540    -0.8960 H     1 <1>   0.0800 
 48 H        0.7170     7.0170    -0.7400 H     1 <1>   0.0800 
 49 H        1.5520    -3.5700    -1.4480 H     1 <1>   0.0800 
 50 H        2.9150    -4.6100    -1.1860 H     1 <1>   0.0800 
 51 H        6.1290    -1.6980    -2.9040 H     1 <1>   0.1500 
 52 H       -0.0020     4.2720    -3.8460 H     1 <1>   0.0800 
 53 H        1.4370     3.3050    -3.5840 H     1 <1>   0.0800 
 54 H        1.8040     7.2490    -3.0140 H     1 <1>   0.0800 
 55 H        0.1810     6.5860    -3.0550 H     1 <1>   0.0800 
 56 H        1.9360    -2.5080     0.7680 H     1 <1>   0.0800 
 57 H        3.3760    -3.4780     0.9800 H     1 <1>   0.0800 
 58 H        1.8020    -4.2390     0.9480 H     1 <1>   0.0800 
@<TRIPOS>BOND
  1   1   2  2   
  2   2   3  am  
  3   2   4  1   
  4   3   5  1   
  5   3   6  1   
  6   4   7  1   
  7   4  28  1   
  8   4  29  1   
  9   5   8  1   
 10   5   9  1   
 11   5  30  1   
 12   6  10  1   
 13   6  31  1   
 14   6  32  1   
 15   7  11  1   
 16   7  33  1   
 17   7  34  1   
 18   8  12  1   
 19   8  13  1   
 20   8  14  1   
 21   9  15  1   
 22   9  35  1   
 23   9  36  1   
 24  10  14  1   
 25  10  37  1   
 26  10  38  1   
 27  11  16  1   
 28  11  17  1   
 29  12  18  2   
 30  12  19  1   
 31  13  20  1   
 32  13  39  1   
 33  13  40  1   
 34  14  41  1   
 35  14  42  1   
 36  15  20  1   
 37  15  43  1   
 38  15  44  1   
 39  16  21  2   
 40  16  22  1   
 41  17  23  2   
 42  17  45  1   
 43  18  24  1   
 44  18  46  1   
 45  19  25  1   
 46  19  47  1   
 47  19  48  1   
 48  21  23  1   
 49  22  26  1   
 50  22  49  1   
 51  22  50  1   
 52  23  51  1   
 53  24  27  1   
 54  24  52  1   
 55  24  53  1   
 56  25  27  1   
 57  25  54  1   
 58  25  55  1   
 59  26  56  1   
 60  26  57  1   
 61  26  58  1   
@<TRIPOS>SUBSTRUCTURE
  1 ****   2 GROUP 4 **** **** 0

# MOE 2024.06 (io_trps.svl 2023.06)
