@<TRIPOS>MOLECULE
NONAME
41 43 1 0 0 
SMALL
USER_CHARGES


@<TRIPOS>ATOM
  1 O       -0.4450     0.2400     0.3040 O.2   1 <1>  -0.5700 
  2 C       -1.4980     0.8510     0.3210 C.2   1 <1>   0.7030 
  3 N       -2.6700     0.1380     0.1770 N.am  1 <1>  -0.6600 
  4 C       -1.4760     2.2990     0.4990 C.2   1 <1>   0.2770 
  5 C       -3.9590     0.6600    -0.3590 C.3   1 <1>   0.1400 
  6 C       -2.6870    -1.3550     0.1210 C.3   1 <1>   0.1400 
  7 N       -0.5270     3.1990    -0.0010 N.pl3 1 <1>  -0.7640 
  8 C       -2.3520     3.0580     1.2070 C.2   1 <1>   0.2000 
  9 C       -4.9350    -0.5040    -0.2110 C.3   1 <1>   0.2000 
 10 C       -4.0570    -1.7320    -0.4560 C.3   1 <1>  -0.0800 
 11 C       -0.8560     4.4180     0.4030 C.cat 1 <1>   0.6500 
 12 C        0.6620     2.7940    -0.8050 C.3   1 <1>   0.2740 
 13 N       -1.9610     4.3660     1.1300 N.pl3 1 <1>  -0.7000 
 14 O       -5.3960    -0.5060     1.0980 O.3   1 <1>  -0.6800 
 15 C       -4.6110    -3.0700     0.0700 C.3   1 <1>   0.0210 
 16 C       -3.6300    -4.2000    -0.1790 C.2   1 <1>   0.1080 
 17 N       -3.1230    -4.4500    -1.3460 N.2   1 <1>  -0.7070 
 18 C       -3.1600    -5.0730     0.7960 C.2   1 <1>  -0.1500 
 19 N       -2.3100    -5.5040    -1.1460 N.pl3 1 <1>   0.3000 
 20 C       -2.3130    -5.8980     0.1450 C.2   1 <1>  -0.3320 
 21 C       -1.4950    -7.0560     0.6840 C.3   1 <1>  -0.0600 
 22 H       -4.3180     1.5250     0.1680 H     1 <1>   0.0800 
 23 H       -3.8380     0.8940    -1.4030 H     1 <1>   0.0800 
 24 H       -1.8940    -1.7330    -0.5040 H     1 <1>   0.0800 
 25 H       -2.5650    -1.7500     1.1150 H     1 <1>   0.0800 
 26 H       -3.2160     2.7290     1.7630 H     1 <1>   0.1500 
 27 H       -5.7810    -0.4390    -0.8740 H     1 <1>   0.0800 
 28 H       -3.9310    -1.8310    -1.5210 H     1 <1>   0.0800 
 29 H       -0.3030     5.3210     0.1780 H     1 <1>   0.1500 
 30 H        0.3500     2.2290    -1.6670 H     1 <1>   0.0800 
 31 H        1.3140     2.1770    -0.2090 H     1 <1>   0.0800 
 32 H        1.2110     3.6590    -1.1360 H     1 <1>   0.0800 
 33 H       -2.4290     5.1650     1.5730 H     1 <1>   0.4500 
 34 H       -4.6430    -0.6430     1.7060 H     1 <1>   0.4000 
 35 H       -5.5330    -3.2990    -0.4330 H     1 <1>   0.0800 
 36 H       -4.8140    -3.0130     1.1240 H     1 <1>   0.0800 
 37 H       -3.4300    -5.0710     1.8370 H     1 <1>   0.1500 
 38 H       -1.7700    -5.9310    -1.9080 H     1 <1>   0.2700 
 39 H       -1.6680    -7.1720     1.7400 H     1 <1>   0.0800 
 40 H       -0.4460    -6.8760     0.5280 H     1 <1>   0.0800 
 41 H       -1.7720    -7.9700     0.1900 H     1 <1>   0.0800 
@<TRIPOS>BOND
  1   1   2  2   
  2   2   3  am  
  3   2   4  1   
  4   3   5  1   
  5   3   6  1   
  6   4   7  1   
  7   4   8  2   
  8   5   9  1   
  9   5  22  1   
 10   5  23  1   
 11   6  10  1   
 12   6  24  1   
 13   6  25  1   
 14   7  11  ar  
 15   7  12  1   
 16   8  13  1   
 17   8  26  1   
 18   9  10  1   
 19   9  14  1   
 20   9  27  1   
 21  10  15  1   
 22  10  28  1   
 23  11  13  ar  
 24  11  29  1   
 25  12  30  1   
 26  12  31  1   
 27  12  32  1   
 28  13  33  1   
 29  14  34  1   
 30  15  16  1   
 31  15  35  1   
 32  15  36  1   
 33  16  17  2   
 34  16  18  1   
 35  17  19  1   
 36  18  20  2   
 37  18  37  1   
 38  19  20  1   
 39  19  38  1   
 40  20  21  1   
 41  21  39  1   
 42  21  40  1   
 43  21  41  1   
@<TRIPOS>SUBSTRUCTURE
  1 ****   6 GROUP 4 **** **** 0

# MOE 2024.06 (io_trps.svl 2023.06)
