@<TRIPOS>MOLECULE
NONAME
44 45 1 0 0 
SMALL
USER_CHARGES


@<TRIPOS>ATOM
  1 O       -0.1440     0.3640    -1.6790 O.2   1 <1>  -0.5700 
  2 C        0.8010    -0.2260    -1.2180 C.2   1 <1>   0.5690 
  3 N        1.8430     0.3810    -0.5740 N.am  1 <1>  -0.4940 
  4 C        0.8580    -1.7340    -1.3680 C.3   1 <1>  -0.0990 
  5 C        2.1370     1.7300    -0.2730 C.2   1 <1>  -0.0880 
  6 C        0.6470    -2.4610    -0.0290 C.3   1 <1>  -0.1600 
  7 N        1.2880     2.7820    -0.1140 N.pl3 1 <1>   0.3140 
  8 C        3.3940     2.2060    -0.0450 C.2   1 <1>  -0.0540 
  9 C        0.7060    -3.9830    -0.2070 C.3   1 <1>  -0.1600 
 10 N        1.9590     3.9110     0.2070 N.2   1 <1>  -0.7070 
 11 C       -0.1800     2.8150    -0.1680 C.3   1 <1>   0.0160 
 12 C        4.6350     1.4750    -0.0860 C.ar  1 <1>   0.0540 
 13 C        3.2020     3.5610     0.2390 C.2   1 <1>   0.1080 
 14 C        0.4960    -4.7020     1.1310 C.3   1 <1>  -0.1600 
 15 C        5.0620     0.8660    -1.2620 C.ar  1 <1>  -0.1500 
 16 C        5.4320     1.3470     1.0470 C.ar  1 <1>  -0.1500 
 17 C        4.3030     4.5500     0.5510 C.3   1 <1>  -0.0590 
 18 C        0.5520    -6.2210     0.9540 C.3   1 <1>  -0.2400 
 19 C        6.2440     0.1500    -1.3070 C.ar  1 <1>  -0.1500 
 20 C        6.6160     0.6320     1.0080 C.ar  1 <1>  -0.1500 
 21 C        7.0240     0.0320    -0.1700 C.ar  1 <1>  -0.1500 
 22 H        2.6030    -0.2550    -0.3270 H     1 <1>   0.3700 
 23 H        1.8090    -2.0040    -1.7900 H     1 <1>   0.0800 
 24 H        0.0940    -2.0360    -2.0620 H     1 <1>   0.0800 
 25 H       -0.3130    -2.1830     0.3730 H     1 <1>   0.0800 
 26 H        1.4030    -2.1550     0.6740 H     1 <1>   0.0800 
 27 H        1.6620    -4.2630    -0.6150 H     1 <1>   0.0800 
 28 H       -0.0580    -4.2930    -0.9010 H     1 <1>   0.0800 
 29 H       -0.5740     1.9400     0.3120 H     1 <1>   0.0800 
 30 H       -0.4910     2.8430    -1.1950 H     1 <1>   0.0800 
 31 H       -0.5330     3.6930     0.3390 H     1 <1>   0.0800 
 32 H       -0.4620    -4.4290     1.5420 H     1 <1>   0.0800 
 33 H        1.2570    -4.3990     1.8300 H     1 <1>   0.0800 
 34 H        4.4580     0.9650    -2.1480 H     1 <1>   0.1500 
 35 H        5.1150     1.8100     1.9640 H     1 <1>   0.1500 
 36 H        5.2030     4.2840     0.0290 H     1 <1>   0.0800 
 37 H        4.4910     4.5580     1.6080 H     1 <1>   0.0800 
 38 H        4.0010     5.5340     0.2420 H     1 <1>   0.0800 
 39 H       -0.2160    -6.5500     0.2760 H     1 <1>   0.0800 
 40 H        0.4010    -6.7080     1.9020 H     1 <1>   0.0800 
 41 H        1.5090    -6.5200     0.5650 H     1 <1>   0.0800 
 42 H        6.5610    -0.3120    -2.2260 H     1 <1>   0.1500 
 43 H        7.2210     0.5420     1.8940 H     1 <1>   0.1500 
 44 H        7.9450    -0.5240    -0.2020 H     1 <1>   0.1500 
@<TRIPOS>BOND
  1   1   2  2   
  2   2   3  am  
  3   2   4  1   
  4   3   5  1   
  5   3  22  1   
  6   4   6  1   
  7   4  23  1   
  8   4  24  1   
  9   5   7  1   
 10   5   8  2   
 11   6   9  1   
 12   6  25  1   
 13   6  26  1   
 14   7  10  1   
 15   7  11  1   
 16   8  12  1   
 17   8  13  1   
 18   9  14  1   
 19   9  27  1   
 20   9  28  1   
 21  10  13  2   
 22  11  29  1   
 23  11  30  1   
 24  11  31  1   
 25  12  15  ar  
 26  12  16  ar  
 27  13  17  1   
 28  14  18  1   
 29  14  32  1   
 30  14  33  1   
 31  15  19  ar  
 32  15  34  1   
 33  16  20  ar  
 34  16  35  1   
 35  17  36  1   
 36  17  37  1   
 37  17  38  1   
 38  18  39  1   
 39  18  40  1   
 40  18  41  1   
 41  19  21  ar  
 42  19  42  1   
 43  20  21  ar  
 44  20  43  1   
 45  21  44  1   
@<TRIPOS>SUBSTRUCTURE
  1 ****   3 GROUP 4 **** **** 0

# MOE 2024.06 (io_trps.svl 2023.06)
