@<TRIPOS>MOLECULE
NONAME
51 53 1 0 0 
SMALL
USER_CHARGES


@<TRIPOS>ATOM
  1 O        0.0710     0.1610     1.8060 O.co2 1 <1>  -0.9000 
  2 C        0.8550    -0.0290     0.8700 C.2   1 <1>   0.9060 
  3 O        0.6040    -0.8460    -0.0300 O.co2 1 <1>  -0.9000 
  4 C        2.2110     0.6770     0.8220 C.3   1 <1>  -0.1060 
  5 C        3.2390    -0.4800     0.9800 C.3   1 <1>   0.2000 
  6 C        2.4340     1.6560     2.0060 C.3   1 <1>  -0.1600 
  7 C        2.3170     1.4500    -0.5340 C.3   1 <1>  -0.0160 
  8 O        3.6560    -0.9340    -0.2660 O.3   1 <1>  -0.6800 
  9 C        4.4520    -0.1620     1.8880 C.3   1 <1>   0.1100 
 10 C        3.8610     2.2400     2.0190 C.3   1 <1>   0.1100 
 11 C        1.4660     2.7170    -0.6440 C.ar  1 <1>  -0.1430 
 12 N        4.9350     1.2320     1.8030 N.3   1 <1>  -0.8100 
 13 C        2.0590     3.9710    -0.6430 C.ar  1 <1>  -0.1500 
 14 C        0.0870     2.6270    -0.7590 C.ar  1 <1>  -0.1500 
 15 C        5.7930     1.4180     0.6130 C.3   1 <1>   0.2900 
 16 C        1.2880     5.1160    -0.7490 C.ar  1 <1>  -0.1500 
 17 C       -0.6870     3.7690    -0.8650 C.ar  1 <1>  -0.1500 
 18 C        6.2170     2.8590     0.3770 C.2   1 <1>  -0.0400 
 19 C       -0.0870     5.0160    -0.8610 C.ar  1 <1>  -0.1500 
 20 O        6.9260     3.5100     1.2610 O.3   1 <1>  -0.0190 
 21 C        5.9880     3.6830    -0.6560 C.2   1 <1>  -0.1500 
 22 N        7.1750     4.7300     0.8760 N.2   1 <1>  -0.4100 
 23 C        6.6200     4.8650    -0.2790 C.2   1 <1>   0.1080 
 24 C        6.6220     6.1360    -1.1240 C.3   1 <1>   0.1010 
 25 C        7.9300     6.9230    -0.9760 C.3   1 <1>  -0.2400 
 26 C        5.4240     7.0150    -0.7480 C.3   1 <1>  -0.2400 
 27 H        2.7470    -1.3220     1.4400 H     1 <1>   0.0800 
 28 H        2.2570     1.1420     2.9340 H     1 <1>   0.0800 
 29 H        1.7160     2.4550     1.9700 H     1 <1>   0.0800 
 30 H        3.3350     1.7200    -0.7150 H     1 <1>   0.0800 
 31 H        2.0310     0.8000    -1.3420 H     1 <1>   0.0800 
 32 H        2.8300    -1.1920    -0.7400 H     1 <1>   0.4000 
 33 H        5.2510    -0.8540     1.6860 H     1 <1>   0.0800 
 34 H        4.1450    -0.3290     2.9050 H     1 <1>   0.0800 
 35 H        4.0290     2.7120     2.9720 H     1 <1>   0.0800 
 36 H        3.9150     3.0130     1.2780 H     1 <1>   0.0800 
 37 H        3.1250     4.0620    -0.5550 H     1 <1>   0.1500 
 38 H       -0.3920     1.6600    -0.7590 H     1 <1>   0.1500 
 39 H        6.6800     0.8220     0.7390 H     1 <1>   0.0800 
 40 H        5.2900     1.0550    -0.2630 H     1 <1>   0.0800 
 41 H        1.7580     6.0830    -0.7430 H     1 <1>   0.1500 
 42 H       -1.7550     3.6780    -0.9460 H     1 <1>   0.1500 
 43 H       -0.6900     5.9030    -0.9410 H     1 <1>   0.1500 
 44 H        5.4440     3.5050    -1.5650 H     1 <1>   0.1500 
 45 H        6.5220     5.8480    -2.1560 H     1 <1>   0.0800 
 46 H        8.0550     7.2540     0.0400 H     1 <1>   0.0800 
 47 H        7.9300     7.7810    -1.6240 H     1 <1>   0.0800 
 48 H        8.7650     6.2960    -1.2340 H     1 <1>   0.0800 
 49 H        5.4940     7.3110     0.2850 H     1 <1>   0.0800 
 50 H        4.5080     6.4690    -0.8840 H     1 <1>   0.0800 
 51 H        5.3960     7.8970    -1.3620 H     1 <1>   0.0800 
@<TRIPOS>BOND
  1   1   2  ar  
  2   2   3  ar  
  3   2   4  1   
  4   4   5  1   
  5   4   6  1   
  6   4   7  1   
  7   5   8  1   
  8   5   9  1   
  9   5  27  1   
 10   6  10  1   
 11   6  28  1   
 12   6  29  1   
 13   7  11  1   
 14   7  30  1   
 15   7  31  1   
 16   8  32  1   
 17   9  12  1   
 18   9  33  1   
 19   9  34  1   
 20  10  12  1   
 21  10  35  1   
 22  10  36  1   
 23  11  13  ar  
 24  11  14  ar  
 25  12  15  1   
 26  13  16  ar  
 27  13  37  1   
 28  14  17  ar  
 29  14  38  1   
 30  15  18  1   
 31  15  39  1   
 32  15  40  1   
 33  16  19  ar  
 34  16  41  1   
 35  17  19  ar  
 36  17  42  1   
 37  18  20  1   
 38  18  21  2   
 39  19  43  1   
 40  20  22  1   
 41  21  23  1   
 42  21  44  1   
 43  22  23  2   
 44  23  24  1   
 45  24  25  1   
 46  24  26  1   
 47  24  45  1   
 48  25  46  1   
 49  25  47  1   
 50  25  48  1   
 51  26  49  1   
 52  26  50  1   
 53  26  51  1   
@<TRIPOS>SUBSTRUCTURE
  1 ****  10 GROUP 4 **** **** 0

# MOE 2024.06 (io_trps.svl 2023.06)
