@<TRIPOS>MOLECULE
NONAME
54 57 1 0 0 
SMALL
USER_CHARGES


@<TRIPOS>ATOM
  1 O       -0.0930     0.0250     0.7930 O.2   1 <1>  -0.5700 
  2 C       -1.1110     0.6510     0.6280 C.2   1 <1>   0.5690 
  3 N       -2.2760     0.0490     0.2410 N.am  1 <1>  -0.6600 
  4 C       -1.0390     2.1470     0.8280 C.3   1 <1>  -0.0990 
  5 C       -3.5880     0.7000    -0.0020 C.3   1 <1>   0.1400 
  6 C       -2.3700    -1.4150     0.0130 C.3   1 <1>   0.1400 
  7 C       -0.4600     2.7930    -0.4310 C.3   1 <1>   0.0960 
  8 C       -4.5060    -0.4230    -0.4880 C.3   1 <1>   0.2000 
  9 C       -3.8690    -1.7210     0.0040 C.3   1 <1>  -0.0800 
 10 N       -0.4010     4.2580    -0.2700 N.pl3 1 <1>   0.0480 
 11 O       -5.7840    -0.2910     0.0310 O.3   1 <1>  -0.6800 
 12 C       -4.2520    -2.9340    -0.8600 C.3   1 <1>  -0.0160 
 13 C        0.6040     5.0320     0.2140 C.2   1 <1>   0.0060 
 14 C       -1.3910     5.1230    -0.5570 C.2   1 <1>  -0.3020 
 15 C       -3.5860    -4.2030    -0.3590 C.ar  1 <1>   0.1670 
 16 N        0.3140     6.2920     0.2500 N.2   1 <1>  -0.5650 
 17 C        1.9470     4.4890     0.6780 C.3   1 <1>   0.0200 
 18 C       -0.9380     6.3530    -0.2360 C.2   1 <1>   0.0770 
 19 N       -2.4000    -4.4720    -0.8110 N.ar  1 <1>  -0.6200 
 20 C       -4.2680    -5.0110     0.5650 C.ar  1 <1>  -0.1500 
 21 C        2.9000     4.2790    -0.5040 C.3   1 <1>  -0.2400 
 22 C       -1.7900    -5.5970    -0.3560 C.ar  1 <1>   0.3100 
 23 C       -3.6820    -6.1460     1.0350 C.ar  1 <1>  -0.1500 
 24 C       -2.3960    -6.4710     0.5730 C.ar  1 <1>   0.0000 
 25 C       -0.5030    -5.9080    -0.8240 C.ar  1 <1>  -0.1500 
 26 C       -1.6930    -7.6170     0.9950 C.ar  1 <1>  -0.1500 
 27 C        0.1640    -7.0270    -0.4010 C.ar  1 <1>  -0.1500 
 28 C       -0.4390    -7.8910     0.5190 C.ar  1 <1>  -0.1500 
 29 H       -2.0080     2.5530     1.0490 H     1 <1>   0.0800 
 30 H       -0.3940     2.3440     1.6650 H     1 <1>   0.0800 
 31 H       -3.9530     1.1190     0.9190 H     1 <1>   0.0800 
 32 H       -3.4960     1.4650    -0.7530 H     1 <1>   0.0800 
 33 H       -1.9230    -1.6520    -0.9370 H     1 <1>   0.0800 
 34 H       -1.8590    -1.9630     0.7870 H     1 <1>   0.0800 
 35 H       -1.0750     2.5640    -1.2820 H     1 <1>   0.0800 
 36 H        0.5290     2.4140    -0.6170 H     1 <1>   0.0800 
 37 H       -4.5710    -0.4000    -1.5620 H     1 <1>   0.0800 
 38 H       -4.1600    -1.9030     1.0240 H     1 <1>   0.0800 
 39 H       -5.7710    -0.3830     1.0030 H     1 <1>   0.4000 
 40 H       -3.9570    -2.7660    -1.8810 H     1 <1>   0.0800 
 41 H       -5.3200    -3.0600    -0.8510 H     1 <1>   0.0800 
 42 H       -2.3400     4.8300    -0.9650 H     1 <1>   0.1500 
 43 H        2.3850     5.1980     1.3580 H     1 <1>   0.0800 
 44 H        1.8100     3.5670     1.2130 H     1 <1>   0.0800 
 45 H       -1.4540     7.2940    -0.3290 H     1 <1>   0.1500 
 46 H       -5.2510    -4.7220     0.8920 H     1 <1>   0.1500 
 47 H        3.0470     5.2130    -1.0190 H     1 <1>   0.0800 
 48 H        2.4960     3.5650    -1.1970 H     1 <1>   0.0800 
 49 H        3.8520     3.9240    -0.1520 H     1 <1>   0.0800 
 50 H       -4.1730    -6.7900     1.7430 H     1 <1>   0.1500 
 51 H       -0.0570    -5.2320    -1.5290 H     1 <1>   0.1500 
 52 H       -2.1610    -8.2760     1.7040 H     1 <1>   0.1500 
 53 H        1.1510    -7.2530    -0.7680 H     1 <1>   0.1500 
 54 H        0.0970    -8.7670     0.8430 H     1 <1>   0.1500 
@<TRIPOS>BOND
  1   1   2  2   
  2   2   3  am  
  3   2   4  1   
  4   3   5  1   
  5   3   6  1   
  6   4   7  1   
  7   4  29  1   
  8   4  30  1   
  9   5   8  1   
 10   5  31  1   
 11   5  32  1   
 12   6   9  1   
 13   6  33  1   
 14   6  34  1   
 15   7  10  1   
 16   7  35  1   
 17   7  36  1   
 18   8   9  1   
 19   8  11  1   
 20   8  37  1   
 21   9  12  1   
 22   9  38  1   
 23  10  13  1   
 24  10  14  1   
 25  11  39  1   
 26  12  15  1   
 27  12  40  1   
 28  12  41  1   
 29  13  16  2   
 30  13  17  1   
 31  14  18  2   
 32  14  42  1   
 33  15  19  ar  
 34  15  20  ar  
 35  16  18  1   
 36  17  21  1   
 37  17  43  1   
 38  17  44  1   
 39  18  45  1   
 40  19  22  ar  
 41  20  23  ar  
 42  20  46  1   
 43  21  47  1   
 44  21  48  1   
 45  21  49  1   
 46  22  24  ar  
 47  22  25  ar  
 48  23  24  ar  
 49  23  50  1   
 50  24  26  ar  
 51  25  27  ar  
 52  25  51  1   
 53  26  28  ar  
 54  26  52  1   
 55  27  28  ar  
 56  27  53  1   
 57  28  54  1   
@<TRIPOS>SUBSTRUCTURE
  1 ****   6 GROUP 4 **** **** 0

# MOE 2024.06 (io_trps.svl 2023.06)
