@<TRIPOS>MOLECULE
NONAME
45 47 1 0 0 
SMALL
USER_CHARGES


@<TRIPOS>ATOM
  1 O       -2.1160    -1.2600     1.9750 O.2   1 <1>  -0.5700 
  2 C       -2.4940    -0.2500     1.4190 C.2   1 <1>   0.6900 
  3 N       -3.1130    -0.2760     0.1760 N.am  1 <1>  -0.4690 
  4 N       -2.3210     0.9500     2.0340 N.am  1 <1>  -0.4900 
  5 C       -3.5580     0.9030    -0.4130 C.2   1 <1>  -0.0410 
  6 C       -3.2740    -1.5660    -0.5440 C.3   1 <1>   0.1400 
  7 C       -2.7360     2.1280     1.4940 C.2   1 <1>   0.6160 
  8 C       -3.3780     2.0830     0.2240 C.2   1 <1>  -0.1360 
  9 C       -4.5170    -2.3000    -0.0440 C.3   1 <1>  -0.0990 
 10 O       -2.5450     3.1560     2.1090 O.2   1 <1>  -0.5700 
 11 C       -4.6890    -3.5860    -0.8140 C.2   1 <1>   0.5690 
 12 O       -4.9970    -3.5280    -1.9780 O.2   1 <1>  -0.5700 
 13 N       -4.4930    -4.7670    -0.1820 N.am  1 <1>  -0.7300 
 14 C       -4.5780    -6.0970    -0.8310 C.3   1 <1>   0.2200 
 15 C       -5.8660    -6.8190    -0.4570 C.3   1 <1>  -0.0800 
 16 C       -3.5470    -7.0220    -0.1990 C.3   1 <1>   0.1200 
 17 C       -5.5170    -7.4780     0.8820 C.3   1 <1>   0.1200 
 18 C       -7.1400    -5.9550    -0.4260 C.3   1 <1>  -0.0170 
 19 O       -4.1230    -7.4450     0.9990 O.3   1 <1>  -0.5600 
 20 C       -8.3670    -6.8090    -0.1480 C.ar  1 <1>  -0.1430 
 21 C       -8.9140    -6.9210     1.1140 C.ar  1 <1>  -0.1500 
 22 C       -8.9970    -7.5190    -1.1500 C.ar  1 <1>  -0.1500 
 23 C      -10.0280    -7.7200     1.3090 C.ar  1 <1>   0.1600 
 24 C      -10.1080    -8.2900    -0.8490 C.ar  1 <1>   0.1600 
 25 N      -10.6370    -8.4090     0.3580 N.ar  1 <1>  -0.6200 
 26 H       -1.8650     0.9650     2.9380 H     1 <1>   0.3700 
 27 H       -4.0390     0.8330    -1.3760 H     1 <1>   0.1500 
 28 H       -3.3600    -1.3820    -1.6020 H     1 <1>   0.0800 
 29 H       -2.4000    -2.1770    -0.3850 H     1 <1>   0.0800 
 30 H       -3.7000     3.0220    -0.1820 H     1 <1>   0.1500 
 31 H       -5.3880    -1.6920    -0.2010 H     1 <1>   0.0800 
 32 H       -4.4220    -2.5130     1.0050 H     1 <1>   0.0800 
 33 H       -4.2380    -4.8040     0.8080 H     1 <1>   0.3700 
 34 H       -4.4470    -6.0090    -1.8970 H     1 <1>   0.0800 
 35 H       -6.0160    -7.6090    -1.1720 H     1 <1>   0.0800 
 36 H       -2.6100    -6.5330    -0.0010 H     1 <1>   0.0800 
 37 H       -3.3860    -7.8920    -0.8120 H     1 <1>   0.0800 
 38 H       -5.8480    -8.5020     0.9210 H     1 <1>   0.0800 
 39 H       -5.9250    -6.9320     1.7140 H     1 <1>   0.0800 
 40 H       -7.2570    -5.4590    -1.3750 H     1 <1>   0.0800 
 41 H       -7.0590    -5.1920     0.3280 H     1 <1>   0.0800 
 42 H       -8.4860    -6.3960     1.9480 H     1 <1>   0.1500 
 43 H       -8.6350    -7.4810    -2.1610 H     1 <1>   0.1500 
 44 H      -10.4410    -7.7960     2.3000 H     1 <1>   0.1500 
 45 H      -10.5860    -8.8370    -1.6430 H     1 <1>   0.1500 
@<TRIPOS>BOND
  1   1   2  2   
  2   2   3  am  
  3   2   4  am  
  4   3   5  1   
  5   3   6  1   
  6   4   7  am  
  7   4  26  1   
  8   5   8  2   
  9   5  27  1   
 10   6   9  1   
 11   6  28  1   
 12   6  29  1   
 13   7   8  1   
 14   7  10  2   
 15   8  30  1   
 16   9  11  1   
 17   9  31  1   
 18   9  32  1   
 19  11  12  2   
 20  11  13  am  
 21  13  14  1   
 22  13  33  1   
 23  14  15  1   
 24  14  16  1   
 25  14  34  1   
 26  15  17  1   
 27  15  18  1   
 28  15  35  1   
 29  16  19  1   
 30  16  36  1   
 31  16  37  1   
 32  17  19  1   
 33  17  38  1   
 34  17  39  1   
 35  18  20  1   
 36  18  40  1   
 37  18  41  1   
 38  20  21  ar  
 39  20  22  ar  
 40  21  23  ar  
 41  21  42  1   
 42  22  24  ar  
 43  22  43  1   
 44  23  25  ar  
 45  23  44  1   
 46  24  25  ar  
 47  24  45  1   
@<TRIPOS>SUBSTRUCTURE
  1 ****  11 GROUP 4 **** **** 0

# MOE 2024.06 (io_trps.svl 2023.06)
