@<TRIPOS>MOLECULE
NONAME
53 56 1 0 0 
SMALL
USER_CHARGES


@<TRIPOS>ATOM
  1 S        1.3250     3.6190     1.6500 S.3   1 <1>  -0.0800 
  2 C        3.0190     3.1090     1.6660 C.2   1 <1>  -0.0450 
  3 C        1.1910     3.4860     3.3890 C.2   1 <1>  -0.1100 
  4 C        3.7520     2.9990     0.4300 C.2   1 <1>   0.7150 
  5 C        3.3820     2.8630     2.9510 C.2   1 <1>  -0.1500 
  6 C        2.3580     3.0770     3.9200 C.2   1 <1>  -0.1500 
  7 O        4.8130     2.4000     0.3890 O.2   1 <1>  -0.5700 
  8 N        3.3490     3.5990    -0.7420 N.am  1 <1>  -0.6600 
  9 C        3.5050     2.8960    -2.0570 C.3   1 <1>   0.1400 
 10 C        3.1850     5.0740    -0.8200 C.3   1 <1>   0.1400 
 11 C        4.9710     2.8310    -2.5460 C.3   1 <1>   0.3430 
 12 C        4.5490     5.7640    -0.9720 C.3   1 <1>  -0.1600 
 13 N        5.8310     3.8520    -1.8770 N.4   1 <1>  -0.9590 
 14 C        5.4120     5.2580    -2.1320 C.3   1 <1>   0.3430 
 15 C        7.2870     3.6270    -2.0780 C.3   1 <1>   0.5230 
 16 C        8.0610     4.2390    -0.9240 C.2   1 <1>  -0.0400 
 17 O        7.9710     5.5360    -0.7060 O.3   1 <1>  -0.2800 
 18 C        8.8840     3.6680    -0.0180 C.2   1 <1>  -0.1500 
 19 C        8.7400     5.8360     0.3260 C.2   1 <1>  -0.0400 
 20 C        9.3310     4.7150     0.7980 C.2   1 <1>  -0.1500 
 21 C        8.8240     7.2920     0.7800 C.3   1 <1>   0.3800 
 22 O        9.1920     8.0810    -0.3160 O.3   1 <1>  -0.5600 
 23 C        9.8410     7.5030     1.9140 C.3   1 <1>  -0.1600 
 24 C        9.1910     9.4570    -0.0850 C.3   1 <1>   0.1200 
 25 C        9.9750     8.9890     2.2700 C.3   1 <1>  -0.1600 
 26 C       10.2250     9.7990     0.9940 C.3   1 <1>  -0.1600 
 27 H        0.2440     3.7270     3.8380 H     1 <1>   0.1500 
 28 H        4.3590     2.5250     3.2500 H     1 <1>   0.1500 
 29 H        2.5400     2.9140     4.9680 H     1 <1>   0.1500 
 30 H        2.9040     3.3900    -2.8000 H     1 <1>   0.0800 
 31 H        3.1270     1.8910    -1.9660 H     1 <1>   0.0800 
 32 H        2.7080     5.4390     0.0740 H     1 <1>   0.0800 
 33 H        2.5450     5.3230    -1.6500 H     1 <1>   0.0800 
 34 H        5.0040     2.9450    -3.6160 H     1 <1>   0.0800 
 35 H        5.3490     1.8490    -2.3080 H     1 <1>   0.0800 
 36 H        5.1030     5.6830    -0.0530 H     1 <1>   0.0800 
 37 H        4.3700     6.8130    -1.1270 H     1 <1>   0.0800 
 38 H        5.6770     3.6790    -0.8640 H     1 <1>   0.4500 
 39 H        6.2820     5.8910    -2.2110 H     1 <1>   0.0800 
 40 H        4.8680     5.3260    -3.0600 H     1 <1>   0.0800 
 41 H        7.6110     4.0660    -3.0070 H     1 <1>   0.0800 
 42 H        7.4950     2.5700    -2.1050 H     1 <1>   0.0800 
 43 H        9.1740     2.6380     0.0940 H     1 <1>   0.1500 
 44 H       10.0120     4.6060     1.6230 H     1 <1>   0.1500 
 45 H        7.8460     7.6100     1.0990 H     1 <1>   0.0800 
 46 H       10.7950     7.1220     1.5960 H     1 <1>   0.0800 
 47 H        9.5330     6.9500     2.7820 H     1 <1>   0.0800 
 48 H        8.2010     9.7560     0.2140 H     1 <1>   0.0800 
 49 H        9.4400     9.9450    -1.0120 H     1 <1>   0.0800 
 50 H       10.7850     9.1330     2.9650 H     1 <1>   0.0800 
 51 H        9.0670     9.3300     2.7380 H     1 <1>   0.0800 
 52 H       10.1830    10.8510     1.2130 H     1 <1>   0.0800 
 53 H       11.2070     9.5830     0.6090 H     1 <1>   0.0800 
@<TRIPOS>BOND
  1   1   2  1   
  2   1   3  1   
  3   2   4  1   
  4   2   5  2   
  5   3   6  2   
  6   3  27  1   
  7   4   7  2   
  8   4   8  am  
  9   5   6  1   
 10   5  28  1   
 11   6  29  1   
 12   8   9  1   
 13   8  10  1   
 14   9  11  1   
 15   9  30  1   
 16   9  31  1   
 17  10  12  1   
 18  10  32  1   
 19  10  33  1   
 20  11  13  1   
 21  11  34  1   
 22  11  35  1   
 23  12  14  1   
 24  12  36  1   
 25  12  37  1   
 26  13  14  1   
 27  13  15  1   
 28  13  38  1   
 29  14  39  1   
 30  14  40  1   
 31  15  16  1   
 32  15  41  1   
 33  15  42  1   
 34  16  17  1   
 35  16  18  2   
 36  17  19  1   
 37  18  20  1   
 38  18  43  1   
 39  19  20  2   
 40  19  21  1   
 41  20  44  1   
 42  21  22  1   
 43  21  23  1   
 44  21  45  1   
 45  22  24  1   
 46  23  25  1   
 47  23  46  1   
 48  23  47  1   
 49  24  26  1   
 50  24  48  1   
 51  24  49  1   
 52  25  26  1   
 53  25  50  1   
 54  25  51  1   
 55  26  52  1   
 56  26  53  1   
@<TRIPOS>SUBSTRUCTURE
  1 ****  12 GROUP 4 **** **** 0

# MOE 2024.06 (io_trps.svl 2023.06)
