@<TRIPOS>MOLECULE
NONAME
37 38 1 0 0 
SMALL
USER_CHARGES


@<TRIPOS>ATOM
  1 O        0.6360    -0.5480     1.6060 O.2   1 <1>  -0.5700 
  2 C        1.2900    -0.7780     0.6090 C.2   1 <1>   0.7150 
  3 N        1.9440     0.2220    -0.0540 N.am  1 <1>  -0.4930 
  4 C        1.3790    -2.1210     0.1050 C.2   1 <1>  -0.2370 
  5 C        2.1080     1.5880     0.2860 C.2   1 <1>   0.0630 
  6 N        2.4990    -2.6550    -0.4710 N.pl3 1 <1>   0.0330 
  7 C        0.4230    -3.1030     0.1170 C.2   1 <1>  -0.1500 
  8 C        1.1720     2.5160     0.7550 C.2   1 <1>   0.1080 
  9 C        3.2600     2.2860     0.1780 C.2   1 <1>  -0.3320 
 10 C        2.2330    -3.9340    -0.8210 C.2   1 <1>  -0.3020 
 11 C        0.9500    -4.2550    -0.4750 C.2   1 <1>   0.0190 
 12 N        1.6930     3.6900     0.9270 N.2   1 <1>  -0.7070 
 13 C       -0.2930     2.2620     1.0340 C.3   1 <1>  -0.0590 
 14 N        2.9820     3.5540     0.5770 N.pl3 1 <1>   0.3140 
 15 C        4.6360     1.8200    -0.2780 C.3   1 <1>  -0.0600 
 16 C        0.2550    -5.4990    -0.6550 C.1   1 <1>   0.5380 
 17 C        3.9090     4.7030     0.6530 C.3   1 <1>   0.0960 
 18 N       -0.2970    -6.4860    -0.8040 N.1   1 <1>  -0.5570 
 19 C        3.9640     5.4550    -0.6850 C.3   1 <1>  -0.1600 
 20 C        4.9350     6.6400    -0.6210 C.3   1 <1>  -0.2400 
 21 H        2.3460    -0.0300    -0.9490 H     1 <1>   0.3700 
 22 H        3.4050    -2.1810    -0.5780 H     1 <1>   0.2700 
 23 H       -0.5740    -3.0140     0.5170 H     1 <1>   0.1500 
 24 H        2.9610    -4.5710    -1.2950 H     1 <1>   0.1500 
 25 H       -0.6820     1.5290     0.3530 H     1 <1>   0.0800 
 26 H       -0.8490     3.1740     0.9200 H     1 <1>   0.0800 
 27 H       -0.4080     1.9070     2.0410 H     1 <1>   0.0800 
 28 H        4.6210     0.7740    -0.5240 H     1 <1>   0.0800 
 29 H        5.3540     1.9690     0.5080 H     1 <1>   0.0800 
 30 H        4.9470     2.3720    -1.1460 H     1 <1>   0.0800 
 31 H        4.8830     4.3450     0.9270 H     1 <1>   0.0800 
 32 H        3.5580     5.3610     1.4270 H     1 <1>   0.0800 
 33 H        2.9780     5.8170    -0.9230 H     1 <1>   0.0800 
 34 H        4.2760     4.7840    -1.4660 H     1 <1>   0.0800 
 35 H        4.6270     7.3370     0.1390 H     1 <1>   0.0800 
 36 H        4.9500     7.1530    -1.5660 H     1 <1>   0.0800 
 37 H        5.9320     6.3030    -0.4000 H     1 <1>   0.0800 
@<TRIPOS>BOND
  1   1   2  2   
  2   2   3  am  
  3   2   4  1   
  4   3   5  1   
  5   3  21  1   
  6   4   6  1   
  7   4   7  2   
  8   5   8  1   
  9   5   9  2   
 10   6  10  1   
 11   6  22  1   
 12   7  11  1   
 13   7  23  1   
 14   8  12  2   
 15   8  13  1   
 16   9  14  1   
 17   9  15  1   
 18  10  11  2   
 19  10  24  1   
 20  11  16  1   
 21  12  14  1   
 22  13  25  1   
 23  13  26  1   
 24  13  27  1   
 25  14  17  1   
 26  15  28  1   
 27  15  29  1   
 28  15  30  1   
 29  16  18  3   
 30  17  19  1   
 31  17  31  1   
 32  17  32  1   
 33  19  20  1   
 34  19  33  1   
 35  19  34  1   
 36  20  35  1   
 37  20  36  1   
 38  20  37  1   
@<TRIPOS>SUBSTRUCTURE
  1 ****   3 GROUP 4 **** **** 0

# MOE 2024.06 (io_trps.svl 2023.06)
