@<TRIPOS>MOLECULE
NONAME
49 51 1 0 0 
SMALL
USER_CHARGES


@<TRIPOS>ATOM
  1 O       -0.5120     0.0950     0.7370 O.2   1 <1>  -0.5700 
  2 C       -1.5170     0.7770     0.7900 C.2   1 <1>   0.5440 
  3 N       -2.7430     0.1540     0.8700 N.am  1 <1>  -0.6600 
  4 C       -1.4120     2.2110     0.7570 C.ar  1 <1>   0.0860 
  5 C       -2.8750    -1.3290     1.0420 C.3   1 <1>   0.1400 
  6 C       -4.0340     0.7960     0.4700 C.3   1 <1>   0.1400 
  7 C       -0.8390     2.9280    -0.2860 C.ar  1 <1>   0.1660 
  8 C       -1.9120     2.9740     1.7970 C.ar  1 <1>   0.1600 
  9 C       -3.5580    -1.9650    -0.1810 C.3   1 <1>   0.3440 
 10 C       -4.6530     0.0560    -0.7390 C.3   1 <1>   0.2000 
 11 N       -0.8000     4.2390    -0.2970 N.ar  1 <1>  -0.6200 
 12 C       -0.2280     2.2280    -1.4880 C.3   1 <1>  -0.0970 
 13 N       -1.8890     4.2840     1.8110 N.ar  1 <1>  -0.6200 
 14 O       -4.7720    -1.3110    -0.4520 O.3   1 <1>  -0.5600 
 15 C       -3.8190    -3.4480     0.0650 C.ar  1 <1>  -0.1440 
 16 C       -6.0440     0.5810    -1.1600 C.3   1 <1>  -0.0800 
 17 C       -1.3340     4.8440     0.7500 C.ar  1 <1>   0.7200 
 18 C       -2.8600    -4.3820    -0.3040 C.ar  1 <1>  -0.1500 
 19 C       -4.9910    -3.8880     0.6650 C.ar  1 <1>  -0.1500 
 20 C       -5.9870     2.0410    -1.6380 C.3   1 <1>  -0.2400 
 21 C       -7.1160     0.4390    -0.0650 C.3   1 <1>  -0.2400 
 22 N       -1.2990     6.1720     0.7400 N.pl3 1 <1>  -0.9000 
 23 C       -3.0690    -5.7310    -0.0760 C.ar  1 <1>  -0.1500 
 24 C       -5.2020    -5.2370     0.8930 C.ar  1 <1>  -0.1500 
 25 C       -4.2400    -6.1600     0.5230 C.ar  1 <1>  -0.1500 
 26 H       -1.9120    -1.7870     1.1860 H     1 <1>   0.0800 
 27 H       -3.4650    -1.5340     1.9180 H     1 <1>   0.0800 
 28 H       -4.7130     0.7600     1.3020 H     1 <1>   0.0800 
 29 H       -3.8820     1.8260     0.2080 H     1 <1>   0.0800 
 30 H       -2.3500     2.4700     2.6430 H     1 <1>   0.1500 
 31 H       -2.9240    -1.8560    -1.0440 H     1 <1>   0.0800 
 32 H       -3.9890     0.1520    -1.5810 H     1 <1>   0.0800 
 33 H       -0.8500     1.4150    -1.8140 H     1 <1>   0.0800 
 34 H        0.7410     1.8430    -1.2240 H     1 <1>   0.0800 
 35 H       -0.1120     2.9170    -2.3060 H     1 <1>   0.0800 
 36 H       -6.3540    -0.0160    -2.0010 H     1 <1>   0.0800 
 37 H       -1.9440    -4.0640    -0.7700 H     1 <1>   0.1500 
 38 H       -5.7470    -3.1780     0.9540 H     1 <1>   0.1500 
 39 H       -5.7550     2.7100    -0.8280 H     1 <1>   0.0800 
 40 H       -6.9380     2.3300    -2.0480 H     1 <1>   0.0800 
 41 H       -5.2430     2.1560    -2.4070 H     1 <1>   0.0800 
 42 H       -6.9030     1.0700     0.7780 H     1 <1>   0.0800 
 43 H       -7.1720    -0.5820     0.2720 H     1 <1>   0.0800 
 44 H       -8.0800     0.7120    -0.4560 H     1 <1>   0.0800 
 45 H       -0.7020     6.6290     0.0560 H     1 <1>   0.4000 
 46 H       -1.5020     6.6640     1.6050 H     1 <1>   0.4000 
 47 H       -2.3200    -6.4480    -0.3660 H     1 <1>   0.1500 
 48 H       -6.1140    -5.5670     1.3570 H     1 <1>   0.1500 
 49 H       -4.4030    -7.2090     0.7000 H     1 <1>   0.1500 
@<TRIPOS>BOND
  1   1   2  2   
  2   2   3  am  
  3   2   4  1   
  4   3   5  1   
  5   3   6  1   
  6   4   7  ar  
  7   4   8  ar  
  8   5   9  1   
  9   5  26  1   
 10   5  27  1   
 11   6  10  1   
 12   6  28  1   
 13   6  29  1   
 14   7  11  ar  
 15   7  12  1   
 16   8  13  ar  
 17   8  30  1   
 18   9  14  1   
 19   9  15  1   
 20   9  31  1   
 21  10  14  1   
 22  10  16  1   
 23  10  32  1   
 24  11  17  ar  
 25  12  33  1   
 26  12  34  1   
 27  12  35  1   
 28  13  17  ar  
 29  15  18  ar  
 30  15  19  ar  
 31  16  20  1   
 32  16  21  1   
 33  16  36  1   
 34  17  22  1   
 35  18  23  ar  
 36  18  37  1   
 37  19  24  ar  
 38  19  38  1   
 39  20  39  1   
 40  20  40  1   
 41  20  41  1   
 42  21  42  1   
 43  21  43  1   
 44  21  44  1   
 45  22  45  1   
 46  22  46  1   
 47  23  25  ar  
 48  23  47  1   
 49  24  25  ar  
 50  24  48  1   
 51  25  49  1   
@<TRIPOS>SUBSTRUCTURE
  1 ****   3 GROUP 4 **** **** 0

# MOE 2024.06 (io_trps.svl 2023.06)
