@<TRIPOS>MOLECULE
NONAME
25 26 1 0 0 
SMALL
USER_CHARGES


@<TRIPOS>ATOM
  1 O        0.0530     0.3560     0.1610 O.2   1 <1>  -0.5700 
  2 C        0.1020     1.5650     0.0120 C.2   1 <1>   0.6340 
  3 O       -1.0580     2.2270    -0.1150 O.3   1 <1>  -0.4300 
  4 C        1.3560     2.3150    -0.0320 C.ar  1 <1>   0.3960 
  5 C       -2.3090     1.5700    -0.0810 C.3   1 <1>   0.0400 
  6 N        1.3430     3.6530    -0.1970 N.ar  1 <1>  -0.6200 
  7 C        2.5670     1.6230     0.0980 C.ar  1 <1>  -0.1500 
  8 C        2.5100     4.2700    -0.2270 C.ar  1 <1>   0.1600 
  9 C        3.7810     2.2730     0.0650 C.ar  1 <1>  -0.1430 
 10 C        3.7430     3.6470    -0.0990 C.ar  1 <1>   0.0830 
 11 C        5.1000     1.5310     0.1980 C.3   1 <1>  -0.0160 
 12 O        4.8720     4.3910    -0.1490 O.3   1 <1>  -0.3630 
 13 C        6.2420     2.4030    -0.3320 C.3   1 <1>  -0.1600 
 14 C        6.1160     3.8260     0.2220 C.3   1 <1>   0.1200 
 15 H       -3.0820     2.3070    -0.2030 H     1 <1>   0.0800 
 16 H       -2.4160     1.0730     0.8670 H     1 <1>   0.0800 
 17 H       -2.3480     0.8550    -0.8840 H     1 <1>   0.0800 
 18 H        2.5420     0.5550     0.2250 H     1 <1>   0.1500 
 19 H        2.5030     5.3380    -0.3600 H     1 <1>   0.1500 
 20 H        5.0650     0.6050    -0.3480 H     1 <1>   0.0800 
 21 H        5.2670     1.3070     1.2370 H     1 <1>   0.0800 
 22 H        6.2060     2.4430    -1.4070 H     1 <1>   0.0800 
 23 H        7.1880     1.9800    -0.0440 H     1 <1>   0.0800 
 24 H        6.1680     3.8240     1.2970 H     1 <1>   0.0800 
 25 H        6.8920     4.4610    -0.1680 H     1 <1>   0.0800 
@<TRIPOS>BOND
  1   1   2  2   
  2   2   3  1   
  3   2   4  1   
  4   3   5  1   
  5   4   6  ar  
  6   4   7  ar  
  7   5  15  1   
  8   5  16  1   
  9   5  17  1   
 10   6   8  ar  
 11   7   9  ar  
 12   7  18  1   
 13   8  10  ar  
 14   8  19  1   
 15   9  10  ar  
 16   9  11  1   
 17  10  12  1   
 18  11  13  1   
 19  11  20  1   
 20  11  21  1   
 21  12  14  1   
 22  13  14  1   
 23  13  22  1   
 24  13  23  1   
 25  14  24  1   
 26  14  25  1   
@<TRIPOS>SUBSTRUCTURE
  1 ****   7 GROUP 4 **** **** 0

# MOE 2024.06 (io_trps.svl 2023.06)
