@<TRIPOS>MOLECULE
NONAME
46 48 1 0 0 
SMALL
USER_CHARGES


@<TRIPOS>ATOM
  1 CL      -0.0410    -1.2740     0.2770 Cl    1 <1>  -0.1770 
  2 C       -1.7100    -1.7450     0.4780 C.ar  1 <1>   0.1770 
  3 C       -2.1880    -2.9090    -0.1070 C.ar  1 <1>  -0.1440 
  4 C       -2.5350    -0.9330     1.2330 C.ar  1 <1>  -0.1500 
  5 C       -3.5210    -3.2420     0.0770 C.ar  1 <1>  -0.1500 
  6 C       -1.2780    -3.8080    -0.9300 C.3   1 <1>  -0.0960 
  7 C       -3.8620    -1.2820     1.4050 C.ar  1 <1>  -0.1500 
  8 C       -4.3850    -2.4390     0.8230 C.ar  1 <1>   0.0860 
  9 C       -5.7780    -2.8070     0.9910 C.2   1 <1>   0.5440 
 10 O       -6.0440    -3.9090     1.4340 O.2   1 <1>  -0.5700 
 11 N       -6.8040    -1.9490     0.6500 N.am  1 <1>  -0.6600 
 12 C       -8.2260    -2.2330     1.0220 C.3   1 <1>   0.1400 
 13 C       -6.6450    -0.7670    -0.2410 C.3   1 <1>   0.1400 
 14 C       -9.0990    -2.4650    -0.2370 C.3   1 <1>   0.0000 
 15 C       -7.4800    -0.9590    -1.5120 C.3   1 <1>  -0.1600 
 16 C      -10.5700    -2.7120     0.1400 C.3   1 <1>   0.2000 
 17 C       -8.9540    -1.2590    -1.1910 C.3   1 <1>  -0.1600 
 18 C       -8.7260    -3.7960    -0.9130 C.3   1 <1>  -0.1600 
 19 O      -10.9870    -1.8640     1.1690 O.3   1 <1>  -0.5600 
 20 C      -10.6500    -4.1840     0.5570 C.3   1 <1>  -0.1600 
 21 C       -9.4580    -4.8800    -0.1150 C.3   1 <1>  -0.1600 
 22 C      -12.3640    -1.8110     1.3650 C.3   1 <1>   0.0400 
 23 H       -2.1370    -0.0400     1.6810 H     1 <1>   0.1500 
 24 H       -3.9210    -4.1430    -0.3570 H     1 <1>   0.1500 
 25 H       -1.8110    -4.6650    -1.3000 H     1 <1>   0.0800 
 26 H       -0.4580    -4.1530    -0.3250 H     1 <1>   0.0800 
 27 H       -0.8830    -3.2630    -1.7690 H     1 <1>   0.0800 
 28 H       -4.5110    -0.6600     1.9970 H     1 <1>   0.1500 
 29 H       -8.2830    -3.0860     1.6760 H     1 <1>   0.0800 
 30 H       -8.6040    -1.3880     1.5710 H     1 <1>   0.0800 
 31 H       -6.9780     0.1110     0.2850 H     1 <1>   0.0800 
 32 H       -5.6150    -0.6260    -0.5160 H     1 <1>   0.0800 
 33 H       -7.4180    -0.0680    -2.1110 H     1 <1>   0.0800 
 34 H       -7.0580    -1.7650    -2.0860 H     1 <1>   0.0800 
 35 H      -11.1880    -2.5430    -0.7270 H     1 <1>   0.0800 
 36 H       -9.4930    -1.4400    -2.1050 H     1 <1>   0.0800 
 37 H       -9.3900    -0.3950    -0.7210 H     1 <1>   0.0800 
 38 H       -9.0920    -3.8040    -1.9250 H     1 <1>   0.0800 
 39 H       -7.6650    -3.9720    -0.9320 H     1 <1>   0.0800 
 40 H      -10.5580    -4.2730     1.6260 H     1 <1>   0.0800 
 41 H      -11.5790    -4.6180     0.2350 H     1 <1>   0.0800 
 42 H       -8.7990    -5.2760     0.6400 H     1 <1>   0.0800 
 43 H       -9.7740    -5.6850    -0.7560 H     1 <1>   0.0800 
 44 H      -12.5610    -1.1150     2.1610 H     1 <1>   0.0800 
 45 H      -12.7260    -2.7860     1.6420 H     1 <1>   0.0800 
 46 H      -12.8400    -1.4710     0.4620 H     1 <1>   0.0800 
@<TRIPOS>BOND
  1   1   2  1   
  2   2   3  ar  
  3   2   4  ar  
  4   3   5  ar  
  5   3   6  1   
  6   4   7  ar  
  7   4  23  1   
  8   5   8  ar  
  9   5  24  1   
 10   6  25  1   
 11   6  26  1   
 12   6  27  1   
 13   7   8  ar  
 14   7  28  1   
 15   8   9  1   
 16   9  10  2   
 17   9  11  am  
 18  11  12  1   
 19  11  13  1   
 20  12  14  1   
 21  12  29  1   
 22  12  30  1   
 23  13  15  1   
 24  13  31  1   
 25  13  32  1   
 26  14  16  1   
 27  14  17  1   
 28  14  18  1   
 29  15  17  1   
 30  15  33  1   
 31  15  34  1   
 32  16  19  1   
 33  16  20  1   
 34  16  35  1   
 35  17  36  1   
 36  17  37  1   
 37  18  21  1   
 38  18  38  1   
 39  18  39  1   
 40  19  22  1   
 41  20  21  1   
 42  20  40  1   
 43  20  41  1   
 44  21  42  1   
 45  21  43  1   
 46  22  44  1   
 47  22  45  1   
 48  22  46  1   
@<TRIPOS>SUBSTRUCTURE
  1 ****  11 GROUP 4 **** **** 0

# MOE 2024.06 (io_trps.svl 2023.06)
