@<TRIPOS>MOLECULE
NONAME
41 42 1 0 0 
SMALL
USER_CHARGES


@<TRIPOS>ATOM
  1 S        0.4740     0.0620     0.7370 S.o2  1 <1>   1.3330 
  2 O        0.3180     1.0430     1.7870 O.2   1 <1>  -0.6500 
  3 O        0.6920    -1.3250     1.0830 O.2   1 <1>  -0.6500 
  4 N       -0.8930     0.1330    -0.2680 N.am  1 <1>  -0.8490 
  5 C        1.7970     0.6070    -0.3400 C.3   1 <1>  -0.0550 
  6 C       -2.1230     0.3980     0.4830 C.3   1 <1>   0.1160 
  7 C       -1.0650    -1.0560    -1.1090 C.3   1 <1>   0.1160 
  8 C        3.1520     0.7330     0.3770 C.3   1 <1>  -0.0800 
  9 C        4.2570     1.2110    -0.5590 C.3   1 <1>   0.2200 
 10 C        3.7040    -0.5760     0.9340 C.3   1 <1>   0.1200 
 11 N        4.5790     2.6240    -0.2640 N.am  1 <1>  -0.7300 
 12 C        5.4320     0.2790    -0.2580 C.3   1 <1>   0.1200 
 13 O        5.0850    -0.4250     0.8910 O.3   1 <1>  -0.5600 
 14 C        4.0130     3.6980    -0.8880 C.2   1 <1>   0.5440 
 15 O        3.2360     3.4650    -1.7950 O.2   1 <1>  -0.5700 
 16 C        4.3060     5.0730    -0.5090 C.ar  1 <1>   0.0860 
 17 C        4.9880     5.4470     0.6590 C.ar  1 <1>   0.1900 
 18 C        3.8950     6.1280    -1.3390 C.ar  1 <1>  -0.1500 
 19 F        5.4030     4.5380     1.4990 F     1 <1>  -0.1900 
 20 C        5.2600     6.7580     1.0010 C.ar  1 <1>  -0.1500 
 21 C        4.1500     7.4520    -1.0260 C.ar  1 <1>  -0.1500 
 22 C        4.8310     7.7450     0.1410 C.ar  1 <1>   0.1900 
 23 F        5.0730     8.9900     0.4370 F     1 <1>  -0.1900 
 24 H        1.8910    -0.0750    -1.1620 H     1 <1>   0.0800 
 25 H        1.5380     1.5680    -0.7420 H     1 <1>   0.0800 
 26 H       -2.9650     0.4530    -0.1860 H     1 <1>   0.0800 
 27 H       -2.0440     1.3400     0.9990 H     1 <1>   0.0800 
 28 H       -2.2940    -0.3810     1.2080 H     1 <1>   0.0800 
 29 H       -1.8900    -0.9140    -1.7860 H     1 <1>   0.0800 
 30 H       -1.2560    -1.9250    -0.5000 H     1 <1>   0.0800 
 31 H       -0.1760    -1.2320    -1.6900 H     1 <1>   0.0800 
 32 H        3.0470     1.4160     1.2040 H     1 <1>   0.0800 
 33 H        3.9820     1.1070    -1.5960 H     1 <1>   0.0800 
 34 H        3.4420    -1.4190     0.3160 H     1 <1>   0.0800 
 35 H        3.3980    -0.7570     1.9510 H     1 <1>   0.0800 
 36 H        5.1220     2.7750     0.5920 H     1 <1>   0.3700 
 37 H        6.3520     0.8080    -0.0840 H     1 <1>   0.0800 
 38 H        5.5610    -0.4350    -1.0520 H     1 <1>   0.0800 
 39 H        3.3630     5.9010    -2.2490 H     1 <1>   0.1500 
 40 H        5.7870     7.0040     1.9050 H     1 <1>   0.1500 
 41 H        3.8280     8.2490    -1.6730 H     1 <1>   0.1500 
@<TRIPOS>BOND
  1   1   2  2   
  2   1   3  2   
  3   1   4  am  
  4   1   5  1   
  5   4   6  1   
  6   4   7  1   
  7   5   8  1   
  8   5  24  1   
  9   5  25  1   
 10   6  26  1   
 11   6  27  1   
 12   6  28  1   
 13   7  29  1   
 14   7  30  1   
 15   7  31  1   
 16   8   9  1   
 17   8  10  1   
 18   8  32  1   
 19   9  11  1   
 20   9  12  1   
 21   9  33  1   
 22  10  13  1   
 23  10  34  1   
 24  10  35  1   
 25  11  14  am  
 26  11  36  1   
 27  12  13  1   
 28  12  37  1   
 29  12  38  1   
 30  14  15  2   
 31  14  16  1   
 32  16  17  ar  
 33  16  18  ar  
 34  17  19  1   
 35  17  20  ar  
 36  18  21  ar  
 37  18  39  1   
 38  20  22  ar  
 39  20  40  1   
 40  21  22  ar  
 41  21  41  1   
 42  22  23  1   
@<TRIPOS>SUBSTRUCTURE
  1 ****  11 GROUP 4 **** **** 0

# MOE 2024.06 (io_trps.svl 2023.06)
