@<TRIPOS>MOLECULE
NONAME
44 47 1 0 0 
SMALL
USER_CHARGES


@<TRIPOS>ATOM
  1 O       -0.4910     0.2960     0.1070 O.2   1 <1>  -0.5700 
  2 C       -1.5250     0.8990     0.3290 C.2   1 <1>   0.5440 
  3 N       -2.5990     0.2250     0.8490 N.am  1 <1>  -0.6600 
  4 C       -1.5980     2.3200     0.0520 C.ar  1 <1>   0.0860 
  5 C       -3.8850     0.8440     1.2820 C.3   1 <1>   0.2350 
  6 C       -2.8250    -1.2330     0.6370 C.3   1 <1>   0.2350 
  7 C       -2.5060     2.8300    -0.8750 C.ar  1 <1>  -0.1500 
  8 C       -0.7710     3.2290     0.7090 C.ar  1 <1>  -0.1500 
  9 C       -4.9630    -0.0330     0.6800 C.3   1 <1>  -0.2420 
 10 C       -4.3110    -1.3490     0.3250 C.3   1 <1>  -0.2420 
 11 C       -2.6160     4.1870    -1.1060 C.ar  1 <1>  -0.1500 
 12 C       -0.8760     4.5890     0.4810 C.ar  1 <1>  -0.1500 
 13 C       -6.3240     0.3770     1.2470 C.2   1 <1>   0.9470 
 14 C       -4.9180    -0.4960    -0.7570 C.3   1 <1>  -0.2000 
 15 C       -4.8000    -2.7870     0.5140 C.2   1 <1>   0.9470 
 16 C       -1.8140     5.0900    -0.4160 C.ar  1 <1>  -0.0230 
 17 O       -7.2080     0.7750     0.4760 O.co2 1 <1>  -0.9000 
 18 O       -6.4480     0.4950     2.4740 O.co2 1 <1>  -0.9000 
 19 O       -4.5380    -3.3750     1.5720 O.co2 1 <1>  -0.9000 
 20 O       -5.3140    -3.3870    -0.4410 O.co2 1 <1>  -0.9000 
 21 N       -1.9510     6.4900    -0.6130 N.pl3 1 <1>   0.5930 
 22 N       -0.9320     7.2730    -1.0440 N.2   1 <1>  -0.7070 
 23 C       -3.0540     7.2560    -0.3760 C.2   1 <1>  -0.3320 
 24 C       -1.4050     8.4750    -1.0820 C.2   1 <1>   0.1080 
 25 C       -2.7310     8.5320    -0.6740 C.2   1 <1>  -0.1500 
 26 C       -4.3800     6.7230     0.1480 C.3   1 <1>  -0.0600 
 27 C       -0.5760     9.6590    -1.5220 C.3   1 <1>  -0.0590 
 28 H       -3.9490     0.8060     2.3560 H     1 <1>   0.0800 
 29 H       -4.0010     1.8600     0.9580 H     1 <1>   0.0800 
 30 H       -2.2290    -1.6110    -0.1750 H     1 <1>   0.0800 
 31 H       -2.5880    -1.7670     1.5410 H     1 <1>   0.0800 
 32 H       -3.1400     2.1410    -1.4080 H     1 <1>   0.1500 
 33 H       -0.0450     2.8510     1.4070 H     1 <1>   0.1500 
 34 H       -3.3310     4.5470    -1.8250 H     1 <1>   0.1500 
 35 H       -0.2280     5.2750     1.0010 H     1 <1>   0.1500 
 36 H       -4.2780    -0.0050    -1.4630 H     1 <1>   0.1000 
 37 H       -5.8360    -0.8400    -1.2050 H     1 <1>   0.1000 
 38 H       -3.3380     9.4180    -0.6150 H     1 <1>   0.1500 
 39 H       -5.0580     7.5360     0.3410 H     1 <1>   0.0800 
 40 H       -4.2280     6.1800     1.0640 H     1 <1>   0.0800 
 41 H       -4.8350     6.0670    -0.5730 H     1 <1>   0.0800 
 42 H       -1.1600    10.5600    -1.4910 H     1 <1>   0.0800 
 43 H       -0.2270     9.4980    -2.5260 H     1 <1>   0.0800 
 44 H        0.2720     9.7650    -0.8710 H     1 <1>   0.0800 
@<TRIPOS>BOND
  1   1   2  2   
  2   2   3  am  
  3   2   4  1   
  4   3   5  1   
  5   3   6  1   
  6   4   7  ar  
  7   4   8  ar  
  8   5   9  1   
  9   5  28  1   
 10   5  29  1   
 11   6  10  1   
 12   6  30  1   
 13   6  31  1   
 14   7  11  ar  
 15   7  32  1   
 16   8  12  ar  
 17   8  33  1   
 18   9  10  1   
 19   9  13  1   
 20   9  14  1   
 21  10  14  1   
 22  10  15  1   
 23  11  16  ar  
 24  11  34  1   
 25  12  16  ar  
 26  12  35  1   
 27  13  17  ar  
 28  13  18  ar  
 29  14  36  1   
 30  14  37  1   
 31  15  19  ar  
 32  15  20  ar  
 33  16  21  1   
 34  21  22  1   
 35  21  23  1   
 36  22  24  2   
 37  23  25  2   
 38  23  26  1   
 39  24  25  1   
 40  24  27  1   
 41  25  38  1   
 42  26  39  1   
 43  26  40  1   
 44  26  41  1   
 45  27  42  1   
 46  27  43  1   
 47  27  44  1   
@<TRIPOS>SUBSTRUCTURE
  1 ****   7 GROUP 4 **** **** 0

# MOE 2024.06 (io_trps.svl 2023.06)
