@<TRIPOS>MOLECULE
NONAME
57 59 1 0 0 
SMALL
USER_CHARGES


@<TRIPOS>ATOM
  1 O        4.2300     2.4610     1.7300 O.co2 1 <1>  -0.9000 
  2 C        3.7200     1.3420     1.6610 C.2   1 <1>   0.9060 
  3 O        4.1980     0.3920     2.2880 O.co2 1 <1>  -0.9000 
  4 C        2.7480     1.0380     0.5010 C.3   1 <1>  -0.1060 
  5 C        3.4690    -0.0300    -0.3460 C.3   1 <1>   0.4230 
  6 C        2.5210     2.2870    -0.4140 C.3   1 <1>  -0.1600 
  7 C        1.3680     0.5380     0.9990 C.3   1 <1>  -0.1600 
  8 N        3.5260    -1.3370     0.4090 N.4   1 <1>  -0.9590 
  9 C        4.8730     0.5220    -0.7850 C.3   1 <1>   0.3430 
 10 C        3.7120     2.6940    -1.3050 C.3   1 <1>   0.3430 
 11 C        1.4390    -0.8570     1.6370 C.3   1 <1>  -0.1600 
 12 C        2.1750    -1.8620     0.7510 C.3   1 <1>   0.3430 
 13 C        4.3990    -2.4070    -0.1540 C.3   1 <1>   0.2630 
 14 N        4.9560     2.0300    -0.8310 N.4   1 <1>  -0.9590 
 15 C        6.2160     2.5800    -1.3990 C.3   1 <1>   0.4860 
 16 C        6.2500     4.0780    -1.1620 C.ar  1 <1>  -0.1430 
 17 C        6.1790     4.5770     0.1310 C.ar  1 <1>  -0.1500 
 18 C        6.3300     4.9620    -2.2260 C.ar  1 <1>  -0.1500 
 19 C        6.1480     5.9460     0.3790 C.ar  1 <1>   0.0830 
 20 C        6.3310     6.3250    -1.9910 C.ar  1 <1>  -0.1500 
 21 O        6.0010     6.4060     1.6550 O.3   1 <1>  -0.3620 
 22 C        6.2450     6.8350    -0.7060 C.ar  1 <1>   0.0830 
 23 C        5.3980     5.6040     2.6550 C.3   1 <1>   0.0400 
 24 O        6.2590     8.1970    -0.6410 O.3   1 <1>  -0.3630 
 25 C        6.5780     8.8940     0.5410 C.3   1 <1>   0.1200 
 26 C        6.8400    10.3520     0.1740 C.3   1 <1>  -0.2400 
 27 H        2.8880    -0.1890    -1.2380 H     1 <1>   0.0800 
 28 H        2.2650     3.1300     0.2070 H     1 <1>   0.0800 
 29 H        1.6780     2.1320    -1.0640 H     1 <1>   0.0800 
 30 H        0.9700     1.2360     1.7180 H     1 <1>   0.0800 
 31 H        0.6740     0.4910     0.1770 H     1 <1>   0.0800 
 32 H        3.9220    -1.0290     1.3420 H     1 <1>   0.4500 
 33 H        5.1160     0.1190    -1.7530 H     1 <1>   0.0800 
 34 H        5.6040     0.1730    -0.0740 H     1 <1>   0.0800 
 35 H        3.8250     3.7670    -1.2640 H     1 <1>   0.0800 
 36 H        3.5200     2.4170    -2.3280 H     1 <1>   0.0800 
 37 H        0.4420    -1.2160     1.8220 H     1 <1>   0.0800 
 38 H        1.9330    -0.8010     2.5930 H     1 <1>   0.0800 
 39 H        1.6100    -2.0390    -0.1490 H     1 <1>   0.0800 
 40 H        2.2690    -2.7950     1.2850 H     1 <1>   0.0800 
 41 H        4.0380    -2.7190    -1.1210 H     1 <1>   0.0800 
 42 H        4.4020    -3.2620     0.5040 H     1 <1>   0.0800 
 43 H        5.4130    -2.0570    -0.2500 H     1 <1>   0.0800 
 44 H        4.9780     2.3430     0.1790 H     1 <1>   0.4500 
 45 H        7.0660     2.1290    -0.9140 H     1 <1>   0.0800 
 46 H        6.2690     2.3750    -2.4550 H     1 <1>   0.0800 
 47 H        6.1400     3.8880     0.9550 H     1 <1>   0.1500 
 48 H        6.3940     4.6100    -3.2410 H     1 <1>   0.1500 
 49 H        6.3990     7.0150    -2.8130 H     1 <1>   0.1500 
 50 H        5.1680     6.2310     3.4960 H     1 <1>   0.0800 
 51 H        6.0860     4.8340     2.9550 H     1 <1>   0.0800 
 52 H        4.4930     5.1690     2.2650 H     1 <1>   0.0800 
 53 H        5.7450     8.8160     1.2160 H     1 <1>   0.0800 
 54 H        7.4540     8.4460     0.9770 H     1 <1>   0.0800 
 55 H        5.9610    10.7820    -0.2730 H     1 <1>   0.0800 
 56 H        7.6630    10.4170    -0.5140 H     1 <1>   0.0800 
 57 H        7.0850    10.9100     1.0590 H     1 <1>   0.0800 
@<TRIPOS>BOND
  1   1   2  ar  
  2   2   3  ar  
  3   2   4  1   
  4   4   5  1   
  5   4   6  1   
  6   4   7  1   
  7   5   8  1   
  8   5   9  1   
  9   5  27  1   
 10   6  10  1   
 11   6  28  1   
 12   6  29  1   
 13   7  11  1   
 14   7  30  1   
 15   7  31  1   
 16   8  12  1   
 17   8  13  1   
 18   8  32  1   
 19   9  14  1   
 20   9  33  1   
 21   9  34  1   
 22  10  14  1   
 23  10  35  1   
 24  10  36  1   
 25  11  12  1   
 26  11  37  1   
 27  11  38  1   
 28  12  39  1   
 29  12  40  1   
 30  13  41  1   
 31  13  42  1   
 32  13  43  1   
 33  14  15  1   
 34  14  44  1   
 35  15  16  1   
 36  15  45  1   
 37  15  46  1   
 38  16  17  ar  
 39  16  18  ar  
 40  17  19  ar  
 41  17  47  1   
 42  18  20  ar  
 43  18  48  1   
 44  19  21  1   
 45  19  22  ar  
 46  20  22  ar  
 47  20  49  1   
 48  21  23  1   
 49  22  24  1   
 50  23  50  1   
 51  23  51  1   
 52  23  52  1   
 53  24  25  1   
 54  25  26  1   
 55  25  53  1   
 56  25  54  1   
 57  26  55  1   
 58  26  56  1   
 59  26  57  1   
@<TRIPOS>SUBSTRUCTURE
  1 ****  14 GROUP 4 **** **** 0

# MOE 2024.06 (io_trps.svl 2023.06)
