@<TRIPOS>MOLECULE
NONAME
45 47 1 0 0 
SMALL
USER_CHARGES


@<TRIPOS>ATOM
  1 O       -3.3800     2.5180    -1.7010 O.2   1 <1>  -0.5700 
  2 C       -2.5920     2.1200    -0.8770 C.2   1 <1>   0.5690 
  3 N       -2.3750     0.7950    -0.6770 N.am  1 <1>  -0.7300 
  4 C       -1.8370     3.1300    -0.0420 C.3   1 <1>   0.1570 
  5 C       -2.9720    -0.3210    -1.4390 C.3   1 <1>   0.2200 
  6 N       -0.4500     2.6770     0.1480 N.pl3 1 <1>   0.3140 
  7 C       -3.6180    -1.2920    -0.4650 C.3   1 <1>  -0.0800 
  8 C       -1.8670    -1.1680    -2.0730 C.3   1 <1>   0.1200 
  9 N       -0.1530     1.7190     1.0530 N.2   1 <1>  -0.7070 
 10 C        0.6520     3.0580    -0.5390 C.2   1 <1>  -0.3320 
 11 C       -2.4240    -2.1600    -0.0730 C.3   1 <1>   0.1200 
 12 C       -4.7340    -2.1100    -1.1430 C.3   1 <1>  -0.0160 
 13 O       -1.6200    -2.2420    -1.2090 O.3   1 <1>  -0.5600 
 14 C        1.1210     1.5240     0.9270 C.2   1 <1>   0.1080 
 15 C        1.6810     2.3330    -0.0530 C.2   1 <1>  -0.1500 
 16 C        0.6770     4.0980    -1.6470 C.3   1 <1>  -0.0600 
 17 C       -5.3810    -3.0810    -0.1680 C.ar  1 <1>  -0.1440 
 18 C        1.8740     0.5180     1.7640 C.3   1 <1>  -0.0590 
 19 C       -5.1110    -4.4350    -0.1950 C.ar  1 <1>  -0.1500 
 20 C       -6.2720    -2.6570     0.7970 C.ar  1 <1>  -0.1500 
 21 C       -5.7250    -5.2740     0.7210 C.ar  1 <1>   0.1600 
 22 C       -6.8310    -3.5790     1.6660 C.ar  1 <1>   0.1600 
 23 N       -6.5780    -4.8780     1.6520 N.ar  1 <1>  -0.6200 
 24 H       -1.6140     0.5390    -0.0260 H     1 <1>   0.3700 
 25 H       -2.3050     3.2200     0.9190 H     1 <1>   0.0800 
 26 H       -1.8420     4.0840    -0.5290 H     1 <1>   0.0800 
 27 H       -3.6600     0.0600    -2.1760 H     1 <1>   0.0800 
 28 H       -4.0250    -0.7820     0.3890 H     1 <1>   0.0800 
 29 H       -0.9570    -0.6110    -2.2170 H     1 <1>   0.0800 
 30 H       -2.1940    -1.5790    -3.0110 H     1 <1>   0.0800 
 31 H       -2.6960    -3.1510     0.2440 H     1 <1>   0.0800 
 32 H       -1.8460    -1.6840     0.7010 H     1 <1>   0.0800 
 33 H       -4.3380    -2.6530    -1.9840 H     1 <1>   0.0800 
 34 H       -5.4900    -1.4420    -1.5160 H     1 <1>   0.0800 
 35 H        2.7160     2.3520    -0.3430 H     1 <1>   0.1500 
 36 H        1.6720     4.1880    -2.0460 H     1 <1>   0.0800 
 37 H        0.3740     5.0570    -1.2670 H     1 <1>   0.0800 
 38 H        0.0150     3.8090    -2.4440 H     1 <1>   0.0800 
 39 H        2.9250     0.5610     1.5480 H     1 <1>   0.0800 
 40 H        1.5100    -0.4700     1.5510 H     1 <1>   0.0800 
 41 H        1.7190     0.7310     2.8060 H     1 <1>   0.0800 
 42 H       -4.4280    -4.8450    -0.9160 H     1 <1>   0.1500 
 43 H       -6.5360    -1.6190     0.8810 H     1 <1>   0.1500 
 44 H       -5.5010    -6.3260     0.6850 H     1 <1>   0.1500 
 45 H       -7.5230    -3.2290     2.4120 H     1 <1>   0.1500 
@<TRIPOS>BOND
  1   1   2  2   
  2   2   3  am  
  3   2   4  1   
  4   3   5  1   
  5   3  24  1   
  6   4   6  1   
  7   4  25  1   
  8   4  26  1   
  9   5   7  1   
 10   5   8  1   
 11   5  27  1   
 12   6   9  1   
 13   6  10  1   
 14   7  11  1   
 15   7  12  1   
 16   7  28  1   
 17   8  13  1   
 18   8  29  1   
 19   8  30  1   
 20   9  14  2   
 21  10  15  2   
 22  10  16  1   
 23  11  13  1   
 24  11  31  1   
 25  11  32  1   
 26  12  17  1   
 27  12  33  1   
 28  12  34  1   
 29  14  15  1   
 30  14  18  1   
 31  15  35  1   
 32  16  36  1   
 33  16  37  1   
 34  16  38  1   
 35  17  19  ar  
 36  17  20  ar  
 37  18  39  1   
 38  18  40  1   
 39  18  41  1   
 40  19  21  ar  
 41  19  42  1   
 42  20  22  ar  
 43  20  43  1   
 44  21  23  ar  
 45  21  44  1   
 46  22  23  ar  
 47  22  45  1   
@<TRIPOS>SUBSTRUCTURE
  1 ****   3 GROUP 4 **** **** 0

# MOE 2024.06 (io_trps.svl 2023.06)
