@<TRIPOS>MOLECULE
NONAME
31 31 1 0 0 
SMALL
USER_CHARGES


@<TRIPOS>ATOM
  1 O       -1.4780    -5.8380    -0.8370 O.3   1 <1>  -0.5600 
  2 C       -0.6280    -4.9860    -0.1080 C.3   1 <1>   0.1200 
  3 C       -2.6050    -5.1880    -1.3500 C.3   1 <1>   0.0400 
  4 C        0.6700    -5.7430     0.2360 C.3   1 <1>   0.3430 
  5 N        0.3950    -7.2180     0.2210 N.4   1 <1>  -0.9590 
  6 C       -0.2590    -7.6620     1.5040 C.3   1 <1>   0.3430 
  7 C        1.5780    -8.0020    -0.2200 C.3   1 <1>   0.3430 
  8 C       -0.6590    -9.1640     1.5780 C.3   1 <1>   0.3430 
  9 C        1.1230    -9.1590    -1.1120 C.3   1 <1>  -0.1600 
 10 N       -0.8700    -9.8500     0.2520 N.4   1 <1>  -0.9060 
 11 C        0.3910   -10.3010    -0.4030 C.3   1 <1>   0.3430 
 12 H       -1.1380    -4.6800     0.7900 H     1 <1>   0.0800 
 13 H       -0.4010    -4.1120    -0.6960 H     1 <1>   0.0800 
 14 H       -3.2060    -5.9080    -1.8790 H     1 <1>   0.0800 
 15 H       -2.2950    -4.4140    -2.0320 H     1 <1>   0.0800 
 16 H       -3.1790    -4.7650    -0.5420 H     1 <1>   0.0800 
 17 H        1.0630    -5.4190     1.1870 H     1 <1>   0.0800 
 18 H        1.4000    -5.5030    -0.5200 H     1 <1>   0.0800 
 19 H       -0.3270    -7.2400    -0.5280 H     1 <1>   0.4500 
 20 H       -1.1540    -7.0770     1.6480 H     1 <1>   0.0800 
 21 H        0.3900    -7.4420     2.3360 H     1 <1>   0.0800 
 22 H        2.1390    -8.3610     0.6280 H     1 <1>   0.0800 
 23 H        2.2300    -7.3680    -0.8020 H     1 <1>   0.0800 
 24 H       -1.5630    -9.2320     2.1630 H     1 <1>   0.0800 
 25 H        0.1010    -9.6920     2.1300 H     1 <1>   0.0800 
 26 H        2.0080    -9.5830    -1.5540 H     1 <1>   0.0800 
 27 H        0.5310    -8.7860    -1.9300 H     1 <1>   0.0800 
 28 H       -1.4340    -9.2780    -0.3920 H     1 <1>   0.4500 
 29 H       -1.4420   -10.6940     0.4210 H     1 <1>   0.4500 
 30 H        1.0420   -10.7570     0.3280 H     1 <1>   0.0800 
 31 H        0.1560   -11.0570    -1.1380 H     1 <1>   0.0800 
@<TRIPOS>BOND
  1   1   2  1   
  2   1   3  1   
  3   2   4  1   
  4   2  12  1   
  5   2  13  1   
  6   3  14  1   
  7   3  15  1   
  8   3  16  1   
  9   4   5  1   
 10   4  17  1   
 11   4  18  1   
 12   5   6  1   
 13   5   7  1   
 14   5  19  1   
 15   6   8  1   
 16   6  20  1   
 17   6  21  1   
 18   7   9  1   
 19   7  22  1   
 20   7  23  1   
 21   8  10  1   
 22   8  24  1   
 23   8  25  1   
 24   9  11  1   
 25   9  26  1   
 26   9  27  1   
 27  10  11  1   
 28  10  28  1   
 29  10  29  1   
 30  11  30  1   
 31  11  31  1   
@<TRIPOS>SUBSTRUCTURE
  1 ****   5 GROUP 4 **** **** 0

# MOE 2024.06 (io_trps.svl 2023.06)
