@<TRIPOS>MOLECULE
NONAME
51 54 1 0 0 
SMALL
USER_CHARGES


@<TRIPOS>ATOM
  1 O        1.1380     1.4410    -0.5480 O.2   1 <1>  -0.5700 
  2 C        1.1640     2.6270    -0.2680 C.2   1 <1>   0.6900 
  3 N        2.3880     3.2410    -0.0190 N.am  1 <1>  -0.4200 
  4 N       -0.0100     3.3560    -0.2050 N.am  1 <1>  -0.4230 
  5 C        2.4520     4.5940     0.2520 C.2   1 <1>   0.7150 
  6 C        3.6310     2.4160    -0.0740 C.3   1 <1>   0.0600 
  7 C        0.0500     4.7070     0.1120 C.2   1 <1>   0.2900 
  8 C       -1.3450     2.7460    -0.4460 C.3   1 <1>   0.0600 
  9 O        3.5200     5.1730     0.3830 O.2   1 <1>  -0.5700 
 10 C        1.2340     5.3130     0.3390 C.2   1 <1>  -0.2370 
 11 N       -0.9800     5.5540     0.2310 N.2   1 <1>  -0.5650 
 12 N        0.9360     6.6060     0.6280 N.pl3 1 <1>   0.0480 
 13 C       -0.4100     6.6750     0.5460 C.2   1 <1>   0.0360 
 14 C        1.8920     7.6780     0.9670 C.3   1 <1>   0.0960 
 15 C        2.7040     8.0440    -0.2830 C.3   1 <1>   0.3430 
 16 N        3.9770     8.7510     0.0510 N.4   1 <1>  -0.9590 
 17 C        4.5390     9.4380    -1.1420 C.3   1 <1>   0.4860 
 18 C        4.9930     7.8510     0.6890 C.3   1 <1>   0.2630 
 19 C        5.6120    10.4110    -0.6950 C.ar  1 <1>  -0.1440 
 20 C        5.2550    11.4680     0.1700 C.ar  1 <1>   0.3100 
 21 C        6.9040    10.2660    -1.1380 C.ar  1 <1>  -0.1500 
 22 N        3.9670    11.5610     0.6170 N.ar  1 <1>  -0.6200 
 23 C        6.2550    12.3890     0.5560 C.ar  1 <1>   0.0000 
 24 C        7.8900    11.1720    -0.7400 C.ar  1 <1>  -0.1500 
 25 C        3.6740    12.5670     1.3890 C.ar  1 <1>   0.1600 
 26 C        5.8900    13.4520     1.3980 C.ar  1 <1>  -0.1500 
 27 C        7.5710    12.2120     0.0880 C.ar  1 <1>  -0.1500 
 28 C        4.5950    13.5360     1.8070 C.ar  1 <1>  -0.1500 
 29 H        3.4750     1.4890     0.4530 H     1 <1>   0.0800 
 30 H        4.4600     2.9290     0.3800 H     1 <1>   0.0800 
 31 H        3.8690     2.1950    -1.0990 H     1 <1>   0.0800 
 32 H       -1.2580     1.7000    -0.6820 H     1 <1>   0.0800 
 33 H       -1.8260     3.2500    -1.2660 H     1 <1>   0.0800 
 34 H       -1.9520     2.8570     0.4350 H     1 <1>   0.0800 
 35 H       -0.9570     7.5850     0.7300 H     1 <1>   0.1500 
 36 H        2.5300     7.3080     1.7480 H     1 <1>   0.0800 
 37 H        1.3520     8.5350     1.3270 H     1 <1>   0.0800 
 38 H        2.0950     8.6700    -0.9150 H     1 <1>   0.0800 
 39 H        2.9410     7.1440    -0.8270 H     1 <1>   0.0800 
 40 H        3.7800     9.5520     0.6870 H     1 <1>   0.4500 
 41 H        3.7630     9.9940    -1.6440 H     1 <1>   0.0800 
 42 H        4.9480     8.7180    -1.8320 H     1 <1>   0.0800 
 43 H        5.2370     7.0340     0.0300 H     1 <1>   0.0800 
 44 H        4.6100     7.4380     1.6080 H     1 <1>   0.0800 
 45 H        5.8940     8.3990     0.9120 H     1 <1>   0.0800 
 46 H        7.1920     9.4660    -1.8010 H     1 <1>   0.1500 
 47 H        8.8990    11.0430    -1.0960 H     1 <1>   0.1500 
 48 H        2.6590    12.6710     1.7370 H     1 <1>   0.1500 
 49 H        6.6290    14.1750     1.7000 H     1 <1>   0.1500 
 50 H        8.3260    12.9150     0.3930 H     1 <1>   0.1500 
 51 H        4.2620    14.3340     2.4470 H     1 <1>   0.1500 
@<TRIPOS>BOND
  1   1   2  2   
  2   2   3  am  
  3   2   4  am  
  4   3   5  am  
  5   3   6  1   
  6   4   7  1   
  7   4   8  1   
  8   5   9  2   
  9   5  10  1   
 10   6  29  1   
 11   6  30  1   
 12   6  31  1   
 13   7  10  2   
 14   7  11  1   
 15   8  32  1   
 16   8  33  1   
 17   8  34  1   
 18  10  12  1   
 19  11  13  2   
 20  12  13  1   
 21  12  14  1   
 22  13  35  1   
 23  14  15  1   
 24  14  36  1   
 25  14  37  1   
 26  15  16  1   
 27  15  38  1   
 28  15  39  1   
 29  16  17  1   
 30  16  18  1   
 31  16  40  1   
 32  17  19  1   
 33  17  41  1   
 34  17  42  1   
 35  18  43  1   
 36  18  44  1   
 37  18  45  1   
 38  19  20  ar  
 39  19  21  ar  
 40  20  22  ar  
 41  20  23  ar  
 42  21  24  ar  
 43  21  46  1   
 44  22  25  ar  
 45  23  26  ar  
 46  23  27  ar  
 47  24  27  ar  
 48  24  47  1   
 49  25  28  ar  
 50  25  48  1   
 51  26  28  ar  
 52  26  49  1   
 53  27  50  1   
 54  28  51  1   
@<TRIPOS>SUBSTRUCTURE
  1 ****  15 GROUP 4 **** **** 0

# MOE 2024.06 (io_trps.svl 2023.06)
