@<TRIPOS>MOLECULE
NONAME
50 53 1 0 0 
SMALL
USER_CHARGES


@<TRIPOS>ATOM
  1 O       -0.1060    -1.0450     1.5530 O.3   1 <1>  -0.6800 
  2 C        0.4680    -2.1680     0.9830 C.3   1 <1>   0.2000 
  3 C        1.7230    -1.8480     0.1470 C.3   1 <1>   0.0000 
  4 C       -0.5120    -2.8470     0.0270 C.3   1 <1>  -0.1600 
  5 C        2.9450    -1.6510     1.0710 C.3   1 <1>   0.2090 
  6 C        1.5420    -0.5890    -0.7450 C.3   1 <1>  -0.1600 
  7 C        1.8090    -3.1180    -0.7200 C.3   1 <1>  -0.1600 
  8 C        0.3600    -3.4870    -1.0630 C.3   1 <1>  -0.1600 
  9 N        4.1940    -1.2800     0.3150 N.pl3 1 <1>  -0.8380 
 10 C        2.8400    -0.2010    -1.4700 C.3   1 <1>  -0.1600 
 11 C        5.3560    -1.9870     0.3490 C.ar  1 <1>   0.1000 
 12 C        4.0070    -0.0350    -0.4950 C.3   1 <1>   0.2090 
 13 C        6.6590    -1.3840     0.3000 C.ar  1 <1>   0.0000 
 14 C        5.3120    -3.3820     0.3810 C.ar  1 <1>  -0.1500 
 15 C        7.7870    -2.1910     0.0400 C.ar  1 <1>   0.3610 
 16 C        6.9060    -0.0220     0.5580 C.ar  1 <1>  -0.1500 
 17 C        6.4330    -4.1440     0.2020 C.ar  1 <1>   0.2110 
 18 N        7.6240    -3.5570     0.0000 N.ar  1 <1>  -0.1790 
 19 C        9.0650    -1.6200    -0.1190 C.ar  1 <1>  -0.1440 
 20 C        8.1530     0.5320     0.4340 C.ar  1 <1>  -0.1440 
 21 C        9.2320    -0.2710     0.0720 C.ar  1 <1>  -0.1500 
 22 C       10.2850    -2.4620    -0.4880 C.3   1 <1>  -0.0970 
 23 C        8.3890     2.0110     0.6900 C.3   1 <1>  -0.0970 
 24 H       -0.9620    -1.2760     1.9610 H     1 <1>   0.4000 
 25 H        0.7210    -2.8520     1.7760 H     1 <1>   0.0800 
 26 H       -1.0940    -3.5900     0.5410 H     1 <1>   0.0800 
 27 H       -1.1650    -2.1190    -0.4230 H     1 <1>   0.0800 
 28 H        3.1090    -2.5320     1.6640 H     1 <1>   0.0800 
 29 H        2.7210    -0.8520     1.7570 H     1 <1>   0.0800 
 30 H        0.7570    -0.7370    -1.4650 H     1 <1>   0.0800 
 31 H        1.2530     0.2450    -0.1280 H     1 <1>   0.0800 
 32 H        2.4130    -2.9930    -1.6010 H     1 <1>   0.0800 
 33 H        2.2230    -3.9210    -0.1380 H     1 <1>   0.0800 
 34 H        0.2310    -4.5550    -1.0960 H     1 <1>   0.0800 
 35 H        0.0940    -3.0780    -2.0240 H     1 <1>   0.0800 
 36 H        2.6880     0.7270    -1.9920 H     1 <1>   0.0800 
 37 H        3.1000    -0.9410    -2.2040 H     1 <1>   0.0800 
 38 H        3.8110     0.7930     0.1660 H     1 <1>   0.0800 
 39 H        4.8930     0.1810    -1.0650 H     1 <1>   0.0800 
 40 H        4.3690    -3.8750     0.5100 H     1 <1>   0.1500 
 41 H        6.0870     0.5980     0.8740 H     1 <1>   0.1500 
 42 H        6.3740    -5.2210     0.2060 H     1 <1>   0.1500 
 43 H        8.4670    -4.1130    -0.1560 H     1 <1>   0.4570 
 44 H       10.2000     0.1920    -0.0390 H     1 <1>   0.1500 
 45 H       11.1490    -1.8350    -0.6330 H     1 <1>   0.0800 
 46 H       10.1180    -2.9960    -1.4070 H     1 <1>   0.0800 
 47 H       10.5210    -3.1580     0.2990 H     1 <1>   0.0800 
 48 H        9.0940     2.1380     1.4920 H     1 <1>   0.0800 
 49 H        7.4740     2.5070     0.9610 H     1 <1>   0.0800 
 50 H        8.7810     2.4810    -0.1940 H     1 <1>   0.0800 
@<TRIPOS>BOND
  1   1   2  1   
  2   1  24  1   
  3   2   3  1   
  4   2   4  1   
  5   2  25  1   
  6   3   5  1   
  7   3   6  1   
  8   3   7  1   
  9   4   8  1   
 10   4  26  1   
 11   4  27  1   
 12   5   9  1   
 13   5  28  1   
 14   5  29  1   
 15   6  10  1   
 16   6  30  1   
 17   6  31  1   
 18   7   8  1   
 19   7  32  1   
 20   7  33  1   
 21   8  34  1   
 22   8  35  1   
 23   9  11  1   
 24   9  12  1   
 25  10  12  1   
 26  10  36  1   
 27  10  37  1   
 28  11  13  ar  
 29  11  14  ar  
 30  12  38  1   
 31  12  39  1   
 32  13  15  ar  
 33  13  16  ar  
 34  14  17  ar  
 35  14  40  1   
 36  15  18  ar  
 37  15  19  ar  
 38  16  20  ar  
 39  16  41  1   
 40  17  18  ar  
 41  17  42  1   
 42  18  43  1   
 43  19  21  ar  
 44  19  22  1   
 45  20  21  ar  
 46  20  23  1   
 47  21  44  1   
 48  22  45  1   
 49  22  46  1   
 50  22  47  1   
 51  23  48  1   
 52  23  49  1   
 53  23  50  1   
@<TRIPOS>SUBSTRUCTURE
  1 ****   9 GROUP 4 **** **** 0

# MOE 2024.06 (io_trps.svl 2023.06)
