@<TRIPOS>MOLECULE
NONAME
59 62 1 0 0 
SMALL
USER_CHARGES


@<TRIPOS>ATOM
  1 O       -1.0720    -6.0530     2.2080 O.2   1 <1>  -0.5700 
  2 C        0.0040    -5.8370     1.7180 C.2   1 <1>   0.5690 
  3 N        0.8700    -6.8320     1.4360 N.am  1 <1>  -0.7300 
  4 C        0.4420    -4.4240     1.4030 C.3   1 <1>  -0.0990 
  5 C        2.2090    -6.6110     0.8600 C.3   1 <1>   0.1400 
  6 C        1.1320    -4.3680     0.0250 C.3   1 <1>  -0.0800 
  7 C        2.1320    -5.5240    -0.2350 C.3   1 <1>  -0.0800 
  8 C        1.9000    -3.0600    -0.2150 C.3   1 <1>  -0.1600 
  9 C        3.4830    -4.8530    -0.5210 C.3   1 <1>  -0.1600 
 10 C        3.1040    -3.4720    -1.0540 C.3   1 <1>   0.4230 
 11 N        4.2070    -2.4700    -1.0220 N.4   1 <1>  -0.9590 
 12 C        4.8670    -2.2690     0.3030 C.3   1 <1>   0.4860 
 13 C        5.2220    -2.7530    -2.0860 C.3   1 <1>   0.2630 
 14 C        5.6670    -0.9830     0.2440 C.ar  1 <1>  -0.1440 
 15 C        7.0520    -1.0190     0.1600 C.ar  1 <1>  -0.1500 
 16 C        5.0170     0.2430     0.2710 C.ar  1 <1>  -0.1500 
 17 C        7.7810     0.1560     0.0890 C.ar  1 <1>  -0.1500 
 18 C        5.7460     1.4160     0.1980 C.ar  1 <1>  -0.1500 
 19 C        7.1270     1.3840     0.1050 C.ar  1 <1>   0.0820 
 20 O        7.7600     2.5800     0.0380 O.3   1 <1>  -0.3630 
 21 C        9.1680     2.6690     0.0130 C.3   1 <1>   0.1200 
 22 C        9.5620     4.1440    -0.0180 C.3   1 <1>  -0.0170 
 23 C       11.0760     4.2760    -0.0460 C.ar  1 <1>  -0.1440 
 24 C       11.7520     4.3310    -1.2550 C.ar  1 <1>  -0.1500 
 25 C       11.7950     4.3360     1.1390 C.ar  1 <1>  -0.1500 
 26 C       13.1320     4.4440    -1.2800 C.ar  1 <1>  -0.1500 
 27 C       13.1740     4.4490     1.1150 C.ar  1 <1>  -0.1500 
 28 C       13.8440     4.5030    -0.0950 C.ar  1 <1>  -0.1500 
 29 H        0.5860    -7.7840     1.6860 H     1 <1>   0.3700 
 30 H       -0.4150    -3.7750     1.4180 H     1 <1>   0.0800 
 31 H        1.1130    -4.1150     2.1830 H     1 <1>   0.0800 
 32 H        2.8690    -6.3050     1.6540 H     1 <1>   0.0800 
 33 H        2.5820    -7.5320     0.4430 H     1 <1>   0.0800 
 34 H        0.3560    -4.4510    -0.7200 H     1 <1>   0.0800 
 35 H        1.8140    -6.0180    -1.1400 H     1 <1>   0.0800 
 36 H        2.2040    -2.6470     0.7290 H     1 <1>   0.0800 
 37 H        1.2840    -2.3460    -0.7340 H     1 <1>   0.0800 
 38 H        4.0490    -5.4190    -1.2400 H     1 <1>   0.0800 
 39 H        4.0360    -4.7750     0.3970 H     1 <1>   0.0800 
 40 H        2.7640    -3.5920    -2.0710 H     1 <1>   0.0800 
 41 H        3.7920    -1.5570    -1.2520 H     1 <1>   0.4500 
 42 H        4.1330    -2.1850     1.0860 H     1 <1>   0.0800 
 43 H        5.5150    -3.0990     0.5310 H     1 <1>   0.0800 
 44 H        5.7330    -3.6800    -1.8820 H     1 <1>   0.0800 
 45 H        5.9520    -1.9590    -2.1280 H     1 <1>   0.0800 
 46 H        4.7460    -2.8260    -3.0500 H     1 <1>   0.0800 
 47 H        7.5830    -1.9560     0.1510 H     1 <1>   0.1500 
 48 H        3.9450     0.3070     0.3530 H     1 <1>   0.1500 
 49 H        8.8520     0.1000     0.0240 H     1 <1>   0.1500 
 50 H        5.2510     2.3720     0.2180 H     1 <1>   0.1500 
 51 H        9.5570     2.1960     0.8980 H     1 <1>   0.0800 
 52 H        9.5290     2.1660    -0.8670 H     1 <1>   0.0800 
 53 H        9.1410     4.6100    -0.8910 H     1 <1>   0.0800 
 54 H        9.1720     4.6380     0.8530 H     1 <1>   0.0800 
 55 H       11.2090     4.2860    -2.1820 H     1 <1>   0.1500 
 56 H       11.2840     4.2950     2.0850 H     1 <1>   0.1500 
 57 H       13.6510     4.4860    -2.2210 H     1 <1>   0.1500 
 58 H       13.7260     4.4950     2.0370 H     1 <1>   0.1500 
 59 H       14.9160     4.5910    -0.1140 H     1 <1>   0.1500 
@<TRIPOS>BOND
  1   1   2  2   
  2   2   3  am  
  3   2   4  1   
  4   3   5  1   
  5   3  29  1   
  6   4   6  1   
  7   4  30  1   
  8   4  31  1   
  9   5   7  1   
 10   5  32  1   
 11   5  33  1   
 12   6   7  1   
 13   6   8  1   
 14   6  34  1   
 15   7   9  1   
 16   7  35  1   
 17   8  10  1   
 18   8  36  1   
 19   8  37  1   
 20   9  10  1   
 21   9  38  1   
 22   9  39  1   
 23  10  11  1   
 24  10  40  1   
 25  11  12  1   
 26  11  13  1   
 27  11  41  1   
 28  12  14  1   
 29  12  42  1   
 30  12  43  1   
 31  13  44  1   
 32  13  45  1   
 33  13  46  1   
 34  14  15  ar  
 35  14  16  ar  
 36  15  17  ar  
 37  15  47  1   
 38  16  18  ar  
 39  16  48  1   
 40  17  19  ar  
 41  17  49  1   
 42  18  19  ar  
 43  18  50  1   
 44  19  20  1   
 45  20  21  1   
 46  21  22  1   
 47  21  51  1   
 48  21  52  1   
 49  22  23  1   
 50  22  53  1   
 51  22  54  1   
 52  23  24  ar  
 53  23  25  ar  
 54  24  26  ar  
 55  24  55  1   
 56  25  27  ar  
 57  25  56  1   
 58  26  28  ar  
 59  26  57  1   
 60  27  28  ar  
 61  27  58  1   
 62  28  59  1   
@<TRIPOS>SUBSTRUCTURE
  1 ****  14 GROUP 4 **** **** 0

# MOE 2024.06 (io_trps.svl 2023.06)
