@<TRIPOS>MOLECULE
NONAME
53 57 1 0 0 
SMALL
USER_CHARGES


@<TRIPOS>ATOM
  1 O       -0.8500    -1.4730     1.7430 O.3   1 <1>  -0.0190 
  2 N        0.1360    -0.7190     2.1210 N.2   1 <1>  -0.4100 
  3 C       -0.4000    -2.0730     0.6680 C.2   1 <1>   0.2980 
  4 C        1.0860    -0.9050     1.2950 C.2   1 <1>   0.3350 
  5 N        0.7960    -1.7760     0.3400 N.2   1 <1>  -0.5650 
  6 C       -1.3070    -3.0690    -0.0530 C.3   1 <1>   0.2900 
  7 C        2.4390    -0.2200     1.3550 C.3   1 <1>   0.0210 
  8 N       -2.3270    -2.4430    -0.9340 N.3   1 <1>  -0.8100 
  9 C        3.5530    -1.1820     1.7880 C.3   1 <1>  -0.2400 
 10 C       -3.3670    -1.7170    -0.1650 C.3   1 <1>   0.1100 
 11 C       -2.9340    -3.4450    -1.8230 C.3   1 <1>   0.1100 
 12 C       -4.3430    -0.9680    -1.0930 C.3   1 <1>   0.1430 
 13 C       -3.8820    -2.7670    -2.8190 C.3   1 <1>  -0.1600 
 14 C       -5.3830    -0.2660    -0.2390 C.ar  1 <1>   0.1670 
 15 C       -4.9700    -1.9580    -2.0950 C.3   1 <1>  -0.1600 
 16 C       -3.6390     0.2190    -1.8040 C.3   1 <1>  -0.1600 
 17 N       -6.3750    -0.8490     0.3910 N.ar  1 <1>  -0.6200 
 18 C       -5.1590     1.0750    -0.1800 C.ar  1 <1>  -0.1440 
 19 C       -3.9430     1.4790    -0.9760 C.3   1 <1>  -0.0170 
 20 C       -7.1760    -0.0410     1.0980 C.ar  1 <1>   0.6200 
 21 C       -6.0220     1.8350     0.5650 C.ar  1 <1>   0.1600 
 22 N       -7.0310     1.2880     1.2050 N.ar  1 <1>  -0.6200 
 23 C       -8.2900    -0.6570     1.8080 C.ar  1 <1>   0.0000 
 24 C       -8.8810    -1.8420     1.3590 C.ar  1 <1>  -0.1500 
 25 C       -8.8200    -0.0930     2.9720 C.ar  1 <1>  -0.1500 
 26 C       -9.9370    -2.4310     2.0300 C.ar  1 <1>  -0.1500 
 27 C       -9.8770    -0.6750     3.6490 C.ar  1 <1>  -0.1500 
 28 C      -10.4390    -1.8480     3.1790 C.ar  1 <1>  -0.1500 
 29 H       -1.7890    -3.6970     0.6750 H     1 <1>   0.0800 
 30 H       -0.6700    -3.6920    -0.6550 H     1 <1>   0.0800 
 31 H        2.3840     0.5990     2.0500 H     1 <1>   0.0800 
 32 H        2.6630     0.1820     0.3840 H     1 <1>   0.0800 
 33 H        3.3360    -1.5850     2.7610 H     1 <1>   0.0800 
 34 H        4.4960    -0.6670     1.8260 H     1 <1>   0.0800 
 35 H        3.6300    -1.9950     1.0870 H     1 <1>   0.0800 
 36 H       -2.9090    -0.9950     0.4870 H     1 <1>   0.0800 
 37 H       -3.9210    -2.4120     0.4450 H     1 <1>   0.0800 
 38 H       -3.4770    -4.1710    -1.2400 H     1 <1>   0.0800 
 39 H       -2.1610    -3.9560    -2.3720 H     1 <1>   0.0800 
 40 H       -4.3440    -3.5170    -3.4360 H     1 <1>   0.0800 
 41 H       -3.3080    -2.1230    -3.4620 H     1 <1>   0.0800 
 42 H       -5.5850    -1.4340    -2.8050 H     1 <1>   0.0800 
 43 H       -5.6060    -2.6400    -1.5570 H     1 <1>   0.0800 
 44 H       -4.0600     0.3510    -2.7850 H     1 <1>   0.0800 
 45 H       -2.5790     0.0600    -1.9110 H     1 <1>   0.0800 
 46 H       -4.1390     2.3290    -1.6070 H     1 <1>   0.0800 
 47 H       -3.1280     1.6970    -0.3070 H     1 <1>   0.0800 
 48 H       -5.8850     2.9000     0.6400 H     1 <1>   0.1500 
 49 H       -8.5060    -2.3100     0.4660 H     1 <1>   0.1500 
 50 H       -8.3960     0.8190     3.3540 H     1 <1>   0.1500 
 51 H      -10.3680    -3.3430     1.6580 H     1 <1>   0.1500 
 52 H      -10.2630    -0.2150     4.5420 H     1 <1>   0.1500 
 53 H      -11.2610    -2.3030     3.7040 H     1 <1>   0.1500 
@<TRIPOS>BOND
  1   1   2  1   
  2   1   3  1   
  3   2   4  2   
  4   3   5  2   
  5   3   6  1   
  6   4   5  1   
  7   4   7  1   
  8   6   8  1   
  9   6  29  1   
 10   6  30  1   
 11   7   9  1   
 12   7  31  1   
 13   7  32  1   
 14   8  10  1   
 15   8  11  1   
 16   9  33  1   
 17   9  34  1   
 18   9  35  1   
 19  10  12  1   
 20  10  36  1   
 21  10  37  1   
 22  11  13  1   
 23  11  38  1   
 24  11  39  1   
 25  12  14  1   
 26  12  15  1   
 27  12  16  1   
 28  13  15  1   
 29  13  40  1   
 30  13  41  1   
 31  14  17  ar  
 32  14  18  ar  
 33  15  42  1   
 34  15  43  1   
 35  16  19  1   
 36  16  44  1   
 37  16  45  1   
 38  17  20  ar  
 39  18  19  1   
 40  18  21  ar  
 41  19  46  1   
 42  19  47  1   
 43  20  22  ar  
 44  20  23  1   
 45  21  22  ar  
 46  21  48  1   
 47  23  24  ar  
 48  23  25  ar  
 49  24  26  ar  
 50  24  49  1   
 51  25  27  ar  
 52  25  50  1   
 53  26  28  ar  
 54  26  51  1   
 55  27  28  ar  
 56  27  52  1   
 57  28  53  1   
@<TRIPOS>SUBSTRUCTURE
  1 ****  10 GROUP 4 **** **** 0

# MOE 2024.06 (io_trps.svl 2023.06)
