@<TRIPOS>MOLECULE
NONAME
50 51 1 0 0 
SMALL
USER_CHARGES


@<TRIPOS>ATOM
  1 O        3.6220     1.4340     1.6820 O.co2 1 <1>  -0.9000 
  2 C        2.8630     0.6110     1.1490 C.2   1 <1>   0.9060 
  3 O        2.7560    -0.5330     1.5890 O.co2 1 <1>  -0.9000 
  4 C        2.2940     0.9120    -0.2500 C.3   1 <1>  -0.1060 
  5 C        3.0610    -0.0780    -1.1550 C.3   1 <1>   0.2000 
  6 C        2.6300     2.3650    -0.7260 C.3   1 <1>  -0.1600 
  7 C        0.7620     0.6570    -0.2970 C.3   1 <1>  -0.1600 
  8 O        2.7130     0.1290    -2.4920 O.3   1 <1>  -0.6800 
  9 C        4.5900     0.1250    -0.9920 C.3   1 <1>   0.3430 
 10 C        4.0520     2.5350    -1.2950 C.3   1 <1>   0.3430 
 11 C       -0.0390     1.5520     0.6630 C.3   1 <1>  -0.1600 
 12 N        4.9630     1.5480    -0.6600 N.4   1 <1>  -0.9590 
 13 C       -1.5350     1.2380     0.5850 C.3   1 <1>  -0.2400 
 14 C        6.4120     1.8130    -0.7960 C.3   1 <1>   0.4860 
 15 C        6.7270     3.2830    -0.5630 C.ar  1 <1>  -0.1430 
 16 C        6.6720     3.8750     0.6990 C.ar  1 <1>  -0.1430 
 17 C        7.0740     4.0530    -1.6650 C.ar  1 <1>  -0.1500 
 18 C        6.9550     5.2260     0.8310 C.ar  1 <1>  -0.1500 
 19 C        6.3010     3.1140     1.9670 C.3   1 <1>  -0.0970 
 20 C        7.3570     5.3980    -1.5220 C.ar  1 <1>  -0.1500 
 21 C        7.2980     5.9950    -0.2760 C.ar  1 <1>   0.0820 
 22 O        7.5840     7.3190    -0.2210 O.3   1 <1>  -0.3620 
 23 C        7.5820     8.0210     1.0030 C.3   1 <1>   0.0400 
 24 H        2.8090    -1.0970    -0.9080 H     1 <1>   0.0800 
 25 H        2.5000     3.0530     0.0920 H     1 <1>   0.0800 
 26 H        1.9430     2.6690    -1.4950 H     1 <1>   0.0800 
 27 H        0.3930     0.8070    -1.2960 H     1 <1>   0.0800 
 28 H        0.5780    -0.3710    -0.0310 H     1 <1>   0.0800 
 29 H        1.7540    -0.0320    -2.6000 H     1 <1>   0.4000 
 30 H        5.0760    -0.1970    -1.8960 H     1 <1>   0.0800 
 31 H        4.9220    -0.5070    -0.1830 H     1 <1>   0.0800 
 32 H        4.3880     3.5420    -1.1090 H     1 <1>   0.0800 
 33 H        4.0350     2.3660    -2.3590 H     1 <1>   0.0800 
 34 H        0.2970     1.3920     1.6750 H     1 <1>   0.0800 
 35 H        0.1130     2.5900     0.4240 H     1 <1>   0.0800 
 36 H        4.7260     1.6520     0.3620 H     1 <1>   0.4500 
 37 H       -1.7150     0.2120     0.8520 H     1 <1>   0.0800 
 38 H       -1.9070     1.4100    -0.4100 H     1 <1>   0.0800 
 39 H       -2.0780     1.8680     1.2670 H     1 <1>   0.0800 
 40 H        6.9570     1.2130    -0.0870 H     1 <1>   0.0800 
 41 H        6.7340     1.5380    -1.7860 H     1 <1>   0.0800 
 42 H        7.1270     3.6170    -2.6470 H     1 <1>   0.1500 
 43 H        6.9020     5.6700     1.8060 H     1 <1>   0.1500 
 44 H        6.9330     3.4200     2.7820 H     1 <1>   0.0800 
 45 H        6.4010     2.0500     1.8610 H     1 <1>   0.0800 
 46 H        5.2820     3.3320     2.2350 H     1 <1>   0.0800 
 47 H        7.6270     5.9970    -2.3740 H     1 <1>   0.1500 
 48 H        7.8450     9.0430     0.8000 H     1 <1>   0.0800 
 49 H        8.3090     7.5800     1.6600 H     1 <1>   0.0800 
 50 H        6.5960     7.9750     1.4300 H     1 <1>   0.0800 
@<TRIPOS>BOND
  1   1   2  ar  
  2   2   3  ar  
  3   2   4  1   
  4   4   5  1   
  5   4   6  1   
  6   4   7  1   
  7   5   8  1   
  8   5   9  1   
  9   5  24  1   
 10   6  10  1   
 11   6  25  1   
 12   6  26  1   
 13   7  11  1   
 14   7  27  1   
 15   7  28  1   
 16   8  29  1   
 17   9  12  1   
 18   9  30  1   
 19   9  31  1   
 20  10  12  1   
 21  10  32  1   
 22  10  33  1   
 23  11  13  1   
 24  11  34  1   
 25  11  35  1   
 26  12  14  1   
 27  12  36  1   
 28  13  37  1   
 29  13  38  1   
 30  13  39  1   
 31  14  15  1   
 32  14  40  1   
 33  14  41  1   
 34  15  16  ar  
 35  15  17  ar  
 36  16  18  ar  
 37  16  19  1   
 38  17  20  ar  
 39  17  42  1   
 40  18  21  ar  
 41  18  43  1   
 42  19  44  1   
 43  19  45  1   
 44  19  46  1   
 45  20  21  ar  
 46  20  47  1   
 47  21  22  1   
 48  22  23  1   
 49  23  48  1   
 50  23  49  1   
 51  23  50  1   
@<TRIPOS>SUBSTRUCTURE
  1 ****  10 GROUP 4 **** **** 0

# MOE 2024.06 (io_trps.svl 2023.06)
