@<TRIPOS>MOLECULE
NONAME
41 42 1 0 0 
SMALL
USER_CHARGES


@<TRIPOS>ATOM
  1 S        0.0310    -0.0810    -0.9790 S.3   1 <1>  -0.0800 
  2 C       -1.5710     0.4460    -0.5100 C.2   1 <1>   0.1980 
  3 C        0.5900     1.5560    -0.8000 C.2   1 <1>  -0.1100 
  4 N       -1.6590     1.6910    -0.2590 N.2   1 <1>  -0.5650 
  5 C       -2.6690    -0.5990    -0.4550 C.3   1 <1>   0.0200 
  6 C       -0.4400     2.3300    -0.4190 C.2   1 <1>   0.0460 
  7 C       -2.5030    -1.5410     0.7440 C.3   1 <1>  -0.2400 
  8 C       -0.4340     3.8240    -0.1400 C.3   1 <1>   0.0210 
  9 C        0.9190     4.4750    -0.4260 C.3   1 <1>   0.2090 
 10 N        0.8590     5.9330    -0.1510 N.pl3 1 <1>  -0.8690 
 11 C        1.9790     6.7280    -0.2180 C.ar  1 <1>   0.4100 
 12 N        3.1530     6.1270    -0.3450 N.ar  1 <1>  -0.6200 
 13 C        1.8320     8.1060    -0.1560 C.ar  1 <1>  -0.1500 
 14 C        4.2030     6.9240    -0.4150 C.ar  1 <1>   0.1600 
 15 C        2.9260     8.9490    -0.2210 C.ar  1 <1>   0.0860 
 16 C        4.1500     8.3020    -0.3630 C.ar  1 <1>  -0.1500 
 17 C        2.7900    10.3920    -0.1520 C.2   1 <1>   0.5440 
 18 O        1.7530    10.9280    -0.4880 O.2   1 <1>  -0.5700 
 19 N        3.8150    11.1710     0.3080 N.am  1 <1>  -0.7300 
 20 C        3.7870    12.6430     0.3940 C.3   1 <1>   0.1400 
 21 C        5.1740    13.1760     0.0550 C.3   1 <1>  -0.2400 
 22 H        1.6270     1.7520    -1.0000 H     1 <1>   0.1500 
 23 H       -2.6630    -1.1640    -1.3700 H     1 <1>   0.0800 
 24 H       -3.6160    -0.0950    -0.3820 H     1 <1>   0.0800 
 25 H       -1.5750    -2.0790     0.6740 H     1 <1>   0.0800 
 26 H       -3.3120    -2.2480     0.7730 H     1 <1>   0.0800 
 27 H       -2.5060    -0.9730     1.6580 H     1 <1>   0.0800 
 28 H       -0.6910     3.9790     0.8920 H     1 <1>   0.0800 
 29 H       -1.1850     4.2840    -0.7550 H     1 <1>   0.0800 
 30 H        1.1930     4.3210    -1.4560 H     1 <1>   0.0800 
 31 H        1.6730     4.0280     0.2000 H     1 <1>   0.0800 
 32 H       -0.0130     6.3830    -0.4360 H     1 <1>   0.4000 
 33 H        0.8490     8.5240    -0.0510 H     1 <1>   0.1500 
 34 H        5.1620     6.4470    -0.5240 H     1 <1>   0.1500 
 35 H        5.0570     8.8710    -0.4400 H     1 <1>   0.1500 
 36 H        4.6270    10.7270     0.7350 H     1 <1>   0.3700 
 37 H        3.5050    12.9380     1.3910 H     1 <1>   0.0800 
 38 H        3.0610    13.0390    -0.2980 H     1 <1>   0.0800 
 39 H        5.9020    12.8110     0.7560 H     1 <1>   0.0800 
 40 H        5.1660    14.2500     0.1010 H     1 <1>   0.0800 
 41 H        5.4500    12.8820    -0.9420 H     1 <1>   0.0800 
@<TRIPOS>BOND
  1   1   2  1   
  2   1   3  1   
  3   2   4  2   
  4   2   5  1   
  5   3   6  2   
  6   3  22  1   
  7   4   6  1   
  8   5   7  1   
  9   5  23  1   
 10   5  24  1   
 11   6   8  1   
 12   7  25  1   
 13   7  26  1   
 14   7  27  1   
 15   8   9  1   
 16   8  28  1   
 17   8  29  1   
 18   9  10  1   
 19   9  30  1   
 20   9  31  1   
 21  10  11  1   
 22  10  32  1   
 23  11  12  ar  
 24  11  13  ar  
 25  12  14  ar  
 26  13  15  ar  
 27  13  33  1   
 28  14  16  ar  
 29  14  34  1   
 30  15  16  ar  
 31  15  17  1   
 32  16  35  1   
 33  17  18  2   
 34  17  19  am  
 35  19  20  1   
 36  19  36  1   
 37  20  21  1   
 38  20  37  1   
 39  20  38  1   
 40  21  39  1   
 41  21  40  1   
 42  21  41  1   
@<TRIPOS>SUBSTRUCTURE
  1 ****  10 GROUP 4 **** **** 0

# MOE 2024.06 (io_trps.svl 2023.06)
