@<TRIPOS>MOLECULE
NONAME
54 56 1 0 0 
SMALL
USER_CHARGES


@<TRIPOS>ATOM
  1 CL      -4.9500    -1.3150     3.6650 Cl    1 <1>  -0.1770 
  2 C       -6.1660    -1.4130     2.4100 C.ar  1 <1>   0.1770 
  3 C       -6.0390    -0.6830     1.2350 C.ar  1 <1>  -0.1440 
  4 C       -7.2470    -2.2430     2.6450 C.ar  1 <1>  -0.1500 
  5 C       -7.0570    -0.7810     0.2800 C.ar  1 <1>   0.1170 
  6 C       -4.8100     0.1970     1.0090 C.3   1 <1>  -0.0970 
  7 C       -8.2390    -2.3520     1.6900 C.ar  1 <1>  -0.1500 
  8 N       -7.0560    -0.0780    -0.9310 N.am  1 <1>  -0.5470 
  9 C       -8.1380    -1.6230     0.5200 C.ar  1 <1>  -0.1500 
 10 C       -7.0670     1.2720    -1.1400 C.2   1 <1>   0.5690 
 11 O       -6.9280     2.0890    -0.2610 O.2   1 <1>  -0.5700 
 12 C       -7.2570     1.7620    -2.5510 C.3   1 <1>  -0.0380 
 13 C       -8.4960     1.1080    -3.1050 C.2   1 <1>   0.5690 
 14 O       -8.3290     0.0410    -3.6520 O.2   1 <1>  -0.5700 
 15 N       -9.7420     1.6670    -2.9570 N.am  1 <1>  -0.6600 
 16 C      -10.0210     2.8610    -2.0940 C.3   1 <1>   0.1400 
 17 C      -10.9510     0.8750    -3.3010 C.3   1 <1>   0.1400 
 18 C      -11.2760     2.6590    -1.2310 C.3   1 <1>  -0.1600 
 19 C      -11.5790     0.2960    -2.0200 C.3   1 <1>  -0.1600 
 20 C      -11.4250     1.1960    -0.7690 C.3   1 <1>   0.2800 
 21 O      -10.2220     0.8070    -0.1590 O.3   1 <1>  -0.5600 
 22 C      -12.5990     1.0260     0.2290 C.3   1 <1>  -0.1600 
 23 C      -10.0230     1.1690     1.1730 C.3   1 <1>   0.1200 
 24 C      -12.2980     0.0190     1.3470 C.3   1 <1>   0.2800 
 25 C      -10.9790     0.3640     2.0620 C.3   1 <1>  -0.1600 
 26 O      -13.3160     0.1190     2.2660 O.3   1 <1>  -0.6800 
 27 C      -12.3190    -1.4320     0.8630 C.3   1 <1>  -0.2400 
 28 H       -7.3060    -2.7940     3.5660 H     1 <1>   0.1500 
 29 H       -3.9320    -0.2420     1.4450 H     1 <1>   0.0800 
 30 H       -4.9720     1.1640     1.4520 H     1 <1>   0.0800 
 31 H       -4.6130     0.3290    -0.0380 H     1 <1>   0.0800 
 32 H       -9.0870    -2.9940     1.8560 H     1 <1>   0.1500 
 33 H       -7.3770    -0.6190    -1.7420 H     1 <1>   0.3700 
 34 H       -8.9180    -1.6910    -0.2170 H     1 <1>   0.1500 
 35 H       -6.4060     1.4730    -3.1370 H     1 <1>   0.0800 
 36 H       -7.3320     2.8310    -2.5800 H     1 <1>   0.0800 
 37 H      -10.1350     3.7330    -2.7130 H     1 <1>   0.0800 
 38 H       -9.1980     3.0310    -1.4240 H     1 <1>   0.0800 
 39 H      -10.7130     0.0790    -3.9860 H     1 <1>   0.0800 
 40 H      -11.6550     1.5250    -3.7920 H     1 <1>   0.0800 
 41 H      -12.1440     2.9380    -1.8010 H     1 <1>   0.0800 
 42 H      -11.2330     3.3270    -0.3900 H     1 <1>   0.0800 
 43 H      -11.1390    -0.6650    -1.8270 H     1 <1>   0.0800 
 44 H      -12.6180     0.1260    -2.2330 H     1 <1>   0.0800 
 45 H      -13.4990     0.7470    -0.2880 H     1 <1>   0.0800 
 46 H      -12.7930     1.9790     0.6860 H     1 <1>   0.0800 
 47 H      -10.1890     2.2270     1.2750 H     1 <1>   0.0800 
 48 H       -8.9980     0.9610     1.4260 H     1 <1>   0.0800 
 49 H      -11.1580     0.9370     2.9530 H     1 <1>   0.0800 
 50 H      -10.4800    -0.5390     2.3630 H     1 <1>   0.0800 
 51 H      -13.3240     1.0120     2.6520 H     1 <1>   0.4000 
 52 H      -11.4830    -1.6240     0.2190 H     1 <1>   0.0800 
 53 H      -13.2250    -1.6340     0.3210 H     1 <1>   0.0800 
 54 H      -12.2550    -2.1040     1.7000 H     1 <1>   0.0800 
@<TRIPOS>BOND
  1   1   2  1   
  2   2   3  ar  
  3   2   4  ar  
  4   3   5  ar  
  5   3   6  1   
  6   4   7  ar  
  7   4  28  1   
  8   5   8  1   
  9   5   9  ar  
 10   6  29  1   
 11   6  30  1   
 12   6  31  1   
 13   7   9  ar  
 14   7  32  1   
 15   8  10  am  
 16   8  33  1   
 17   9  34  1   
 18  10  11  2   
 19  10  12  1   
 20  12  13  1   
 21  12  35  1   
 22  12  36  1   
 23  13  14  2   
 24  13  15  am  
 25  15  16  1   
 26  15  17  1   
 27  16  18  1   
 28  16  37  1   
 29  16  38  1   
 30  17  19  1   
 31  17  39  1   
 32  17  40  1   
 33  18  20  1   
 34  18  41  1   
 35  18  42  1   
 36  19  20  1   
 37  19  43  1   
 38  19  44  1   
 39  20  21  1   
 40  20  22  1   
 41  21  23  1   
 42  22  24  1   
 43  22  45  1   
 44  22  46  1   
 45  23  25  1   
 46  23  47  1   
 47  23  48  1   
 48  24  25  1   
 49  24  26  1   
 50  24  27  1   
 51  25  49  1   
 52  25  50  1   
 53  26  51  1   
 54  27  52  1   
 55  27  53  1   
 56  27  54  1   
@<TRIPOS>SUBSTRUCTURE
  1 ****  21 GROUP 4 **** **** 0

# MOE 2024.06 (io_trps.svl 2023.06)
