@<TRIPOS>MOLECULE
NONAME
40 42 1 0 0 
SMALL
USER_CHARGES


@<TRIPOS>ATOM
  1 O       -0.2780     0.2190    -0.0080 O.2   1 <1>  -0.5700 
  2 C       -1.2960     0.8550     0.1760 C.2   1 <1>   0.5440 
  3 N       -2.4860     0.1800     0.3170 N.am  1 <1>  -0.6600 
  4 C       -1.2410     2.2990     0.2330 C.ar  1 <1>   0.0860 
  5 C       -3.8290     0.7700     0.0800 C.3   1 <1>   0.1400 
  6 C       -2.5580    -1.3030     0.2840 C.3   1 <1>   0.1400 
  7 C       -1.8180     2.9920     1.2970 C.ar  1 <1>   0.1600 
  8 C       -0.6220     3.0490    -0.7550 C.ar  1 <1>  -0.1500 
  9 C       -4.6930    -0.4030    -0.3770 C.3   1 <1>   0.2000 
 10 C       -4.0500    -1.6370     0.2480 C.3   1 <1>  -0.0800 
 11 N       -1.8560     4.3090     1.4400 N.ar  1 <1>  -0.6200 
 12 C       -0.6410     4.4200    -0.6290 C.ar  1 <1>   0.0830 
 13 O       -6.0030    -0.2700     0.0540 O.3   1 <1>  -0.6800 
 14 C       -4.3710    -2.9370    -0.5040 C.3   1 <1>   0.0210 
 15 C       -1.2650     4.9950     0.4730 C.ar  1 <1>   0.1600 
 16 O       -0.0540     5.1670    -1.5820 O.3   1 <1>  -0.5320 
 17 C       -3.6270    -4.1100     0.1030 C.2   1 <1>   0.1080 
 18 N       -3.8140    -4.5050     1.3240 N.2   1 <1>  -0.7070 
 19 C       -2.6710    -4.8740    -0.5570 C.2   1 <1>  -0.1500 
 20 N       -2.9740    -5.5460     1.4760 N.pl3 1 <1>   0.3000 
 21 C       -2.2690    -5.7880     0.3510 C.2   1 <1>  -0.3320 
 22 C       -1.2380    -6.8920     0.2110 C.3   1 <1>  -0.0600 
 23 H       -4.2030     1.1800     1.0020 H     1 <1>   0.0800 
 24 H       -3.7870     1.5320    -0.6800 H     1 <1>   0.0800 
 25 H       -2.0600    -1.6600    -0.6020 H     1 <1>   0.0800 
 26 H       -2.0820    -1.7290     1.1520 H     1 <1>   0.0800 
 27 H       -2.2780     2.4100     2.0770 H     1 <1>   0.1500 
 28 H       -0.1420     2.5730    -1.5920 H     1 <1>   0.1500 
 29 H       -4.6910    -0.4580    -1.4520 H     1 <1>   0.0800 
 30 H       -4.3740    -1.7350     1.2700 H     1 <1>   0.0800 
 31 H       -6.0560    -0.3930     1.0210 H     1 <1>   0.4000 
 32 H       -4.1020    -2.8410    -1.5400 H     1 <1>   0.0800 
 33 H       -5.4270    -3.1330    -0.4480 H     1 <1>   0.0800 
 34 H       -1.2770     6.0670     0.5640 H     1 <1>   0.1500 
 35 H       -0.0840     6.1280    -1.4190 H     1 <1>   0.4500 
 36 H       -2.3400    -4.7430    -1.5720 H     1 <1>   0.1500 
 37 H       -2.9060    -6.0690     2.3570 H     1 <1>   0.2700 
 38 H       -0.8140    -6.8790    -0.7780 H     1 <1>   0.0800 
 39 H       -1.6950    -7.8520     0.3760 H     1 <1>   0.0800 
 40 H       -0.4440    -6.7530     0.9240 H     1 <1>   0.0800 
@<TRIPOS>BOND
  1   1   2  2   
  2   2   3  am  
  3   2   4  1   
  4   3   5  1   
  5   3   6  1   
  6   4   7  ar  
  7   4   8  ar  
  8   5   9  1   
  9   5  23  1   
 10   5  24  1   
 11   6  10  1   
 12   6  25  1   
 13   6  26  1   
 14   7  11  ar  
 15   7  27  1   
 16   8  12  ar  
 17   8  28  1   
 18   9  10  1   
 19   9  13  1   
 20   9  29  1   
 21  10  14  1   
 22  10  30  1   
 23  11  15  ar  
 24  12  15  ar  
 25  12  16  1   
 26  13  31  1   
 27  14  17  1   
 28  14  32  1   
 29  14  33  1   
 30  15  34  1   
 31  16  35  1   
 32  17  18  2   
 33  17  19  1   
 34  18  20  1   
 35  19  21  2   
 36  19  36  1   
 37  20  21  1   
 38  20  37  1   
 39  21  22  1   
 40  22  38  1   
 41  22  39  1   
 42  22  40  1   
@<TRIPOS>SUBSTRUCTURE
  1 ****   3 GROUP 4 **** **** 0

# MOE 2024.06 (io_trps.svl 2023.06)
