@<TRIPOS>MOLECULE
NONAME
67 71 1 0 0 
SMALL
USER_CHARGES


@<TRIPOS>ATOM
  1 O       -0.6980    -0.4120     0.0310 O.2   1 <1>  -0.5700 
  2 C       -0.5660    -1.6100     0.2050 C.2   1 <1>   0.5440 
  3 N       -1.5980    -2.5060     0.1000 N.am  1 <1>  -0.6600 
  4 C        0.6500    -2.2890     0.5440 C.ar  1 <1>   0.0860 
  5 C       -3.0230    -2.1740    -0.2130 C.3   1 <1>   0.3000 
  6 C       -1.0910    -3.8850     0.3860 C.3   1 <1>   0.2840 
  7 C        0.3820    -3.6380     0.6600 C.ar  1 <1>  -0.1440 
  8 C        1.9420    -1.8220     0.7530 C.ar  1 <1>  -0.1500 
  9 C       -3.5310    -1.2820     0.9620 C.3   1 <1>  -0.1600 
 10 C       -3.0210    -1.5370    -1.6380 C.3   1 <1>  -0.1600 
 11 C       -3.8980    -3.4520    -0.2590 C.3   1 <1>  -0.0990 
 12 C        1.3750    -4.5440     0.9820 C.ar  1 <1>  -0.1500 
 13 C        2.9450    -2.7210     1.0760 C.ar  1 <1>  -0.1500 
 14 C       -3.6040     0.2040     0.6570 C.3   1 <1>   0.3430 
 15 C       -3.1660    -0.0230    -1.6740 C.3   1 <1>   0.3430 
 16 C       -5.3740    -3.2060    -0.5620 C.2   1 <1>   0.5690 
 17 C        2.6640    -4.0760     1.1900 C.ar  1 <1>  -0.1500 
 18 N       -4.1930     0.3620    -0.6900 N.4   1 <1>  -0.9590 
 19 O       -5.7940    -2.0900    -0.7880 O.2   1 <1>  -0.5700 
 20 N       -6.1890    -4.2800    -0.5620 N.am  1 <1>  -0.7300 
 21 C       -4.7400     1.7180    -0.9200 C.3   1 <1>   0.4860 
 22 C       -7.6590    -4.2850    -0.7440 C.3   1 <1>   0.1400 
 23 C       -5.8660     1.9610     0.0670 C.ar  1 <1>  -0.1430 
 24 C       -8.2930    -5.2790     0.2420 C.3   1 <1>   0.2000 
 25 C       -7.0220     1.1940     0.0190 C.ar  1 <1>  -0.1500 
 26 C       -5.7410     2.9460     1.0370 C.ar  1 <1>  -0.1500 
 27 O       -7.5410    -6.4560     0.2870 O.3   1 <1>  -0.5600 
 28 C       -9.6970    -5.7310    -0.1310 C.3   1 <1>  -0.1600 
 29 C       -8.0380     1.4070     0.9330 C.ar  1 <1>  -0.1500 
 30 C       -6.7580     3.1570     1.9500 C.ar  1 <1>  -0.1500 
 31 C       -8.3360    -7.5420     0.6550 C.3   1 <1>   0.1200 
 32 C       -9.7900    -7.0850     0.5460 C.3   1 <1>  -0.1600 
 33 C       -7.9070     2.3880     1.8990 C.ar  1 <1>  -0.1500 
 34 H       -1.2170    -4.5260    -0.4690 H     1 <1>   0.0800 
 35 H       -1.5740    -4.3000     1.2540 H     1 <1>   0.0800 
 36 H        2.1480    -0.7700     0.6610 H     1 <1>   0.1500 
 37 H       -2.9100    -1.4190     1.8300 H     1 <1>   0.0800 
 38 H       -4.5150    -1.5700     1.2800 H     1 <1>   0.0800 
 39 H       -3.8130    -1.9300    -2.2460 H     1 <1>   0.0800 
 40 H       -2.1190    -1.8010    -2.1620 H     1 <1>   0.0800 
 41 H       -3.8520    -3.9530     0.6900 H     1 <1>   0.0800 
 42 H       -3.5250    -4.1160    -1.0170 H     1 <1>   0.0800 
 43 H        1.1600    -5.5950     1.0710 H     1 <1>   0.1500 
 44 H        3.9490    -2.3670     1.2390 H     1 <1>   0.1500 
 45 H       -2.6190     0.6420     0.6850 H     1 <1>   0.0800 
 46 H       -4.2160     0.6880     1.4010 H     1 <1>   0.0800 
 47 H       -3.4550     0.2840    -2.6660 H     1 <1>   0.0800 
 48 H       -2.2260     0.4460    -1.4280 H     1 <1>   0.0800 
 49 H        3.4520    -4.7650     1.4420 H     1 <1>   0.1500 
 50 H       -4.9820    -0.3130    -0.7550 H     1 <1>   0.4500 
 51 H       -5.8490    -5.2190    -0.3150 H     1 <1>   0.3700 
 52 H       -5.1260     1.7950    -1.9230 H     1 <1>   0.0800 
 53 H       -3.9670     2.4580    -0.7900 H     1 <1>   0.0800 
 54 H       -7.8820    -4.5850    -1.7530 H     1 <1>   0.0800 
 55 H       -8.0630    -3.3000    -0.5870 H     1 <1>   0.0800 
 56 H       -8.2930    -4.8630     1.2350 H     1 <1>   0.0800 
 57 H       -7.1470     0.4240    -0.7250 H     1 <1>   0.1500 
 58 H       -4.8570     3.5580     1.0940 H     1 <1>   0.1500 
 59 H       -9.7760    -5.8460    -1.1980 H     1 <1>   0.0800 
 60 H      -10.4480    -5.0420     0.2120 H     1 <1>   0.0800 
 61 H       -8.9340     0.8110     0.8940 H     1 <1>   0.1500 
 62 H       -6.6610     3.9220     2.7020 H     1 <1>   0.1500 
 63 H       -8.0840    -7.8280     1.6620 H     1 <1>   0.0800 
 64 H       -8.1250    -8.3530    -0.0210 H     1 <1>   0.0800 
 65 H      -10.3850    -7.7830    -0.0160 H     1 <1>   0.0800 
 66 H      -10.2050    -6.9870     1.5340 H     1 <1>   0.0800 
 67 H       -8.6980     2.5540     2.6100 H     1 <1>   0.1500 
@<TRIPOS>BOND
  1   1   2  2   
  2   2   3  am  
  3   2   4  1   
  4   3   5  1   
  5   3   6  1   
  6   4   7  ar  
  7   4   8  ar  
  8   5   9  1   
  9   5  10  1   
 10   5  11  1   
 11   6   7  1   
 12   6  34  1   
 13   6  35  1   
 14   7  12  ar  
 15   8  13  ar  
 16   8  36  1   
 17   9  14  1   
 18   9  37  1   
 19   9  38  1   
 20  10  15  1   
 21  10  39  1   
 22  10  40  1   
 23  11  16  1   
 24  11  41  1   
 25  11  42  1   
 26  12  17  ar  
 27  12  43  1   
 28  13  17  ar  
 29  13  44  1   
 30  14  18  1   
 31  14  45  1   
 32  14  46  1   
 33  15  18  1   
 34  15  47  1   
 35  15  48  1   
 36  16  19  2   
 37  16  20  am  
 38  17  49  1   
 39  18  21  1   
 40  18  50  1   
 41  20  22  1   
 42  20  51  1   
 43  21  23  1   
 44  21  52  1   
 45  21  53  1   
 46  22  24  1   
 47  22  54  1   
 48  22  55  1   
 49  23  25  ar  
 50  23  26  ar  
 51  24  27  1   
 52  24  28  1   
 53  24  56  1   
 54  25  29  ar  
 55  25  57  1   
 56  26  30  ar  
 57  26  58  1   
 58  27  31  1   
 59  28  32  1   
 60  28  59  1   
 61  28  60  1   
 62  29  33  ar  
 63  29  61  1   
 64  30  33  ar  
 65  30  62  1   
 66  31  32  1   
 67  31  63  1   
 68  31  64  1   
 69  32  65  1   
 70  32  66  1   
 71  33  67  1   
@<TRIPOS>SUBSTRUCTURE
  1 ****   5 GROUP 4 **** **** 0

# MOE 2024.06 (io_trps.svl 2023.06)
