@<TRIPOS>MOLECULE
NONAME
51 54 1 0 0 
SMALL
USER_CHARGES


@<TRIPOS>ATOM
  1 O       -0.6130     0.2940    -0.0200 O.2   1 <1>  -0.5700 
  2 C       -1.6620     0.8390     0.2310 C.2   1 <1>   0.5690 
  3 N       -2.8050     0.1040     0.4340 N.am  1 <1>  -0.6600 
  4 C       -1.6820     2.3740     0.2980 C.3   1 <1>  -0.0190 
  5 C       -2.7680    -1.3940     0.4860 C.3   1 <1>   0.1400 
  6 C       -4.2050     0.6320     0.4840 C.3   1 <1>   0.1400 
  7 C       -1.9900     2.9800    -1.0870 C.3   1 <1>  -0.1600 
  8 C       -0.3640     2.9590     0.8530 C.3   1 <1>  -0.1600 
  9 C       -3.7400    -2.0110    -0.5360 C.3   1 <1>   0.3440 
 10 C       -5.1010    -0.0850    -0.5520 C.3   1 <1>   0.2950 
 11 C       -2.0330     4.5160    -1.0380 C.3   1 <1>  -0.1600 
 12 C       -0.4050     4.4950     0.9100 C.3   1 <1>  -0.1600 
 13 O       -5.0250    -1.4680    -0.3720 O.3   1 <1>  -0.5600 
 14 C       -3.7990    -3.5280    -0.3710 C.ar  1 <1>  -0.1440 
 15 C       -6.5910     0.2920    -0.4850 C.3   1 <1>  -0.1950 
 16 C       -0.7290     5.0800    -0.4660 C.3   1 <1>   0.2000 
 17 C       -4.7090    -4.1300     0.4880 C.ar  1 <1>  -0.1500 
 18 C       -2.9170    -4.3280    -1.0840 C.ar  1 <1>  -0.1500 
 19 C       -7.0910     1.6480    -0.0820 C.3   1 <1>  -0.2000 
 20 C       -7.3550     0.4530     0.7930 C.3   1 <1>  -0.2000 
 21 O       -0.8690     6.4430    -0.3360 O.3   1 <1>  -0.6800 
 22 C       -4.7360    -5.5060     0.6330 C.ar  1 <1>  -0.1500 
 23 C       -2.9430    -5.7040    -0.9410 C.ar  1 <1>  -0.1500 
 24 C       -3.8520    -6.2950    -0.0810 C.ar  1 <1>  -0.1500 
 25 H       -2.4540     2.6670     0.9850 H     1 <1>   0.0800 
 26 H       -1.7770    -1.7620     0.2900 H     1 <1>   0.0800 
 27 H       -3.0450    -1.7210     1.4730 H     1 <1>   0.0800 
 28 H       -4.6000     0.4730     1.4710 H     1 <1>   0.0800 
 29 H       -4.2280     1.6850     0.2820 H     1 <1>   0.0800 
 30 H       -1.2270     2.6680    -1.7810 H     1 <1>   0.0800 
 31 H       -2.9310     2.6090    -1.4530 H     1 <1>   0.0800 
 32 H       -0.1830     2.5650     1.8380 H     1 <1>   0.0800 
 33 H        0.4560     2.6540     0.2260 H     1 <1>   0.0800 
 34 H       -3.4070    -1.7790    -1.5330 H     1 <1>   0.0800 
 35 H       -4.7390     0.1420    -1.5410 H     1 <1>   0.0800 
 36 H       -2.8620     4.8240    -0.4270 H     1 <1>   0.0800 
 37 H       -2.1770     4.9000    -2.0330 H     1 <1>   0.0800 
 38 H        0.5530     4.8620     1.2360 H     1 <1>   0.0800 
 39 H       -1.1510     4.7990     1.6230 H     1 <1>   0.0800 
 40 H       -7.1230    -0.1790    -1.2940 H     1 <1>   0.1000 
 41 H        0.0850     4.8970    -1.1480 H     1 <1>   0.0800 
 42 H       -5.4030    -3.5250     1.0470 H     1 <1>   0.1500 
 43 H       -2.2030    -3.8840    -1.7560 H     1 <1>   0.1500 
 44 H       -6.4210     2.4020     0.2910 H     1 <1>   0.1000 
 45 H       -7.9160     2.0730    -0.6280 H     1 <1>   0.1000 
 46 H       -8.3520     0.0500     0.8400 H     1 <1>   0.1000 
 47 H       -6.8420     0.3680     1.7350 H     1 <1>   0.1000 
 48 H       -1.5800     6.6460     0.2990 H     1 <1>   0.4000 
 49 H       -5.4460    -5.9610     1.3010 H     1 <1>   0.1500 
 50 H       -2.2550    -6.3160    -1.4980 H     1 <1>   0.1500 
 51 H       -3.8730    -7.3640     0.0310 H     1 <1>   0.1500 
@<TRIPOS>BOND
  1   1   2  2   
  2   2   3  am  
  3   2   4  1   
  4   3   5  1   
  5   3   6  1   
  6   4   7  1   
  7   4   8  1   
  8   4  25  1   
  9   5   9  1   
 10   5  26  1   
 11   5  27  1   
 12   6  10  1   
 13   6  28  1   
 14   6  29  1   
 15   7  11  1   
 16   7  30  1   
 17   7  31  1   
 18   8  12  1   
 19   8  32  1   
 20   8  33  1   
 21   9  13  1   
 22   9  14  1   
 23   9  34  1   
 24  10  13  1   
 25  10  15  1   
 26  10  35  1   
 27  11  16  1   
 28  11  36  1   
 29  11  37  1   
 30  12  16  1   
 31  12  38  1   
 32  12  39  1   
 33  14  17  ar  
 34  14  18  ar  
 35  15  19  1   
 36  15  20  1   
 37  15  40  1   
 38  16  21  1   
 39  16  41  1   
 40  17  22  ar  
 41  17  42  1   
 42  18  23  ar  
 43  18  43  1   
 44  19  20  1   
 45  19  44  1   
 46  19  45  1   
 47  20  46  1   
 48  20  47  1   
 49  21  48  1   
 50  22  24  ar  
 51  22  49  1   
 52  23  24  ar  
 53  23  50  1   
 54  24  51  1   
@<TRIPOS>SUBSTRUCTURE
  1 ****   3 GROUP 4 **** **** 0

# MOE 2024.06 (io_trps.svl 2023.06)
