@<TRIPOS>MOLECULE
NONAME
48 50 1 0 0 
SMALL
USER_CHARGES


@<TRIPOS>ATOM
  1 O       -1.6070     0.5040    -3.3590 O.2   1 <1>  -0.5700 
  2 C       -2.0000     0.8150    -2.2410 C.2   1 <1>   0.5690 
  3 N       -2.2840    -0.1220    -1.3070 N.am  1 <1>  -0.7300 
  4 C       -2.1780     2.2970    -1.8560 C.3   1 <1>   0.2010 
  5 C       -2.1640    -1.5870    -1.4520 C.3   1 <1>   0.2200 
  6 N       -1.5390     2.6800    -0.5830 N.am  1 <1>  -0.7300 
  7 C       -3.2160    -2.3020    -0.6150 C.3   1 <1>  -0.0800 
  8 C       -0.8800    -2.0630    -0.7830 C.3   1 <1>   0.1200 
  9 C       -2.0110     2.3370     0.6420 C.2   1 <1>   0.5690 
 10 C       -2.5620    -2.3340     0.7700 C.3   1 <1>   0.1200 
 11 C       -4.6190    -1.6560    -0.6210 C.3   1 <1>  -0.0170 
 12 O       -1.1820    -2.2560     0.5690 O.3   1 <1>  -0.5600 
 13 O       -3.0010     1.6590     0.7760 O.2   1 <1>  -0.5700 
 14 C       -1.2550     2.8040     1.8700 C.3   1 <1>  -0.0990 
 15 C       -5.7220    -2.4090     0.1320 C.ar  1 <1>  -0.1440 
 16 C       -1.3870     4.3160     2.1120 C.3   1 <1>  -0.2400 
 17 C       -6.9550    -1.7640     0.4000 C.ar  1 <1>   0.0000 
 18 C       -5.5920    -3.6990     0.5660 C.ar  1 <1>  -0.1500 
 19 C       -7.9430    -2.4870     1.1130 C.ar  1 <1>   0.3100 
 20 C       -7.2720    -0.4430    -0.0020 C.ar  1 <1>  -0.1500 
 21 C       -6.6350    -4.3250     1.2590 C.ar  1 <1>   0.1600 
 22 N       -7.7670    -3.7630     1.5360 N.ar  1 <1>  -0.6200 
 23 C       -9.1700    -1.8670     1.4000 C.ar  1 <1>  -0.1500 
 24 C       -8.4790     0.1310     0.2920 C.ar  1 <1>  -0.1500 
 25 C       -9.4420    -0.5870     1.0040 C.ar  1 <1>  -0.1500 
 26 H       -2.5250     0.2130    -0.3610 H     1 <1>   0.3700 
 27 H       -3.2490     2.4910    -1.7870 H     1 <1>   0.0800 
 28 H       -1.7730     2.9040    -2.6660 H     1 <1>   0.0800 
 29 H       -2.2000    -1.8610    -2.4940 H     1 <1>   0.0800 
 30 H       -0.6870     3.2130    -0.6330 H     1 <1>   0.3700 
 31 H       -3.2850    -3.3090    -0.9860 H     1 <1>   0.0800 
 32 H       -0.0780    -1.3520    -0.8780 H     1 <1>   0.0800 
 33 H       -0.5760    -3.0130    -1.1860 H     1 <1>   0.0800 
 34 H       -2.7850    -3.2360     1.3120 H     1 <1>   0.0800 
 35 H       -2.8500    -1.4790     1.3570 H     1 <1>   0.0800 
 36 H       -4.9350    -1.5280    -1.6420 H     1 <1>   0.0800 
 37 H       -4.5340    -0.6790    -0.1810 H     1 <1>   0.0800 
 38 H       -1.6360     2.2740     2.7260 H     1 <1>   0.0800 
 39 H       -0.2180     2.5400     1.7610 H     1 <1>   0.0800 
 40 H       -2.4240     4.5800     2.2330 H     1 <1>   0.0800 
 41 H       -0.9840     4.8710     1.2840 H     1 <1>   0.0800 
 42 H       -0.8560     4.5950     3.0050 H     1 <1>   0.0800 
 43 H       -4.7080    -4.2840     0.4020 H     1 <1>   0.1500 
 44 H       -6.5530     0.1320    -0.5530 H     1 <1>   0.1500 
 45 H       -6.4840    -5.3400     1.5840 H     1 <1>   0.1500 
 46 H       -9.8940    -2.4410     1.9480 H     1 <1>   0.1500 
 47 H       -8.7010     1.1370    -0.0190 H     1 <1>   0.1500 
 48 H      -10.3880    -0.1250     1.2310 H     1 <1>   0.1500 
@<TRIPOS>BOND
  1   1   2  2   
  2   2   3  am  
  3   2   4  1   
  4   3   5  1   
  5   3  26  1   
  6   4   6  1   
  7   4  27  1   
  8   4  28  1   
  9   5   7  1   
 10   5   8  1   
 11   5  29  1   
 12   6   9  am  
 13   6  30  1   
 14   7  10  1   
 15   7  11  1   
 16   7  31  1   
 17   8  12  1   
 18   8  32  1   
 19   8  33  1   
 20   9  13  2   
 21   9  14  1   
 22  10  12  1   
 23  10  34  1   
 24  10  35  1   
 25  11  15  1   
 26  11  36  1   
 27  11  37  1   
 28  14  16  1   
 29  14  38  1   
 30  14  39  1   
 31  15  17  ar  
 32  15  18  ar  
 33  16  40  1   
 34  16  41  1   
 35  16  42  1   
 36  17  19  ar  
 37  17  20  ar  
 38  18  21  ar  
 39  18  43  1   
 40  19  22  ar  
 41  19  23  ar  
 42  20  24  ar  
 43  20  44  1   
 44  21  22  ar  
 45  21  45  1   
 46  23  25  ar  
 47  23  46  1   
 48  24  25  ar  
 49  24  47  1   
 50  25  48  1   
@<TRIPOS>SUBSTRUCTURE
  1 ****  11 GROUP 4 **** **** 0

# MOE 2024.06 (io_trps.svl 2023.06)
