@<TRIPOS>MOLECULE
NONAME
40 41 1 0 0 
SMALL
USER_CHARGES


@<TRIPOS>ATOM
  1 N        0.3670     0.1260    -0.7740 N.pl3 1 <1>  -0.7000 
  2 C        1.3510    -0.5110    -0.1630 C.cat 1 <1>   0.6560 
  3 C       -0.6560    -0.7550    -0.9900 C.2   1 <1>   0.2000 
  4 N        1.0070    -1.7850     0.0320 N.pl3 1 <1>  -0.7640 
  5 C        2.6710     0.1840     0.2200 C.3   1 <1>   0.2540 
  6 C       -0.2600    -1.9450    -0.4900 C.2   1 <1>   0.2000 
  7 C        1.7890    -2.8700     0.6680 C.3   1 <1>   0.3540 
  8 N        2.5510     1.6690     0.2110 N.3   1 <1>  -0.8100 
  9 C        2.5500    -3.6280    -0.4130 C.3   1 <1>  -0.2400 
 10 C        3.8520     2.3310     0.0080 C.3   1 <1>   0.2900 
 11 C        1.8970     2.1700     1.4380 C.3   1 <1>   0.0300 
 12 C        3.6430     3.7580    -0.4640 C.2   1 <1>  -0.3320 
 13 N        4.5910     4.7200    -0.4310 N.pl3 1 <1>   0.0480 
 14 C        2.5420     4.3330    -1.0010 C.2   1 <1>   0.0770 
 15 C        3.9880     5.8140    -0.9490 C.2   1 <1>   0.0360 
 16 C        5.9850     4.6460     0.0550 C.3   1 <1>   0.0960 
 17 N        2.7590     5.6250    -1.3020 N.2   1 <1>  -0.5650 
 18 C        6.9060     4.0700    -1.0240 C.3   1 <1>  -0.2400 
 19 H        0.4380     1.1250    -1.0080 H     1 <1>   0.4500 
 20 H       -1.5810    -0.4880    -1.4760 H     1 <1>   0.1500 
 21 H        3.4050    -0.1210    -0.5040 H     1 <1>   0.0800 
 22 H        2.9950    -0.1520     1.1890 H     1 <1>   0.0800 
 23 H       -0.7960    -2.8810    -0.4760 H     1 <1>   0.1500 
 24 H        1.1240    -3.5400     1.1880 H     1 <1>   0.0800 
 25 H        2.4790    -2.4600     1.3860 H     1 <1>   0.0800 
 26 H        1.8670    -4.0670    -1.1180 H     1 <1>   0.0800 
 27 H        3.1230    -4.4200     0.0360 H     1 <1>   0.0800 
 28 H        3.2270    -2.9740    -0.9330 H     1 <1>   0.0800 
 29 H        4.4180     1.8140    -0.7490 H     1 <1>   0.0800 
 30 H        4.4160     2.3170     0.9250 H     1 <1>   0.0800 
 31 H        0.9240     1.7260     1.5590 H     1 <1>   0.0800 
 32 H        1.7680     3.2390     1.3840 H     1 <1>   0.0800 
 33 H        2.4930     1.9450     2.3070 H     1 <1>   0.0800 
 34 H        1.5880     3.8740    -1.1910 H     1 <1>   0.1500 
 35 H        4.5020     6.7530    -1.0530 H     1 <1>   0.1500 
 36 H        6.0160     4.0350     0.9390 H     1 <1>   0.0800 
 37 H        6.3100     5.6370     0.3200 H     1 <1>   0.0800 
 38 H        6.6040     3.0730    -1.2890 H     1 <1>   0.0800 
 39 H        7.9180     4.0340    -0.6600 H     1 <1>   0.0800 
 40 H        6.8840     4.6910    -1.9030 H     1 <1>   0.0800 
@<TRIPOS>BOND
  1   1   2  ar  
  2   1   3  1   
  3   1  19  1   
  4   2   4  ar  
  5   2   5  1   
  6   3   6  2   
  7   3  20  1   
  8   4   6  1   
  9   4   7  1   
 10   5   8  1   
 11   5  21  1   
 12   5  22  1   
 13   6  23  1   
 14   7   9  1   
 15   7  24  1   
 16   7  25  1   
 17   8  10  1   
 18   8  11  1   
 19   9  26  1   
 20   9  27  1   
 21   9  28  1   
 22  10  12  1   
 23  10  29  1   
 24  10  30  1   
 25  11  31  1   
 26  11  32  1   
 27  11  33  1   
 28  12  13  1   
 29  12  14  2   
 30  13  15  1   
 31  13  16  1   
 32  14  17  1   
 33  14  34  1   
 34  15  17  2   
 35  15  35  1   
 36  16  18  1   
 37  16  36  1   
 38  16  37  1   
 39  18  38  1   
 40  18  39  1   
 41  18  40  1   
@<TRIPOS>SUBSTRUCTURE
  1 ****   8 GROUP 4 **** **** 0

# MOE 2024.06 (io_trps.svl 2023.06)
