@<TRIPOS>MOLECULE
NONAME
53 56 1 0 0 
SMALL
USER_CHARGES


@<TRIPOS>ATOM
  1 O       -1.8660     0.7220     2.6270 O.2   1 <1>  -0.5700 
  2 C       -2.3330     1.1470     1.5950 C.2   1 <1>   0.5690 
  3 N       -3.1490     0.3570     0.8230 N.am  1 <1>  -0.6600 
  4 C       -2.0210     2.6010     1.1930 C.3   1 <1>   0.1710 
  5 C       -3.9080     0.7500    -0.3930 C.3   1 <1>   0.1400 
  6 C       -3.4350    -1.0590     1.1730 C.3   1 <1>   0.1400 
  7 N       -0.7550     2.8360     0.4350 N.3   1 <1>  -0.8100 
  8 C       -4.9150    -0.3810    -0.6060 C.3   1 <1>   0.2000 
  9 C       -4.2360    -1.6160    -0.0110 C.3   1 <1>  -0.0800 
 10 C       -0.5880     4.2760     0.1630 C.3   1 <1>   0.2530 
 11 C       -0.6730     2.0250    -0.7970 C.3   1 <1>   0.1100 
 12 O       -6.0460    -0.1000     0.1440 O.3   1 <1>  -0.6800 
 13 C       -3.3160    -2.2920    -1.0460 C.3   1 <1>   0.0210 
 14 C        0.8660     4.6610    -0.0690 C.ar  1 <1>  -0.1440 
 15 C        0.7120     2.0400    -1.4580 C.3   1 <1>   0.1200 
 16 C       -2.6570    -3.5310    -0.4740 C.2   1 <1>   0.1080 
 17 C        1.5640     4.1910    -1.1740 C.ar  1 <1>   0.0820 
 18 C        1.5040     5.5290     0.8060 C.ar  1 <1>  -0.1500 
 19 O        1.0050     3.3030    -2.0180 O.3   1 <1>  -0.3630 
 20 N       -3.3140    -4.6220    -0.2330 N.2   1 <1>  -0.7070 
 21 C       -1.3110    -3.6430    -0.1420 C.2   1 <1>  -0.1500 
 22 C        2.8600     4.6130    -1.4250 C.ar  1 <1>  -0.1500 
 23 C        2.8060     5.9390     0.5660 C.ar  1 <1>  -0.1500 
 24 N       -2.3940    -5.4700     0.2640 N.pl3 1 <1>   0.3000 
 25 C       -1.1730    -4.8990     0.3300 C.2   1 <1>  -0.3320 
 26 C        3.4830     5.4870    -0.5540 C.ar  1 <1>  -0.1500 
 27 C        0.0690    -5.5990     0.8500 C.3   1 <1>  -0.0600 
 28 H       -1.9670     3.1590     2.1100 H     1 <1>   0.0800 
 29 H       -2.8480     2.9940     0.6330 H     1 <1>   0.0800 
 30 H       -4.4040     1.6970    -0.2740 H     1 <1>   0.0800 
 31 H       -3.2350     0.7950    -1.2300 H     1 <1>   0.0800 
 32 H       -2.5210    -1.6000     1.3520 H     1 <1>   0.0800 
 33 H       -4.0290    -1.0840     2.0700 H     1 <1>   0.0800 
 34 H       -5.2140    -0.4970    -1.6340 H     1 <1>   0.0800 
 35 H       -4.9610    -2.3410     0.3180 H     1 <1>   0.0800 
 36 H       -1.1710     4.5590    -0.6970 H     1 <1>   0.0800 
 37 H       -0.9510     4.8420     1.0030 H     1 <1>   0.0800 
 38 H       -0.8750     0.9990    -0.5470 H     1 <1>   0.0800 
 39 H       -1.4120     2.3470    -1.5100 H     1 <1>   0.0800 
 40 H       -5.7910     0.0130     1.0810 H     1 <1>   0.4000 
 41 H       -2.5540    -1.6110    -1.3790 H     1 <1>   0.0800 
 42 H       -3.8960    -2.5900    -1.9010 H     1 <1>   0.0800 
 43 H        0.7360     1.3280    -2.2620 H     1 <1>   0.0800 
 44 H        1.4750     1.7830    -0.7440 H     1 <1>   0.0800 
 45 H        0.9910     5.8950     1.6770 H     1 <1>   0.1500 
 46 H       -0.5640    -2.8760    -0.2450 H     1 <1>   0.1500 
 47 H        3.3720     4.2490    -2.2960 H     1 <1>   0.1500 
 48 H        3.2910     6.6120     1.2510 H     1 <1>   0.1500 
 49 H       -2.6320    -6.4280     0.5490 H     1 <1>   0.2700 
 50 H        4.4910     5.8120    -0.7440 H     1 <1>   0.1500 
 51 H        0.9150    -4.9360     0.8000 H     1 <1>   0.0800 
 52 H        0.2820    -6.4710     0.2580 H     1 <1>   0.0800 
 53 H       -0.0730    -5.8950     1.8750 H     1 <1>   0.0800 
@<TRIPOS>BOND
  1   1   2  2   
  2   2   3  am  
  3   2   4  1   
  4   3   5  1   
  5   3   6  1   
  6   4   7  1   
  7   4  28  1   
  8   4  29  1   
  9   5   8  1   
 10   5  30  1   
 11   5  31  1   
 12   6   9  1   
 13   6  32  1   
 14   6  33  1   
 15   7  10  1   
 16   7  11  1   
 17   8   9  1   
 18   8  12  1   
 19   8  34  1   
 20   9  13  1   
 21   9  35  1   
 22  10  14  1   
 23  10  36  1   
 24  10  37  1   
 25  11  15  1   
 26  11  38  1   
 27  11  39  1   
 28  12  40  1   
 29  13  16  1   
 30  13  41  1   
 31  13  42  1   
 32  14  17  ar  
 33  14  18  ar  
 34  15  19  1   
 35  15  43  1   
 36  15  44  1   
 37  16  20  2   
 38  16  21  1   
 39  17  19  1   
 40  17  22  ar  
 41  18  23  ar  
 42  18  45  1   
 43  20  24  1   
 44  21  25  2   
 45  21  46  1   
 46  22  26  ar  
 47  22  47  1   
 48  23  26  ar  
 49  23  48  1   
 50  24  25  1   
 51  24  49  1   
 52  25  27  1   
 53  26  50  1   
 54  27  51  1   
 55  27  52  1   
 56  27  53  1   
@<TRIPOS>SUBSTRUCTURE
  1 ****  11 GROUP 4 **** **** 0

# MOE 2024.06 (io_trps.svl 2023.06)
