@<TRIPOS>MOLECULE
NONAME
54 56 1 0 0 
SMALL
USER_CHARGES


@<TRIPOS>ATOM
  1 O       -0.2790     0.0950     0.5390 O.2   1 <1>  -0.5700 
  2 C       -1.2770     0.7800     0.6460 C.2   1 <1>   0.7160 
  3 N       -2.4800     0.1730     0.9320 N.am  1 <1>  -0.6600 
  4 C       -1.1990     2.2020     0.4390 C.2   1 <1>  -0.0860 
  5 C       -2.5780    -1.2840     1.2590 C.3   1 <1>   0.1400 
  6 C       -3.8000     0.7670     0.5600 C.3   1 <1>   0.1400 
  7 C       -0.7070     2.8600    -0.6770 C.2   1 <1>   0.1080 
  8 C       -1.5820     3.2410     1.2100 C.2   1 <1>  -0.0400 
  9 C       -3.3380    -2.0440     0.1570 C.3   1 <1>   0.3440 
 10 C       -4.4900    -0.0890    -0.5290 C.3   1 <1>   0.2000 
 11 N       -0.8260     4.1270    -0.5380 N.2   1 <1>  -0.4100 
 12 C       -0.1140     2.1990    -1.9100 C.3   1 <1>   0.0210 
 13 O       -1.3670     4.3960     0.6290 O.3   1 <1>  -0.0190 
 14 C       -2.1930     3.2420     2.5970 C.3   1 <1>  -0.0600 
 15 O       -4.5730    -1.4210    -0.0890 O.3   1 <1>  -0.5600 
 16 C       -3.5680    -3.4950     0.5670 C.ar  1 <1>  -0.1430 
 17 C       -5.9070     0.4060    -0.9460 C.3   1 <1>   0.0000 
 18 C       -1.1940     1.5220    -2.7620 C.3   1 <1>  -0.2400 
 19 C       -4.6960    -3.8780     1.2800 C.ar  1 <1>  -0.1500 
 20 C       -2.6250    -4.4570     0.2340 C.ar  1 <1>  -0.1500 
 21 C       -6.9070     0.3620     0.2260 C.3   1 <1>  -0.2400 
 22 C       -6.4500    -0.4880    -2.0760 C.3   1 <1>  -0.2400 
 23 C       -5.8470     1.8490    -1.4830 C.3   1 <1>  -0.2400 
 24 C       -4.8780    -5.1980     1.6550 C.ar  1 <1>  -0.1500 
 25 C       -2.8050    -5.7780     0.6080 C.ar  1 <1>  -0.1500 
 26 C       -3.9320    -6.1490     1.3190 C.ar  1 <1>  -0.1500 
 27 H       -1.6020    -1.7200     1.3790 H     1 <1>   0.0800 
 28 H       -3.1030    -1.4040     2.1900 H     1 <1>   0.0800 
 29 H       -4.4220     0.8100     1.4360 H     1 <1>   0.0800 
 30 H       -3.6730     1.7680     0.1930 H     1 <1>   0.0800 
 31 H       -2.7690    -2.0200    -0.7560 H     1 <1>   0.0800 
 32 H       -3.8690    -0.0800    -1.4080 H     1 <1>   0.0800 
 33 H        0.3860     2.9480    -2.4990 H     1 <1>   0.0800 
 34 H        0.6230     1.4760    -1.6080 H     1 <1>   0.0800 
 35 H       -2.2890     2.2400     2.9720 H     1 <1>   0.0800 
 36 H       -3.1650     3.7000     2.5670 H     1 <1>   0.0800 
 37 H       -1.5660     3.8030     3.2670 H     1 <1>   0.0800 
 38 H       -1.9450     2.2390    -3.0430 H     1 <1>   0.0800 
 39 H       -1.6590     0.7230    -2.2140 H     1 <1>   0.0800 
 40 H       -0.7540     1.1150    -3.6550 H     1 <1>   0.0800 
 41 H       -5.4410    -3.1460     1.5430 H     1 <1>   0.1500 
 42 H       -1.7420    -4.1840    -0.3190 H     1 <1>   0.1500 
 43 H       -7.8890     0.6460    -0.1080 H     1 <1>   0.0800 
 44 H       -6.6180     1.0330     1.0130 H     1 <1>   0.0800 
 45 H       -6.9660    -0.6330     0.6300 H     1 <1>   0.0800 
 46 H       -7.4160    -0.1470    -2.4050 H     1 <1>   0.0800 
 47 H       -6.5540    -1.5040    -1.7380 H     1 <1>   0.0800 
 48 H       -5.7830    -0.4810    -2.9190 H     1 <1>   0.0800 
 49 H       -6.8080     2.1460    -1.8650 H     1 <1>   0.0800 
 50 H       -5.1310     1.9260    -2.2820 H     1 <1>   0.0800 
 51 H       -5.5760     2.5450    -0.7100 H     1 <1>   0.0800 
 52 H       -5.7570    -5.4830     2.2060 H     1 <1>   0.1500 
 53 H       -2.0680    -6.5170     0.3450 H     1 <1>   0.1500 
 54 H       -4.0730    -7.1760     1.6100 H     1 <1>   0.1500 
@<TRIPOS>BOND
  1   1   2  2   
  2   2   3  am  
  3   2   4  1   
  4   3   5  1   
  5   3   6  1   
  6   4   7  1   
  7   4   8  2   
  8   5   9  1   
  9   5  27  1   
 10   5  28  1   
 11   6  10  1   
 12   6  29  1   
 13   6  30  1   
 14   7  11  2   
 15   7  12  1   
 16   8  13  1   
 17   8  14  1   
 18   9  15  1   
 19   9  16  1   
 20   9  31  1   
 21  10  15  1   
 22  10  17  1   
 23  10  32  1   
 24  11  13  1   
 25  12  18  1   
 26  12  33  1   
 27  12  34  1   
 28  14  35  1   
 29  14  36  1   
 30  14  37  1   
 31  16  19  ar  
 32  16  20  ar  
 33  17  21  1   
 34  17  22  1   
 35  17  23  1   
 36  18  38  1   
 37  18  39  1   
 38  18  40  1   
 39  19  24  ar  
 40  19  41  1   
 41  20  25  ar  
 42  20  42  1   
 43  21  43  1   
 44  21  44  1   
 45  21  45  1   
 46  22  46  1   
 47  22  47  1   
 48  22  48  1   
 49  23  49  1   
 50  23  50  1   
 51  23  51  1   
 52  24  26  ar  
 53  24  52  1   
 54  25  26  ar  
 55  25  53  1   
 56  26  54  1   
@<TRIPOS>SUBSTRUCTURE
  1 ****   3 GROUP 4 **** **** 0

# MOE 2024.06 (io_trps.svl 2023.06)
