@<TRIPOS>MOLECULE
NONAME
46 48 1 0 0 
SMALL
USER_CHARGES


@<TRIPOS>ATOM
  1 S        0.0880    -0.1400    -0.0150 S.o2  1 <1>   1.0900 
  2 O        1.5120     0.1020    -0.0200 O.2   1 <1>  -0.6500 
  3 O       -0.8220     0.9590    -0.2440 O.2   1 <1>  -0.6500 
  4 C       -0.2470    -1.4360    -1.2140 C.3   1 <1>   0.0890 
  5 C       -0.3280    -0.8760     1.5570 C.3   1 <1>  -0.1350 
  6 C       -1.5970    -2.1150    -1.0230 C.ar  1 <1>  -0.1440 
  7 C       -1.6780    -3.4400    -0.6270 C.ar  1 <1>   0.1600 
  8 C       -2.7720    -1.4170    -1.2270 C.ar  1 <1>  -0.1500 
  9 N       -2.8010    -4.1000    -0.4160 N.ar  1 <1>  -0.6200 
 10 C       -3.9480    -2.0980    -1.0160 C.ar  1 <1>  -0.1500 
 11 C       -3.9340    -3.4360    -0.6190 C.ar  1 <1>   0.4100 
 12 N       -5.1140    -4.1360    -0.3970 N.pl3 1 <1>  -0.8380 
 13 C       -6.4170    -3.7270    -0.9870 C.3   1 <1>   0.2090 
 14 C       -5.1100    -5.6230    -0.2360 C.3   1 <1>   0.2090 
 15 C       -7.3770    -4.8500    -0.5980 C.3   1 <1>   0.2000 
 16 C       -6.4990    -6.0980    -0.6770 C.3   1 <1>  -0.0800 
 17 O       -7.7620    -4.6380     0.7190 O.3   1 <1>  -0.6800 
 18 C       -7.0170    -7.3180     0.1060 C.3   1 <1>   0.0210 
 19 C       -6.1020    -8.5110    -0.0880 C.2   1 <1>   0.1080 
 20 N       -6.0060    -9.1460    -1.2150 N.2   1 <1>  -0.7070 
 21 C       -5.2720    -9.0460     0.8900 C.2   1 <1>  -0.1500 
 22 N       -5.1000   -10.1140    -0.9820 N.pl3 1 <1>   0.3000 
 23 C       -4.6400   -10.0740     0.2860 C.2   1 <1>  -0.3320 
 24 C       -3.6080   -11.0330     0.8510 C.3   1 <1>  -0.0600 
 25 H       -0.2050    -1.0200    -2.2020 H     1 <1>   0.0800 
 26 H        0.5270    -2.1770    -1.1520 H     1 <1>   0.0800 
 27 H        0.2570    -1.7580     1.7310 H     1 <1>   0.0800 
 28 H       -1.3680    -1.1370     1.5900 H     1 <1>   0.0800 
 29 H       -0.1320    -0.1780     2.3480 H     1 <1>   0.0800 
 30 H       -0.7710    -3.9960    -0.4680 H     1 <1>   0.1500 
 31 H       -2.7750    -0.3820    -1.5310 H     1 <1>   0.1500 
 32 H       -4.8800    -1.5900    -1.1530 H     1 <1>   0.1500 
 33 H       -6.7530    -2.7800    -0.6040 H     1 <1>   0.0800 
 34 H       -6.3220    -3.6770    -2.0580 H     1 <1>   0.0800 
 35 H       -4.3460    -6.0840    -0.8410 H     1 <1>   0.0800 
 36 H       -4.9280    -5.8600     0.7980 H     1 <1>   0.0800 
 37 H       -8.2560    -4.8990    -1.2160 H     1 <1>   0.0800 
 38 H       -6.4220    -6.3790    -1.7130 H     1 <1>   0.0800 
 39 H       -6.9530    -4.4060     1.2220 H     1 <1>   0.4000 
 40 H       -7.9990    -7.5790    -0.2440 H     1 <1>   0.0800 
 41 H       -7.0870    -7.0950     1.1550 H     1 <1>   0.0800 
 42 H       -5.1740    -8.6940     1.9020 H     1 <1>   0.1500 
 43 H       -4.8170   -10.7830    -1.7080 H     1 <1>   0.2700 
 44 H       -3.4080   -10.7960     1.8800 H     1 <1>   0.0800 
 45 H       -2.6890   -10.9590     0.2970 H     1 <1>   0.0800 
 46 H       -3.9710   -12.0440     0.7960 H     1 <1>   0.0800 
@<TRIPOS>BOND
  1   1   2  2   
  2   1   3  2   
  3   1   4  1   
  4   1   5  1   
  5   4   6  1   
  6   4  25  1   
  7   4  26  1   
  8   5  27  1   
  9   5  28  1   
 10   5  29  1   
 11   6   7  ar  
 12   6   8  ar  
 13   7   9  ar  
 14   7  30  1   
 15   8  10  ar  
 16   8  31  1   
 17   9  11  ar  
 18  10  11  ar  
 19  10  32  1   
 20  11  12  1   
 21  12  13  1   
 22  12  14  1   
 23  13  15  1   
 24  13  33  1   
 25  13  34  1   
 26  14  16  1   
 27  14  35  1   
 28  14  36  1   
 29  15  16  1   
 30  15  17  1   
 31  15  37  1   
 32  16  18  1   
 33  16  38  1   
 34  17  39  1   
 35  18  19  1   
 36  18  40  1   
 37  18  41  1   
 38  19  20  2   
 39  19  21  1   
 40  20  22  1   
 41  21  23  2   
 42  21  42  1   
 43  22  23  1   
 44  22  43  1   
 45  23  24  1   
 46  24  44  1   
 47  24  45  1   
 48  24  46  1   
@<TRIPOS>SUBSTRUCTURE
  1 ****   9 GROUP 4 **** **** 0

# MOE 2024.06 (io_trps.svl 2023.06)
