@<TRIPOS>MOLECULE
NONAME
44 46 1 0 0 
SMALL
USER_CHARGES


@<TRIPOS>ATOM
  1 S       -0.4340     0.3030    -0.3080 S.3   1 <1>  -0.0800 
  2 C        0.0380     1.8940     0.1760 C.2   1 <1>   0.1980 
  3 C        0.0730     0.7280    -1.9060 C.2   1 <1>   0.1980 
  4 N        0.4930     2.5830    -0.7950 N.2   1 <1>  -0.3380 
  5 C       -0.1290     2.2720     1.6440 C.3   1 <1>   0.2900 
  6 N        0.5240     1.9150    -1.9840 N.2   1 <1>  -0.3380 
  7 C       -0.0650    -0.3110    -2.9960 C.3   1 <1>  -0.0600 
  8 N        0.8410     3.2980     2.1130 N.3   1 <1>  -0.8100 
  9 C        0.6320     4.7050     1.7070 C.3   1 <1>   0.1100 
 10 C        2.1330     2.8620     2.6500 C.3   1 <1>   0.1100 
 11 C        1.8510     5.3800     1.0480 C.3   1 <1>   0.3430 
 12 C        3.1290     2.5220     1.5360 C.3   1 <1>  -0.1600 
 13 N        2.5380     4.4630     0.0880 N.4   1 <1>  -0.9590 
 14 C        3.6450     3.7180     0.7340 C.3   1 <1>   0.3430 
 15 C        2.9450     5.0470    -1.2220 C.3   1 <1>   0.4230 
 16 C        3.9260     6.2120    -1.0750 C.3   1 <1>  -0.1600 
 17 C        1.7490     5.6420    -1.9680 C.3   1 <1>  -0.1600 
 18 C        3.0970     7.4980    -1.0630 C.3   1 <1>  -0.1600 
 19 C        1.7860     7.1660    -1.7820 C.3   1 <1>  -0.1600 
 20 H       -0.0200     1.3880     2.2470 H     1 <1>   0.0800 
 21 H       -1.1300     2.6400     1.7920 H     1 <1>   0.0800 
 22 H        0.5150    -1.1810    -2.7490 H     1 <1>   0.0800 
 23 H        0.2860     0.0900    -3.9290 H     1 <1>   0.0800 
 24 H       -1.0960    -0.5920    -3.1040 H     1 <1>   0.0800 
 25 H        0.3530     5.2770     2.5760 H     1 <1>   0.0800 
 26 H       -0.1950     4.7580     1.0190 H     1 <1>   0.0800 
 27 H        1.9770     1.9890     3.2620 H     1 <1>   0.0800 
 28 H        2.5370     3.6300     3.2890 H     1 <1>   0.0800 
 29 H        2.5430     5.6950     1.8100 H     1 <1>   0.0800 
 30 H        1.5040     6.2610     0.5390 H     1 <1>   0.0800 
 31 H        2.7130     1.7860     0.8730 H     1 <1>   0.0800 
 32 H        3.9840     2.0610     1.9990 H     1 <1>   0.0800 
 33 H        1.8240     3.7460    -0.1400 H     1 <1>   0.4500 
 34 H        4.3180     3.3490    -0.0230 H     1 <1>   0.0800 
 35 H        4.2010     4.3790     1.3780 H     1 <1>   0.0800 
 36 H        3.3850     4.2670    -1.8230 H     1 <1>   0.0800 
 37 H        4.5460     6.2270    -1.9560 H     1 <1>   0.0800 
 38 H        4.5680     6.1310    -0.2180 H     1 <1>   0.0800 
 39 H        0.8110     5.2160    -1.6600 H     1 <1>   0.0800 
 40 H        1.8750     5.4270    -3.0150 H     1 <1>   0.0800 
 41 H        3.6200     8.3020    -1.5560 H     1 <1>   0.0800 
 42 H        2.8950     7.8020    -0.0510 H     1 <1>   0.0800 
 43 H        0.9410     7.5070    -1.2080 H     1 <1>   0.0800 
 44 H        1.7560     7.6520    -2.7440 H     1 <1>   0.0800 
@<TRIPOS>BOND
  1   1   2  1   
  2   1   3  1   
  3   2   4  2   
  4   2   5  1   
  5   3   6  2   
  6   3   7  1   
  7   4   6  1   
  8   5   8  1   
  9   5  20  1   
 10   5  21  1   
 11   7  22  1   
 12   7  23  1   
 13   7  24  1   
 14   8   9  1   
 15   8  10  1   
 16   9  11  1   
 17   9  25  1   
 18   9  26  1   
 19  10  12  1   
 20  10  27  1   
 21  10  28  1   
 22  11  13  1   
 23  11  29  1   
 24  11  30  1   
 25  12  14  1   
 26  12  31  1   
 27  12  32  1   
 28  13  14  1   
 29  13  15  1   
 30  13  33  1   
 31  14  34  1   
 32  14  35  1   
 33  15  16  1   
 34  15  17  1   
 35  15  36  1   
 36  16  18  1   
 37  16  37  1   
 38  16  38  1   
 39  17  19  1   
 40  17  39  1   
 41  17  40  1   
 42  18  19  1   
 43  18  41  1   
 44  18  42  1   
 45  19  43  1   
 46  19  44  1   
@<TRIPOS>SUBSTRUCTURE
  1 ****  13 GROUP 4 **** **** 0

# MOE 2024.06 (io_trps.svl 2023.06)
