@<TRIPOS>MOLECULE
NONAME
44 46 1 0 0 
SMALL
USER_CHARGES


@<TRIPOS>ATOM
  1 CL      -0.1810     1.1740     0.8060 Cl    1 <1>  -0.1770 
  2 C        1.4730     1.6660     0.5510 C.ar  1 <1>   0.1770 
  3 C        1.7990     2.3890    -0.5810 C.ar  1 <1>  -0.1500 
  4 C        2.4330     1.3280     1.4860 C.ar  1 <1>  -0.1500 
  5 C        3.1140     2.7770    -0.7780 C.ar  1 <1>  -0.1500 
  6 C        3.7460     1.7190     1.2820 C.ar  1 <1>  -0.1500 
  7 C        4.0920     2.4430     0.1480 C.ar  1 <1>  -0.0320 
  8 C        5.5290     2.8840    -0.0890 C.3   1 <1>   0.1810 
  9 N        5.7630     4.2730     0.3210 N.am  1 <1>  -0.5790 
 10 C        6.2810     2.3570    -1.2700 C.3   1 <1>  -0.2000 
 11 C        6.6650     1.9300     0.1100 C.3   1 <1>  -0.2000 
 12 C        5.5830     5.3740    -0.4560 C.2   1 <1>   0.5690 
 13 O        5.2550     5.3030    -1.6180 O.2   1 <1>  -0.5700 
 14 C        5.8070     6.7450     0.1860 C.3   1 <1>  -0.0190 
 15 C        5.0490     7.8830    -0.5310 C.3   1 <1>  -0.1600 
 16 C        7.3170     7.0710     0.2790 C.3   1 <1>  -0.1600 
 17 C        5.1650     9.2280     0.2170 C.3   1 <1>   0.2000 
 18 C        7.6200     8.5730     0.4590 C.3   1 <1>  -0.1600 
 19 O        5.1840    10.2680    -0.7300 O.3   1 <1>  -0.5600 
 20 C        6.4430     9.3180     1.0930 C.3   1 <1>   0.2000 
 21 C        3.9460    10.5900    -1.2850 C.3   1 <1>   0.0400 
 22 O        6.8030    10.6420     1.2390 O.3   1 <1>  -0.6800 
 23 H        1.0370     2.6430    -1.2950 H     1 <1>   0.1500 
 24 H        2.1520     0.7660     2.3590 H     1 <1>   0.1500 
 25 H        3.3850     3.3450    -1.6530 H     1 <1>   0.1500 
 26 H        4.4980     1.4600     2.0060 H     1 <1>   0.1500 
 27 H        5.9790     4.3840     1.3080 H     1 <1>   0.3700 
 28 H        5.7930     1.6450    -1.9100 H     1 <1>   0.1000 
 29 H        6.9080     3.0410    -1.8140 H     1 <1>   0.1000 
 30 H        7.5940     2.2920     0.5120 H     1 <1>   0.1000 
 31 H        6.4630     0.9090     0.3820 H     1 <1>   0.1000 
 32 H        5.4130     6.6870     1.1860 H     1 <1>   0.0800 
 33 H        4.0120     7.6170    -0.6270 H     1 <1>   0.0800 
 34 H        5.4600     7.9870    -1.5210 H     1 <1>   0.0800 
 35 H        7.7400     6.5210     1.1020 H     1 <1>   0.0800 
 36 H        7.8110     6.7350    -0.6180 H     1 <1>   0.0800 
 37 H        4.3150     9.3680     0.8640 H     1 <1>   0.0800 
 38 H        7.8130     9.0050    -0.5080 H     1 <1>   0.0800 
 39 H        8.5020     8.6950     1.0640 H     1 <1>   0.0800 
 40 H        6.2540     8.9200     2.0750 H     1 <1>   0.0800 
 41 H        4.0890    11.4110    -1.9650 H     1 <1>   0.0800 
 42 H        3.2700    10.8840    -0.5010 H     1 <1>   0.0800 
 43 H        3.5590     9.7420    -1.8230 H     1 <1>   0.0800 
 44 H        6.5180    11.0880     0.4080 H     1 <1>   0.4000 
@<TRIPOS>BOND
  1   1   2  1   
  2   2   3  ar  
  3   2   4  ar  
  4   3   5  ar  
  5   3  23  1   
  6   4   6  ar  
  7   4  24  1   
  8   5   7  ar  
  9   5  25  1   
 10   6   7  ar  
 11   6  26  1   
 12   7   8  1   
 13   8   9  1   
 14   8  10  1   
 15   8  11  1   
 16   9  12  am  
 17   9  27  1   
 18  10  11  1   
 19  10  28  1   
 20  10  29  1   
 21  11  30  1   
 22  11  31  1   
 23  12  13  2   
 24  12  14  1   
 25  14  15  1   
 26  14  16  1   
 27  14  32  1   
 28  15  17  1   
 29  15  33  1   
 30  15  34  1   
 31  16  18  1   
 32  16  35  1   
 33  16  36  1   
 34  17  19  1   
 35  17  20  1   
 36  17  37  1   
 37  18  20  1   
 38  18  38  1   
 39  18  39  1   
 40  19  21  1   
 41  20  22  1   
 42  20  40  1   
 43  21  41  1   
 44  21  42  1   
 45  21  43  1   
 46  22  44  1   
@<TRIPOS>SUBSTRUCTURE
  1 ****  12 GROUP 4 **** **** 0

# MOE 2024.06 (io_trps.svl 2023.06)
