@<TRIPOS>MOLECULE
NONAME
47 50 1 0 0 
SMALL
USER_CHARGES


@<TRIPOS>ATOM
  1 S       -1.7430     0.7430     1.5480 S.3   1 <1>  -0.0800 
  2 C       -2.5000    -0.8360     1.4400 C.2   1 <1>  -0.1100 
  3 C       -2.4790     1.2440     0.0370 C.2   1 <1>  -0.1100 
  4 C       -3.2520    -0.9330     0.3270 C.2   1 <1>  -0.1810 
  5 C       -3.2360     0.2560    -0.4740 C.2   1 <1>  -0.1500 
  6 C       -4.0560    -2.1520    -0.0900 C.3   1 <1>   0.0210 
  7 C       -5.5570    -1.8960     0.1040 C.3   1 <1>  -0.0990 
  8 C       -6.4390    -3.0700    -0.2980 C.2   1 <1>   0.5690 
  9 O       -5.9100    -4.0590    -0.7490 O.2   1 <1>  -0.5700 
 10 N       -7.8000    -2.9950    -0.1490 N.am  1 <1>  -0.6600 
 11 C       -8.5500    -1.8180     0.3940 C.3   1 <1>   0.1400 
 12 C       -8.6510    -4.1650    -0.5290 C.3   1 <1>   0.1400 
 13 C       -9.5800    -1.2890    -0.6310 C.3   1 <1>   0.1440 
 14 C      -10.1350    -3.7880    -0.6770 C.3   1 <1>  -0.1600 
 15 C      -10.5490    -0.3990     0.1290 C.ar  1 <1>   0.1670 
 16 C      -10.2920    -2.4380    -1.3940 C.3   1 <1>  -0.1600 
 17 C       -8.9300    -0.2830    -1.6190 C.3   1 <1>  -0.1600 
 18 N      -11.5080    -0.8170     0.9260 N.ar  1 <1>  -0.6200 
 19 C      -10.2980     0.9230    -0.0930 C.ar  1 <1>  -0.1430 
 20 C       -9.1350     1.1240    -1.0310 C.3   1 <1>  -0.0170 
 21 C      -12.2190     0.1510     1.4850 C.ar  1 <1>   0.4770 
 22 C      -11.0970     1.8430     0.5400 C.ar  1 <1>   0.1600 
 23 N      -12.0710     1.4620     1.3400 N.ar  1 <1>  -0.6200 
 24 C      -13.3390    -0.2870     2.3980 C.3   1 <1>  -0.0970 
 25 H       -2.2990    -1.5330     2.2330 H     1 <1>   0.1500 
 26 H       -2.2600     2.2370    -0.3130 H     1 <1>   0.1500 
 27 H       -3.7870     0.3120    -1.3960 H     1 <1>   0.1500 
 28 H       -3.7600    -2.9990     0.5050 H     1 <1>   0.0800 
 29 H       -3.8480    -2.3850    -1.1200 H     1 <1>   0.0800 
 30 H       -5.8420    -1.0420    -0.4800 H     1 <1>   0.0800 
 31 H       -5.7320    -1.6760     1.1400 H     1 <1>   0.0800 
 32 H       -7.8920    -1.0230     0.6900 H     1 <1>   0.0800 
 33 H       -9.0730    -2.1400     1.2790 H     1 <1>   0.0800 
 34 H       -8.5400    -4.9390     0.2110 H     1 <1>   0.0800 
 35 H       -8.2940    -4.5550    -1.4680 H     1 <1>   0.0800 
 36 H      -10.5940    -3.7390     0.2950 H     1 <1>   0.0800 
 37 H      -10.6410    -4.5590    -1.2310 H     1 <1>   0.0800 
 38 H       -9.8620    -2.5450    -2.3740 H     1 <1>   0.0800 
 39 H      -11.3350    -2.2070    -1.5210 H     1 <1>   0.0800 
 40 H       -9.4510    -0.3180    -2.5590 H     1 <1>   0.0800 
 41 H       -7.8930    -0.5010    -1.8020 H     1 <1>   0.0800 
 42 H       -9.3600     1.8450    -1.7980 H     1 <1>   0.0800 
 43 H       -8.2690     1.4370    -0.4740 H     1 <1>   0.0800 
 44 H      -10.9390     2.8970     0.3940 H     1 <1>   0.1500 
 45 H      -13.1680    -1.2890     2.7450 H     1 <1>   0.0800 
 46 H      -14.2670    -0.2530     1.8600 H     1 <1>   0.0800 
 47 H      -13.3970     0.3700     3.2450 H     1 <1>   0.0800 
@<TRIPOS>BOND
  1   1   2  1   
  2   1   3  1   
  3   2   4  2   
  4   2  25  1   
  5   3   5  2   
  6   3  26  1   
  7   4   5  1   
  8   4   6  1   
  9   5  27  1   
 10   6   7  1   
 11   6  28  1   
 12   6  29  1   
 13   7   8  1   
 14   7  30  1   
 15   7  31  1   
 16   8   9  2   
 17   8  10  am  
 18  10  11  1   
 19  10  12  1   
 20  11  13  1   
 21  11  32  1   
 22  11  33  1   
 23  12  14  1   
 24  12  34  1   
 25  12  35  1   
 26  13  15  1   
 27  13  16  1   
 28  13  17  1   
 29  14  16  1   
 30  14  36  1   
 31  14  37  1   
 32  15  18  ar  
 33  15  19  ar  
 34  16  38  1   
 35  16  39  1   
 36  17  20  1   
 37  17  40  1   
 38  17  41  1   
 39  18  21  ar  
 40  19  20  1   
 41  19  22  ar  
 42  20  42  1   
 43  20  43  1   
 44  21  23  ar  
 45  21  24  1   
 46  22  23  ar  
 47  22  44  1   
 48  24  45  1   
 49  24  46  1   
 50  24  47  1   
@<TRIPOS>SUBSTRUCTURE
  1 ****  11 GROUP 4 **** **** 0

# MOE 2024.06 (io_trps.svl 2023.06)
