@<TRIPOS>MOLECULE
NONAME
51 54 1 0 0 
SMALL
USER_CHARGES


@<TRIPOS>ATOM
  1 O       -0.1050     0.6020    -0.6310 O.2   1 <1>  -0.5700 
  2 C       -0.1320     1.8050    -0.5190 C.2   1 <1>   0.5690 
  3 N       -1.2640     2.5240    -0.8120 N.am  1 <1>  -0.6600 
  4 C        1.1320     2.4950    -0.0210 C.3   1 <1>   0.0690 
  5 C       -1.4990     3.9680    -0.5110 C.3   1 <1>   0.1400 
  6 C       -2.4560     1.8660    -1.4280 C.3   1 <1>   0.1400 
  7 C        2.4330     1.7220    -0.2430 C.2   1 <1>   0.1820 
  8 C       -2.6800     4.0960     0.4550 C.3   1 <1>  -0.1600 
  9 C       -3.6500     1.9770    -0.4790 C.3   1 <1>  -0.1600 
 10 N        3.6290     2.1530     0.3120 N.pl3 1 <1>  -0.6290 
 11 C        2.6940     0.5970    -0.9470 C.2   1 <1>   0.2000 
 12 C       -3.9440     3.4330    -0.1080 C.3   1 <1>   0.4180 
 13 C        4.5890     1.2700    -0.0630 C.cat 1 <1>   0.7910 
 14 C        3.9600     3.2260     1.1120 C.2   1 <1>   0.2290 
 15 N        4.0290     0.3240    -0.8310 N.pl3 1 <1>  -0.7000 
 16 O       -4.3090     4.0780    -1.3040 O.3   1 <1>  -0.5600 
 17 C       -5.0870     3.4850     0.9010 C.2   1 <1>  -0.2880 
 18 C        5.9320     1.4250     0.3490 C.2   1 <1>  -0.1290 
 19 C        5.2480     3.4020     1.5250 C.2   1 <1>  -0.1500 
 20 C       -5.0430     5.2670    -1.2020 C.3   1 <1>   0.1200 
 21 C       -6.2120     4.1820     0.7240 C.2   1 <1>  -0.2760 
 22 C        6.2560     2.4940     1.1430 C.2   1 <1>  -0.1500 
 23 C        6.9970     0.4230    -0.0830 C.3   1 <1>  -0.1020 
 24 C       -6.3990     5.0130    -0.5310 C.3   1 <1>  -0.0220 
 25 C       -7.3730     4.2070     1.7030 C.3   1 <1>  -0.1020 
 26 H        1.0060     2.6720     1.0300 H     1 <1>   0.0800 
 27 H        1.2350     3.4390    -0.5190 H     1 <1>   0.0800 
 28 H       -1.7240     4.4860    -1.4290 H     1 <1>   0.0800 
 29 H       -0.6360     4.4290    -0.0690 H     1 <1>   0.0800 
 30 H       -2.2610     0.8280    -1.6380 H     1 <1>   0.0800 
 31 H       -2.6860     2.3520    -2.3610 H     1 <1>   0.0800 
 32 H       -2.8720     5.1290     0.6710 H     1 <1>   0.0800 
 33 H       -2.4200     3.6220     1.3840 H     1 <1>   0.0800 
 34 H       -3.4400     1.4100     0.4090 H     1 <1>   0.0800 
 35 H       -4.5220     1.5500    -0.9390 H     1 <1>   0.0800 
 36 H        2.0240    -0.0260    -1.5210 H     1 <1>   0.1500 
 37 H        3.1810     3.9140     1.3990 H     1 <1>   0.1500 
 38 H        4.5260    -0.4680    -1.2410 H     1 <1>   0.4500 
 39 H       -4.8990     2.8900     1.7760 H     1 <1>   0.1500 
 40 H        5.5180     4.2360     2.1500 H     1 <1>   0.1500 
 41 H       -5.1850     5.6530    -2.1960 H     1 <1>   0.0800 
 42 H       -4.4710     5.9780    -0.6340 H     1 <1>   0.0800 
 43 H        7.2640     2.6630     1.4880 H     1 <1>   0.1500 
 44 H        6.7490    -0.5630     0.2720 H     1 <1>   0.0800 
 45 H        7.9590     0.6900     0.3170 H     1 <1>   0.0800 
 46 H        7.0760     0.3990    -1.1560 H     1 <1>   0.0800 
 47 H       -7.0530     4.5000    -1.2140 H     1 <1>   0.0800 
 48 H       -6.8440     5.9610    -0.2890 H     1 <1>   0.0800 
 49 H       -8.2660     3.8460     1.2260 H     1 <1>   0.0800 
 50 H       -7.5440     5.2100     2.0520 H     1 <1>   0.0800 
 51 H       -7.1630     3.5810     2.5520 H     1 <1>   0.0800 
@<TRIPOS>BOND
  1   1   2  2   
  2   2   3  am  
  3   2   4  1   
  4   3   5  1   
  5   3   6  1   
  6   4   7  1   
  7   4  26  1   
  8   4  27  1   
  9   5   8  1   
 10   5  28  1   
 11   5  29  1   
 12   6   9  1   
 13   6  30  1   
 14   6  31  1   
 15   7  10  1   
 16   7  11  2   
 17   8  12  1   
 18   8  32  1   
 19   8  33  1   
 20   9  12  1   
 21   9  34  1   
 22   9  35  1   
 23  10  13  ar  
 24  10  14  1   
 25  11  15  1   
 26  11  36  1   
 27  12  16  1   
 28  12  17  1   
 29  13  15  ar  
 30  13  18  1   
 31  14  19  2   
 32  14  37  1   
 33  15  38  1   
 34  16  20  1   
 35  17  21  2   
 36  17  39  1   
 37  18  22  2   
 38  18  23  1   
 39  19  22  1   
 40  19  40  1   
 41  20  24  1   
 42  20  41  1   
 43  20  42  1   
 44  21  24  1   
 45  21  25  1   
 46  22  43  1   
 47  23  44  1   
 48  23  45  1   
 49  23  46  1   
 50  24  47  1   
 51  24  48  1   
 52  25  49  1   
 53  25  50  1   
 54  25  51  1   
@<TRIPOS>SUBSTRUCTURE
  1 ****   2 GROUP 4 **** **** 0

# MOE 2024.06 (io_trps.svl 2023.06)
