@<TRIPOS>MOLECULE
NONAME
47 48 1 0 0 
SMALL
USER_CHARGES


@<TRIPOS>ATOM
  1 CL       0.6480    -0.6000     1.4720 Cl    1 <1>  -0.1770 
  2 C        0.2310    -2.2210     0.9700 C.ar  1 <1>   0.1770 
  3 C       -0.3220    -3.1100     1.8750 C.ar  1 <1>   0.1600 
  4 C        0.4540    -2.6120    -0.3310 C.ar  1 <1>  -0.1500 
  5 N       -0.6680    -4.3580     1.5820 N.ar  1 <1>  -0.6200 
  6 C        0.0980    -3.9050    -0.6460 C.ar  1 <1>  -0.1500 
  7 C       -0.4540    -4.7400     0.3290 C.ar  1 <1>   0.4270 
  8 N       -0.8410    -6.0430     0.1120 N.am  1 <1>  -0.5470 
  9 C       -0.8550    -6.8470    -0.9920 C.2   1 <1>   0.5690 
 10 O       -0.4150    -6.5020    -2.0620 O.2   1 <1>  -0.5700 
 11 C       -1.4050    -8.2730    -0.8420 C.3   1 <1>   0.1710 
 12 N       -2.8910    -8.4140    -0.8330 N.3   1 <1>  -0.8100 
 13 C       -3.2770    -9.8290    -1.0260 C.3   1 <1>   0.1100 
 14 C       -3.5500    -7.7920     0.3270 C.3   1 <1>   0.1100 
 15 C       -4.8030    -9.9900    -1.1370 C.3   1 <1>   0.2000 
 16 C       -5.0740    -7.9060     0.1920 C.3   1 <1>  -0.1600 
 17 O       -5.1060   -11.3410    -1.2860 O.3   1 <1>  -0.6800 
 18 C       -5.5670    -9.3700     0.0670 C.3   1 <1>   0.0000 
 19 C       -5.2340   -10.1630     1.3640 C.3   1 <1>   0.1200 
 20 C       -7.1090    -9.4130    -0.1460 C.3   1 <1>  -0.1600 
 21 O       -5.8200    -9.5910     2.4840 O.3   1 <1>  -0.6800 
 22 C       -7.6510    -8.7880    -1.4450 C.3   1 <1>  -0.1600 
 23 C       -9.1800    -8.8680    -1.4880 C.3   1 <1>  -0.2400 
 24 H       -0.4830    -2.7740     2.8840 H     1 <1>   0.1500 
 25 H        0.8810    -1.9390    -1.0530 H     1 <1>   0.1500 
 26 H        0.2500    -4.2620    -1.6470 H     1 <1>   0.1500 
 27 H       -1.2270    -6.4430     0.9610 H     1 <1>   0.3700 
 28 H       -0.9990    -8.7070     0.0540 H     1 <1>   0.0800 
 29 H       -1.0160    -8.8350    -1.6730 H     1 <1>   0.0800 
 30 H       -2.8390   -10.1860    -1.9430 H     1 <1>   0.0800 
 31 H       -2.8960   -10.4200    -0.2120 H     1 <1>   0.0800 
 32 H       -3.2100    -8.2500     1.2400 H     1 <1>   0.0800 
 33 H       -3.3060    -6.7440     0.3600 H     1 <1>   0.0800 
 34 H       -5.1020    -9.5040    -2.0480 H     1 <1>   0.0800 
 35 H       -5.5440    -7.4170     1.0260 H     1 <1>   0.0800 
 36 H       -5.3490    -7.3510    -0.6860 H     1 <1>   0.0800 
 37 H       -4.9440   -11.8290    -0.4590 H     1 <1>   0.4000 
 38 H       -4.1760   -10.2070     1.5440 H     1 <1>   0.0800 
 39 H       -5.6070   -11.1700     1.2980 H     1 <1>   0.0800 
 40 H       -7.4270   -10.4420    -0.1200 H     1 <1>   0.0800 
 41 H       -7.5870    -8.9220     0.6850 H     1 <1>   0.0800 
 42 H       -5.6460    -8.6310     2.5120 H     1 <1>   0.4000 
 43 H       -7.3620    -7.7550    -1.5210 H     1 <1>   0.0800 
 44 H       -7.2620    -9.3120    -2.3010 H     1 <1>   0.0800 
 45 H       -9.6100    -8.3330    -0.6600 H     1 <1>   0.0800 
 46 H       -9.5030    -9.8940    -1.4440 H     1 <1>   0.0800 
 47 H       -9.5460    -8.4350    -2.4020 H     1 <1>   0.0800 
@<TRIPOS>BOND
  1   1   2  1   
  2   2   3  ar  
  3   2   4  ar  
  4   3   5  ar  
  5   3  24  1   
  6   4   6  ar  
  7   4  25  1   
  8   5   7  ar  
  9   6   7  ar  
 10   6  26  1   
 11   7   8  1   
 12   8   9  am  
 13   8  27  1   
 14   9  10  2   
 15   9  11  1   
 16  11  12  1   
 17  11  28  1   
 18  11  29  1   
 19  12  13  1   
 20  12  14  1   
 21  13  15  1   
 22  13  30  1   
 23  13  31  1   
 24  14  16  1   
 25  14  32  1   
 26  14  33  1   
 27  15  17  1   
 28  15  18  1   
 29  15  34  1   
 30  16  18  1   
 31  16  35  1   
 32  16  36  1   
 33  17  37  1   
 34  18  19  1   
 35  18  20  1   
 36  19  21  1   
 37  19  38  1   
 38  19  39  1   
 39  20  22  1   
 40  20  40  1   
 41  20  41  1   
 42  21  42  1   
 43  22  23  1   
 44  22  43  1   
 45  22  44  1   
 46  23  45  1   
 47  23  46  1   
 48  23  47  1   
@<TRIPOS>SUBSTRUCTURE
  1 ****  14 GROUP 4 **** **** 0

# MOE 2024.06 (io_trps.svl 2023.06)
