@<TRIPOS>MOLECULE
NONAME
44 45 1 0 0 
SMALL
USER_CHARGES


@<TRIPOS>ATOM
  1 S        0.0630    -0.1370     0.5140 S.o2  1 <1>   1.3330 
  2 O       -0.6740     1.0990     0.6350 O.2   1 <1>  -0.6500 
  3 O        0.3660    -0.9070     1.7000 O.2   1 <1>  -0.6500 
  4 N       -0.7730    -1.1520    -0.5610 N.am  1 <1>  -0.8490 
  5 C        1.5750     0.2130    -0.3840 C.3   1 <1>  -0.0550 
  6 C       -0.3860    -2.5630    -0.4500 C.3   1 <1>   0.1160 
  7 C       -2.2270    -1.0220    -0.4330 C.3   1 <1>   0.1160 
  8 C        2.5000     1.2160     0.3330 C.3   1 <1>  -0.0800 
  9 C        3.6430     1.6460    -0.5700 C.3   1 <1>   0.2200 
 10 C        3.2420     0.5800     1.5170 C.3   1 <1>   0.1200 
 11 N        4.1410     2.9640    -0.1210 N.am  1 <1>  -0.7300 
 12 C        4.6900     0.5790    -0.2790 C.3   1 <1>   0.1200 
 13 O        4.5130     0.2210     1.0580 O.3   1 <1>  -0.5600 
 14 C        4.0410     4.1290    -0.8220 C.2   1 <1>   0.5440 
 15 O        3.5070     4.1080    -1.9130 O.2   1 <1>  -0.5700 
 16 C        4.5310     5.3710    -0.2560 C.ar  1 <1>   0.0860 
 17 C        5.8520     5.5520     0.1800 C.ar  1 <1>  -0.1440 
 18 C        3.6390     6.4390    -0.1260 C.ar  1 <1>  -0.1500 
 19 C        6.1950     6.7710     0.7500 C.ar  1 <1>   0.1900 
 20 C        6.9020     4.4500     0.0260 C.3   1 <1>  -0.0970 
 21 C        4.0100     7.6470     0.4370 C.ar  1 <1>  -0.1500 
 22 F        7.4120     6.9620     1.1860 F     1 <1>  -0.1900 
 23 C        5.3040     7.8180     0.8880 C.ar  1 <1>  -0.1500 
 24 H        2.1050    -0.7010    -0.5660 H     1 <1>   0.0800 
 25 H        1.3010     0.6270    -1.3360 H     1 <1>   0.0800 
 26 H       -0.8760    -3.1420    -1.2150 H     1 <1>   0.0800 
 27 H       -0.6620    -2.9550     0.5160 H     1 <1>   0.0800 
 28 H        0.6780    -2.6690    -0.5730 H     1 <1>   0.0800 
 29 H       -2.7240    -1.6660    -1.1370 H     1 <1>   0.0800 
 30 H       -2.5260    -0.0070    -0.6380 H     1 <1>   0.0800 
 31 H       -2.5400    -1.2780     0.5660 H     1 <1>   0.0800 
 32 H        1.9140     2.0650     0.6460 H     1 <1>   0.0800 
 33 H        3.3760     1.6780    -1.6130 H     1 <1>   0.0800 
 34 H        2.7570    -0.2970     1.9080 H     1 <1>   0.0800 
 35 H        3.3740     1.2950     2.3110 H     1 <1>   0.0800 
 36 H        4.5640     2.9670     0.8100 H     1 <1>   0.3700 
 37 H        5.6950     0.9320    -0.4310 H     1 <1>   0.0800 
 38 H        4.5170    -0.2970    -0.8780 H     1 <1>   0.0800 
 39 H        2.6290     6.3090    -0.4790 H     1 <1>   0.1500 
 40 H        6.7360     3.8860    -0.8740 H     1 <1>   0.0800 
 41 H        6.8640     3.7830     0.8690 H     1 <1>   0.0800 
 42 H        7.8930     4.8640    -0.0350 H     1 <1>   0.0800 
 43 H        3.2950     8.4470     0.5240 H     1 <1>   0.1500 
 44 H        5.6220     8.7430     1.3340 H     1 <1>   0.1500 
@<TRIPOS>BOND
  1   1   2  2   
  2   1   3  2   
  3   1   4  am  
  4   1   5  1   
  5   4   6  1   
  6   4   7  1   
  7   5   8  1   
  8   5  24  1   
  9   5  25  1   
 10   6  26  1   
 11   6  27  1   
 12   6  28  1   
 13   7  29  1   
 14   7  30  1   
 15   7  31  1   
 16   8   9  1   
 17   8  10  1   
 18   8  32  1   
 19   9  11  1   
 20   9  12  1   
 21   9  33  1   
 22  10  13  1   
 23  10  34  1   
 24  10  35  1   
 25  11  14  am  
 26  11  36  1   
 27  12  13  1   
 28  12  37  1   
 29  12  38  1   
 30  14  15  2   
 31  14  16  1   
 32  16  17  ar  
 33  16  18  ar  
 34  17  19  ar  
 35  17  20  1   
 36  18  21  ar  
 37  18  39  1   
 38  19  22  1   
 39  19  23  ar  
 40  20  40  1   
 41  20  41  1   
 42  20  42  1   
 43  21  23  ar  
 44  21  43  1   
 45  23  44  1   
@<TRIPOS>SUBSTRUCTURE
  1 ****  11 GROUP 4 **** **** 0

# MOE 2024.06 (io_trps.svl 2023.06)
