@<TRIPOS>MOLECULE
NONAME
47 49 1 0 0 
SMALL
USER_CHARGES


@<TRIPOS>ATOM
  1 O       -1.4790     0.4060    -1.8510 O.2   1 <1>  -0.5700 
  2 C       -1.8680     1.2050    -1.0150 C.2   1 <1>   0.5440 
  3 N       -2.9910     0.8640    -0.2720 N.am  1 <1>  -0.6600 
  4 C       -1.1030     2.4400    -0.8360 C.ar  1 <1>   0.3960 
  5 C       -3.8380    -0.3170    -0.6420 C.3   1 <1>   0.1400 
  6 C       -3.3860     1.5770     0.9800 C.3   1 <1>   0.1400 
  7 N       -1.7080     3.6210    -0.6090 N.ar  1 <1>  -0.6200 
  8 C        0.2930     2.3560    -0.9200 C.ar  1 <1>   0.1600 
  9 C       -5.3220     0.0430    -0.8070 C.3   1 <1>   0.1400 
 10 C       -4.5670     2.5150     0.7000 C.3   1 <1>  -0.1600 
 11 C       -0.8650     4.6280    -0.4800 C.ar  1 <1>   0.1600 
 12 N        1.1410     3.3630    -0.7800 N.ar  1 <1>  -0.6200 
 13 N       -5.9390     0.4040     0.5050 N.am  1 <1>  -0.6600 
 14 C       -5.9510     1.8600     0.8280 C.3   1 <1>   0.1400 
 15 C        0.5160     4.5050    -0.5610 C.ar  1 <1>   0.1600 
 16 C       -6.3630    -0.5450     1.4180 C.2   1 <1>   0.5440 
 17 O       -6.6370    -0.1960     2.5510 O.2   1 <1>  -0.5700 
 18 C       -6.4160    -1.9520     1.1010 C.ar  1 <1>   0.0860 
 19 C       -7.3290    -2.4720     0.1760 C.ar  1 <1>   0.3930 
 20 C       -5.5520    -2.8440     1.7200 C.ar  1 <1>  -0.1500 
 21 O       -8.1900    -1.6150    -0.4090 O.3   1 <1>  -0.3630 
 22 N       -7.4060    -3.7560    -0.1760 N.ar  1 <1>  -0.6200 
 23 C       -5.6300    -4.1740     1.3730 C.ar  1 <1>  -0.1500 
 24 C       -9.1770    -2.0460    -1.3200 C.3   1 <1>   0.1200 
 25 C       -6.5610    -4.5710     0.4300 C.ar  1 <1>   0.1600 
 26 C       -9.9590    -0.8200    -1.7820 C.3   1 <1>  -0.2400 
 27 H       -3.7300    -1.0800     0.1080 H     1 <1>   0.0800 
 28 H       -3.5010    -0.7360    -1.5730 H     1 <1>   0.0800 
 29 H       -2.5550     2.1520     1.3500 H     1 <1>   0.0800 
 30 H       -3.6430     0.8650     1.7470 H     1 <1>   0.0800 
 31 H        0.7210     1.3880    -1.1160 H     1 <1>   0.1500 
 32 H       -5.8390    -0.7950    -1.2350 H     1 <1>   0.0800 
 33 H       -5.4180     0.8610    -1.4990 H     1 <1>   0.0800 
 34 H       -4.4590     2.9480    -0.2780 H     1 <1>   0.0800 
 35 H       -4.5300     3.3280     1.4010 H     1 <1>   0.0800 
 36 H       -1.2830     5.6030    -0.3010 H     1 <1>   0.1500 
 37 H       -6.6480     2.3580     0.1760 H     1 <1>   0.0800 
 38 H       -6.3030     2.0070     1.8350 H     1 <1>   0.0800 
 39 H        1.1240     5.3840    -0.4400 H     1 <1>   0.1500 
 40 H       -4.8470    -2.4930     2.4540 H     1 <1>   0.1500 
 41 H       -4.9800    -4.9000     1.8280 H     1 <1>   0.1500 
 42 H       -9.8190    -2.7480    -0.8170 H     1 <1>   0.0800 
 43 H       -8.6880    -2.5280    -2.1500 H     1 <1>   0.0800 
 44 H       -6.6140    -5.6140     0.1630 H     1 <1>   0.1500 
 45 H      -10.4310    -0.3460    -0.9400 H     1 <1>   0.0800 
 46 H      -10.7200    -1.1170    -2.4810 H     1 <1>   0.0800 
 47 H       -9.3000    -0.1220    -2.2660 H     1 <1>   0.0800 
@<TRIPOS>BOND
  1   1   2  2   
  2   2   3  am  
  3   2   4  1   
  4   3   5  1   
  5   3   6  1   
  6   4   7  ar  
  7   4   8  ar  
  8   5   9  1   
  9   5  27  1   
 10   5  28  1   
 11   6  10  1   
 12   6  29  1   
 13   6  30  1   
 14   7  11  ar  
 15   8  12  ar  
 16   8  31  1   
 17   9  13  1   
 18   9  32  1   
 19   9  33  1   
 20  10  14  1   
 21  10  34  1   
 22  10  35  1   
 23  11  15  ar  
 24  11  36  1   
 25  12  15  ar  
 26  13  14  1   
 27  13  16  am  
 28  14  37  1   
 29  14  38  1   
 30  15  39  1   
 31  16  17  2   
 32  16  18  1   
 33  18  19  ar  
 34  18  20  ar  
 35  19  21  1   
 36  19  22  ar  
 37  20  23  ar  
 38  20  40  1   
 39  21  24  1   
 40  22  25  ar  
 41  23  25  ar  
 42  23  41  1   
 43  24  26  1   
 44  24  42  1   
 45  24  43  1   
 46  25  44  1   
 47  26  45  1   
 48  26  46  1   
 49  26  47  1   
@<TRIPOS>SUBSTRUCTURE
  1 ****   5 GROUP 4 **** **** 0

# MOE 2024.06 (io_trps.svl 2023.06)
