@<TRIPOS>MOLECULE
NONAME
23 23 1 0 0 
SMALL
USER_CHARGES


@<TRIPOS>ATOM
  1 O        5.2190    -2.2850     0.1100 O.co2 1 <1>  -0.9000 
  2 C        5.0830    -1.1250     0.5290 C.2   1 <1>   0.9060 
  3 O        4.0140    -0.6510     0.9140 O.co2 1 <1>  -0.9000 
  4 C        6.3720    -0.2790     0.5370 C.3   1 <1>   0.3170 
  5 N        7.4590    -0.9600    -0.2440 N.4   1 <1>  -0.9060 
  6 C        6.2120     1.1520    -0.0110 C.3   1 <1>  -0.1600 
  7 C        8.8120    -0.4000    -0.0200 C.3   1 <1>   0.3430 
  8 C        7.5360     1.7730    -0.5140 C.3   1 <1>  -0.0800 
  9 C        8.7470     1.1240     0.1830 C.3   1 <1>  -0.1600 
 10 C        7.5360     3.2930    -0.3170 C.3   1 <1>  -0.2400 
 11 H        6.6780    -0.2150     1.5650 H     1 <1>   0.0800 
 12 H        7.3280    -1.9650    -0.0210 H     1 <1>   0.4500 
 13 H        7.1680    -0.8970    -1.2230 H     1 <1>   0.4500 
 14 H        5.4880     1.1520    -0.8080 H     1 <1>   0.0800 
 15 H        5.7890     1.7460     0.7810 H     1 <1>   0.0800 
 16 H        9.2580    -0.8540     0.8500 H     1 <1>   0.0800 
 17 H        9.4320    -0.6270    -0.8730 H     1 <1>   0.0800 
 18 H        7.6180     1.5790    -1.5710 H     1 <1>   0.0800 
 19 H        8.6990     1.3280     1.2390 H     1 <1>   0.0800 
 20 H        9.6620     1.5610    -0.1790 H     1 <1>   0.0800 
 21 H        7.4740     3.5450     0.7270 H     1 <1>   0.0800 
 22 H        6.6930     3.7330    -0.8230 H     1 <1>   0.0800 
 23 H        8.4340     3.7260    -0.7220 H     1 <1>   0.0800 
@<TRIPOS>BOND
  1   1   2  ar  
  2   2   3  ar  
  3   2   4  1   
  4   4   5  1   
  5   4   6  1   
  6   4  11  1   
  7   5   7  1   
  8   5  12  1   
  9   5  13  1   
 10   6   8  1   
 11   6  14  1   
 12   6  15  1   
 13   7   9  1   
 14   7  16  1   
 15   7  17  1   
 16   8   9  1   
 17   8  10  1   
 18   8  18  1   
 19   9  19  1   
 20   9  20  1   
 21  10  21  1   
 22  10  22  1   
 23  10  23  1   
@<TRIPOS>SUBSTRUCTURE
  1 ****   4 GROUP 4 **** **** 0

# MOE 2024.06 (io_trps.svl 2023.06)
