@<TRIPOS>MOLECULE
NONAME
48 50 1 0 0 
SMALL
USER_CHARGES


@<TRIPOS>ATOM
  1 O       -6.7890    -0.6000    -2.2200 O.2   1 <1>  -0.5700 
  2 C       -5.8010    -0.0660    -1.7590 C.2   1 <1>   0.7800 
  3 O       -5.6420     1.2410    -1.9790 O.3   1 <1>  -0.4300 
  4 N       -4.8700    -0.7490    -1.0150 N.am  1 <1>  -0.6600 
  5 C       -4.6900     2.0100    -1.2810 C.3   1 <1>   0.1200 
  6 C       -3.6560    -0.1110    -0.4530 C.3   1 <1>   0.1400 
  7 C       -5.0530    -2.1920    -0.6980 C.3   1 <1>   0.1400 
  8 C       -3.3910     1.2170    -1.1580 C.3   1 <1>  -0.1600 
  9 C       -5.8150    -2.3590     0.6180 C.3   1 <1>   0.1400 
 10 N       -6.0890    -3.7920     0.8520 N.am  1 <1>  -0.7300 
 11 C       -5.1880    -4.7030     1.3200 C.2   1 <1>   0.5440 
 12 O       -4.1160    -4.2980     1.7300 O.2   1 <1>  -0.5700 
 13 C       -5.5140    -6.1130     1.3610 C.ar  1 <1>   0.0860 
 14 C       -5.9930    -6.8170     0.2480 C.ar  1 <1>   0.0820 
 15 C       -5.3610    -6.8190     2.5550 C.ar  1 <1>  -0.1500 
 16 O       -6.1190    -6.1880    -0.9420 O.3   1 <1>  -0.3630 
 17 C       -6.3040    -8.1690     0.3440 C.ar  1 <1>  -0.1500 
 18 C       -5.6800    -8.1600     2.6530 C.ar  1 <1>  -0.1500 
 19 C       -7.3670    -6.1770    -1.6100 C.3   1 <1>   0.2630 
 20 C       -6.1560    -8.8380     1.5440 C.ar  1 <1>  -0.1500 
 21 C       -8.2380    -5.0950    -0.9920 C.ar  1 <1>  -0.1440 
 22 C       -8.2820    -3.8290    -1.5590 C.ar  1 <1>  -0.1500 
 23 C       -8.9730    -5.3520     0.1560 C.ar  1 <1>  -0.1500 
 24 C       -9.0470    -2.8320    -0.9810 C.ar  1 <1>  -0.1500 
 25 C       -9.7390    -4.3540     0.7330 C.ar  1 <1>  -0.1500 
 26 C       -9.7750    -3.0930     0.1650 C.ar  1 <1>  -0.1500 
 27 H       -5.0970     2.2380    -0.3110 H     1 <1>   0.0800 
 28 H       -4.5380     2.9240    -1.8290 H     1 <1>   0.0800 
 29 H       -2.8080    -0.7630    -0.5770 H     1 <1>   0.0800 
 30 H       -3.8090     0.0550     0.6000 H     1 <1>   0.0800 
 31 H       -4.0950    -2.6760    -0.6240 H     1 <1>   0.0800 
 32 H       -5.6070    -2.6640    -1.4910 H     1 <1>   0.0800 
 33 H       -2.6660     1.7830    -0.6020 H     1 <1>   0.0800 
 34 H       -2.9860     1.0370    -2.1390 H     1 <1>   0.0800 
 35 H       -6.7500    -1.8280     0.5700 H     1 <1>   0.0800 
 36 H       -5.2280    -1.9720     1.4320 H     1 <1>   0.0800 
 37 H       -6.9590    -4.1390     0.4230 H     1 <1>   0.3700 
 38 H       -4.9820    -6.2950     3.4170 H     1 <1>   0.1500 
 39 H       -6.6480    -8.7090    -0.5180 H     1 <1>   0.1500 
 40 H       -5.5550    -8.6780     3.5880 H     1 <1>   0.1500 
 41 H       -7.8330    -7.1420    -1.5350 H     1 <1>   0.0800 
 42 H       -7.1780    -5.9610    -2.6460 H     1 <1>   0.0800 
 43 H       -6.3990    -9.8840     1.6170 H     1 <1>   0.1500 
 44 H       -7.7170    -3.6020    -2.4470 H     1 <1>   0.1500 
 45 H       -8.9470    -6.3280     0.6100 H     1 <1>   0.1500 
 46 H       -9.0660    -1.8500    -1.4270 H     1 <1>   0.1500 
 47 H      -10.3060    -4.5580     1.6250 H     1 <1>   0.1500 
 48 H      -10.3680    -2.3140     0.6120 H     1 <1>   0.1500 
@<TRIPOS>BOND
  1   1   2  2   
  2   2   3  1   
  3   2   4  am  
  4   3   5  1   
  5   4   6  1   
  6   4   7  1   
  7   5   8  1   
  8   5  27  1   
  9   5  28  1   
 10   6   8  1   
 11   6  29  1   
 12   6  30  1   
 13   7   9  1   
 14   7  31  1   
 15   7  32  1   
 16   8  33  1   
 17   8  34  1   
 18   9  10  1   
 19   9  35  1   
 20   9  36  1   
 21  10  11  am  
 22  10  37  1   
 23  11  12  2   
 24  11  13  1   
 25  13  14  ar  
 26  13  15  ar  
 27  14  16  1   
 28  14  17  ar  
 29  15  18  ar  
 30  15  38  1   
 31  16  19  1   
 32  17  20  ar  
 33  17  39  1   
 34  18  20  ar  
 35  18  40  1   
 36  19  21  1   
 37  19  41  1   
 38  19  42  1   
 39  20  43  1   
 40  21  22  ar  
 41  21  23  ar  
 42  22  24  ar  
 43  22  44  1   
 44  23  25  ar  
 45  23  45  1   
 46  24  26  ar  
 47  24  46  1   
 48  25  26  ar  
 49  25  47  1   
 50  26  48  1   
@<TRIPOS>SUBSTRUCTURE
  1 ****  10 GROUP 4 **** **** 0

# MOE 2024.06 (io_trps.svl 2023.06)
