@<TRIPOS>MOLECULE
NONAME
53 56 1 0 0 
SMALL
USER_CHARGES


@<TRIPOS>ATOM
  1 O        2.9880     0.9610    -1.1500 O.2   1 <1>  -0.5700 
  2 C        2.7140     0.0450    -0.3800 C.2   1 <1>   0.6160 
  3 N        2.1560    -1.1320    -0.8860 N.am  1 <1>  -0.4690 
  4 C        2.9690     0.1460     1.0220 C.2   1 <1>   0.0290 
  5 C        1.8310    -2.1730    -0.0350 C.2   1 <1>  -0.0290 
  6 C        1.8770    -1.2430    -2.3530 C.3   1 <1>   0.0600 
  7 C        3.5610     1.3480     1.5320 C.2   1 <1>   0.6160 
  8 C        2.6310    -0.8980     1.8410 C.2   1 <1>  -0.1500 
  9 C        2.0610    -2.0650     1.3040 C.2   1 <1>  -0.1500 
 10 C        1.2090    -3.4430    -0.6000 C.3   1 <1>  -0.1020 
 11 O        2.8830     2.0820     2.2300 O.2   1 <1>  -0.5700 
 12 N        4.8890     1.6690     1.3220 N.am  1 <1>  -0.6600 
 13 C        5.8740     0.7850     0.6140 C.3   1 <1>   0.1400 
 14 C        5.4550     2.9590     1.8060 C.3   1 <1>   0.1400 
 15 C        6.2620     1.2970    -0.7860 C.3   1 <1>   0.1400 
 16 C        5.2510     4.0750     0.7730 C.3   1 <1>  -0.1600 
 17 N        6.6800     2.7340    -0.7720 N.am  1 <1>  -0.6600 
 18 C        5.5230     3.6670    -0.6820 C.3   1 <1>   0.1400 
 19 C        8.0140     3.1000    -0.6460 C.2   1 <1>   0.7160 
 20 O        8.8190     2.1900    -0.5040 O.2   1 <1>  -0.5700 
 21 C        8.5160     4.4790    -0.6450 C.2   1 <1>   0.2030 
 22 N        7.8520     5.6090    -0.8440 N.2   1 <1>  -0.7070 
 23 C        9.8690     4.7740    -0.4150 C.2   1 <1>  -0.1500 
 24 N        8.7620     6.5880    -0.7440 N.pl3 1 <1>   0.3000 
 25 C        9.9910     6.1130    -0.4830 C.2   1 <1>  -0.2370 
 26 C       11.2100     6.9960    -0.3170 C.3   1 <1>  -0.0150 
 27 C       12.3080     6.5900     0.6110 C.3   1 <1>  -0.2000 
 28 C       11.4110     7.7400     0.9620 C.3   1 <1>  -0.2000 
 29 H        2.2360    -0.3850    -2.8940 H     1 <1>   0.0800 
 30 H        0.8160    -1.3210    -2.5120 H     1 <1>   0.0800 
 31 H        2.3640    -2.1140    -2.7510 H     1 <1>   0.0800 
 32 H        2.7940    -0.8370     2.9040 H     1 <1>   0.1500 
 33 H        1.8110    -2.8620     1.9820 H     1 <1>   0.1500 
 34 H        0.2810    -3.2160    -1.0930 H     1 <1>   0.0800 
 35 H        1.0030    -4.1490     0.1850 H     1 <1>   0.0800 
 36 H        1.8800    -3.9080    -1.2990 H     1 <1>   0.0800 
 37 H        5.4810    -0.2110     0.5200 H     1 <1>   0.0800 
 38 H        6.7680     0.7140     1.2090 H     1 <1>   0.0800 
 39 H        6.5080     2.8360     1.9950 H     1 <1>   0.0800 
 40 H        4.9920     3.2410     2.7360 H     1 <1>   0.0800 
 41 H        5.4330     1.1740    -1.4600 H     1 <1>   0.0800 
 42 H        7.0610     0.6870    -1.1700 H     1 <1>   0.0800 
 43 H        5.8870     4.9010     1.0310 H     1 <1>   0.0800 
 44 H        4.2380     4.4290     0.8420 H     1 <1>   0.0800 
 45 H        5.6830     4.5340    -1.2970 H     1 <1>   0.0800 
 46 H        4.6440     3.1760    -1.0660 H     1 <1>   0.0800 
 47 H       10.6350     4.0420    -0.2250 H     1 <1>   0.1500 
 48 H        8.5230     7.5810    -0.8540 H     1 <1>   0.2700 
 49 H       11.5010     7.4830    -1.2330 H     1 <1>   0.1000 
 50 H       13.3250     6.7910     0.3230 H     1 <1>   0.1000 
 51 H       12.2090     5.6730     1.1650 H     1 <1>   0.1000 
 52 H       10.7010     7.6070     1.7600 H     1 <1>   0.1000 
 53 H       11.8120     8.7380     0.9260 H     1 <1>   0.1000 
@<TRIPOS>BOND
  1   1   2  2   
  2   2   3  am  
  3   2   4  1   
  4   3   5  1   
  5   3   6  1   
  6   4   7  1   
  7   4   8  2   
  8   5   9  2   
  9   5  10  1   
 10   6  29  1   
 11   6  30  1   
 12   6  31  1   
 13   7  11  2   
 14   7  12  am  
 15   8   9  1   
 16   8  32  1   
 17   9  33  1   
 18  10  34  1   
 19  10  35  1   
 20  10  36  1   
 21  12  13  1   
 22  12  14  1   
 23  13  15  1   
 24  13  37  1   
 25  13  38  1   
 26  14  16  1   
 27  14  39  1   
 28  14  40  1   
 29  15  17  1   
 30  15  41  1   
 31  15  42  1   
 32  16  18  1   
 33  16  43  1   
 34  16  44  1   
 35  17  18  1   
 36  17  19  am  
 37  18  45  1   
 38  18  46  1   
 39  19  20  2   
 40  19  21  1   
 41  21  22  2   
 42  21  23  1   
 43  22  24  1   
 44  23  25  2   
 45  23  47  1   
 46  24  25  1   
 47  24  48  1   
 48  25  26  1   
 49  26  27  1   
 50  26  28  1   
 51  26  49  1   
 52  27  28  1   
 53  27  50  1   
 54  27  51  1   
 55  28  52  1   
 56  28  53  1   
@<TRIPOS>SUBSTRUCTURE
  1 ****  17 GROUP 4 **** **** 0

# MOE 2024.06 (io_trps.svl 2023.06)
