@<TRIPOS>MOLECULE
NONAME
44 46 1 0 0 
SMALL
USER_CHARGES


@<TRIPOS>ATOM
  1 F       -0.8930     0.9010    -2.1060 F     1 <1>  -0.1900 
  2 C       -1.8480     1.0720    -1.2310 C.ar  1 <1>   0.1900 
  3 C       -1.9360     2.2740    -0.5210 C.ar  1 <1>   0.0530 
  4 C       -2.7270     0.0190    -1.0590 C.ar  1 <1>  -0.1500 
  5 C       -1.0240     3.3850    -0.7000 C.2   1 <1>   0.0870 
  6 C       -2.9830     2.3550     0.4000 C.ar  1 <1>  -0.1500 
  7 C       -3.7520     0.1410    -0.1380 C.ar  1 <1>  -0.1500 
  8 O       -0.9590     4.3370     0.2260 O.3   1 <1>  -0.2800 
  9 C       -0.1470     3.6990    -1.6930 C.2   1 <1>  -0.1500 
 10 C       -3.8750     1.3120     0.5900 C.ar  1 <1>  -0.1500 
 11 C       -0.0710     5.2390    -0.1410 C.2   1 <1>  -0.0400 
 12 C        0.4710     4.8960    -1.3290 C.2   1 <1>  -0.1500 
 13 C        0.1750     6.4270     0.7710 C.3   1 <1>   0.2900 
 14 N        1.0380     7.4120     0.1090 N.3   1 <1>  -0.9000 
 15 C        1.2300     8.6510     0.8660 C.3   1 <1>   0.1900 
 16 C        0.0010     9.5790     0.7390 C.3   1 <1>   0.1400 
 17 C        2.3730     9.4280     0.2010 C.3   1 <1>  -0.0990 
 18 N        0.3420    10.4630    -0.3890 N.am  1 <1>  -0.6600 
 19 C        1.6550    10.3900    -0.7040 C.2   1 <1>   0.5690 
 20 C       -0.6670    11.3060    -1.0680 C.3   1 <1>   0.1400 
 21 O        2.2080    11.0080    -1.5800 O.2   1 <1>  -0.5700 
 22 C       -1.0990    12.4500    -0.1480 C.3   1 <1>  -0.1600 
 23 C       -2.1150    13.3660    -0.8380 C.3   1 <1>  -0.2400 
 24 H       -2.6080    -0.8800    -1.6360 H     1 <1>   0.1500 
 25 H       -3.1020     3.2540     0.9790 H     1 <1>   0.1500 
 26 H       -4.4480    -0.6670     0.0120 H     1 <1>   0.1500 
 27 H        0.0590     3.1570    -2.5970 H     1 <1>   0.1500 
 28 H       -4.6700     1.4130     1.3100 H     1 <1>   0.1500 
 29 H        1.2240     5.4170    -1.8930 H     1 <1>   0.1500 
 30 H        0.6430     6.0840     1.6780 H     1 <1>   0.0800 
 31 H       -0.7750     6.8680     1.0180 H     1 <1>   0.0800 
 32 H        0.6230     7.6460    -0.8030 H     1 <1>   0.3600 
 33 H        1.4600     8.4210     1.8930 H     1 <1>   0.0800 
 34 H       -0.1090    10.1750     1.6290 H     1 <1>   0.0800 
 35 H       -0.9070     9.0370     0.5460 H     1 <1>   0.0800 
 36 H        3.0440     8.7940    -0.3480 H     1 <1>   0.0800 
 37 H        2.9190     9.9950     0.9300 H     1 <1>   0.0800 
 38 H       -1.5150    10.7000    -1.3400 H     1 <1>   0.0800 
 39 H       -0.2390    11.7110    -1.9710 H     1 <1>   0.0800 
 40 H       -0.2320    13.0270     0.1230 H     1 <1>   0.0800 
 41 H       -1.5410    12.0500     0.7470 H     1 <1>   0.0800 
 42 H       -1.6870    13.7980    -1.7270 H     1 <1>   0.0800 
 43 H       -2.3990    14.1650    -0.1760 H     1 <1>   0.0800 
 44 H       -2.9980    12.8150    -1.1100 H     1 <1>   0.0800 
@<TRIPOS>BOND
  1   1   2  1   
  2   2   3  ar  
  3   2   4  ar  
  4   3   5  1   
  5   3   6  ar  
  6   4   7  ar  
  7   4  24  1   
  8   5   8  1   
  9   5   9  2   
 10   6  10  ar  
 11   6  25  1   
 12   7  10  ar  
 13   7  26  1   
 14   8  11  1   
 15   9  12  1   
 16   9  27  1   
 17  10  28  1   
 18  11  12  2   
 19  11  13  1   
 20  12  29  1   
 21  13  14  1   
 22  13  30  1   
 23  13  31  1   
 24  14  15  1   
 25  14  32  1   
 26  15  16  1   
 27  15  17  1   
 28  15  33  1   
 29  16  18  1   
 30  16  34  1   
 31  16  35  1   
 32  17  19  1   
 33  17  36  1   
 34  17  37  1   
 35  18  19  am  
 36  18  20  1   
 37  19  21  2   
 38  20  22  1   
 39  20  38  1   
 40  20  39  1   
 41  22  23  1   
 42  22  40  1   
 43  22  41  1   
 44  23  42  1   
 45  23  43  1   
 46  23  44  1   
@<TRIPOS>SUBSTRUCTURE
  1 ****  11 GROUP 4 **** **** 0

# MOE 2024.06 (io_trps.svl 2023.06)
