@<TRIPOS>MOLECULE
NONAME
46 48 1 0 0 
SMALL
USER_CHARGES


@<TRIPOS>ATOM
  1 F        0.3120     0.3030     0.3720 F     1 <1>  -0.1900 
  2 C        0.9690    -0.7160    -0.1420 C.ar  1 <1>   0.1900 
  3 C        0.4750    -2.0140    -0.0090 C.ar  1 <1>   0.4100 
  4 C        2.1550    -0.5050    -0.8020 C.ar  1 <1>   0.1660 
  5 N        1.1620    -3.0320    -0.5110 N.ar  1 <1>  -0.6200 
  6 N       -0.7210    -2.3280     0.6220 N.pl3 1 <1>  -0.8380 
  7 N        2.8310    -1.5250    -1.3080 N.ar  1 <1>  -0.6200 
  8 C        2.7590     0.8820    -0.9880 C.3   1 <1>  -0.0170 
  9 C        2.2920    -2.7180    -1.1260 C.ar  1 <1>   0.4700 
 10 C       -0.9110    -3.6660     1.2570 C.3   1 <1>   0.2090 
 11 C       -1.9970    -1.7390     0.1220 C.3   1 <1>   0.2090 
 12 C        3.8380     1.1660     0.0630 C.3   1 <1>  -0.2400 
 13 C       -1.4960    -4.6520     0.2140 C.3   1 <1>   0.4230 
 14 C       -2.6200    -2.7010    -0.9000 C.3   1 <1>  -0.1600 
 15 N       -1.6440    -6.0710     0.6960 N.4   1 <1>  -0.9590 
 16 C       -2.8490    -4.1230    -0.3100 C.3   1 <1>  -0.1060 
 17 C       -2.0800    -6.9830    -0.3900 C.3   1 <1>   0.3430 
 18 C       -0.4840    -6.6020     1.4590 C.3   1 <1>   0.2630 
 19 C       -3.8470    -4.0710     0.8620 C.2   1 <1>   0.9060 
 20 C       -3.3700    -5.0500    -1.4340 C.3   1 <1>  -0.1600 
 21 C       -3.4140    -6.5160    -0.9770 C.3   1 <1>  -0.1600 
 22 O       -3.7410    -4.9030     1.7790 O.co2 1 <1>  -0.9000 
 23 O       -4.7280    -3.2130     0.8710 O.co2 1 <1>  -0.9000 
 24 H        3.1920     0.9440    -1.9710 H     1 <1>   0.0800 
 25 H        1.9930     1.6340    -0.9250 H     1 <1>   0.0800 
 26 H        2.8480    -3.5450    -1.5360 H     1 <1>   0.1500 
 27 H        0.0410    -4.0150     1.6120 H     1 <1>   0.0800 
 28 H       -1.5710    -3.5660     2.1020 H     1 <1>   0.0800 
 29 H       -2.6710    -1.5800     0.9490 H     1 <1>   0.0800 
 30 H       -1.8180    -0.7860    -0.3450 H     1 <1>   0.0800 
 31 H        4.6250     0.4360    -0.0090 H     1 <1>   0.0800 
 32 H        3.4160     1.1240     1.0520 H     1 <1>   0.0800 
 33 H        4.2590     2.1440    -0.0930 H     1 <1>   0.0800 
 34 H       -0.8050    -4.6570    -0.6110 H     1 <1>   0.0800 
 35 H       -3.5600    -2.2900    -1.2250 H     1 <1>   0.0800 
 36 H       -1.9740    -2.7490    -1.7580 H     1 <1>   0.0800 
 37 H       -2.4710    -5.9670     1.3460 H     1 <1>   0.4500 
 38 H       -1.3330    -7.0020    -1.1660 H     1 <1>   0.0800 
 39 H       -2.1970    -7.9820    -0.0020 H     1 <1>   0.0800 
 40 H        0.4000    -6.6010     0.8420 H     1 <1>   0.0800 
 41 H       -0.6860    -7.6100     1.7830 H     1 <1>   0.0800 
 42 H       -0.3050    -5.9960     2.3310 H     1 <1>   0.0800 
 43 H       -4.3590    -4.7350    -1.7260 H     1 <1>   0.0800 
 44 H       -2.7310    -4.9710    -2.2970 H     1 <1>   0.0800 
 45 H       -3.6720    -7.1420    -1.8130 H     1 <1>   0.0800 
 46 H       -4.1860    -6.6420    -0.2360 H     1 <1>   0.0800 
@<TRIPOS>BOND
  1   1   2  1   
  2   2   3  ar  
  3   2   4  ar  
  4   3   5  ar  
  5   3   6  1   
  6   4   7  ar  
  7   4   8  1   
  8   5   9  ar  
  9   6  10  1   
 10   6  11  1   
 11   7   9  ar  
 12   8  12  1   
 13   8  24  1   
 14   8  25  1   
 15   9  26  1   
 16  10  13  1   
 17  10  27  1   
 18  10  28  1   
 19  11  14  1   
 20  11  29  1   
 21  11  30  1   
 22  12  31  1   
 23  12  32  1   
 24  12  33  1   
 25  13  15  1   
 26  13  16  1   
 27  13  34  1   
 28  14  16  1   
 29  14  35  1   
 30  14  36  1   
 31  15  17  1   
 32  15  18  1   
 33  15  37  1   
 34  16  19  1   
 35  16  20  1   
 36  17  21  1   
 37  17  38  1   
 38  17  39  1   
 39  18  40  1   
 40  18  41  1   
 41  18  42  1   
 42  19  22  ar  
 43  19  23  ar  
 44  20  21  1   
 45  20  43  1   
 46  20  44  1   
 47  21  45  1   
 48  21  46  1   
@<TRIPOS>SUBSTRUCTURE
  1 ****   6 GROUP 4 **** **** 0

# MOE 2024.06 (io_trps.svl 2023.06)
