@<TRIPOS>MOLECULE
NONAME
50 53 1 0 0 
SMALL
USER_CHARGES


@<TRIPOS>ATOM
  1 O       -2.8120     0.1320     1.6300 O.2   1 <1>  -0.5700 
  2 C       -2.1990     0.9220     0.9410 C.2   1 <1>   0.6900 
  3 N       -2.7380     1.5640    -0.1350 N.am  1 <1>  -0.4200 
  4 N       -0.8930     1.2590     1.1150 N.am  1 <1>  -0.6600 
  5 C       -1.7970     2.3530    -0.7200 C.2   1 <1>   0.5690 
  6 C       -4.1320     1.3820    -0.6220 C.3   1 <1>   0.2010 
  7 C       -0.4920     2.2180     0.0500 C.3   1 <1>   0.2010 
  8 C        0.0530     0.7240     2.1230 C.3   1 <1>   0.0600 
  9 O       -1.9550     3.0560    -1.6860 O.2   1 <1>  -0.5700 
 10 C       -4.3580     0.0300    -1.2940 C.2   1 <1>   0.5690 
 11 O       -4.8890    -0.0050    -2.3780 O.2   1 <1>  -0.5700 
 12 N       -3.9870    -1.1100    -0.6570 N.am  1 <1>  -0.7300 
 13 C       -4.0500    -2.4780    -1.2240 C.3   1 <1>   0.2200 
 14 C       -5.1170    -3.3160    -0.5360 C.3   1 <1>  -0.0800 
 15 C       -2.7910    -3.2400    -0.8280 C.3   1 <1>   0.1200 
 16 C       -4.3970    -3.7550     0.7420 C.3   1 <1>   0.1200 
 17 C       -6.4640    -2.5990    -0.3090 C.3   1 <1>  -0.0160 
 18 O       -3.0300    -3.7490     0.4520 O.3   1 <1>  -0.5600 
 19 C       -7.6260    -3.4570     0.2090 C.ar  1 <1>  -0.1440 
 20 C       -8.8620    -2.8410     0.5260 C.ar  1 <1>   0.0000 
 21 C       -7.5510    -4.8120     0.3810 C.ar  1 <1>  -0.1500 
 22 C       -9.9110    -3.6600     1.0130 C.ar  1 <1>   0.3100 
 23 C       -9.1230    -1.4570     0.3810 C.ar  1 <1>  -0.1500 
 24 C       -8.6500    -5.5300     0.8660 C.ar  1 <1>   0.1600 
 25 N       -9.7890    -5.0000     1.1780 N.ar  1 <1>  -0.6200 
 26 C      -11.1420    -3.0700     1.3390 C.ar  1 <1>  -0.1500 
 27 C      -10.3360    -0.9130     0.7070 C.ar  1 <1>  -0.1500 
 28 C      -11.3600    -1.7280     1.1940 C.ar  1 <1>  -0.1500 
 29 H       -4.8070     1.4690     0.2090 H     1 <1>   0.0800 
 30 H       -4.3660     2.1590    -1.3270 H     1 <1>   0.0800 
 31 H       -0.1940     3.1610     0.4700 H     1 <1>   0.0800 
 32 H        0.2790     1.8050    -0.5740 H     1 <1>   0.0800 
 33 H        0.4440     1.5290     2.7210 H     1 <1>   0.0800 
 34 H        0.8640     0.2160     1.6320 H     1 <1>   0.0800 
 35 H       -0.4550     0.0260     2.7680 H     1 <1>   0.0800 
 36 H       -3.5660    -1.0510     0.2850 H     1 <1>   0.3700 
 37 H       -4.1790    -2.4380    -2.2920 H     1 <1>   0.0800 
 38 H       -5.2830    -4.1830    -1.1510 H     1 <1>   0.0800 
 39 H       -1.9150    -2.6160    -0.8110 H     1 <1>   0.0800 
 40 H       -2.6330    -4.0760    -1.4860 H     1 <1>   0.0800 
 41 H       -4.6810    -4.7410     1.0640 H     1 <1>   0.0800 
 42 H       -4.5600    -3.0520     1.5420 H     1 <1>   0.0800 
 43 H       -6.7680    -2.1600    -1.2450 H     1 <1>   0.0800 
 44 H       -6.3080    -1.7960     0.3890 H     1 <1>   0.0800 
 45 H       -6.6700    -5.3800     0.1580 H     1 <1>   0.1500 
 46 H       -8.3540    -0.8090     0.0040 H     1 <1>   0.1500 
 47 H       -8.5400    -6.5940     0.9870 H     1 <1>   0.1500 
 48 H      -11.9160    -3.7170     1.7100 H     1 <1>   0.1500 
 49 H      -10.5180     0.1410     0.5910 H     1 <1>   0.1500 
 50 H      -12.3110    -1.2900     1.4480 H     1 <1>   0.1500 
@<TRIPOS>BOND
  1   1   2  2   
  2   2   3  am  
  3   2   4  am  
  4   3   5  am  
  5   3   6  1   
  6   4   7  1   
  7   4   8  1   
  8   5   7  1   
  9   5   9  2   
 10   6  10  1   
 11   6  29  1   
 12   6  30  1   
 13   7  31  1   
 14   7  32  1   
 15   8  33  1   
 16   8  34  1   
 17   8  35  1   
 18  10  11  2   
 19  10  12  am  
 20  12  13  1   
 21  12  36  1   
 22  13  14  1   
 23  13  15  1   
 24  13  37  1   
 25  14  16  1   
 26  14  17  1   
 27  14  38  1   
 28  15  18  1   
 29  15  39  1   
 30  15  40  1   
 31  16  18  1   
 32  16  41  1   
 33  16  42  1   
 34  17  19  1   
 35  17  43  1   
 36  17  44  1   
 37  19  20  ar  
 38  19  21  ar  
 39  20  22  ar  
 40  20  23  ar  
 41  21  24  ar  
 42  21  45  1   
 43  22  25  ar  
 44  22  26  ar  
 45  23  27  ar  
 46  23  46  1   
 47  24  25  ar  
 48  24  47  1   
 49  26  28  ar  
 50  26  48  1   
 51  27  28  ar  
 52  27  49  1   
 53  28  50  1   
@<TRIPOS>SUBSTRUCTURE
  1 ****  12 GROUP 4 **** **** 0

# MOE 2024.06 (io_trps.svl 2023.06)
