@<TRIPOS>MOLECULE
NONAME
48 50 1 0 0 
SMALL
USER_CHARGES


@<TRIPOS>ATOM
  1 O       -0.3850     0.0140    -1.7190 O.2   1 <1>  -0.5700 
  2 C       -1.2410     0.6770    -1.1810 C.2   1 <1>   0.5690 
  3 N       -2.3860     0.0980    -0.6940 N.am  1 <1>  -0.6600 
  4 C       -1.0220     2.1840    -1.0940 C.3   1 <1>   0.1810 
  5 C       -3.4530     0.7850     0.0750 C.3   1 <1>   0.1400 
  6 C       -2.6240    -1.3650    -0.7310 C.3   1 <1>   0.1400 
  7 O       -1.0180     2.6340     0.2510 O.3   1 <1>  -0.3620 
  8 C       -4.4290    -0.3240     0.4730 C.3   1 <1>   0.2000 
  9 C       -3.6350    -1.6260     0.3870 C.3   1 <1>  -0.0800 
 10 C       -0.6320     3.9130     0.4300 C.ar  1 <1>   0.0820 
 11 O       -4.9060    -0.1460     1.7620 O.3   1 <1>  -0.6800 
 12 C       -4.5340    -2.8520     0.1550 C.3   1 <1>  -0.0170 
 13 C        0.7080     4.2350     0.6380 C.ar  1 <1>  -0.1440 
 14 C       -1.6070     4.8960     0.4030 C.ar  1 <1>  -0.1500 
 15 C       -3.7310    -4.1410     0.0980 C.ar  1 <1>   0.1670 
 16 C        1.0610     5.5740     0.7880 C.ar  1 <1>  -0.1440 
 17 C        1.7700     3.1360     0.6980 C.3   1 <1>  -0.0970 
 18 C       -1.2500     6.2210     0.5630 C.ar  1 <1>  -0.1500 
 19 N       -3.1680    -4.4360    -1.0630 N.ar  1 <1>  -0.6200 
 20 C       -3.6170    -4.9410     1.2340 C.ar  1 <1>   0.1600 
 21 C        0.0790     6.5540     0.7500 C.ar  1 <1>  -0.1500 
 22 C        2.5070     6.0040     0.9970 C.3   1 <1>  -0.0970 
 23 C       -2.4870    -5.5680    -1.0110 C.ar  1 <1>   0.1600 
 24 N       -2.9370    -6.0750     1.2870 N.ar  1 <1>  -0.6200 
 25 C       -2.3750    -6.3610     0.1250 C.ar  1 <1>   0.1600 
 26 H       -1.8030     2.6990    -1.6210 H     1 <1>   0.0800 
 27 H       -0.0740     2.4310    -1.5360 H     1 <1>   0.0800 
 28 H       -3.0250     1.2470     0.9470 H     1 <1>   0.0800 
 29 H       -3.9410     1.5230    -0.5370 H     1 <1>   0.0800 
 30 H       -3.0330    -1.6290    -1.6910 H     1 <1>   0.0800 
 31 H       -1.7090    -1.9130    -0.5740 H     1 <1>   0.0800 
 32 H       -5.2670    -0.3310    -0.2020 H     1 <1>   0.0800 
 33 H       -3.0720    -1.7620     1.2950 H     1 <1>   0.0800 
 34 H       -4.1630    -0.0830     2.3930 H     1 <1>   0.4000 
 35 H       -5.0790    -2.7390    -0.7670 H     1 <1>   0.0800 
 36 H       -5.2570    -2.9140     0.9490 H     1 <1>   0.0800 
 37 H       -2.6360     4.6240     0.2590 H     1 <1>   0.1500 
 38 H        2.4540     3.3170     1.5060 H     1 <1>   0.0800 
 39 H        2.3170     3.1080    -0.2270 H     1 <1>   0.0800 
 40 H        1.3310     2.1690     0.8620 H     1 <1>   0.0800 
 41 H       -2.0010     6.9900     0.5420 H     1 <1>   0.1500 
 42 H       -4.1070    -4.6300     2.1390 H     1 <1>   0.1500 
 43 H        0.3440     7.5900     0.8700 H     1 <1>   0.1500 
 44 H        2.6060     7.0720     0.9310 H     1 <1>   0.0800 
 45 H        3.1380     5.5650     0.2450 H     1 <1>   0.0800 
 46 H        2.8460     5.6910     1.9680 H     1 <1>   0.0800 
 47 H       -1.9930    -5.8850    -1.9120 H     1 <1>   0.1500 
 48 H       -1.7970    -7.2660     0.0680 H     1 <1>   0.1500 
@<TRIPOS>BOND
  1   1   2  2   
  2   2   3  am  
  3   2   4  1   
  4   3   5  1   
  5   3   6  1   
  6   4   7  1   
  7   4  26  1   
  8   4  27  1   
  9   5   8  1   
 10   5  28  1   
 11   5  29  1   
 12   6   9  1   
 13   6  30  1   
 14   6  31  1   
 15   7  10  1   
 16   8   9  1   
 17   8  11  1   
 18   8  32  1   
 19   9  12  1   
 20   9  33  1   
 21  10  13  ar  
 22  10  14  ar  
 23  11  34  1   
 24  12  15  1   
 25  12  35  1   
 26  12  36  1   
 27  13  16  ar  
 28  13  17  1   
 29  14  18  ar  
 30  14  37  1   
 31  15  19  ar  
 32  15  20  ar  
 33  16  21  ar  
 34  16  22  1   
 35  17  38  1   
 36  17  39  1   
 37  17  40  1   
 38  18  21  ar  
 39  18  41  1   
 40  19  23  ar  
 41  20  24  ar  
 42  20  42  1   
 43  21  43  1   
 44  22  44  1   
 45  22  45  1   
 46  22  46  1   
 47  23  25  ar  
 48  23  47  1   
 49  24  25  ar  
 50  25  48  1   
@<TRIPOS>SUBSTRUCTURE
  1 ****   3 GROUP 4 **** **** 0

# MOE 2024.06 (io_trps.svl 2023.06)
