@<TRIPOS>MOLECULE
NONAME
49 51 1 0 0 
SMALL
USER_CHARGES


@<TRIPOS>ATOM
  1 CL       0.8290    -0.7970     0.1520 Cl    1 <1>  -0.1770 
  2 C       -0.7890    -1.3810    -0.1450 C.ar  1 <1>   0.1770 
  3 C       -1.8490    -0.8180     0.5400 C.ar  1 <1>  -0.1500 
  4 C       -0.9850    -2.3970    -1.0600 C.ar  1 <1>  -0.1500 
  5 C       -3.1310    -1.2820     0.3010 C.ar  1 <1>  -0.1500 
  6 C       -2.2700    -2.8570    -1.2940 C.ar  1 <1>  -0.1500 
  7 C       -3.3470    -2.3010    -0.6170 C.ar  1 <1>  -0.1430 
  8 C       -4.7560    -2.8090    -0.8770 C.3   1 <1>  -0.0160 
  9 C       -5.0890    -3.9790     0.0570 C.3   1 <1>  -0.1600 
 10 C       -6.5160    -4.5120    -0.1780 C.3   1 <1>  -0.0990 
 11 C       -6.9190    -5.6690     0.7360 C.2   1 <1>   0.5690 
 12 O       -6.0520    -6.2100     1.3820 O.2   1 <1>  -0.5700 
 13 N       -8.2310    -6.0780     0.8150 N.am  1 <1>  -0.6600 
 14 C       -9.3150    -5.5390    -0.0620 C.3   1 <1>   0.2200 
 15 C       -8.6040    -7.1230     1.8210 C.3   1 <1>   0.0600 
 16 C      -10.2630    -6.5940    -0.6300 C.3   1 <1>  -0.1600 
 17 C      -10.2290    -4.5680     0.6780 C.3   1 <1>  -0.1600 
 18 C      -11.5020    -5.7950    -1.0550 C.3   1 <1>  -0.0800 
 19 C      -11.5180    -4.5320    -0.1550 C.3   1 <1>  -0.0800 
 20 C      -12.7920    -6.6410    -1.0540 C.3   1 <1>   0.1400 
 21 C      -12.7870    -4.3890     0.7070 C.3   1 <1>  -0.0990 
 22 N      -13.9730    -5.7600    -0.9390 N.am  1 <1>  -0.7300 
 23 C      -14.0210    -4.6940    -0.1140 C.2   1 <1>   0.5690 
 24 O      -15.0070    -4.0110    -0.0220 O.2   1 <1>  -0.5700 
 25 H       -1.6700    -0.0300     1.2480 H     1 <1>   0.1500 
 26 H       -0.1440    -2.8210    -1.5780 H     1 <1>   0.1500 
 27 H       -3.9600    -0.8500     0.8340 H     1 <1>   0.1500 
 28 H       -2.4290    -3.6520    -2.0030 H     1 <1>   0.1500 
 29 H       -5.4590    -2.0090    -0.7240 H     1 <1>   0.0800 
 30 H       -4.8390    -3.1260    -1.9020 H     1 <1>   0.0800 
 31 H       -4.9920    -3.6580     1.0800 H     1 <1>   0.0800 
 32 H       -4.3790    -4.7740    -0.1030 H     1 <1>   0.0800 
 33 H       -6.5990    -4.8500    -1.1940 H     1 <1>   0.0800 
 34 H       -7.2070    -3.7050    -0.0250 H     1 <1>   0.0800 
 35 H       -8.8900    -5.0200    -0.9030 H     1 <1>   0.0800 
 36 H       -9.5700    -6.9160     2.2450 H     1 <1>   0.0800 
 37 H       -7.8880    -7.1500     2.6240 H     1 <1>   0.0800 
 38 H       -8.6210    -8.0890     1.3480 H     1 <1>   0.0800 
 39 H       -9.8200    -7.1140    -1.4610 H     1 <1>   0.0800 
 40 H      -10.5470    -7.3010     0.1270 H     1 <1>   0.0800 
 41 H      -10.4360    -4.9400     1.6650 H     1 <1>   0.0800 
 42 H       -9.7840    -3.5920     0.7550 H     1 <1>   0.0800 
 43 H      -11.3420    -5.4610    -2.0670 H     1 <1>   0.0800 
 44 H      -11.4760    -3.6770    -0.8100 H     1 <1>   0.0800 
 45 H      -12.7960    -7.3170    -0.2150 H     1 <1>   0.0800 
 46 H      -12.8540    -7.2210    -1.9590 H     1 <1>   0.0800 
 47 H      -12.8570    -3.3920     1.1040 H     1 <1>   0.0800 
 48 H      -12.7660    -5.0800     1.5290 H     1 <1>   0.0800 
 49 H      -14.8190    -5.9900    -1.4650 H     1 <1>   0.3700 
@<TRIPOS>BOND
  1   1   2  1   
  2   2   3  ar  
  3   2   4  ar  
  4   3   5  ar  
  5   3  25  1   
  6   4   6  ar  
  7   4  26  1   
  8   5   7  ar  
  9   5  27  1   
 10   6   7  ar  
 11   6  28  1   
 12   7   8  1   
 13   8   9  1   
 14   8  29  1   
 15   8  30  1   
 16   9  10  1   
 17   9  31  1   
 18   9  32  1   
 19  10  11  1   
 20  10  33  1   
 21  10  34  1   
 22  11  12  2   
 23  11  13  am  
 24  13  14  1   
 25  13  15  1   
 26  14  16  1   
 27  14  17  1   
 28  14  35  1   
 29  15  36  1   
 30  15  37  1   
 31  15  38  1   
 32  16  18  1   
 33  16  39  1   
 34  16  40  1   
 35  17  19  1   
 36  17  41  1   
 37  17  42  1   
 38  18  19  1   
 39  18  20  1   
 40  18  43  1   
 41  19  21  1   
 42  19  44  1   
 43  20  22  1   
 44  20  45  1   
 45  20  46  1   
 46  21  23  1   
 47  21  47  1   
 48  21  48  1   
 49  22  23  am  
 50  22  49  1   
 51  23  24  2   
@<TRIPOS>SUBSTRUCTURE
  1 ****  10 GROUP 4 **** **** 0

# MOE 2024.06 (io_trps.svl 2023.06)
