@<TRIPOS>MOLECULE
NONAME
51 54 1 0 0 
SMALL
USER_CHARGES


@<TRIPOS>ATOM
  1 O       -3.3620     1.5870    -2.5100 O.2   1 <1>  -0.5700 
  2 C       -2.7680     1.4950    -1.4630 C.2   1 <1>   0.5690 
  3 N       -2.2840     0.3060    -1.0230 N.am  1 <1>  -0.7300 
  4 C       -2.5810     2.7380    -0.6220 C.3   1 <1>   0.1570 
  5 C       -2.2870    -0.9740    -1.7660 C.3   1 <1>   0.2200 
  6 N       -1.2520     2.7140     0.0080 N.pl3 1 <1>   0.3140 
  7 C       -3.1770    -2.0070    -1.0910 C.3   1 <1>  -0.0800 
  8 C       -0.9200    -1.6340    -1.6240 C.3   1 <1>   0.1200 
  9 N       -1.0290     1.9790     1.1160 N.2   1 <1>  -0.7070 
 10 C       -0.1160     3.3110    -0.4200 C.2   1 <1>  -0.3320 
 11 C       -2.2630    -2.5390     0.0170 C.3   1 <1>   0.1200 
 12 C       -4.5380    -1.4750    -0.5970 C.3   1 <1>  -0.0160 
 13 O       -0.9490    -2.3360    -0.4150 O.3   1 <1>  -0.5600 
 14 C        0.2310     2.1300     1.3700 C.2   1 <1>   0.1080 
 15 C        0.8580     2.9540     0.4440 C.2   1 <1>  -0.1500 
 16 C        0.0000     4.1940    -1.6520 C.3   1 <1>  -0.0600 
 17 C       -5.5240    -2.5130    -0.0450 C.ar  1 <1>  -0.1440 
 18 C        0.9060     1.4620     2.5450 C.3   1 <1>  -0.0590 
 19 C       -6.7260    -2.0790     0.5680 C.ar  1 <1>   0.0000 
 20 C       -5.3200    -3.8630    -0.1160 C.ar  1 <1>  -0.1500 
 21 C       -7.6060    -3.0640     1.0810 C.ar  1 <1>   0.3100 
 22 C       -7.1120    -0.7230     0.6970 C.ar  1 <1>  -0.1500 
 23 C       -6.2590    -4.7540     0.4190 C.ar  1 <1>   0.1600 
 24 N       -7.3580    -4.3950     1.0000 N.ar  1 <1>  -0.6200 
 25 C       -8.7990    -2.6590     1.7010 C.ar  1 <1>  -0.1500 
 26 C       -8.2830    -0.3610     1.3050 C.ar  1 <1>  -0.1500 
 27 C       -9.1390    -1.3390     1.8160 C.ar  1 <1>  -0.1500 
 28 H       -1.7310     0.3060    -0.1490 H     1 <1>   0.3700 
 29 H       -3.3260     2.7630     0.1480 H     1 <1>   0.0800 
 30 H       -2.6730     3.6130    -1.2340 H     1 <1>   0.0800 
 31 H       -2.5510    -0.8100    -2.7980 H     1 <1>   0.0800 
 32 H       -3.3450    -2.7940    -1.8040 H     1 <1>   0.0800 
 33 H       -0.1140    -0.9210    -1.6090 H     1 <1>   0.0800 
 34 H       -0.7620    -2.3500    -2.4110 H     1 <1>   0.0800 
 35 H       -2.4080    -3.5870     0.2090 H     1 <1>   0.0800 
 36 H       -2.3910    -1.9820     0.9290 H     1 <1>   0.0800 
 37 H       -5.0160    -0.9620    -1.4140 H     1 <1>   0.0800 
 38 H       -4.3540    -0.7510     0.1770 H     1 <1>   0.0800 
 39 H        1.8980     3.2270     0.4410 H     1 <1>   0.1500 
 40 H        1.0190     4.5130    -1.7830 H     1 <1>   0.0800 
 41 H       -0.6190     5.0670    -1.5460 H     1 <1>   0.0800 
 42 H       -0.3020     3.6510    -2.5300 H     1 <1>   0.0800 
 43 H        1.9380     1.7550     2.6020 H     1 <1>   0.0800 
 44 H        0.8480     0.3950     2.4310 H     1 <1>   0.0800 
 45 H        0.4070     1.7450     3.4530 H     1 <1>   0.0800 
 46 H       -4.4540    -4.2990    -0.5730 H     1 <1>   0.1500 
 47 H       -6.4750     0.0480     0.3070 H     1 <1>   0.1500 
 48 H       -6.0510    -5.8080     0.3420 H     1 <1>   0.1500 
 49 H       -9.4420    -3.4290     2.0840 H     1 <1>   0.1500 
 50 H       -8.5600     0.6750     1.3960 H     1 <1>   0.1500 
 51 H      -10.0570    -1.0420     2.2940 H     1 <1>   0.1500 
@<TRIPOS>BOND
  1   1   2  2   
  2   2   3  am  
  3   2   4  1   
  4   3   5  1   
  5   3  28  1   
  6   4   6  1   
  7   4  29  1   
  8   4  30  1   
  9   5   7  1   
 10   5   8  1   
 11   5  31  1   
 12   6   9  1   
 13   6  10  1   
 14   7  11  1   
 15   7  12  1   
 16   7  32  1   
 17   8  13  1   
 18   8  33  1   
 19   8  34  1   
 20   9  14  2   
 21  10  15  2   
 22  10  16  1   
 23  11  13  1   
 24  11  35  1   
 25  11  36  1   
 26  12  17  1   
 27  12  37  1   
 28  12  38  1   
 29  14  15  1   
 30  14  18  1   
 31  15  39  1   
 32  16  40  1   
 33  16  41  1   
 34  16  42  1   
 35  17  19  ar  
 36  17  20  ar  
 37  18  43  1   
 38  18  44  1   
 39  18  45  1   
 40  19  21  ar  
 41  19  22  ar  
 42  20  23  ar  
 43  20  46  1   
 44  21  24  ar  
 45  21  25  ar  
 46  22  26  ar  
 47  22  47  1   
 48  23  24  ar  
 49  23  48  1   
 50  25  27  ar  
 51  25  49  1   
 52  26  27  ar  
 53  26  50  1   
 54  27  51  1   
@<TRIPOS>SUBSTRUCTURE
  1 ****  12 GROUP 4 **** **** 0

# MOE 2024.06 (io_trps.svl 2023.06)
