@<TRIPOS>MOLECULE
NONAME
47 49 1 0 0 
SMALL
USER_CHARGES


@<TRIPOS>ATOM
  1 O       -2.6290    -1.2830    -3.3880 O.2   1 <1>  -0.5700 
  2 C       -2.7110    -1.4210    -2.1900 C.2   1 <1>   0.5690 
  3 N       -2.3580    -0.4300    -1.3210 N.am  1 <1>  -0.6600 
  4 C       -3.2110    -2.7490    -1.6680 C.3   1 <1>  -0.0190 
  5 C       -2.5510    -0.5730     0.1510 C.3   1 <1>   0.2200 
  6 C       -1.8250     0.8810    -1.7900 C.3   1 <1>   0.0600 
  7 C       -2.1200    -3.4460    -0.8330 C.3   1 <1>   0.1200 
  8 C       -4.6130    -2.6170    -1.0410 C.3   1 <1>   0.1400 
  9 C       -1.6450    -1.6880     0.7380 C.3   1 <1>   0.1200 
 10 C       -4.0550    -0.6700     0.4980 C.3   1 <1>   0.1400 
 11 O       -2.0560    -3.0090     0.4900 O.3   1 <1>  -0.5600 
 12 N       -4.6430    -2.0400     0.3420 N.am  1 <1>  -0.6600 
 13 C       -5.0300    -2.7410     1.4630 C.2   1 <1>   0.5690 
 14 O       -5.1540    -2.1930     2.5360 O.2   1 <1>  -0.5700 
 15 C       -5.2900    -4.2430     1.4300 C.3   1 <1>   0.0440 
 16 C       -6.5730    -4.6420     0.7030 C.ar  1 <1>  -0.1440 
 17 C       -7.7430    -3.9250     0.8940 C.ar  1 <1>  -0.1500 
 18 C       -6.5760    -5.7290    -0.1580 C.ar  1 <1>  -0.1500 
 19 C       -8.9040    -4.2780     0.2260 C.ar  1 <1>  -0.1440 
 20 C       -7.7310    -6.0920    -0.8310 C.ar  1 <1>  -0.1440 
 21 C       -8.8900    -5.3600    -0.6370 C.ar  1 <1>  -0.1500 
 22 C      -10.1770    -3.4800     0.4410 C.3   1 <1>  -0.0970 
 23 C       -7.7280    -7.2790    -1.7770 C.3   1 <1>  -0.0970 
 24 H       -3.3400    -3.3610    -2.5410 H     1 <1>   0.0800 
 25 H       -2.2090     0.3450     0.5950 H     1 <1>   0.0800 
 26 H       -0.8660     1.0680    -1.3400 H     1 <1>   0.0800 
 27 H       -2.5060     1.6690    -1.5200 H     1 <1>   0.0800 
 28 H       -1.7050     0.8850    -2.8600 H     1 <1>   0.0800 
 29 H       -1.1510    -3.3130    -1.2830 H     1 <1>   0.0800 
 30 H       -2.3300    -4.5000    -0.7930 H     1 <1>   0.0800 
 31 H       -5.0670    -3.5880    -1.0460 H     1 <1>   0.0800 
 32 H       -5.2210    -1.9970    -1.6780 H     1 <1>   0.0800 
 33 H       -1.6280    -1.5800     1.8080 H     1 <1>   0.0800 
 34 H       -0.6380    -1.5740     0.3770 H     1 <1>   0.0800 
 35 H       -4.6070     0.0210    -0.1130 H     1 <1>   0.0800 
 36 H       -4.1710    -0.3440     1.5160 H     1 <1>   0.0800 
 37 H       -4.4390    -4.7180     0.9820 H     1 <1>   0.0800 
 38 H       -5.3530    -4.5980     2.4420 H     1 <1>   0.0800 
 39 H       -7.7520    -3.0830     1.5660 H     1 <1>   0.1500 
 40 H       -5.6760    -6.2980    -0.3070 H     1 <1>   0.1500 
 41 H       -9.7880    -5.6360    -1.1610 H     1 <1>   0.1500 
 42 H      -11.0420    -4.0920     0.2590 H     1 <1>   0.0800 
 43 H      -10.1950    -2.6410    -0.2310 H     1 <1>   0.0800 
 44 H      -10.2240    -3.1170     1.4520 H     1 <1>   0.0800 
 45 H       -8.6790    -7.7800    -1.7490 H     1 <1>   0.0800 
 46 H       -6.9670    -7.9840    -1.4960 H     1 <1>   0.0800 
 47 H       -7.5410    -6.9440    -2.7810 H     1 <1>   0.0800 
@<TRIPOS>BOND
  1   1   2  2   
  2   2   3  am  
  3   2   4  1   
  4   3   5  1   
  5   3   6  1   
  6   4   7  1   
  7   4   8  1   
  8   4  24  1   
  9   5   9  1   
 10   5  10  1   
 11   5  25  1   
 12   6  26  1   
 13   6  27  1   
 14   6  28  1   
 15   7  11  1   
 16   7  29  1   
 17   7  30  1   
 18   8  12  1   
 19   8  31  1   
 20   8  32  1   
 21   9  11  1   
 22   9  33  1   
 23   9  34  1   
 24  10  12  1   
 25  10  35  1   
 26  10  36  1   
 27  12  13  am  
 28  13  14  2   
 29  13  15  1   
 30  15  16  1   
 31  15  37  1   
 32  15  38  1   
 33  16  17  ar  
 34  16  18  ar  
 35  17  19  ar  
 36  17  39  1   
 37  18  20  ar  
 38  18  40  1   
 39  19  21  ar  
 40  19  22  1   
 41  20  21  ar  
 42  20  23  1   
 43  21  41  1   
 44  22  42  1   
 45  22  43  1   
 46  22  44  1   
 47  23  45  1   
 48  23  46  1   
 49  23  47  1   
@<TRIPOS>SUBSTRUCTURE
  1 ****   8 GROUP 4 **** **** 0

# MOE 2024.06 (io_trps.svl 2023.06)
