@<TRIPOS>MOLECULE
NONAME
43 44 1 0 0 
SMALL
USER_CHARGES


@<TRIPOS>ATOM
  1 O       -1.1840    -0.6190    -0.1220 O.2   1 <1>  -0.5700 
  2 C       -0.7290    -1.7370    -0.2680 C.2   1 <1>   0.5440 
  3 N        0.6120    -1.9240    -0.0690 N.am  1 <1>  -0.7300 
  4 C       -1.5860    -2.8340    -0.6580 C.ar  1 <1>   0.0860 
  5 C        1.5610    -0.8760     0.3540 C.3   1 <1>   0.1400 
  6 C       -2.8050    -2.5910    -1.2910 C.ar  1 <1>   0.1600 
  7 C       -1.2580    -4.1710    -0.4340 C.ar  1 <1>  -0.1500 
  8 C        2.6030    -1.5050     1.2710 C.3   1 <1>  -0.2400 
  9 N       -3.6660    -3.5050    -1.7070 N.ar  1 <1>  -0.6200 
 10 C       -2.1410    -5.1340    -0.8590 C.ar  1 <1>  -0.1500 
 11 C       -3.3260    -4.7610    -1.4860 C.ar  1 <1>   0.4100 
 12 N       -4.2370    -5.6670    -1.9270 N.pl3 1 <1>  -0.8690 
 13 C       -4.7200    -6.7830    -1.0890 C.3   1 <1>   0.2090 
 14 C       -6.2550    -6.7900    -1.0230 C.3   1 <1>  -0.0800 
 15 C       -6.7840    -5.4900    -0.3820 C.3   1 <1>   0.1200 
 16 C       -6.7090    -8.0540    -0.2580 C.3   1 <1>   0.0200 
 17 O       -8.1340    -5.3510    -0.6550 O.3   1 <1>  -0.6800 
 18 C       -8.2160    -8.1900    -0.1520 C.2   1 <1>  -0.0400 
 19 O       -8.9300    -8.2320    -1.2590 O.3   1 <1>  -0.2800 
 20 C       -9.0190    -8.2680     0.9310 C.2   1 <1>  -0.1500 
 21 C      -10.1980    -8.3370    -0.9130 C.2   1 <1>  -0.0100 
 22 C      -10.3230    -8.3640     0.4310 C.2   1 <1>  -0.1500 
 23 H        1.0380    -2.8140    -0.3280 H     1 <1>   0.3700 
 24 H        1.0360    -0.0930     0.8760 H     1 <1>   0.0800 
 25 H        2.0340    -0.4510    -0.5150 H     1 <1>   0.0800 
 26 H       -3.0780    -1.5630    -1.4640 H     1 <1>   0.1500 
 27 H       -0.3430    -4.4430     0.0610 H     1 <1>   0.1500 
 28 H        2.1270    -1.9270     2.1390 H     1 <1>   0.0800 
 29 H        3.2960    -0.7500     1.5980 H     1 <1>   0.0800 
 30 H        3.1530    -2.2690     0.7520 H     1 <1>   0.0800 
 31 H       -1.9310    -6.1770    -0.7220 H     1 <1>   0.1500 
 32 H       -4.9810    -5.2040    -2.4590 H     1 <1>   0.4000 
 33 H       -4.3130    -6.6960    -0.0950 H     1 <1>   0.0800 
 34 H       -4.3700    -7.7060    -1.5190 H     1 <1>   0.0800 
 35 H       -6.6200    -6.8510    -2.0340 H     1 <1>   0.0800 
 36 H       -6.2920    -4.6180    -0.7800 H     1 <1>   0.0800 
 37 H       -6.6530    -5.5020     0.6860 H     1 <1>   0.0800 
 38 H       -6.2960    -8.0460     0.7350 H     1 <1>   0.0800 
 39 H       -6.3360    -8.9290    -0.7620 H     1 <1>   0.0800 
 40 H       -8.5810    -6.2270    -0.6010 H     1 <1>   0.4000 
 41 H       -8.7530    -8.2570     1.9740 H     1 <1>   0.1500 
 42 H      -10.9450    -8.3850    -1.6860 H     1 <1>   0.1500 
 43 H      -11.2180    -8.4420     1.0230 H     1 <1>   0.1500 
@<TRIPOS>BOND
  1   1   2  2   
  2   2   3  am  
  3   2   4  1   
  4   3   5  1   
  5   3  23  1   
  6   4   6  ar  
  7   4   7  ar  
  8   5   8  1   
  9   5  24  1   
 10   5  25  1   
 11   6   9  ar  
 12   6  26  1   
 13   7  10  ar  
 14   7  27  1   
 15   8  28  1   
 16   8  29  1   
 17   8  30  1   
 18   9  11  ar  
 19  10  11  ar  
 20  10  31  1   
 21  11  12  1   
 22  12  13  1   
 23  12  32  1   
 24  13  14  1   
 25  13  33  1   
 26  13  34  1   
 27  14  15  1   
 28  14  16  1   
 29  14  35  1   
 30  15  17  1   
 31  15  36  1   
 32  15  37  1   
 33  16  18  1   
 34  16  38  1   
 35  16  39  1   
 36  17  40  1   
 37  18  19  1   
 38  18  20  2   
 39  19  21  1   
 40  20  22  1   
 41  20  41  1   
 42  21  22  2   
 43  21  42  1   
 44  22  43  1   
@<TRIPOS>SUBSTRUCTURE
  1 ****  11 GROUP 4 **** **** 0

# MOE 2024.06 (io_trps.svl 2023.06)
