@<TRIPOS>MOLECULE
NONAME
42 42 1 0 0 
SMALL
USER_CHARGES


@<TRIPOS>ATOM
  1 O        0.3590     1.7540     0.4480 O.2   1 <1>  -0.5700 
  2 C        1.2980     1.4390    -0.2580 C.2   1 <1>   0.7800 
  3 O        2.0660     0.3850    -0.0040 O.3   1 <1>  -0.4300 
  4 N        1.6700     2.2600    -1.2820 N.am  1 <1>  -0.6600 
  5 C        1.8870    -0.5780     1.0130 C.3   1 <1>   0.2800 
  6 C        3.0560     2.7630    -1.3500 C.3   1 <1>   0.1400 
  7 C        0.6710     3.0470    -2.0570 C.3   1 <1>   0.1400 
  8 C        3.0200    -1.5850     0.8150 C.3   1 <1>  -0.2400 
  9 C        2.0240     0.0770     2.3920 C.3   1 <1>  -0.2400 
 10 C        0.5400    -1.2890     0.8350 C.3   1 <1>  -0.2400 
 11 C        3.1070     4.1440    -0.6700 C.3   1 <1>  -0.1600 
 12 C        0.9620     4.5550    -1.9430 C.3   1 <1>  -0.1600 
 13 C        1.7640     4.9200    -0.6830 C.3   1 <1>   0.5030 
 14 N        0.9750     4.5310     0.4960 N.4   1 <1>  -0.8530 
 15 C        2.0020     6.4400    -0.5870 C.3   1 <1>  -0.0220 
 16 C        2.6110     6.8510     0.7500 C.2   1 <1>  -0.2880 
 17 C        1.9730     7.5470     1.6960 C.2   1 <1>  -0.3000 
 18 H        3.3440     2.8410    -2.3860 H     1 <1>   0.0800 
 19 H        3.7370     2.0790    -0.8690 H     1 <1>   0.0800 
 20 H       -0.3210     2.8340    -1.6900 H     1 <1>   0.0800 
 21 H        0.7030     2.7410    -3.0900 H     1 <1>   0.0800 
 22 H        3.9750    -1.1000     0.9140 H     1 <1>   0.0800 
 23 H        2.9550    -2.0350    -0.1590 H     1 <1>   0.0800 
 24 H        2.9600    -2.3650     1.5520 H     1 <1>   0.0800 
 25 H        2.9470     0.6230     2.4590 H     1 <1>   0.0800 
 26 H        2.0250    -0.6820     3.1540 H     1 <1>   0.0800 
 27 H        1.2000     0.7340     2.5960 H     1 <1>   0.0800 
 28 H        0.4510    -1.6800    -0.1620 H     1 <1>   0.0800 
 29 H       -0.2820    -0.6260     1.0320 H     1 <1>   0.0800 
 30 H        0.4660    -2.1090     1.5260 H     1 <1>   0.0800 
 31 H        3.8550     4.7130    -1.1940 H     1 <1>   0.0800 
 32 H        3.4650     4.0320     0.3380 H     1 <1>   0.0800 
 33 H        0.0370     5.1030    -1.9890 H     1 <1>   0.0800 
 34 H        1.5320     4.8480    -2.8080 H     1 <1>   0.0800 
 35 H        0.8200     3.5070     0.4990 H     1 <1>   0.4500 
 36 H        0.0600     4.9820     0.5010 H     1 <1>   0.4500 
 37 H        1.4710     4.8050     1.3480 H     1 <1>   0.4500 
 38 H        1.0670     6.9570    -0.7240 H     1 <1>   0.0800 
 39 H        2.6510     6.7620    -1.3830 H     1 <1>   0.0800 
 40 H        3.6370     6.5370     0.8720 H     1 <1>   0.1500 
 41 H        2.4260     7.8380     2.6320 H     1 <1>   0.1500 
 42 H        0.9590     7.9040     1.6280 H     1 <1>   0.1500 
@<TRIPOS>BOND
  1   1   2  2   
  2   2   3  1   
  3   2   4  am  
  4   3   5  1   
  5   4   6  1   
  6   4   7  1   
  7   5   8  1   
  8   5   9  1   
  9   5  10  1   
 10   6  11  1   
 11   6  18  1   
 12   6  19  1   
 13   7  12  1   
 14   7  20  1   
 15   7  21  1   
 16   8  22  1   
 17   8  23  1   
 18   8  24  1   
 19   9  25  1   
 20   9  26  1   
 21   9  27  1   
 22  10  28  1   
 23  10  29  1   
 24  10  30  1   
 25  11  13  1   
 26  11  31  1   
 27  11  32  1   
 28  12  13  1   
 29  12  33  1   
 30  12  34  1   
 31  13  14  1   
 32  13  15  1   
 33  14  35  1   
 34  14  36  1   
 35  14  37  1   
 36  15  16  1   
 37  15  38  1   
 38  15  39  1   
 39  16  17  2   
 40  16  40  1   
 41  17  41  1   
 42  17  42  1   
@<TRIPOS>SUBSTRUCTURE
  1 ****   4 GROUP 4 **** **** 0

# MOE 2024.06 (io_trps.svl 2023.06)
