@<TRIPOS>MOLECULE
NONAME
54 57 1 0 0 
SMALL
USER_CHARGES


@<TRIPOS>ATOM
  1 O       -3.0210    -2.4840     0.3460 O.3   1 <1>  -0.5600 
  2 C       -2.5040    -1.2420    -0.0220 C.3   1 <1>   0.1200 
  3 C       -2.0730    -3.5070     0.3180 C.3   1 <1>   0.0400 
  4 C       -3.6030    -0.1790     0.0680 C.3   1 <1>   0.0960 
  5 N       -4.6600    -0.3670    -0.9580 N.pl3 1 <1>   0.0480 
  6 C       -5.6300    -1.3110    -1.0760 C.2   1 <1>   0.0060 
  7 C       -4.8730     0.4610    -1.9970 C.2   1 <1>  -0.3020 
  8 N       -6.4170    -1.1300    -2.0970 N.2   1 <1>  -0.5650 
  9 C       -5.7870    -2.4830    -0.1190 C.3   1 <1>   0.5230 
 10 C       -5.9370    -0.0150    -2.6770 C.2   1 <1>   0.0770 
 11 N       -7.1570    -3.0270    -0.3060 N.4   1 <1>  -0.9590 
 12 C       -8.1980    -2.2570     0.4390 C.3   1 <1>   0.3430 
 13 C       -7.2960    -4.4730     0.0080 C.3   1 <1>   0.3430 
 14 C       -9.0880    -3.3090     1.1070 C.3   1 <1>   0.2000 
 15 C       -8.2090    -4.5490     1.2300 C.3   1 <1>  -0.0800 
 16 O       -9.5250    -2.9020     2.3580 O.3   1 <1>  -0.6800 
 17 C       -9.0040    -5.8630     1.3380 C.3   1 <1>  -0.0170 
 18 C       -8.0490    -7.0520     1.2970 C.ar  1 <1>  -0.1440 
 19 C       -7.6980    -7.7300     0.1030 C.ar  1 <1>   0.0000 
 20 C       -7.4730    -7.4790     2.4580 C.ar  1 <1>  -0.1500 
 21 C       -6.7280    -8.7590     0.1970 C.ar  1 <1>   0.3100 
 22 C       -8.2420    -7.4550    -1.1750 C.ar  1 <1>  -0.1500 
 23 C       -6.5450    -8.5270     2.4430 C.ar  1 <1>   0.1600 
 24 N       -6.1640    -9.1400     1.3690 N.ar  1 <1>  -0.6200 
 25 C       -6.3190    -9.4200    -0.9710 C.ar  1 <1>  -0.1500 
 26 C       -7.8240    -8.1210    -2.2940 C.ar  1 <1>  -0.1500 
 27 C       -6.8450    -9.1120    -2.1950 C.ar  1 <1>  -0.1500 
 28 H       -1.7040    -0.9940     0.6550 H     1 <1>   0.0800 
 29 H       -2.1160    -1.3000    -1.0260 H     1 <1>   0.0800 
 30 H       -2.5500    -4.4240     0.6140 H     1 <1>   0.0800 
 31 H       -1.2780    -3.2770     1.0080 H     1 <1>   0.0800 
 32 H       -1.6840    -3.6090    -0.6810 H     1 <1>   0.0800 
 33 H       -3.1610     0.7890    -0.0820 H     1 <1>   0.0800 
 34 H       -4.0450    -0.1910     1.0470 H     1 <1>   0.0800 
 35 H       -4.2740     1.3300    -2.2020 H     1 <1>   0.1500 
 36 H       -5.6260    -2.1740     0.8990 H     1 <1>   0.0800 
 37 H       -5.0570    -3.2310    -0.3770 H     1 <1>   0.0800 
 38 H       -6.3870     0.3970    -3.5670 H     1 <1>   0.1500 
 39 H       -7.3080    -2.8430    -1.3180 H     1 <1>   0.4500 
 40 H       -7.7380    -1.6410     1.1920 H     1 <1>   0.0800 
 41 H       -8.7700    -1.6380    -0.2340 H     1 <1>   0.0800 
 42 H       -7.7640    -4.9710    -0.8250 H     1 <1>   0.0800 
 43 H       -6.3430    -4.9410     0.2010 H     1 <1>   0.0800 
 44 H       -9.9540    -3.4920     0.4930 H     1 <1>   0.0800 
 45 H       -7.5760    -4.4570     2.0950 H     1 <1>   0.0800 
 46 H       -8.8180    -2.9230     3.0340 H     1 <1>   0.4000 
 47 H       -9.7490    -5.9340     0.5680 H     1 <1>   0.0800 
 48 H       -9.5370    -5.8690     2.2740 H     1 <1>   0.0800 
 49 H       -7.7050    -7.0300     3.4070 H     1 <1>   0.1500 
 50 H       -9.0110    -6.7160    -1.2850 H     1 <1>   0.1500 
 51 H       -6.1170    -8.8370     3.3820 H     1 <1>   0.1500 
 52 H       -5.5720   -10.1870    -0.8700 H     1 <1>   0.1500 
 53 H       -8.2430    -7.9020    -3.2620 H     1 <1>   0.1500 
 54 H       -6.5220    -9.6290    -3.0830 H     1 <1>   0.1500 
@<TRIPOS>BOND
  1   1   2  1   
  2   1   3  1   
  3   2   4  1   
  4   2  28  1   
  5   2  29  1   
  6   3  30  1   
  7   3  31  1   
  8   3  32  1   
  9   4   5  1   
 10   4  33  1   
 11   4  34  1   
 12   5   6  1   
 13   5   7  1   
 14   6   8  2   
 15   6   9  1   
 16   7  10  2   
 17   7  35  1   
 18   8  10  1   
 19   9  11  1   
 20   9  36  1   
 21   9  37  1   
 22  10  38  1   
 23  11  12  1   
 24  11  13  1   
 25  11  39  1   
 26  12  14  1   
 27  12  40  1   
 28  12  41  1   
 29  13  15  1   
 30  13  42  1   
 31  13  43  1   
 32  14  15  1   
 33  14  16  1   
 34  14  44  1   
 35  15  17  1   
 36  15  45  1   
 37  16  46  1   
 38  17  18  1   
 39  17  47  1   
 40  17  48  1   
 41  18  19  ar  
 42  18  20  ar  
 43  19  21  ar  
 44  19  22  ar  
 45  20  23  ar  
 46  20  49  1   
 47  21  24  ar  
 48  21  25  ar  
 49  22  26  ar  
 50  22  50  1   
 51  23  24  ar  
 52  23  51  1   
 53  25  27  ar  
 54  25  52  1   
 55  26  27  ar  
 56  26  53  1   
 57  27  54  1   
@<TRIPOS>SUBSTRUCTURE
  1 ****  13 GROUP 4 **** **** 0

# MOE 2024.06 (io_trps.svl 2023.06)
