@<TRIPOS>MOLECULE
NONAME
39 41 1 0 0 
SMALL
USER_CHARGES


@<TRIPOS>ATOM
  1 S       -3.0040    -0.5820     1.8980 S.3   1 <1>  -0.0800 
  2 C       -2.3170     0.1240     0.4410 C.2   1 <1>  -0.1400 
  3 C       -1.4070    -0.8910     2.5540 C.2   1 <1>  -0.1100 
  4 C       -0.9730     0.1070     0.4990 C.2   1 <1>  -0.1500 
  5 C       -3.2880     0.6200    -0.6230 C.3   1 <1>   0.0810 
  6 C       -0.4540    -0.4720     1.7020 C.2   1 <1>  -0.1500 
  7 C       -4.0740    -0.5020    -1.2840 C.2   1 <1>   0.5690 
  8 O       -5.0930    -0.2340    -1.8730 O.2   1 <1>  -0.5700 
  9 N       -3.6180    -1.7770    -1.2000 N.am  1 <1>  -0.7300 
 10 C       -4.3320    -2.9760    -1.6860 C.3   1 <1>   0.2200 
 11 C       -4.9910    -3.6660    -0.5040 C.3   1 <1>  -0.0800 
 12 C       -3.3240    -4.0270    -2.1440 C.3   1 <1>   0.1200 
 13 C       -3.8320    -4.4920     0.0590 C.3   1 <1>   0.1200 
 14 C       -6.1750    -4.5450    -0.9490 C.3   1 <1>  -0.0160 
 15 O       -2.9790    -4.7730    -1.0130 O.3   1 <1>  -0.5600 
 16 C       -6.8420    -5.2220     0.2390 C.ar  1 <1>  -0.1430 
 17 C       -6.6680    -6.5640     0.5110 C.ar  1 <1>  -0.1500 
 18 C       -7.6580    -4.5250     1.1070 C.ar  1 <1>  -0.1500 
 19 C       -7.2970    -7.1260     1.6100 C.ar  1 <1>   0.1600 
 20 C       -8.2400    -5.1830     2.1770 C.ar  1 <1>   0.1600 
 21 N       -8.0780    -6.4680     2.4510 N.ar  1 <1>  -0.6200 
 22 H       -1.3500    -1.3590     3.5210 H     1 <1>   0.1500 
 23 H       -0.3060     0.4790    -0.2600 H     1 <1>   0.1500 
 24 H       -3.9810     1.3100    -0.1780 H     1 <1>   0.0800 
 25 H       -2.7460     1.1410    -1.3890 H     1 <1>   0.0800 
 26 H        0.6070    -0.5440     1.8670 H     1 <1>   0.1500 
 27 H       -2.7910    -1.9690    -0.6250 H     1 <1>   0.3700 
 28 H       -5.0250    -2.7060    -2.4650 H     1 <1>   0.0800 
 29 H       -5.3420    -2.9500     0.2190 H     1 <1>   0.0800 
 30 H       -2.4390    -3.5900    -2.5730 H     1 <1>   0.0800 
 31 H       -3.7750    -4.7000    -2.8510 H     1 <1>   0.0800 
 32 H       -4.1460    -5.4150     0.5130 H     1 <1>   0.0800 
 33 H       -3.2720    -3.9160     0.7750 H     1 <1>   0.0800 
 34 H       -5.8440    -5.2910    -1.6490 H     1 <1>   0.0800 
 35 H       -6.9050    -3.9310    -1.4490 H     1 <1>   0.0800 
 36 H       -6.0480    -7.1770    -0.1170 H     1 <1>   0.1500 
 37 H       -7.8460    -3.4760     0.9610 H     1 <1>   0.1500 
 38 H       -7.1490    -8.1740     1.8070 H     1 <1>   0.1500 
 39 H       -8.8730    -4.6230     2.8440 H     1 <1>   0.1500 
@<TRIPOS>BOND
  1   1   2  1   
  2   1   3  1   
  3   2   4  2   
  4   2   5  1   
  5   3   6  2   
  6   3  22  1   
  7   4   6  1   
  8   4  23  1   
  9   5   7  1   
 10   5  24  1   
 11   5  25  1   
 12   6  26  1   
 13   7   8  2   
 14   7   9  am  
 15   9  10  1   
 16   9  27  1   
 17  10  11  1   
 18  10  12  1   
 19  10  28  1   
 20  11  13  1   
 21  11  14  1   
 22  11  29  1   
 23  12  15  1   
 24  12  30  1   
 25  12  31  1   
 26  13  15  1   
 27  13  32  1   
 28  13  33  1   
 29  14  16  1   
 30  14  34  1   
 31  14  35  1   
 32  16  17  ar  
 33  16  18  ar  
 34  17  19  ar  
 35  17  36  1   
 36  18  20  ar  
 37  18  37  1   
 38  19  21  ar  
 39  19  38  1   
 40  20  21  ar  
 41  20  39  1   
@<TRIPOS>SUBSTRUCTURE
  1 ****  11 GROUP 4 **** **** 0

# MOE 2024.06 (io_trps.svl 2023.06)
