@<TRIPOS>MOLECULE
NONAME
51 54 1 0 0 
SMALL
USER_CHARGES


@<TRIPOS>ATOM
  1 S        0.3160    -0.5700     1.7890 S.o2  1 <1>   1.4470 
  2 O        1.0630    -1.7430     2.1920 O.2   1 <1>  -0.6500 
  3 O       -0.4090     0.1840     2.7850 O.2   1 <1>  -0.6500 
  4 N       -0.8230    -1.1210     0.6590 N.am  1 <1>  -0.8490 
  5 C        1.3900     0.5260     0.8190 C.ar  1 <1>  -0.0090 
  6 C       -1.6560    -2.1880     1.2390 C.3   1 <1>   0.1960 
  7 C       -1.6770    -0.0430     0.1380 C.3   1 <1>   0.1960 
  8 C        1.2820     1.8920     0.8870 C.ar  1 <1>  -0.1500 
  9 C        2.3480    -0.0160    -0.0560 C.ar  1 <1>  -0.1500 
 10 C       -2.5540    -2.8260     0.1490 C.3   1 <1>   0.4230 
 11 C       -2.5710    -0.6010    -0.9790 C.3   1 <1>  -0.1600 
 12 C        2.0870     2.7550     0.1170 C.ar  1 <1>   0.0000 
 13 C        3.1480     0.7900    -0.8170 C.ar  1 <1>  -0.1500 
 14 N       -3.3640    -4.0100     0.6010 N.4   1 <1>  -0.9590 
 15 C       -3.4750    -1.7530    -0.4640 C.3   1 <1>  -0.1060 
 16 C        3.0410     2.1930    -0.7550 C.ar  1 <1>   0.0000 
 17 C        1.9740     4.1580     0.1850 C.ar  1 <1>  -0.1500 
 18 C       -4.0880    -4.6520    -0.5270 C.3   1 <1>   0.3430 
 19 C       -2.6520    -4.9930     1.4610 C.3   1 <1>   0.2630 
 20 C       -4.4380    -1.2360     0.6220 C.2   1 <1>   0.9060 
 21 C       -4.2590    -2.3640    -1.6480 C.3   1 <1>  -0.1600 
 22 C        3.8460     3.0540    -1.5270 C.ar  1 <1>  -0.1500 
 23 C        2.7670     4.9710    -0.5760 C.ar  1 <1>  -0.1500 
 24 C       -5.0030    -3.6410    -1.2240 C.3   1 <1>  -0.1600 
 25 O       -4.7840    -2.0050     1.5330 O.co2 1 <1>  -0.9000 
 26 O       -4.8350    -0.0740     0.5710 O.co2 1 <1>  -0.9000 
 27 C        3.7140     4.4130    -1.4420 C.ar  1 <1>  -0.1500 
 28 H       -1.0080    -2.9460     1.6400 H     1 <1>   0.0800 
 29 H       -2.2540    -1.7900     2.0440 H     1 <1>   0.0800 
 30 H       -2.2800     0.3790     0.9280 H     1 <1>   0.0800 
 31 H       -1.0700     0.7460    -0.2720 H     1 <1>   0.0800 
 32 H        0.5570     2.3380     1.5470 H     1 <1>   0.1500 
 33 H        2.4410    -1.0880    -0.1130 H     1 <1>   0.1500 
 34 H       -1.8890    -3.1640    -0.6250 H     1 <1>   0.0800 
 35 H       -3.1860     0.1980    -1.3580 H     1 <1>   0.0800 
 36 H       -1.9450    -0.9370    -1.7870 H     1 <1>   0.0800 
 37 H        3.8790     0.3620    -1.4810 H     1 <1>   0.1500 
 38 H       -4.1030    -3.5270     1.1830 H     1 <1>   0.4500 
 39 H        1.2450     4.5830     0.8520 H     1 <1>   0.1500 
 40 H       -3.3760    -5.0410    -1.2360 H     1 <1>   0.0800 
 41 H       -4.6850    -5.4700    -0.1580 H     1 <1>   0.0800 
 42 H       -1.8240    -5.4290     0.9260 H     1 <1>   0.0800 
 43 H       -3.3270    -5.7770     1.7630 H     1 <1>   0.0800 
 44 H       -2.2800    -4.5090     2.3500 H     1 <1>   0.0800 
 45 H       -4.9690    -1.6410    -2.0160 H     1 <1>   0.0800 
 46 H       -3.5830    -2.6000    -2.4520 H     1 <1>   0.0800 
 47 H        4.5720     2.6200    -2.1900 H     1 <1>   0.1500 
 48 H        2.6770     6.0420    -0.5200 H     1 <1>   0.1500 
 49 H       -5.4440    -4.1010    -2.0900 H     1 <1>   0.0800 
 50 H       -5.8100    -3.3840    -0.5570 H     1 <1>   0.0800 
 51 H        4.3310     5.0660    -2.0340 H     1 <1>   0.1500 
@<TRIPOS>BOND
  1   1   2  2   
  2   1   3  2   
  3   1   4  am  
  4   1   5  1   
  5   4   6  1   
  6   4   7  1   
  7   5   8  ar  
  8   5   9  ar  
  9   6  10  1   
 10   6  28  1   
 11   6  29  1   
 12   7  11  1   
 13   7  30  1   
 14   7  31  1   
 15   8  12  ar  
 16   8  32  1   
 17   9  13  ar  
 18   9  33  1   
 19  10  14  1   
 20  10  15  1   
 21  10  34  1   
 22  11  15  1   
 23  11  35  1   
 24  11  36  1   
 25  12  16  ar  
 26  12  17  ar  
 27  13  16  ar  
 28  13  37  1   
 29  14  18  1   
 30  14  19  1   
 31  14  38  1   
 32  15  20  1   
 33  15  21  1   
 34  16  22  ar  
 35  17  23  ar  
 36  17  39  1   
 37  18  24  1   
 38  18  40  1   
 39  18  41  1   
 40  19  42  1   
 41  19  43  1   
 42  19  44  1   
 43  20  25  ar  
 44  20  26  ar  
 45  21  24  1   
 46  21  45  1   
 47  21  46  1   
 48  22  27  ar  
 49  22  47  1   
 50  23  27  ar  
 51  23  48  1   
 52  24  49  1   
 53  24  50  1   
 54  27  51  1   
@<TRIPOS>SUBSTRUCTURE
  1 ****   4 GROUP 4 **** **** 0

# MOE 2024.06 (io_trps.svl 2023.06)
