@<TRIPOS>MOLECULE
NONAME
56 58 1 0 0 
SMALL
USER_CHARGES


@<TRIPOS>ATOM
  1 O        0.6890     1.8330    -2.4820 O.2   1 <1>  -0.5700 
  2 C        0.3970     2.8730    -1.9410 C.2   1 <1>   0.5690 
  3 N       -0.5660     2.9510    -0.9690 N.am  1 <1>  -0.6600 
  4 C        1.1270     4.1430    -2.3810 C.3   1 <1>   0.1810 
  5 C       -0.9210     4.2600    -0.3230 C.3   1 <1>   0.3640 
  6 C       -1.2470     1.7390    -0.4270 C.3   1 <1>   0.0600 
  7 O        1.0820     5.1590    -1.4090 O.3   1 <1>  -0.5600 
  8 C       -2.4450     4.4420    -0.3270 C.ar  1 <1>  -0.1430 
  9 C       -0.2310     5.4790    -0.9850 C.3   1 <1>   0.2610 
 10 C       -3.1700     4.7240     0.8320 C.ar  1 <1>  -0.1430 
 11 C       -3.1250     4.3200    -1.5340 C.ar  1 <1>  -0.1500 
 12 C       -0.1970     6.6420     0.0080 C.2   1 <1>   0.5690 
 13 C       -4.5460     4.8790     0.7560 C.ar  1 <1>  -0.1500 
 14 C       -2.5070     4.8780     2.1950 C.3   1 <1>  -0.0960 
 15 C       -4.4970     4.4760    -1.5990 C.ar  1 <1>  -0.1500 
 16 O       -1.0910     7.4550     0.0120 O.2   1 <1>  -0.5700 
 17 N        0.8470     6.7400     0.8700 N.am  1 <1>  -0.7300 
 18 C       -5.2090     4.7570    -0.4510 C.ar  1 <1>  -0.1500 
 19 C        1.0920     7.8670     1.7980 C.3   1 <1>   0.2840 
 20 C        2.4070     8.5520     1.4350 C.ar  1 <1>   0.1670 
 21 N        3.4850     7.9600     1.9340 N.ar  1 <1>  -0.6200 
 22 C        2.4370     9.6910     0.6320 C.ar  1 <1>  -0.1430 
 23 C        4.6450     8.5260     1.6470 C.ar  1 <1>   0.1600 
 24 C        3.6750    10.2430     0.3300 C.ar  1 <1>   0.0820 
 25 C        1.1470    10.3170     0.0960 C.3   1 <1>  -0.0970 
 26 C        4.8070     9.6550     0.8680 C.ar  1 <1>  -0.1430 
 27 O        3.7870    11.3310    -0.4580 O.3   1 <1>  -0.3620 
 28 C        6.1970    10.2260     0.6210 C.3   1 <1>  -0.0970 
 29 C        3.9260    11.0940    -1.8400 C.3   1 <1>   0.0400 
 30 H        0.6880     4.5160    -3.2880 H     1 <1>   0.0800 
 31 H        2.1600     3.9120    -2.5650 H     1 <1>   0.0800 
 32 H       -0.5660     4.2070     0.6890 H     1 <1>   0.0800 
 33 H       -1.1900     1.7350     0.6470 H     1 <1>   0.0800 
 34 H       -0.7820     0.8430    -0.7990 H     1 <1>   0.0800 
 35 H       -2.2810     1.7360    -0.7240 H     1 <1>   0.0800 
 36 H       -0.7890     5.7940    -1.8480 H     1 <1>   0.0800 
 37 H       -2.5870     4.0940    -2.4380 H     1 <1>   0.1500 
 38 H       -5.1170     5.1010     1.6400 H     1 <1>   0.1500 
 39 H       -3.2370     5.0870     2.9560 H     1 <1>   0.0800 
 40 H       -1.8060     5.6920     2.1790 H     1 <1>   0.0800 
 41 H       -1.9970     3.9710     2.4660 H     1 <1>   0.0800 
 42 H       -5.0080     4.3790    -2.5410 H     1 <1>   0.1500 
 43 H        1.6820     6.1730     0.6880 H     1 <1>   0.3700 
 44 H       -6.2770     4.8820    -0.4940 H     1 <1>   0.1500 
 45 H        0.2680     8.5560     1.7750 H     1 <1>   0.0800 
 46 H        1.1650     7.4840     2.8010 H     1 <1>   0.0800 
 47 H        5.5190     8.0570     2.0630 H     1 <1>   0.1500 
 48 H        0.5240    10.6350     0.9110 H     1 <1>   0.0800 
 49 H        0.6070     9.6000    -0.4980 H     1 <1>   0.0800 
 50 H        1.3370    11.1780    -0.5170 H     1 <1>   0.0800 
 51 H        6.8990     9.8520     1.3440 H     1 <1>   0.0800 
 52 H        6.1740    11.2990     0.6980 H     1 <1>   0.0800 
 53 H        6.5350     9.9560    -0.3630 H     1 <1>   0.0800 
 54 H        3.9570    12.0430    -2.3430 H     1 <1>   0.0800 
 55 H        3.0840    10.5190    -2.1830 H     1 <1>   0.0800 
 56 H        4.8400    10.5550    -2.0120 H     1 <1>   0.0800 
@<TRIPOS>BOND
  1   1   2  2   
  2   2   3  am  
  3   2   4  1   
  4   3   5  1   
  5   3   6  1   
  6   4   7  1   
  7   4  30  1   
  8   4  31  1   
  9   5   8  1   
 10   5   9  1   
 11   5  32  1   
 12   6  33  1   
 13   6  34  1   
 14   6  35  1   
 15   7   9  1   
 16   8  10  ar  
 17   8  11  ar  
 18   9  12  1   
 19   9  36  1   
 20  10  13  ar  
 21  10  14  1   
 22  11  15  ar  
 23  11  37  1   
 24  12  16  2   
 25  12  17  am  
 26  13  18  ar  
 27  13  38  1   
 28  14  39  1   
 29  14  40  1   
 30  14  41  1   
 31  15  18  ar  
 32  15  42  1   
 33  17  19  1   
 34  17  43  1   
 35  18  44  1   
 36  19  20  1   
 37  19  45  1   
 38  19  46  1   
 39  20  21  ar  
 40  20  22  ar  
 41  21  23  ar  
 42  22  24  ar  
 43  22  25  1   
 44  23  26  ar  
 45  23  47  1   
 46  24  26  ar  
 47  24  27  1   
 48  25  48  1   
 49  25  49  1   
 50  25  50  1   
 51  26  28  1   
 52  27  29  1   
 53  28  51  1   
 54  28  52  1   
 55  28  53  1   
 56  29  54  1   
 57  29  55  1   
 58  29  56  1   
@<TRIPOS>SUBSTRUCTURE
  1 ****  12 GROUP 4 **** **** 0

# MOE 2024.06 (io_trps.svl 2023.06)
