@<TRIPOS>MOLECULE
NONAME
50 53 1 0 0 
SMALL
USER_CHARGES


@<TRIPOS>ATOM
  1 O       -2.0430     1.0490     2.3430 O.2   1 <1>  -0.5700 
  2 C       -1.7890     1.5730     1.2740 C.2   1 <1>   0.5440 
  3 N       -2.3400     1.0300     0.1290 N.am  1 <1>  -0.6600 
  4 C       -0.9350     2.7450     1.2500 C.ar  1 <1>   0.0860 
  5 C       -2.9430    -0.3370     0.1770 C.3   1 <1>   0.1400 
  6 C       -2.4780     1.7950    -1.1460 C.3   1 <1>   0.1400 
  7 C        0.1170     2.8710     0.3540 C.ar  1 <1>  -0.1500 
  8 C       -1.1560     3.7990     2.1650 C.ar  1 <1>  -0.1500 
  9 C       -4.4000    -0.2890     0.6610 C.3   1 <1>   0.1400 
 10 C       -3.8750     1.7050    -1.7790 C.3   1 <1>  -0.1600 
 11 C        0.9040     4.0190     0.3510 C.ar  1 <1>   0.2270 
 12 C       -0.3800     4.9330     2.1740 C.ar  1 <1>  -0.1500 
 13 N       -5.3220     0.2890    -0.3690 N.am  1 <1>  -0.6600 
 14 C       -5.0310     1.6930    -0.7730 C.3   1 <1>   0.1400 
 15 N        1.9560     4.3660    -0.4310 N.2   1 <1>  -0.2270 
 16 C        0.6580     5.0280     1.2430 C.ar  1 <1>  -0.1520 
 17 C       -6.4300    -0.3840    -0.8480 C.2   1 <1>   0.7160 
 18 N        2.3660     5.5230    -0.0680 N.2   1 <1>  -0.4180 
 19 N        1.5990     5.9470     0.9480 N.pl3 1 <1>   0.3000 
 20 O       -7.2380     0.2050    -1.5410 O.2   1 <1>  -0.5700 
 21 C       -6.6510    -1.7710    -0.5440 C.2   1 <1>  -0.0860 
 22 C       -7.6370    -2.3000     0.2710 C.2   1 <1>   0.1080 
 23 C       -5.9980    -2.8880    -0.9290 C.2   1 <1>  -0.0400 
 24 N       -7.5240    -3.5740     0.3420 N.2   1 <1>  -0.4100 
 25 C       -8.7070    -1.4980     0.9900 C.3   1 <1>   0.0210 
 26 O       -6.5110    -3.9700    -0.3960 O.3   1 <1>  -0.0190 
 27 C       -4.8130    -3.0360    -1.8610 C.3   1 <1>  -0.0600 
 28 C       -8.1370    -0.7700     2.2130 C.3   1 <1>  -0.2400 
 29 H       -2.3750    -0.9390     0.8650 H     1 <1>   0.0800 
 30 H       -2.8850    -0.8060    -0.7890 H     1 <1>   0.0800 
 31 H       -1.7430     1.4440    -1.8510 H     1 <1>   0.0800 
 32 H       -2.2760     2.8350    -0.9560 H     1 <1>   0.0800 
 33 H        0.3450     2.0890    -0.3470 H     1 <1>   0.1500 
 34 H       -1.9610     3.6880     2.8730 H     1 <1>   0.1500 
 35 H       -4.4550     0.3000     1.5600 H     1 <1>   0.0800 
 36 H       -4.7010    -1.2860     0.9220 H     1 <1>   0.0800 
 37 H       -3.9390     0.8410    -2.4170 H     1 <1>   0.0800 
 38 H       -3.9930     2.5630    -2.4170 H     1 <1>   0.0800 
 39 H       -0.5600     5.7290     2.8770 H     1 <1>   0.1500 
 40 H       -5.9000     2.1320    -1.2330 H     1 <1>   0.0800 
 41 H       -4.7910     2.2850     0.0940 H     1 <1>   0.0800 
 42 H        1.7400     6.8490     1.4130 H     1 <1>   0.2700 
 43 H       -9.4900    -2.1660     1.3050 H     1 <1>   0.0800 
 44 H       -9.1370    -0.7860     0.3070 H     1 <1>   0.0800 
 45 H       -4.5200    -2.0800    -2.2550 H     1 <1>   0.0800 
 46 H       -5.0780    -3.6800    -2.6800 H     1 <1>   0.0800 
 47 H       -3.9840    -3.4690    -1.3310 H     1 <1>   0.0800 
 48 H       -7.6950    -1.4790     2.8900 H     1 <1>   0.0800 
 49 H       -8.9220    -0.2430     2.7260 H     1 <1>   0.0800 
 50 H       -7.3870    -0.0600     1.9140 H     1 <1>   0.0800 
@<TRIPOS>BOND
  1   1   2  2   
  2   2   3  am  
  3   2   4  1   
  4   3   5  1   
  5   3   6  1   
  6   4   7  ar  
  7   4   8  ar  
  8   5   9  1   
  9   5  29  1   
 10   5  30  1   
 11   6  10  1   
 12   6  31  1   
 13   6  32  1   
 14   7  11  ar  
 15   7  33  1   
 16   8  12  ar  
 17   8  34  1   
 18   9  13  1   
 19   9  35  1   
 20   9  36  1   
 21  10  14  1   
 22  10  37  1   
 23  10  38  1   
 24  11  15  1   
 25  11  16  ar  
 26  12  16  ar  
 27  12  39  1   
 28  13  14  1   
 29  13  17  am  
 30  14  40  1   
 31  14  41  1   
 32  15  18  2   
 33  16  19  1   
 34  17  20  2   
 35  17  21  1   
 36  18  19  1   
 37  19  42  1   
 38  21  22  1   
 39  21  23  2   
 40  22  24  2   
 41  22  25  1   
 42  23  26  1   
 43  23  27  1   
 44  24  26  1   
 45  25  28  1   
 46  25  43  1   
 47  25  44  1   
 48  27  45  1   
 49  27  46  1   
 50  27  47  1   
 51  28  48  1   
 52  28  49  1   
 53  28  50  1   
@<TRIPOS>SUBSTRUCTURE
  1 ****   3 GROUP 4 **** **** 0

# MOE 2024.06 (io_trps.svl 2023.06)
