@<TRIPOS>MOLECULE
NONAME
50 52 1 0 0 
SMALL
USER_CHARGES


@<TRIPOS>ATOM
  1 O        1.5550     0.2700     1.2030 O.2   1 <1>  -0.5700 
  2 C        1.9590    -0.8360     0.9330 C.2   1 <1>   0.5690 
  3 N        1.2820    -1.7090     0.1260 N.am  1 <1>  -0.6600 
  4 C        3.2780    -1.2990     1.5160 C.3   1 <1>  -0.0990 
  5 C        1.8370    -3.0570    -0.1530 C.3   1 <1>   0.1400 
  6 C       -0.0380    -1.3860    -0.4770 C.3   1 <1>   0.0600 
  7 C        4.1340    -1.9820     0.4360 C.3   1 <1>  -0.0800 
  8 C        3.3420    -2.9560    -0.4700 C.3   1 <1>  -0.0800 
  9 C        5.3060    -2.7830     1.0130 C.3   1 <1>  -0.1600 
 10 C        4.0670    -4.3060    -0.3740 C.3   1 <1>  -0.1600 
 11 C        5.4920    -3.9330     0.0300 C.3   1 <1>   0.2200 
 12 N        6.3040    -5.0530     0.5990 N.am  1 <1>  -0.6600 
 13 C        7.6260    -5.2710     0.2660 C.2   1 <1>   0.5690 
 14 C        5.6480    -5.9300     1.6200 C.3   1 <1>   0.0600 
 15 O        8.2550    -6.1790     0.7600 O.2   1 <1>  -0.5700 
 16 C        8.3740    -4.4060    -0.7460 C.3   1 <1>   0.0440 
 17 C        8.5200    -2.9500    -0.3140 C.ar  1 <1>  -0.1440 
 18 C        8.0950    -1.9220    -1.1410 C.ar  1 <1>  -0.1500 
 19 C        9.0690    -2.6420     0.9210 C.ar  1 <1>  -0.1500 
 20 C        8.1870    -0.6000    -0.7370 C.ar  1 <1>   0.0820 
 21 C        9.1770    -1.3230     1.3290 C.ar  1 <1>  -0.1500 
 22 O        7.7170     0.3330    -1.6010 O.3   1 <1>  -0.3630 
 23 C        8.7360    -0.3010     0.5060 C.ar  1 <1>  -0.1500 
 24 C        7.6940     1.7010    -1.2580 C.3   1 <1>   0.0400 
 25 H        3.8070    -0.4580     1.9270 H     1 <1>   0.0800 
 26 H        3.0590    -1.9820     2.3150 H     1 <1>   0.0800 
 27 H        1.6800    -3.6720     0.7170 H     1 <1>   0.0800 
 28 H        1.3220    -3.5080    -0.9840 H     1 <1>   0.0800 
 29 H       -0.7740    -2.0960    -0.1430 H     1 <1>   0.0800 
 30 H        0.0330    -1.4210    -1.5490 H     1 <1>   0.0800 
 31 H       -0.3550    -0.3990    -0.1850 H     1 <1>   0.0800 
 32 H        4.5360    -1.2100    -0.2010 H     1 <1>   0.0800 
 33 H        3.4350    -2.6010    -1.4830 H     1 <1>   0.0800 
 34 H        5.0530    -3.1640     1.9850 H     1 <1>   0.0800 
 35 H        6.1900    -2.1760     1.0920 H     1 <1>   0.0800 
 36 H        4.0500    -4.8340    -1.3110 H     1 <1>   0.0800 
 37 H        3.6000    -4.9040     0.3860 H     1 <1>   0.0800 
 38 H        5.9670    -3.5420    -0.8510 H     1 <1>   0.0800 
 39 H        5.0160    -5.3520     2.2700 H     1 <1>   0.0800 
 40 H        6.3850    -6.4240     2.2300 H     1 <1>   0.0800 
 41 H        5.0590    -6.6810     1.1250 H     1 <1>   0.0800 
 42 H        9.3580    -4.8170    -0.8840 H     1 <1>   0.0800 
 43 H        7.8700    -4.4740    -1.6910 H     1 <1>   0.0800 
 44 H        7.6770    -2.1290    -2.1090 H     1 <1>   0.1500 
 45 H        9.4100    -3.4300     1.5720 H     1 <1>   0.1500 
 46 H        9.6040    -1.0950     2.2900 H     1 <1>   0.1500 
 47 H        8.8280     0.7120     0.8480 H     1 <1>   0.1500 
 48 H        7.2600     2.2440    -2.0780 H     1 <1>   0.0800 
 49 H        8.7020     2.0360    -1.0910 H     1 <1>   0.0800 
 50 H        7.0920     1.8290    -0.3760 H     1 <1>   0.0800 
@<TRIPOS>BOND
  1   1   2  2   
  2   2   3  am  
  3   2   4  1   
  4   3   5  1   
  5   3   6  1   
  6   4   7  1   
  7   4  25  1   
  8   4  26  1   
  9   5   8  1   
 10   5  27  1   
 11   5  28  1   
 12   6  29  1   
 13   6  30  1   
 14   6  31  1   
 15   7   8  1   
 16   7   9  1   
 17   7  32  1   
 18   8  10  1   
 19   8  33  1   
 20   9  11  1   
 21   9  34  1   
 22   9  35  1   
 23  10  11  1   
 24  10  36  1   
 25  10  37  1   
 26  11  12  1   
 27  11  38  1   
 28  12  13  am  
 29  12  14  1   
 30  13  15  2   
 31  13  16  1   
 32  14  39  1   
 33  14  40  1   
 34  14  41  1   
 35  16  17  1   
 36  16  42  1   
 37  16  43  1   
 38  17  18  ar  
 39  17  19  ar  
 40  18  20  ar  
 41  18  44  1   
 42  19  21  ar  
 43  19  45  1   
 44  20  22  1   
 45  20  23  ar  
 46  21  23  ar  
 47  21  46  1   
 48  22  24  1   
 49  23  47  1   
 50  24  48  1   
 51  24  49  1   
 52  24  50  1   
@<TRIPOS>SUBSTRUCTURE
  1 ****   9 GROUP 4 **** **** 0

# MOE 2024.06 (io_trps.svl 2023.06)
