@<TRIPOS>MOLECULE
NONAME
47 50 1 0 0 
SMALL
USER_CHARGES


@<TRIPOS>ATOM
  1 F        0.7340    -0.8110     1.2950 F     1 <1>  -0.1900 
  2 C        0.6100    -1.8680     0.5400 C.ar  1 <1>   0.1900 
  3 C        0.1490    -3.0380     1.1060 C.ar  1 <1>  -0.1500 
  4 C        0.9460    -1.7710    -0.7950 C.ar  1 <1>  -0.1500 
  5 C        0.0040    -4.1840     0.3210 C.ar  1 <1>   0.0530 
  6 C        0.8110    -2.8970    -1.5860 C.ar  1 <1>  -0.1500 
  7 C       -0.4850    -5.4200     0.8960 C.2   1 <1>   0.4250 
  8 C        0.3480    -4.0810    -1.0330 C.ar  1 <1>  -0.1500 
  9 O       -0.6980    -6.4690     0.1310 O.3   1 <1>  -0.2800 
 10 N       -0.7660    -5.6390     2.1360 N.2   1 <1>  -0.3380 
 11 C       -1.1170    -7.3210     1.0200 C.2   1 <1>   0.2980 
 12 N       -1.1750    -6.8810     2.2110 N.2   1 <1>  -0.3380 
 13 C       -1.5310    -8.7230     0.5900 C.3   1 <1>   0.5230 
 14 N       -2.9290    -8.8010     0.0140 N.4   1 <1>  -0.9590 
 15 C       -3.9420    -8.2730     0.9960 C.3   1 <1>   0.4230 
 16 C       -3.1650   -10.1920    -0.4940 C.3   1 <1>   0.2630 
 17 C       -5.3230    -8.9370     0.9080 C.3   1 <1>  -0.1600 
 18 C       -4.2780    -6.8280     0.6130 C.3   1 <1>  -0.1600 
 19 C       -6.0170    -8.2940    -0.3010 C.3   1 <1>  -0.0800 
 20 C       -5.3500    -6.9270    -0.4820 C.3   1 <1>  -0.0800 
 21 C       -7.5220    -8.0360    -0.1360 C.3   1 <1>  -0.1600 
 22 C       -6.4660    -5.8760    -0.4020 C.3   1 <1>  -0.1600 
 23 C       -7.7350    -6.6510    -0.7330 C.3   1 <1>   0.2000 
 24 O       -8.8280    -6.0460    -0.1590 O.3   1 <1>  -0.6800 
 25 H       -0.0950    -3.0530     2.1540 H     1 <1>   0.1500 
 26 H        1.3030    -0.8390    -1.1980 H     1 <1>   0.1500 
 27 H        1.0680    -2.8500    -2.6320 H     1 <1>   0.1500 
 28 H        0.2570    -4.9410    -1.6730 H     1 <1>   0.1500 
 29 H       -1.4680    -9.3640     1.4520 H     1 <1>   0.0800 
 30 H       -0.8170    -9.0750    -0.1350 H     1 <1>   0.0800 
 31 H       -2.9690    -8.1580    -0.7880 H     1 <1>   0.4500 
 32 H       -3.5580    -8.3310     2.0030 H     1 <1>   0.0800 
 33 H       -3.1730   -10.8950     0.3240 H     1 <1>   0.0800 
 34 H       -2.3910   -10.4780    -1.1890 H     1 <1>   0.0800 
 35 H       -4.1130   -10.2500    -1.0040 H     1 <1>   0.0800 
 36 H       -5.3160   -10.0110     0.8760 H     1 <1>   0.0800 
 37 H       -5.8530    -8.6620     1.8040 H     1 <1>   0.0800 
 38 H       -4.6910    -6.3530     1.4870 H     1 <1>   0.0800 
 39 H       -3.4370    -6.2420     0.2950 H     1 <1>   0.0800 
 40 H       -5.8520    -8.8810    -1.1890 H     1 <1>   0.0800 
 41 H       -4.8960    -6.8890    -1.4580 H     1 <1>   0.0800 
 42 H       -7.7980    -8.0280     0.9040 H     1 <1>   0.0800 
 43 H       -8.1090    -8.7740    -0.6550 H     1 <1>   0.0800 
 44 H       -6.3080    -5.0760    -1.1050 H     1 <1>   0.0800 
 45 H       -6.5390    -5.4700     0.5910 H     1 <1>   0.0800 
 46 H       -7.8880    -6.7080    -1.7990 H     1 <1>   0.0800 
 47 H       -8.7140    -5.9760     0.8070 H     1 <1>   0.4000 
@<TRIPOS>BOND
  1   1   2  1   
  2   2   3  ar  
  3   2   4  ar  
  4   3   5  ar  
  5   3  25  1   
  6   4   6  ar  
  7   4  26  1   
  8   5   7  1   
  9   5   8  ar  
 10   6   8  ar  
 11   6  27  1   
 12   7   9  1   
 13   7  10  2   
 14   8  28  1   
 15   9  11  1   
 16  10  12  1   
 17  11  12  2   
 18  11  13  1   
 19  13  14  1   
 20  13  29  1   
 21  13  30  1   
 22  14  15  1   
 23  14  16  1   
 24  14  31  1   
 25  15  17  1   
 26  15  18  1   
 27  15  32  1   
 28  16  33  1   
 29  16  34  1   
 30  16  35  1   
 31  17  19  1   
 32  17  36  1   
 33  17  37  1   
 34  18  20  1   
 35  18  38  1   
 36  18  39  1   
 37  19  20  1   
 38  19  21  1   
 39  19  40  1   
 40  20  22  1   
 41  20  41  1   
 42  21  23  1   
 43  21  42  1   
 44  21  43  1   
 45  22  23  1   
 46  22  44  1   
 47  22  45  1   
 48  23  24  1   
 49  23  46  1   
 50  24  47  1   
@<TRIPOS>SUBSTRUCTURE
  1 ****  18 GROUP 4 **** **** 0

# MOE 2024.06 (io_trps.svl 2023.06)
