@<TRIPOS>MOLECULE
NONAME
51 52 1 0 0 
SMALL
USER_CHARGES


@<TRIPOS>ATOM
  1 F       -0.6660     0.5260    -0.6710 F     1 <1>  -0.1900 
  2 C       -1.9430     0.8100    -0.6540 C.ar  1 <1>   0.1900 
  3 C       -2.4540     1.8880     0.0780 C.ar  1 <1>   0.0830 
  4 C       -2.7650    -0.0130    -1.3990 C.ar  1 <1>  -0.1500 
  5 O       -1.7490     2.7680     0.8460 O.3   1 <1>  -0.3630 
  6 C       -3.8220     2.1020     0.0340 C.ar  1 <1>  -0.1500 
  7 C       -4.1260     0.2300    -1.4220 C.ar  1 <1>  -0.1500 
  8 C       -0.3470     2.7160     0.9850 C.3   1 <1>   0.0400 
  9 C       -4.6840     1.2870    -0.7010 C.ar  1 <1>   0.0530 
 10 C       -6.1000     1.5460    -0.7070 C.2   1 <1>   0.0870 
 11 O       -6.5440     2.7690    -0.8340 O.3   1 <1>  -0.0190 
 12 C       -7.1870     0.7420    -0.5740 C.2   1 <1>  -0.0860 
 13 N       -7.8470     2.8430    -0.8000 N.2   1 <1>  -0.4100 
 14 C       -8.2650     1.6330    -0.6510 C.2   1 <1>   0.3720 
 15 C       -7.2500    -0.6720    -0.3700 C.2   1 <1>   0.7160 
 16 N       -9.6270     1.2930    -0.5550 N.pl3 1 <1>  -0.8210 
 17 O       -6.8920    -1.4190    -1.2650 O.2   1 <1>  -0.5700 
 18 N       -7.7000    -1.2320     0.8090 N.am  1 <1>  -0.6600 
 19 C      -10.6030     2.4150    -0.4600 C.3   1 <1>   0.1290 
 20 C      -10.1120     0.1440    -1.3720 C.3   1 <1>   0.1290 
 21 C       -7.8140    -2.7160     0.9550 C.3   1 <1>   0.1400 
 22 C       -8.3290    -0.4370     1.9010 C.3   1 <1>   0.0600 
 23 C       -9.0640    -3.2850     0.2590 C.3   1 <1>   0.2000 
 24 O      -10.2200    -2.8520     0.8960 O.3   1 <1>  -0.6800 
 25 C       -9.0790    -4.8190     0.2580 C.3   1 <1>   0.1200 
 26 O      -10.3500    -5.2720    -0.1170 O.3   1 <1>  -0.5600 
 27 C      -10.4660    -6.6580    -0.1540 C.3   1 <1>   0.0400 
 28 H       -2.3440    -0.8320    -1.9550 H     1 <1>   0.1500 
 29 H       -4.2300     2.9270     0.5910 H     1 <1>   0.1500 
 30 H       -4.7630    -0.4050    -2.0130 H     1 <1>   0.1500 
 31 H       -0.0440     3.5250     1.6250 H     1 <1>   0.0800 
 32 H        0.1060     2.8300     0.0160 H     1 <1>   0.0800 
 33 H       -0.0730     1.7770     1.4310 H     1 <1>   0.0800 
 34 H      -10.2660     3.1320     0.2690 H     1 <1>   0.0800 
 35 H      -11.5640     2.0410    -0.1540 H     1 <1>   0.0800 
 36 H      -10.6940     2.9030    -1.4150 H     1 <1>   0.0800 
 37 H       -9.3650    -0.1580    -2.0860 H     1 <1>   0.0800 
 38 H      -11.0050     0.4100    -1.9100 H     1 <1>   0.0800 
 39 H      -10.3330    -0.6860    -0.7240 H     1 <1>   0.0800 
 40 H       -7.8280    -2.9830     1.9970 H     1 <1>   0.0800 
 41 H       -6.9400    -3.1680     0.5180 H     1 <1>   0.0800 
 42 H       -7.9770     0.5790     1.8930 H     1 <1>   0.0800 
 43 H       -8.0940    -0.8700     2.8570 H     1 <1>   0.0800 
 44 H       -9.3980    -0.4330     1.7720 H     1 <1>   0.0800 
 45 H       -9.0970    -2.9410    -0.7600 H     1 <1>   0.0800 
 46 H      -10.9230    -3.4930     0.6460 H     1 <1>   0.4000 
 47 H       -8.8590    -5.1920     1.2440 H     1 <1>   0.0800 
 48 H       -8.3510    -5.1960    -0.4400 H     1 <1>   0.0800 
 49 H      -11.4710    -6.9020    -0.4520 H     1 <1>   0.0800 
 50 H      -10.2720    -7.0580     0.8260 H     1 <1>   0.0800 
 51 H       -9.7700    -7.0550    -0.8730 H     1 <1>   0.0800 
@<TRIPOS>BOND
  1   1   2  1   
  2   2   3  ar  
  3   2   4  ar  
  4   3   5  1   
  5   3   6  ar  
  6   4   7  ar  
  7   4  28  1   
  8   5   8  1   
  9   6   9  ar  
 10   6  29  1   
 11   7   9  ar  
 12   7  30  1   
 13   8  31  1   
 14   8  32  1   
 15   8  33  1   
 16   9  10  1   
 17  10  11  1   
 18  10  12  2   
 19  11  13  1   
 20  12  14  1   
 21  12  15  1   
 22  13  14  2   
 23  14  16  1   
 24  15  17  2   
 25  15  18  am  
 26  16  19  1   
 27  16  20  1   
 28  18  21  1   
 29  18  22  1   
 30  19  34  1   
 31  19  35  1   
 32  19  36  1   
 33  20  37  1   
 34  20  38  1   
 35  20  39  1   
 36  21  23  1   
 37  21  40  1   
 38  21  41  1   
 39  22  42  1   
 40  22  43  1   
 41  22  44  1   
 42  23  24  1   
 43  23  25  1   
 44  23  45  1   
 45  24  46  1   
 46  25  26  1   
 47  25  47  1   
 48  25  48  1   
 49  26  27  1   
 50  27  49  1   
 51  27  50  1   
 52  27  51  1   
@<TRIPOS>SUBSTRUCTURE
  1 ****  15 GROUP 4 **** **** 0

# MOE 2024.06 (io_trps.svl 2023.06)
