@<TRIPOS>MOLECULE
NONAME
43 44 1 0 0 
SMALL
USER_CHARGES


@<TRIPOS>ATOM
  1 S       -0.3520     3.3990    -0.8130 S.3   1 <1>  -0.4600 
  2 C        1.2390     2.6470    -0.3880 C.3   1 <1>   0.0700 
  3 C       -1.5370     2.0720    -0.4720 C.3   1 <1>  -0.0100 
  4 C        2.3320     3.6660    -0.7200 C.3   1 <1>  -0.1600 
  5 C        3.7340     3.2110    -0.2920 C.3   1 <1>   0.2890 
  6 N        4.6660     4.3140    -0.6050 N.pl3 1 <1>  -0.8690 
  7 C        4.2210     1.9340    -1.0070 C.3   1 <1>   0.1200 
  8 C        5.3590     4.9480     0.3900 C.ar  1 <1>   0.4100 
  9 O        3.6630     0.7920    -0.4350 O.3   1 <1>  -0.6800 
 10 N        5.2250     6.2550     0.3660 N.ar  1 <1>  -0.6200 
 11 C        6.1360     4.2710     1.3420 C.ar  1 <1>   0.1600 
 12 C        5.8890     6.8870     1.3510 C.ar  1 <1>   0.3960 
 13 N        6.7930     4.8530     2.3230 N.ar  1 <1>  -0.6200 
 14 C        5.8520     8.3470     1.4880 C.2   1 <1>   0.5440 
 15 C        6.6380     6.1710     2.2930 C.ar  1 <1>   0.1600 
 16 O        5.9720     8.8320     2.6020 O.2   1 <1>  -0.5700 
 17 N        5.7180     9.2300     0.4300 N.am  1 <1>  -0.6600 
 18 C        5.7940    10.6990     0.6020 C.3   1 <1>   0.1400 
 19 C        5.6420     8.8740    -1.0060 C.3   1 <1>   0.1400 
 20 C        6.1440    11.2310    -0.7820 C.3   1 <1>  -0.1600 
 21 C        5.5560    10.2050    -1.7460 C.3   1 <1>  -0.1600 
 22 H        1.2150     2.4110     0.6610 H     1 <1>   0.0800 
 23 H        1.3330     1.7490    -0.9730 H     1 <1>   0.0800 
 24 H       -2.5190     2.4440    -0.7040 H     1 <1>   0.0800 
 25 H       -1.4600     1.8160     0.5690 H     1 <1>   0.0800 
 26 H       -1.2870     1.2340    -1.0980 H     1 <1>   0.0800 
 27 H        2.3180     3.8490    -1.7800 H     1 <1>   0.0800 
 28 H        2.1000     4.5840    -0.2090 H     1 <1>   0.0800 
 29 H        3.7410     3.0400     0.7710 H     1 <1>   0.0800 
 30 H        4.2260     5.0080    -1.2160 H     1 <1>   0.4000 
 31 H        5.2920     1.8460    -0.9350 H     1 <1>   0.0800 
 32 H        3.9390     1.9580    -2.0450 H     1 <1>   0.0800 
 33 H        4.1320     0.5440     0.3860 H     1 <1>   0.4000 
 34 H        6.2040     3.2030     1.2650 H     1 <1>   0.1500 
 35 H        7.1390     6.7280     3.0660 H     1 <1>   0.1500 
 36 H        4.8310    11.0620     0.9170 H     1 <1>   0.0800 
 37 H        6.5390    10.9690     1.3310 H     1 <1>   0.0800 
 38 H        6.5320     8.3370    -1.2880 H     1 <1>   0.0800 
 39 H        4.7720     8.2700    -1.2050 H     1 <1>   0.0800 
 40 H        5.7510    12.2190    -0.9410 H     1 <1>   0.0800 
 41 H        7.2150    11.2580    -0.8830 H     1 <1>   0.0800 
 42 H        6.0820    10.1750    -2.6840 H     1 <1>   0.0800 
 43 H        4.5210    10.4330    -1.9320 H     1 <1>   0.0800 
@<TRIPOS>BOND
  1   1   2  1   
  2   1   3  1   
  3   2   4  1   
  4   2  22  1   
  5   2  23  1   
  6   3  24  1   
  7   3  25  1   
  8   3  26  1   
  9   4   5  1   
 10   4  27  1   
 11   4  28  1   
 12   5   6  1   
 13   5   7  1   
 14   5  29  1   
 15   6   8  1   
 16   6  30  1   
 17   7   9  1   
 18   7  31  1   
 19   7  32  1   
 20   8  10  ar  
 21   8  11  ar  
 22   9  33  1   
 23  10  12  ar  
 24  11  13  ar  
 25  11  34  1   
 26  12  14  1   
 27  12  15  ar  
 28  13  15  ar  
 29  14  16  2   
 30  14  17  am  
 31  15  35  1   
 32  17  18  1   
 33  17  19  1   
 34  18  20  1   
 35  18  36  1   
 36  18  37  1   
 37  19  21  1   
 38  19  38  1   
 39  19  39  1   
 40  20  21  1   
 41  20  40  1   
 42  20  41  1   
 43  21  42  1   
 44  21  43  1   
@<TRIPOS>SUBSTRUCTURE
  1 ****  10 GROUP 4 **** **** 0

# MOE 2024.06 (io_trps.svl 2023.06)
