@<TRIPOS>MOLECULE
NONAME
39 41 1 0 0 
SMALL
USER_CHARGES


@<TRIPOS>ATOM
  1 F       -0.7420    -0.4130     0.5880 F     1 <1>  -0.1900 
  2 C       -1.8070    -1.1290     0.3010 C.ar  1 <1>   0.1900 
  3 C       -3.0240    -0.5760    -0.0810 C.ar  1 <1>   0.3920 
  4 C       -1.7100    -2.4910     0.3860 C.ar  1 <1>   0.1600 
  5 O       -3.2890     0.7450    -0.2120 O.3   1 <1>  -0.3630 
  6 N       -4.0480    -1.3510    -0.3540 N.ar  1 <1>  -0.6200 
  7 N       -2.7330    -3.2720     0.1180 N.ar  1 <1>  -0.6200 
  8 C       -2.3480     1.7760    -0.0110 C.3   1 <1>   0.0400 
  9 C       -3.8650    -2.6660    -0.2480 C.ar  1 <1>   0.7200 
 10 N       -4.9470    -3.4750    -0.5360 N.pl3 1 <1>  -0.8380 
 11 C       -5.0140    -4.9210    -0.1400 C.3   1 <1>   0.2090 
 12 C       -6.2180    -2.9270    -1.0900 C.3   1 <1>   0.2090 
 13 C       -6.0480    -5.1680     0.9710 C.3   1 <1>   0.2090 
 14 C       -7.1760    -2.5870     0.0560 C.3   1 <1>  -0.1600 
 15 N       -7.4520    -5.0780     0.4540 N.pl3 1 <1>  -0.8380 
 16 C       -8.1070    -3.7380     0.4590 C.3   1 <1>   0.2090 
 17 C       -8.1160    -6.2040     0.0150 C.ar  1 <1>   0.7200 
 18 N       -7.3690    -7.2590    -0.3120 N.ar  1 <1>  -0.6200 
 19 N       -9.4470    -6.1440    -0.0440 N.ar  1 <1>  -0.6200 
 20 C       -8.0110    -8.3230    -0.7270 C.ar  1 <1>   0.1600 
 21 C      -10.0620    -7.2230    -0.4600 C.ar  1 <1>   0.1600 
 22 C       -9.3810    -8.3590    -0.8210 C.ar  1 <1>  -0.1500 
 23 H       -0.7810    -2.9450     0.6800 H     1 <1>   0.1500 
 24 H       -2.8370     2.7150    -0.2030 H     1 <1>   0.0800 
 25 H       -1.5300     1.6460    -0.6980 H     1 <1>   0.0800 
 26 H       -2.0070     1.7470     1.0090 H     1 <1>   0.0800 
 27 H       -4.0600    -5.2670     0.2120 H     1 <1>   0.0800 
 28 H       -5.2700    -5.5170    -0.9980 H     1 <1>   0.0800 
 29 H       -6.6680    -3.6440    -1.7570 H     1 <1>   0.0800 
 30 H       -6.0140    -2.0400    -1.6650 H     1 <1>   0.0800 
 31 H       -5.8980    -4.4610     1.7670 H     1 <1>   0.0800 
 32 H       -5.8830    -6.1480     1.3820 H     1 <1>   0.0800 
 33 H       -7.7950    -1.7670    -0.2540 H     1 <1>   0.0800 
 34 H       -6.6160    -2.2460     0.9090 H     1 <1>   0.0800 
 35 H       -8.9290    -3.7460    -0.2360 H     1 <1>   0.0800 
 36 H       -8.5130    -3.5500     1.4380 H     1 <1>   0.0800 
 37 H       -7.4310    -9.1880    -0.9990 H     1 <1>   0.1500 
 38 H      -11.1370    -7.2000    -0.5150 H     1 <1>   0.1500 
 39 H       -9.8960    -9.2370    -1.1610 H     1 <1>   0.1500 
@<TRIPOS>BOND
  1   1   2  1   
  2   2   3  ar  
  3   2   4  ar  
  4   3   5  1   
  5   3   6  ar  
  6   4   7  ar  
  7   4  23  1   
  8   5   8  1   
  9   6   9  ar  
 10   7   9  ar  
 11   8  24  1   
 12   8  25  1   
 13   8  26  1   
 14   9  10  1   
 15  10  11  1   
 16  10  12  1   
 17  11  13  1   
 18  11  27  1   
 19  11  28  1   
 20  12  14  1   
 21  12  29  1   
 22  12  30  1   
 23  13  15  1   
 24  13  31  1   
 25  13  32  1   
 26  14  16  1   
 27  14  33  1   
 28  14  34  1   
 29  15  16  1   
 30  15  17  1   
 31  16  35  1   
 32  16  36  1   
 33  17  18  ar  
 34  17  19  ar  
 35  18  20  ar  
 36  19  21  ar  
 37  20  22  ar  
 38  20  37  1   
 39  21  22  ar  
 40  21  38  1   
 41  22  39  1   
@<TRIPOS>SUBSTRUCTURE
  1 ****  10 GROUP 4 **** **** 0

# MOE 2024.06 (io_trps.svl 2023.06)
