@<TRIPOS>MOLECULE
NONAME
42 44 1 0 0 
SMALL
USER_CHARGES


@<TRIPOS>ATOM
  1 S        0.5690    -0.0240     0.0980 S.3   1 <1>  -0.0800 
  2 C       -0.8540     0.9850    -0.2020 C.2   1 <1>  -0.0450 
  3 C       -0.3790    -1.2520     0.9010 C.2   1 <1>  -0.1100 
  4 C       -1.9500     0.3490     0.2930 C.2   1 <1>  -0.1810 
  5 C       -0.6730     2.2310    -0.9080 C.2   1 <1>   0.7150 
  6 C       -1.6770    -0.9040     0.9180 C.2   1 <1>  -0.1500 
  7 C       -3.3810     0.8550     0.2200 C.3   1 <1>  -0.0590 
  8 O       -1.3890     2.4960    -1.8550 O.2   1 <1>  -0.5700 
  9 N        0.3000     3.1490    -0.5580 N.am  1 <1>  -0.6600 
 10 C        0.9010     3.1880     0.8300 C.3   1 <1>   0.2200 
 11 C        0.6540     4.2280    -1.5370 C.3   1 <1>   0.1400 
 12 C        0.6960     4.5520     1.5100 C.3   1 <1>   0.1200 
 13 C        2.3960     2.7840     0.8210 C.3   1 <1>   0.3430 
 14 C        1.9090     5.0550    -1.1950 C.3   1 <1>  -0.0800 
 15 O        1.7190     5.4430     1.1870 O.3   1 <1>  -0.5600 
 16 N        2.9910     2.8370    -0.5570 N.4   1 <1>  -0.9590 
 17 C        1.6470     6.0520    -0.0570 C.3   1 <1>   0.1200 
 18 C        3.2110     4.2530    -0.9870 C.3   1 <1>   0.3430 
 19 C        4.3300     2.1130    -0.5350 C.3   1 <1>   0.2370 
 20 C        5.3540     2.7090     0.4350 C.2   1 <1>   0.9060 
 21 O        5.3140     2.3380     1.6110 O.co2 1 <1>  -0.9000 
 22 O        6.0720     3.6230     0.0230 O.co2 1 <1>  -0.9000 
 23 H        0.1370    -2.1180     1.2790 H     1 <1>   0.1500 
 24 H       -2.4680    -1.4950     1.3510 H     1 <1>   0.1500 
 25 H       -3.9830     0.1640    -0.3420 H     1 <1>   0.0800 
 26 H       -3.4290     1.8150    -0.2630 H     1 <1>   0.0800 
 27 H       -3.7910     0.9480     1.2090 H     1 <1>   0.0800 
 28 H        0.3810     2.4830     1.4520 H     1 <1>   0.0800 
 29 H        0.7970     3.7710    -2.5030 H     1 <1>   0.0800 
 30 H       -0.1910     4.8900    -1.6310 H     1 <1>   0.0800 
 31 H        0.7420     4.4190     2.5770 H     1 <1>   0.0800 
 32 H       -0.2600     4.9820     1.2640 H     1 <1>   0.0800 
 33 H        2.4790     1.7800     1.2030 H     1 <1>   0.0800 
 34 H        2.9560     3.4180     1.4920 H     1 <1>   0.0800 
 35 H        2.0870     5.6750    -2.0550 H     1 <1>   0.0800 
 36 H        2.3260     2.3840    -1.1930 H     1 <1>   0.4500 
 37 H        0.6880     6.5320    -0.1570 H     1 <1>   0.0800 
 38 H        2.4060     6.8160    -0.0670 H     1 <1>   0.0800 
 39 H        3.8320     4.7580    -0.2610 H     1 <1>   0.0800 
 40 H        3.7590     4.2440    -1.9150 H     1 <1>   0.0800 
 41 H        4.1840     1.0880    -0.2480 H     1 <1>   0.0800 
 42 H        4.7730     2.1330    -1.5140 H     1 <1>   0.0800 
@<TRIPOS>BOND
  1   1   2  1   
  2   1   3  1   
  3   2   4  2   
  4   2   5  1   
  5   3   6  2   
  6   3  23  1   
  7   4   6  1   
  8   4   7  1   
  9   5   8  2   
 10   5   9  am  
 11   6  24  1   
 12   7  25  1   
 13   7  26  1   
 14   7  27  1   
 15   9  10  1   
 16   9  11  1   
 17  10  12  1   
 18  10  13  1   
 19  10  28  1   
 20  11  14  1   
 21  11  29  1   
 22  11  30  1   
 23  12  15  1   
 24  12  31  1   
 25  12  32  1   
 26  13  16  1   
 27  13  33  1   
 28  13  34  1   
 29  14  17  1   
 30  14  18  1   
 31  14  35  1   
 32  15  17  1   
 33  16  18  1   
 34  16  19  1   
 35  16  36  1   
 36  17  37  1   
 37  17  38  1   
 38  18  39  1   
 39  18  40  1   
 40  19  20  1   
 41  19  41  1   
 42  19  42  1   
 43  20  21  ar  
 44  20  22  ar  
@<TRIPOS>SUBSTRUCTURE
  1 ****  10 GROUP 4 **** **** 0

# MOE 2024.06 (io_trps.svl 2023.06)
