@<TRIPOS>MOLECULE
NONAME
53 56 1 0 0 
SMALL
USER_CHARGES


@<TRIPOS>ATOM
  1 O        2.9730    -1.6240     2.6870 O.2   1 <1>  -0.5700 
  2 C        2.5050    -1.5610     1.5640 C.2   1 <1>   0.7160 
  3 N        2.5890    -0.3560     0.8810 N.am  1 <1>  -0.6600 
  4 C        1.9070    -2.7330     0.9770 C.2   1 <1>  -0.0860 
  5 C        3.0980     0.8540     1.6060 C.3   1 <1>   0.1400 
  6 C        2.5390    -0.3220    -0.6150 C.3   1 <1>   0.1400 
  7 C        0.6910    -2.9610     0.3960 C.2   1 <1>  -0.3320 
  8 C        2.5430    -3.9730     0.8950 C.2   1 <1>   0.1390 
  9 C        4.5980     1.1680     1.3550 C.3   1 <1>   0.4230 
 10 C        3.8000     0.2550    -1.2940 C.3   1 <1>  -0.0800 
 11 N        0.6720    -4.2490     0.0130 N.pl3 1 <1>   0.3000 
 12 C       -0.4790    -2.0060     0.2140 C.3   1 <1>   0.1000 
 13 N        1.8210    -4.8770     0.3120 N.2   1 <1>  -0.7070 
 14 N        4.8290     2.0580     0.1580 N.4   1 <1>  -0.9590 
 15 C        5.5220    -0.0780     1.2750 C.3   1 <1>   0.1200 
 16 C        5.0970    -0.5550    -1.0800 C.3   1 <1>   0.1200 
 17 C        3.9580     1.7520    -1.0160 C.3   1 <1>   0.3430 
 18 C       -1.6840    -2.4700     1.0440 C.3   1 <1>  -0.1600 
 19 C       -0.8560    -1.8750    -1.2710 C.3   1 <1>  -0.1600 
 20 C        4.7310     3.5060     0.5210 C.3   1 <1>   0.2630 
 21 O        5.2470    -0.9840     0.2360 O.3   1 <1>  -0.5600 
 22 C       -2.8880    -1.5350     0.8570 C.3   1 <1>  -0.1600 
 23 C       -2.0530    -0.9320    -1.4600 C.3   1 <1>  -0.1600 
 24 C       -3.2560    -1.3930    -0.6260 C.3   1 <1>  -0.1600 
 25 H        2.4900     1.7030     1.3530 H     1 <1>   0.0800 
 26 H        2.9700     0.7070     2.6650 H     1 <1>   0.0800 
 27 H        2.3970    -1.3180    -0.9980 H     1 <1>   0.0800 
 28 H        1.6760     0.2500    -0.9100 H     1 <1>   0.0800 
 29 H        3.5350    -4.1570     1.2760 H     1 <1>   0.1500 
 30 H        4.9300     1.7170     2.2200 H     1 <1>   0.0800 
 31 H        3.5960     0.1960    -2.3490 H     1 <1>   0.0800 
 32 H       -0.1090    -4.7350    -0.4440 H     1 <1>   0.2700 
 33 H       -0.1880    -1.0350     0.5750 H     1 <1>   0.0800 
 34 H        5.7960     1.8650    -0.1360 H     1 <1>   0.4500 
 35 H        5.4280    -0.6350     2.1910 H     1 <1>   0.0800 
 36 H        6.5500     0.2240     1.1860 H     1 <1>   0.0800 
 37 H        5.9770    -0.0100    -1.3750 H     1 <1>   0.0800 
 38 H        5.0500    -1.4510    -1.6770 H     1 <1>   0.0800 
 39 H        2.9790     2.1780    -0.8640 H     1 <1>   0.0800 
 40 H        4.3810     2.2210    -1.8890 H     1 <1>   0.0800 
 41 H       -1.9670    -3.4660     0.7530 H     1 <1>   0.0800 
 42 H       -1.4100    -2.4980     2.0850 H     1 <1>   0.0800 
 43 H       -0.0150    -1.5050    -1.8280 H     1 <1>   0.0800 
 44 H       -1.1120    -2.8420    -1.6670 H     1 <1>   0.0800 
 45 H        3.7310     3.7460     0.8440 H     1 <1>   0.0800 
 46 H        4.9760     4.1230    -0.3290 H     1 <1>   0.0800 
 47 H        5.4170     3.7400     1.3200 H     1 <1>   0.0800 
 48 H       -3.7330    -1.9210     1.4020 H     1 <1>   0.0800 
 49 H       -2.6540    -0.5650     1.2610 H     1 <1>   0.0800 
 50 H       -1.7770     0.0660    -1.1630 H     1 <1>   0.0800 
 51 H       -2.3290    -0.9010    -2.5000 H     1 <1>   0.0800 
 52 H       -4.0600    -0.6840    -0.7310 H     1 <1>   0.0800 
 53 H       -3.6060    -2.3410    -0.9980 H     1 <1>   0.0800 
@<TRIPOS>BOND
  1   1   2  2   
  2   2   3  am  
  3   2   4  1   
  4   3   5  1   
  5   3   6  1   
  6   4   7  2   
  7   4   8  1   
  8   5   9  1   
  9   5  25  1   
 10   5  26  1   
 11   6  10  1   
 12   6  27  1   
 13   6  28  1   
 14   7  11  1   
 15   7  12  1   
 16   8  13  2   
 17   8  29  1   
 18   9  14  1   
 19   9  15  1   
 20   9  30  1   
 21  10  16  1   
 22  10  17  1   
 23  10  31  1   
 24  11  13  1   
 25  11  32  1   
 26  12  18  1   
 27  12  19  1   
 28  12  33  1   
 29  14  17  1   
 30  14  20  1   
 31  14  34  1   
 32  15  21  1   
 33  15  35  1   
 34  15  36  1   
 35  16  21  1   
 36  16  37  1   
 37  16  38  1   
 38  17  39  1   
 39  17  40  1   
 40  18  22  1   
 41  18  41  1   
 42  18  42  1   
 43  19  23  1   
 44  19  43  1   
 45  19  44  1   
 46  20  45  1   
 47  20  46  1   
 48  20  47  1   
 49  22  24  1   
 50  22  48  1   
 51  22  49  1   
 52  23  24  1   
 53  23  50  1   
 54  23  51  1   
 55  24  52  1   
 56  24  53  1   
@<TRIPOS>SUBSTRUCTURE
  1 ****   3 GROUP 4 **** **** 0

# MOE 2024.06 (io_trps.svl 2023.06)
