@<TRIPOS>MOLECULE
NONAME
45 48 1 0 0 
SMALL
USER_CHARGES


@<TRIPOS>ATOM
  1 O       -0.3260    -0.1220     1.3300 O.3   1 <1>  -0.5600 
  2 C        0.5530    -0.0250     0.2580 C.3   1 <1>   0.1200 
  3 C       -1.6200     0.1590     0.8790 C.3   1 <1>   0.1200 
  4 C        0.0660     1.2300    -0.4550 C.3   1 <1>   0.4230 
  5 C       -1.4420     0.9810    -0.4080 C.3   1 <1>  -0.0800 
  6 N        0.4130     2.3990     0.3950 N.4   1 <1>  -0.9060 
  7 C       -2.3610     2.2170    -0.5010 C.3   1 <1>  -0.0170 
  8 C        1.8050     2.9130     0.3020 C.3   1 <1>   0.4230 
  9 C       -3.8190     1.7900    -0.5330 C.ar  1 <1>  -0.1440 
 10 C        1.9400     4.0170     1.3640 C.3   1 <1>  -0.0170 
 11 C        1.9560     3.6690    -1.0330 C.3   1 <1>  -0.0170 
 12 C       -4.4110     1.3140    -1.6870 C.ar  1 <1>  -0.1500 
 13 C       -4.6290     1.8550     0.5840 C.ar  1 <1>  -0.1500 
 14 C        1.3070     5.1930     0.6590 C.ar  1 <1>  -0.1440 
 15 C        1.3160     4.9950    -0.7010 C.ar  1 <1>  -0.1440 
 16 C       -5.7410     0.9280    -1.6650 C.ar  1 <1>   0.1600 
 17 C       -5.9480     1.4430     0.4990 C.ar  1 <1>   0.1600 
 18 C        0.7600     6.3380     1.2050 C.ar  1 <1>  -0.1500 
 19 C        0.7780     5.9350    -1.5590 C.ar  1 <1>  -0.1500 
 20 N       -6.5200     0.9780    -0.5980 N.ar  1 <1>  -0.6200 
 21 C        0.2140     7.2860     0.3540 C.ar  1 <1>  -0.1500 
 22 C        0.2230     7.0860    -1.0200 C.ar  1 <1>  -0.1500 
 23 H        1.5640     0.0410     0.6190 H     1 <1>   0.0800 
 24 H        0.4400    -0.9020    -0.3570 H     1 <1>   0.0800 
 25 H       -2.1320    -0.7710     0.6890 H     1 <1>   0.0800 
 26 H       -2.1350     0.6990     1.6550 H     1 <1>   0.0800 
 27 H        0.4430     1.3280    -1.4590 H     1 <1>   0.0800 
 28 H       -1.6880     0.3310    -1.2300 H     1 <1>   0.0800 
 29 H       -0.2010     3.2000     0.1940 H     1 <1>   0.4500 
 30 H        0.2170     2.0980     1.3620 H     1 <1>   0.4500 
 31 H       -2.1450     2.7710    -1.3980 H     1 <1>   0.0800 
 32 H       -2.2150     2.8750     0.3370 H     1 <1>   0.0800 
 33 H        2.5300     2.1260     0.4290 H     1 <1>   0.0800 
 34 H        1.4560     3.7740     2.2930 H     1 <1>   0.0800 
 35 H        2.9780     4.2340     1.5470 H     1 <1>   0.0800 
 36 H        2.9970     3.8290    -1.2520 H     1 <1>   0.0800 
 37 H        1.4880     3.1800    -1.8670 H     1 <1>   0.0800 
 38 H       -3.8600     1.2380    -2.6060 H     1 <1>   0.1500 
 39 H       -4.2570     2.2220     1.5230 H     1 <1>   0.1500 
 40 H       -6.1880     0.5580    -2.5720 H     1 <1>   0.1500 
 41 H       -6.5670     1.5000     1.3790 H     1 <1>   0.1500 
 42 H        0.7570     6.5010     2.2700 H     1 <1>   0.1500 
 43 H        0.7890     5.7900    -2.6250 H     1 <1>   0.1500 
 44 H       -0.2150     8.1860     0.7590 H     1 <1>   0.1500 
 45 H       -0.1990     7.8330    -1.6700 H     1 <1>   0.1500 
@<TRIPOS>BOND
  1   1   2  1   
  2   1   3  1   
  3   2   4  1   
  4   2  23  1   
  5   2  24  1   
  6   3   5  1   
  7   3  25  1   
  8   3  26  1   
  9   4   5  1   
 10   4   6  1   
 11   4  27  1   
 12   5   7  1   
 13   5  28  1   
 14   6   8  1   
 15   6  29  1   
 16   6  30  1   
 17   7   9  1   
 18   7  31  1   
 19   7  32  1   
 20   8  10  1   
 21   8  11  1   
 22   8  33  1   
 23   9  12  ar  
 24   9  13  ar  
 25  10  14  1   
 26  10  34  1   
 27  10  35  1   
 28  11  15  1   
 29  11  36  1   
 30  11  37  1   
 31  12  16  ar  
 32  12  38  1   
 33  13  17  ar  
 34  13  39  1   
 35  14  15  ar  
 36  14  18  ar  
 37  15  19  ar  
 38  16  20  ar  
 39  16  40  1   
 40  17  20  ar  
 41  17  41  1   
 42  18  21  ar  
 43  18  42  1   
 44  19  22  ar  
 45  19  43  1   
 46  21  22  ar  
 47  21  44  1   
 48  22  45  1   
@<TRIPOS>SUBSTRUCTURE
  1 ****   7 GROUP 4 **** **** 0

# MOE 2024.06 (io_trps.svl 2023.06)
