@<TRIPOS>MOLECULE
NONAME
52 55 1 0 0 
SMALL
USER_CHARGES


@<TRIPOS>ATOM
  1 O        0.2190     0.5010     0.2210 O.2   1 <1>  -0.5700 
  2 C       -0.7870     1.0800     0.5830 C.2   1 <1>   0.5440 
  3 N       -1.9300     0.3470     0.8200 N.am  1 <1>  -0.6600 
  4 C       -0.7560     2.5200     0.7420 C.ar  1 <1>   0.0860 
  5 C       -1.9090    -1.1460     0.9100 C.3   1 <1>   0.1400 
  6 C       -3.3130     0.9070     0.7370 C.3   1 <1>   0.1400 
  7 C       -0.2060     3.3550    -0.2110 C.ar  1 <1>  -0.1500 
  8 C       -1.2660     3.1650     1.8620 C.ar  1 <1>  -0.1500 
  9 C       -2.8120    -1.7670    -0.1670 C.3   1 <1>   0.1200 
 10 C       -4.1390     0.1600    -0.3250 C.3   1 <1>   0.1200 
 11 C       -0.2010     4.7330    -0.0450 C.ar  1 <1>   0.4100 
 12 C       -1.2210     4.5400     1.9460 C.ar  1 <1>   0.1600 
 13 O       -4.1010    -1.2210    -0.1030 O.3   1 <1>  -0.5600 
 14 N       -0.7120     5.3320     1.0210 N.ar  1 <1>  -0.6200 
 15 N        0.3500     5.5140    -1.0390 N.pl3 1 <1>  -0.8690 
 16 C        0.6990     6.9610    -0.9690 C.3   1 <1>   0.2890 
 17 C        1.5670     7.3280     0.2480 C.3   1 <1>   0.1400 
 18 C       -0.5670     7.8270    -1.0320 C.3   1 <1>  -0.1600 
 19 N        1.8840     8.7920     0.2290 N.am  1 <1>  -0.6600 
 20 C       -0.2120     9.3230    -0.9730 C.3   1 <1>  -0.1600 
 21 C        3.1670     9.2510    -0.0020 C.2   1 <1>   0.7150 
 22 C        0.6770     9.6660     0.2310 C.3   1 <1>   0.1400 
 23 O        3.9490     8.4930    -0.5530 O.2   1 <1>  -0.5700 
 24 C        3.6220    10.5800     0.3600 C.2   1 <1>   0.0550 
 25 O        2.9940    11.3360     1.2600 O.3   1 <1>  -0.2800 
 26 C        4.7120    11.2680    -0.0830 C.2   1 <1>  -0.1500 
 27 C        3.6430    12.4700     1.3930 C.2   1 <1>  -0.0100 
 28 C        4.7220    12.4940     0.5840 C.2   1 <1>  -0.1500 
 29 H       -2.2620    -1.4460     1.8810 H     1 <1>   0.0800 
 30 H       -0.9080    -1.5230     0.7950 H     1 <1>   0.0800 
 31 H       -3.2880     1.9510     0.4800 H     1 <1>   0.0800 
 32 H       -3.7950     0.8070     1.6930 H     1 <1>   0.0800 
 33 H        0.2240     2.9280    -1.0970 H     1 <1>   0.1500 
 34 H       -1.6920     2.5860     2.6610 H     1 <1>   0.1500 
 35 H       -2.8960    -2.8280    -0.0160 H     1 <1>   0.0800 
 36 H       -2.4070    -1.5870    -1.1480 H     1 <1>   0.0800 
 37 H       -3.7590     0.3600    -1.3110 H     1 <1>   0.0800 
 38 H       -5.1680     0.4700    -0.2820 H     1 <1>   0.0800 
 39 H       -1.6240     5.0200     2.8220 H     1 <1>   0.1500 
 40 H        0.9220     5.0090    -1.7170 H     1 <1>   0.4000 
 41 H        1.2890     7.1830    -1.8410 H     1 <1>   0.0800 
 42 H        2.4710     6.7450     0.2320 H     1 <1>   0.0800 
 43 H        1.0430     7.1110     1.1600 H     1 <1>   0.0800 
 44 H       -1.2070     7.5910    -0.2020 H     1 <1>   0.0800 
 45 H       -1.1000     7.6150    -1.9420 H     1 <1>   0.0800 
 46 H       -1.1160     9.9040    -0.9210 H     1 <1>   0.0800 
 47 H        0.3050     9.6070    -1.8740 H     1 <1>   0.0800 
 48 H        0.9500    10.7040     0.1740 H     1 <1>   0.0800 
 49 H        0.1340     9.5100     1.1480 H     1 <1>   0.0800 
 50 H        5.4360    10.9360    -0.8060 H     1 <1>   0.1500 
 51 H        3.2730    13.2070     2.0850 H     1 <1>   0.1500 
 52 H        5.4540    13.2730     0.4590 H     1 <1>   0.1500 
@<TRIPOS>BOND
  1   1   2  2   
  2   2   3  am  
  3   2   4  1   
  4   3   5  1   
  5   3   6  1   
  6   4   7  ar  
  7   4   8  ar  
  8   5   9  1   
  9   5  29  1   
 10   5  30  1   
 11   6  10  1   
 12   6  31  1   
 13   6  32  1   
 14   7  11  ar  
 15   7  33  1   
 16   8  12  ar  
 17   8  34  1   
 18   9  13  1   
 19   9  35  1   
 20   9  36  1   
 21  10  13  1   
 22  10  37  1   
 23  10  38  1   
 24  11  14  ar  
 25  11  15  1   
 26  12  14  ar  
 27  12  39  1   
 28  15  16  1   
 29  15  40  1   
 30  16  17  1   
 31  16  18  1   
 32  16  41  1   
 33  17  19  1   
 34  17  42  1   
 35  17  43  1   
 36  18  20  1   
 37  18  44  1   
 38  18  45  1   
 39  19  21  am  
 40  19  22  1   
 41  20  22  1   
 42  20  46  1   
 43  20  47  1   
 44  21  23  2   
 45  21  24  1   
 46  22  48  1   
 47  22  49  1   
 48  24  25  1   
 49  24  26  2   
 50  25  27  1   
 51  26  28  1   
 52  26  50  1   
 53  27  28  2   
 54  27  51  1   
 55  28  52  1   
@<TRIPOS>SUBSTRUCTURE
  1 ****  11 GROUP 4 **** **** 0

# MOE 2024.06 (io_trps.svl 2023.06)
