@<TRIPOS>MOLECULE
NONAME
53 56 1 0 0 
SMALL
USER_CHARGES


@<TRIPOS>ATOM
  1 O       -4.7200     1.9930    -1.9700 O.co2 1 <1>  -0.9000 
  2 C       -5.2350     0.8910    -1.7370 C.2   1 <1>   0.9790 
  3 O       -5.7630     0.2490    -2.6680 O.co2 1 <1>  -0.9000 
  4 C       -5.3090     0.3570    -0.3860 C.ar  1 <1>  -0.1790 
  5 C       -5.7040    -0.9600    -0.1940 C.ar  1 <1>  -0.1500 
  6 C       -5.0640     1.1210     0.7540 C.ar  1 <1>  -0.1500 
  7 C       -5.9880    -1.4700     1.0610 C.ar  1 <1>  -0.1440 
  8 C       -5.2690     0.6030     2.0210 C.ar  1 <1>  -0.1500 
  9 C       -5.7480    -0.6870     2.1790 C.ar  1 <1>  -0.1500 
 10 C       -6.6430    -2.8340     1.1620 C.3   1 <1>   0.4870 
 11 N       -7.7490    -2.8720     0.1570 N.4   1 <1>  -0.9590 
 12 C       -8.7170    -1.7310     0.3430 C.3   1 <1>   0.3430 
 13 C       -8.4480    -4.1780     0.0520 C.3   1 <1>   0.3430 
 14 C       -9.6770    -1.6160    -0.8480 C.3   1 <1>   0.1440 
 15 C       -9.4130    -4.1370    -1.1410 C.3   1 <1>  -0.1600 
 16 C      -10.6030    -0.4710    -0.5180 C.ar  1 <1>   0.1670 
 17 C      -10.4060    -2.9620    -1.0550 C.3   1 <1>  -0.1600 
 18 C       -8.9670    -1.1120    -2.1350 C.3   1 <1>  -0.1600 
 19 N      -11.5530    -0.5160     0.3790 N.ar  1 <1>  -0.6200 
 20 C      -10.2950     0.6460    -1.2330 C.ar  1 <1>  -0.1430 
 21 C       -9.1280     0.4180    -2.1630 C.3   1 <1>  -0.0170 
 22 C      -12.2310     0.6260     0.5370 C.ar  1 <1>   0.7200 
 23 C      -11.0420     1.7720    -1.0010 C.ar  1 <1>   0.1600 
 24 N      -12.0140     1.7710    -0.1180 N.ar  1 <1>  -0.6200 
 25 N      -13.2430     0.6220     1.4750 N.pl3 1 <1>  -0.8380 
 26 C      -13.8500     1.8850     1.9780 C.3   1 <1>   0.1290 
 27 C      -13.9200    -0.6300     1.9140 C.3   1 <1>   0.1290 
 28 H       -5.8170    -1.5620    -1.0790 H     1 <1>   0.1500 
 29 H       -4.7200     2.1350     0.6250 H     1 <1>   0.1500 
 30 H       -5.0680     1.2170     2.8810 H     1 <1>   0.1500 
 31 H       -5.9380    -1.0560     3.1720 H     1 <1>   0.1500 
 32 H       -7.0340    -2.9830     2.1550 H     1 <1>   0.0800 
 33 H       -5.9150    -3.6000     0.9500 H     1 <1>   0.0800 
 34 H       -7.2940    -2.6810    -0.7460 H     1 <1>   0.4500 
 35 H       -8.1890    -0.7950     0.4380 H     1 <1>   0.0800 
 36 H       -9.2930    -1.8780     1.2420 H     1 <1>   0.0800 
 37 H       -9.0020    -4.3690     0.9580 H     1 <1>   0.0800 
 38 H       -7.7340    -4.9730    -0.0880 H     1 <1>   0.0800 
 39 H       -9.9640    -5.0610    -1.1750 H     1 <1>   0.0800 
 40 H       -8.8460    -4.0720    -2.0540 H     1 <1>   0.0800 
 41 H      -11.0170    -2.9200    -1.9400 H     1 <1>   0.0800 
 42 H      -11.0690    -3.1300    -0.2220 H     1 <1>   0.0800 
 43 H       -9.4680    -1.5060    -3.0020 H     1 <1>   0.0800 
 44 H       -7.9290    -1.3840    -2.2000 H     1 <1>   0.0800 
 45 H       -9.3230     0.7790    -3.1580 H     1 <1>   0.0800 
 46 H       -8.2470     0.9040    -1.7760 H     1 <1>   0.0800 
 47 H      -10.8360     2.6820    -1.5390 H     1 <1>   0.1500 
 48 H      -13.1220     2.6780     1.9810 H     1 <1>   0.0800 
 49 H      -14.2070     1.7500     2.9840 H     1 <1>   0.0800 
 50 H      -14.6710     2.1680     1.3430 H     1 <1>   0.0800 
 51 H      -13.7440    -1.4260     1.2110 H     1 <1>   0.0800 
 52 H      -14.9820    -0.4700     1.9800 H     1 <1>   0.0800 
 53 H      -13.5440    -0.9230     2.8780 H     1 <1>   0.0800 
@<TRIPOS>BOND
  1   1   2  ar  
  2   2   3  ar  
  3   2   4  1   
  4   4   5  ar  
  5   4   6  ar  
  6   5   7  ar  
  7   5  28  1   
  8   6   8  ar  
  9   6  29  1   
 10   7   9  ar  
 11   7  10  1   
 12   8   9  ar  
 13   8  30  1   
 14   9  31  1   
 15  10  11  1   
 16  10  32  1   
 17  10  33  1   
 18  11  12  1   
 19  11  13  1   
 20  11  34  1   
 21  12  14  1   
 22  12  35  1   
 23  12  36  1   
 24  13  15  1   
 25  13  37  1   
 26  13  38  1   
 27  14  16  1   
 28  14  17  1   
 29  14  18  1   
 30  15  17  1   
 31  15  39  1   
 32  15  40  1   
 33  16  19  ar  
 34  16  20  ar  
 35  17  41  1   
 36  17  42  1   
 37  18  21  1   
 38  18  43  1   
 39  18  44  1   
 40  19  22  ar  
 41  20  21  1   
 42  20  23  ar  
 43  21  45  1   
 44  21  46  1   
 45  22  24  ar  
 46  22  25  1   
 47  23  24  ar  
 48  23  47  1   
 49  25  26  1   
 50  25  27  1   
 51  26  48  1   
 52  26  49  1   
 53  26  50  1   
 54  27  51  1   
 55  27  52  1   
 56  27  53  1   
@<TRIPOS>SUBSTRUCTURE
  1 ****  12 GROUP 4 **** **** 0

# MOE 2024.06 (io_trps.svl 2023.06)
