@<TRIPOS>MOLECULE
NONAME
51 54 1 0 0 
SMALL
USER_CHARGES


@<TRIPOS>ATOM
  1 S       -0.4050    -0.2550    -0.0400 S.3   1 <1>  -0.0800 
  2 C       -0.3970     1.4850     0.2270 C.2   1 <1>   0.4620 
  3 C       -2.0840    -0.3100     0.4230 C.2   1 <1>  -0.1400 
  4 N       -1.5320     1.9400     0.6220 N.2   1 <1>  -0.5650 
  5 N        0.7530     2.1960     0.0020 N.pl3 1 <1>  -0.8220 
  6 C       -2.4680     0.9390     0.7360 C.2   1 <1>   0.0770 
  7 C       -2.7410    -1.6710     0.3840 C.3   1 <1>   0.5230 
  8 C        0.8540     3.6380     0.3050 C.3   1 <1>   0.2090 
  9 C        2.0710     1.6130    -0.3240 C.3   1 <1>   0.2090 
 10 N       -4.2240    -1.5340     0.4490 N.4   1 <1>  -0.9590 
 11 C        2.3520     3.8970     0.4210 C.3   1 <1>  -0.1600 
 12 C        3.0000     2.8160    -0.4420 C.3   1 <1>  -0.1600 
 13 C       -4.8540    -2.8620     0.7740 C.3   1 <1>   0.3430 
 14 C       -4.7420    -0.8970    -0.8050 C.3   1 <1>   0.3430 
 15 C       -6.3950    -2.8450     0.8500 C.3   1 <1>   0.1400 
 16 C       -6.0950    -0.2410    -0.5350 C.3   1 <1>  -0.1600 
 17 N       -7.0160    -2.5950    -0.4920 N.am  1 <1>  -0.6600 
 18 C       -7.2880    -1.1590    -0.8150 C.3   1 <1>   0.1400 
 19 C       -7.5300    -3.5760    -1.3220 C.2   1 <1>   0.5690 
 20 O       -8.0060    -3.2960    -2.3940 O.2   1 <1>  -0.5700 
 21 C       -7.5360    -5.0480    -0.9710 C.3   1 <1>   0.1570 
 22 N       -8.5620    -5.2980     0.0420 N.pl3 1 <1>   0.3140 
 23 N       -8.2750    -5.7380     1.2470 N.2   1 <1>  -0.4180 
 24 C       -9.8650    -5.1030    -0.0120 C.2   1 <1>   0.0360 
 25 N       -9.3890    -5.7990     1.8830 N.2   1 <1>   0.0000 
 26 N      -10.3940    -5.4010     1.1110 N.2   1 <1>  -0.3380 
 27 H       -3.4450     1.2430     1.0680 H     1 <1>   0.1500 
 28 H       -2.3800    -2.2520     1.2180 H     1 <1>   0.0800 
 29 H       -2.4600    -2.1770    -0.5260 H     1 <1>   0.0800 
 30 H        0.3350     3.8830     1.2160 H     1 <1>   0.0800 
 31 H        0.4340     4.1980    -0.5140 H     1 <1>   0.0800 
 32 H        2.0310     1.0560    -1.2440 H     1 <1>   0.0800 
 33 H        2.3860     0.9730     0.4830 H     1 <1>   0.0800 
 34 H       -4.4170    -0.8880     1.2240 H     1 <1>   0.4500 
 35 H        2.6450     3.7700     1.4490 H     1 <1>   0.0800 
 36 H        2.6110     4.8900     0.1020 H     1 <1>   0.0800 
 37 H        3.0240     3.1360    -1.4690 H     1 <1>   0.0800 
 38 H        4.0000     2.5810    -0.1240 H     1 <1>   0.0800 
 39 H       -4.4800    -3.2010     1.7260 H     1 <1>   0.0800 
 40 H       -4.5630    -3.5900     0.0350 H     1 <1>   0.0800 
 41 H       -4.8290    -1.6220    -1.5990 H     1 <1>   0.0800 
 42 H       -4.0560    -0.1300    -1.1290 H     1 <1>   0.0800 
 43 H       -6.7230    -2.0970     1.5530 H     1 <1>   0.0800 
 44 H       -6.7160    -3.7890     1.2420 H     1 <1>   0.0800 
 45 H       -6.1920     0.6070    -1.1910 H     1 <1>   0.0800 
 46 H       -6.1460     0.1450     0.4670 H     1 <1>   0.0800 
 47 H       -7.5420    -1.0620    -1.8590 H     1 <1>   0.0800 
 48 H       -8.1450    -0.8250    -0.2540 H     1 <1>   0.0800 
 49 H       -6.5780    -5.3520    -0.5960 H     1 <1>   0.0800 
 50 H       -7.7670    -5.6290    -1.8440 H     1 <1>   0.0800 
 51 H      -10.3880    -4.7380    -0.8780 H     1 <1>   0.1500 
@<TRIPOS>BOND
  1   1   2  1   
  2   1   3  1   
  3   2   4  2   
  4   2   5  1   
  5   3   6  2   
  6   3   7  1   
  7   4   6  1   
  8   5   8  1   
  9   5   9  1   
 10   6  27  1   
 11   7  10  1   
 12   7  28  1   
 13   7  29  1   
 14   8  11  1   
 15   8  30  1   
 16   8  31  1   
 17   9  12  1   
 18   9  32  1   
 19   9  33  1   
 20  10  13  1   
 21  10  14  1   
 22  10  34  1   
 23  11  12  1   
 24  11  35  1   
 25  11  36  1   
 26  12  37  1   
 27  12  38  1   
 28  13  15  1   
 29  13  39  1   
 30  13  40  1   
 31  14  16  1   
 32  14  41  1   
 33  14  42  1   
 34  15  17  1   
 35  15  43  1   
 36  15  44  1   
 37  16  18  1   
 38  16  45  1   
 39  16  46  1   
 40  17  18  1   
 41  17  19  am  
 42  18  47  1   
 43  18  48  1   
 44  19  20  2   
 45  19  21  1   
 46  21  22  1   
 47  21  49  1   
 48  21  50  1   
 49  22  23  1   
 50  22  24  1   
 51  23  25  2   
 52  24  26  2   
 53  24  51  1   
 54  25  26  1   
@<TRIPOS>SUBSTRUCTURE
  1 ****  10 GROUP 4 **** **** 0

# MOE 2024.06 (io_trps.svl 2023.06)
