@<TRIPOS>MOLECULE
NONAME
38 40 1 0 0 
SMALL
USER_CHARGES


@<TRIPOS>ATOM
  1 CL       0.8220     0.4140    -2.0780 Cl    1 <1>  -0.1770 
  2 C        1.7620     1.1900    -0.8300 C.ar  1 <1>   0.1770 
  3 C        2.3780     0.4280     0.1480 C.ar  1 <1>   0.1600 
  4 C        1.8890     2.5600    -0.8250 C.ar  1 <1>  -0.1500 
  5 N        3.1070     0.9380     1.1330 N.ar  1 <1>  -0.6200 
  6 C        2.6530     3.1250     0.1870 C.ar  1 <1>   0.0860 
  7 C        3.2120     2.2600     1.1290 C.ar  1 <1>   0.1600 
  8 C        2.8590     4.5530     0.2770 C.2   1 <1>   0.5440 
  9 O        1.8950     5.2880     0.1890 O.2   1 <1>  -0.5700 
 10 N        4.1110     5.1060     0.4550 N.am  1 <1>  -0.6600 
 11 C        5.3830     4.4030     0.0850 C.3   1 <1>   0.1400 
 12 C        4.2530     6.5130     0.9270 C.3   1 <1>   0.1400 
 13 C        6.1610     5.1320    -1.0200 C.3   1 <1>   0.1400 
 14 C        4.5200     7.4480    -0.2570 C.3   1 <1>  -0.1600 
 15 N        6.8050     6.3760    -0.5040 N.am  1 <1>  -0.6600 
 16 C        6.0090     7.6350    -0.5780 C.3   1 <1>   0.1400 
 17 C        8.0770     6.3190     0.0420 C.2   1 <1>   0.7160 
 18 O        8.4780     5.2270     0.4110 O.2   1 <1>  -0.5700 
 19 C        8.9580     7.4760     0.2160 C.2   1 <1>   0.1410 
 20 N        8.8280     8.6580    -0.5430 N.2   1 <1>  -0.5650 
 21 C        9.9880     7.5100     1.0920 C.2   1 <1>  -0.1100 
 22 C        9.7110     9.5240    -0.2470 C.2   1 <1>   0.2280 
 23 S       10.8220     9.0270     1.0010 S.3   1 <1>  -0.0800 
 24 H        2.2630    -0.6420     0.1150 H     1 <1>   0.1500 
 25 H        1.4130     3.1710    -1.5720 H     1 <1>   0.1500 
 26 H        3.7850     2.6990     1.9290 H     1 <1>   0.1500 
 27 H        5.1660     3.4140    -0.2760 H     1 <1>   0.0800 
 28 H        6.0080     4.3010     0.9560 H     1 <1>   0.0800 
 29 H        5.0450     6.5800     1.6530 H     1 <1>   0.0800 
 30 H        3.3410     6.8160     1.4140 H     1 <1>   0.0800 
 31 H        5.5100     5.3590    -1.8460 H     1 <1>   0.0800 
 32 H        6.9290     4.4730    -1.3890 H     1 <1>   0.0800 
 33 H        4.1200     8.4170    -0.0170 H     1 <1>   0.0800 
 34 H        3.9850     7.1030    -1.1240 H     1 <1>   0.0800 
 35 H        6.4040     8.3390     0.1330 H     1 <1>   0.0800 
 36 H        6.1180     8.0650    -1.5600 H     1 <1>   0.0800 
 37 H       10.3440     6.7720     1.7880 H     1 <1>   0.1500 
 38 H        9.8520    10.5060    -0.6640 H     1 <1>   0.1500 
@<TRIPOS>BOND
  1   1   2  1   
  2   2   3  ar  
  3   2   4  ar  
  4   3   5  ar  
  5   3  24  1   
  6   4   6  ar  
  7   4  25  1   
  8   5   7  ar  
  9   6   7  ar  
 10   6   8  1   
 11   7  26  1   
 12   8   9  2   
 13   8  10  am  
 14  10  11  1   
 15  10  12  1   
 16  11  13  1   
 17  11  27  1   
 18  11  28  1   
 19  12  14  1   
 20  12  29  1   
 21  12  30  1   
 22  13  15  1   
 23  13  31  1   
 24  13  32  1   
 25  14  16  1   
 26  14  33  1   
 27  14  34  1   
 28  15  16  1   
 29  15  17  am  
 30  16  35  1   
 31  16  36  1   
 32  17  18  2   
 33  17  19  1   
 34  19  20  1   
 35  19  21  2   
 36  20  22  2   
 37  21  23  1   
 38  21  37  1   
 39  22  23  1   
 40  22  38  1   
@<TRIPOS>SUBSTRUCTURE
  1 ****  11 GROUP 4 **** **** 0

# MOE 2024.06 (io_trps.svl 2023.06)
