@<TRIPOS>MOLECULE
NONAME
45 48 1 0 0 
SMALL
USER_CHARGES


@<TRIPOS>ATOM
  1 S       -3.3950     0.6430    -2.3110 S.3   1 <1>  -0.1570 
  2 C       -3.7900     0.0020    -0.7040 C.2   1 <1>   0.2420 
  3 C       -1.6560     0.6130    -1.9130 C.2   1 <1>  -0.0490 
  4 N       -4.9090    -0.2950    -0.1340 N.2   1 <1>  -0.5650 
  5 N       -2.6630    -0.1920     0.0090 N.pl3 1 <1>   0.3340 
  6 C       -1.4710     0.1490    -0.6650 C.2   1 <1>  -0.1810 
  7 C       -4.4810    -0.7350     1.0750 C.2   1 <1>   0.0460 
  8 C       -3.1280    -0.6770     1.1790 C.2   1 <1>  -0.3020 
  9 C       -5.4640    -1.2080     2.1310 C.3   1 <1>   0.0820 
 10 C       -5.6170    -2.7190     2.1360 C.2   1 <1>   0.5690 
 11 O       -5.0500    -3.3390     3.0080 O.2   1 <1>  -0.5700 
 12 N       -6.3870    -3.3580     1.2020 N.am  1 <1>  -0.6600 
 13 C       -7.0050    -2.7490    -0.0050 C.3   1 <1>   0.1400 
 14 C       -6.6340    -4.8150     1.2150 C.3   1 <1>   0.1400 
 15 C       -7.8050    -3.8750    -0.6730 C.3   1 <1>   0.2000 
 16 C       -7.0890    -5.1480    -0.2080 C.3   1 <1>  -0.0800 
 17 O       -9.1180    -3.8910    -0.1860 O.3   1 <1>  -0.5600 
 18 C       -7.9370    -6.4290    -0.2990 C.3   1 <1>   0.0200 
 19 C       -9.9970    -3.0220    -0.8280 C.3   1 <1>   0.0400 
 20 C       -7.1440    -7.6920    -0.0030 C.2   1 <1>  -0.0400 
 21 O       -7.7750    -8.8360     0.0300 O.3   1 <1>  -0.0190 
 22 C       -5.8470    -7.9350     0.2470 C.2   1 <1>  -0.1500 
 23 N       -6.9730    -9.8280     0.2910 N.2   1 <1>  -0.4100 
 24 C       -5.8040    -9.3140     0.4280 C.2   1 <1>   0.1080 
 25 C       -4.5570   -10.1080     0.7440 C.3   1 <1>  -0.0590 
 26 H       -0.9780     0.9530    -2.6780 H     1 <1>   0.1500 
 27 H       -0.5420     0.0140    -0.1430 H     1 <1>   0.1500 
 28 H       -2.4830    -0.9480     1.9950 H     1 <1>   0.1500 
 29 H       -6.4190    -0.7450     1.9770 H     1 <1>   0.0800 
 30 H       -5.1060    -0.9010     3.0960 H     1 <1>   0.0800 
 31 H       -7.6230    -1.9080     0.2500 H     1 <1>   0.0800 
 32 H       -6.2220    -2.4350    -0.6710 H     1 <1>   0.0800 
 33 H       -5.7450    -5.3530     1.4950 H     1 <1>   0.0800 
 34 H       -7.4180    -5.0250     1.9230 H     1 <1>   0.0800 
 35 H       -7.8230    -3.7920    -1.7460 H     1 <1>   0.0800 
 36 H       -6.2100    -5.2680    -0.8160 H     1 <1>   0.0800 
 37 H       -8.3490    -6.5130    -1.2890 H     1 <1>   0.0800 
 38 H       -8.7610    -6.3720     0.3910 H     1 <1>   0.0800 
 39 H      -10.9610    -3.1180    -0.3590 H     1 <1>   0.0800 
 40 H      -10.0720    -3.2940    -1.8660 H     1 <1>   0.0800 
 41 H       -9.6470    -2.0100    -0.7260 H     1 <1>   0.0800 
 42 H       -5.0100    -7.2650     0.3020 H     1 <1>   0.1500 
 43 H       -3.8340    -9.9790    -0.0400 H     1 <1>   0.0800 
 44 H       -4.7990   -11.1520     0.8280 H     1 <1>   0.0800 
 45 H       -4.1380    -9.7720     1.6740 H     1 <1>   0.0800 
@<TRIPOS>BOND
  1   1   2  1   
  2   1   3  1   
  3   2   4  2   
  4   2   5  1   
  5   3   6  2   
  6   3  26  1   
  7   4   7  1   
  8   5   6  1   
  9   5   8  1   
 10   6  27  1   
 11   7   8  2   
 12   7   9  1   
 13   8  28  1   
 14   9  10  1   
 15   9  29  1   
 16   9  30  1   
 17  10  11  2   
 18  10  12  am  
 19  12  13  1   
 20  12  14  1   
 21  13  15  1   
 22  13  31  1   
 23  13  32  1   
 24  14  16  1   
 25  14  33  1   
 26  14  34  1   
 27  15  16  1   
 28  15  17  1   
 29  15  35  1   
 30  16  18  1   
 31  16  36  1   
 32  17  19  1   
 33  18  20  1   
 34  18  37  1   
 35  18  38  1   
 36  19  39  1   
 37  19  40  1   
 38  19  41  1   
 39  20  21  1   
 40  20  22  2   
 41  21  23  1   
 42  22  24  1   
 43  22  42  1   
 44  23  24  2   
 45  24  25  1   
 46  25  43  1   
 47  25  44  1   
 48  25  45  1   
@<TRIPOS>SUBSTRUCTURE
  1 ****  12 GROUP 4 **** **** 0

# MOE 2024.06 (io_trps.svl 2023.06)
