@<TRIPOS>MOLECULE
NONAME
43 46 1 0 0 
SMALL
USER_CHARGES


@<TRIPOS>ATOM
  1 S       -1.6890    -0.6220    -2.0460 S.3   1 <1>  -0.0800 
  2 C       -1.6010    -1.1540    -0.3690 C.2   1 <1>  -0.1400 
  3 C       -1.3910     1.0430    -1.5830 C.2   1 <1>  -0.1100 
  4 C       -1.3590    -0.1040     0.4390 C.2   1 <1>  -0.1500 
  5 C       -1.7990    -2.6320    -0.0680 C.3   1 <1>   0.3800 
  6 C       -1.2400     1.1450    -0.2500 C.2   1 <1>  -0.1500 
  7 O       -0.8050    -3.3150    -0.7390 O.3   1 <1>  -0.6800 
  8 C       -3.1790    -3.1680    -0.5070 C.3   1 <1>  -0.0800 
  9 C       -4.3270    -2.3870     0.1610 C.3   1 <1>  -0.1600 
 10 C       -3.3430    -4.6660    -0.1840 C.3   1 <1>  -0.1600 
 11 C       -5.6930    -2.9640    -0.2150 C.3   1 <1>   0.1100 
 12 C       -4.7410    -5.1740    -0.5410 C.3   1 <1>   0.1100 
 13 N       -5.7590    -4.3800     0.1670 N.3   1 <1>  -0.8100 
 14 C       -7.1200    -4.9190    -0.0660 C.3   1 <1>   0.2900 
 15 C       -7.3120    -6.3410     0.4530 C.2   1 <1>   0.2980 
 16 O       -7.2430    -6.5560     1.7410 O.3   1 <1>  -0.0190 
 17 N       -7.5450    -7.3670    -0.2590 N.2   1 <1>  -0.5650 
 18 N       -7.4490    -7.8310     1.8620 N.2   1 <1>  -0.4100 
 19 C       -7.6220    -8.3150     0.6820 C.2   1 <1>   0.5150 
 20 C       -7.8740    -9.7100     0.3890 C.2   1 <1>   0.1410 
 21 O       -8.0480   -10.1380    -0.8590 O.3   1 <1>  -0.2800 
 22 C       -7.9780   -10.7760     1.2290 C.2   1 <1>  -0.1500 
 23 C       -8.2580   -11.4380    -0.8330 C.2   1 <1>  -0.0100 
 24 C       -8.2280   -11.8980     0.4340 C.2   1 <1>  -0.1500 
 25 H       -1.3600     1.7780    -2.3670 H     1 <1>   0.1500 
 26 H       -1.2540    -0.1510     1.5100 H     1 <1>   0.1500 
 27 H       -1.6590    -2.8120     0.9840 H     1 <1>   0.0800 
 28 H       -1.0480     2.0560     0.2900 H     1 <1>   0.1500 
 29 H       -0.6720    -2.8770    -1.6000 H     1 <1>   0.4000 
 30 H       -3.2710    -3.0390    -1.5710 H     1 <1>   0.0800 
 31 H       -4.2970    -1.3550    -0.1410 H     1 <1>   0.0800 
 32 H       -4.2230    -2.4210     1.2310 H     1 <1>   0.0800 
 33 H       -3.1730    -4.8390     0.8640 H     1 <1>   0.0800 
 34 H       -2.6160    -5.2410    -0.7310 H     1 <1>   0.0800 
 35 H       -5.8560    -2.8600    -1.2750 H     1 <1>   0.0800 
 36 H       -6.4590    -2.4130     0.3050 H     1 <1>   0.0800 
 37 H       -4.8110    -6.2090    -0.2520 H     1 <1>   0.0800 
 38 H       -4.8960    -5.1090    -1.6050 H     1 <1>   0.0800 
 39 H       -7.3360    -4.9050    -1.1210 H     1 <1>   0.0800 
 40 H       -7.8380    -4.2900     0.4300 H     1 <1>   0.0800 
 41 H       -7.8890   -10.7720     2.3010 H     1 <1>   0.1500 
 42 H       -8.4200   -11.9560    -1.7630 H     1 <1>   0.1500 
 43 H       -8.3620   -12.9040     0.7900 H     1 <1>   0.1500 
@<TRIPOS>BOND
  1   1   2  1   
  2   1   3  1   
  3   2   4  2   
  4   2   5  1   
  5   3   6  2   
  6   3  25  1   
  7   4   6  1   
  8   4  26  1   
  9   5   7  1   
 10   5   8  1   
 11   5  27  1   
 12   6  28  1   
 13   7  29  1   
 14   8   9  1   
 15   8  10  1   
 16   8  30  1   
 17   9  11  1   
 18   9  31  1   
 19   9  32  1   
 20  10  12  1   
 21  10  33  1   
 22  10  34  1   
 23  11  13  1   
 24  11  35  1   
 25  11  36  1   
 26  12  13  1   
 27  12  37  1   
 28  12  38  1   
 29  13  14  1   
 30  14  15  1   
 31  14  39  1   
 32  14  40  1   
 33  15  16  1   
 34  15  17  2   
 35  16  18  1   
 36  17  19  1   
 37  18  19  2   
 38  19  20  1   
 39  20  21  1   
 40  20  22  2   
 41  21  23  1   
 42  22  24  1   
 43  22  41  1   
 44  23  24  2   
 45  23  42  1   
 46  24  43  1   
@<TRIPOS>SUBSTRUCTURE
  1 ****  12 GROUP 4 **** **** 0

# MOE 2024.06 (io_trps.svl 2023.06)
