@<TRIPOS>MOLECULE
NONAME
53 55 1 0 0 
SMALL
USER_CHARGES


@<TRIPOS>ATOM
  1 CL      -0.4750     0.0890    -1.1630 Cl    1 <1>  -0.1770 
  2 C       -2.1230     0.5120    -0.7830 C.ar  1 <1>   0.1770 
  3 C       -2.7400     1.5370    -1.4750 C.ar  1 <1>  -0.1500 
  4 C       -2.7950    -0.1800     0.2050 C.ar  1 <1>  -0.1500 
  5 C       -4.0490     1.8660    -1.1720 C.ar  1 <1>  -0.1500 
  6 C       -4.1030     0.1590     0.5020 C.ar  1 <1>  -0.1500 
  7 C       -4.7620     1.1830    -0.1820 C.ar  1 <1>   0.0530 
  8 C       -6.1280     1.5360     0.1090 C.2   1 <1>   0.0870 
  9 O       -6.5500     2.7650    -0.0560 O.3   1 <1>  -0.0190 
 10 C       -7.1950     0.8150     0.5400 C.2   1 <1>  -0.0860 
 11 N       -7.8160     2.9150     0.2350 N.2   1 <1>  -0.4100 
 12 C       -8.2230     1.7540     0.6060 C.2   1 <1>   0.3720 
 13 C       -7.3430    -0.5730     0.8350 C.2   1 <1>   0.7160 
 14 N       -9.5230     1.4520     1.0050 N.pl3 1 <1>  -0.8520 
 15 O       -6.9760    -0.9830     1.9220 O.2   1 <1>  -0.5700 
 16 N       -7.8930    -1.4590    -0.0730 N.am  1 <1>  -0.6600 
 17 C      -10.5110     2.5550     1.1620 C.3   1 <1>   0.2090 
 18 C       -8.3690    -1.0340    -1.4220 C.3   1 <1>   0.1400 
 19 C       -8.0700    -2.8920     0.2790 C.3   1 <1>   0.1400 
 20 C      -11.9210     2.0050     0.9540 C.3   1 <1>   0.1200 
 21 C       -9.7190    -1.6450    -1.8260 C.3   1 <1>  -0.1600 
 22 C       -9.3990    -3.0830     1.0180 C.3   1 <1>  -0.1600 
 23 O      -12.8440     3.0220     1.1920 O.3   1 <1>  -0.5600 
 24 C      -10.7730    -1.6930    -0.7000 C.3   1 <1>  -0.0800 
 25 C      -10.6530    -2.9840     0.1340 C.3   1 <1>  -0.1600 
 26 C      -14.1660     2.6400     0.9920 C.3   1 <1>   0.0400 
 27 C      -12.1800    -1.6210    -1.3080 C.3   1 <1>  -0.2400 
 28 H       -2.1980     2.0660    -2.2390 H     1 <1>   0.1500 
 29 H       -2.2960    -0.9710     0.7360 H     1 <1>   0.1500 
 30 H       -4.5290     2.6640    -1.7110 H     1 <1>   0.1500 
 31 H       -4.6120    -0.3780     1.2830 H     1 <1>   0.1500 
 32 H       -9.5360     0.8110     1.8060 H     1 <1>   0.4000 
 33 H      -10.3280     3.3260     0.4320 H     1 <1>   0.0800 
 34 H      -10.4230     2.9760     2.1480 H     1 <1>   0.0800 
 35 H       -7.6250    -1.3000    -2.1530 H     1 <1>   0.0800 
 36 H       -8.4790     0.0360    -1.4520 H     1 <1>   0.0800 
 37 H       -7.2620    -3.2030     0.9200 H     1 <1>   0.0800 
 38 H       -8.0350    -3.5040    -0.6060 H     1 <1>   0.0800 
 39 H      -12.1140     1.2020     1.6430 H     1 <1>   0.0800 
 40 H      -12.0340     1.6630    -0.0600 H     1 <1>   0.0800 
 41 H       -9.5630    -2.6300    -2.2290 H     1 <1>   0.0800 
 42 H      -10.0910    -1.0450    -2.6380 H     1 <1>   0.0800 
 43 H       -9.4590    -2.3660     1.8180 H     1 <1>   0.0800 
 44 H       -9.3890    -4.0580     1.4710 H     1 <1>   0.0800 
 45 H      -10.6510    -0.8390    -0.0560 H     1 <1>   0.0800 
 46 H      -11.5090    -3.0590     0.7830 H     1 <1>   0.0800 
 47 H      -10.6850    -3.8350    -0.5250 H     1 <1>   0.0800 
 48 H      -14.7940     3.4880     1.2000 H     1 <1>   0.0800 
 49 H      -14.4100     1.8340     1.6620 H     1 <1>   0.0800 
 50 H      -14.2970     2.3350    -0.0320 H     1 <1>   0.0800 
 51 H      -12.3500    -2.4510    -1.9720 H     1 <1>   0.0800 
 52 H      -12.3030    -0.7070    -1.8610 H     1 <1>   0.0800 
 53 H      -12.9260    -1.6430    -0.5330 H     1 <1>   0.0800 
@<TRIPOS>BOND
  1   1   2  1   
  2   2   3  ar  
  3   2   4  ar  
  4   3   5  ar  
  5   3  28  1   
  6   4   6  ar  
  7   4  29  1   
  8   5   7  ar  
  9   5  30  1   
 10   6   7  ar  
 11   6  31  1   
 12   7   8  1   
 13   8   9  1   
 14   8  10  2   
 15   9  11  1   
 16  10  12  1   
 17  10  13  1   
 18  11  12  2   
 19  12  14  1   
 20  13  15  2   
 21  13  16  am  
 22  14  17  1   
 23  14  32  1   
 24  16  18  1   
 25  16  19  1   
 26  17  20  1   
 27  17  33  1   
 28  17  34  1   
 29  18  21  1   
 30  18  35  1   
 31  18  36  1   
 32  19  22  1   
 33  19  37  1   
 34  19  38  1   
 35  20  23  1   
 36  20  39  1   
 37  20  40  1   
 38  21  24  1   
 39  21  41  1   
 40  21  42  1   
 41  22  25  1   
 42  22  43  1   
 43  22  44  1   
 44  23  26  1   
 45  24  25  1   
 46  24  27  1   
 47  24  45  1   
 48  25  46  1   
 49  25  47  1   
 50  26  48  1   
 51  26  49  1   
 52  26  50  1   
 53  27  51  1   
 54  27  52  1   
 55  27  53  1   
@<TRIPOS>SUBSTRUCTURE
  1 ****  10 GROUP 4 **** **** 0

# MOE 2024.06 (io_trps.svl 2023.06)
