@<TRIPOS>MOLECULE
NONAME
48 50 1 0 0 
SMALL
USER_CHARGES


@<TRIPOS>ATOM
  1 S       -0.3850    -0.0420    -1.6730 S.o2  1 <1>   1.5010 
  2 O       -0.1780    -1.4600    -1.9020 O.2   1 <1>  -0.6500 
  3 O       -0.5290     0.8500    -2.8010 O.2   1 <1>  -0.6500 
  4 N       -1.8230     0.0500    -0.7790 N.am  1 <1>  -0.8490 
  5 C        0.8610     0.5870    -0.5190 C.2   1 <1>  -0.0630 
  6 C       -1.9010    -0.9930     0.2740 C.3   1 <1>   0.1960 
  7 C       -3.0090     0.1100    -1.6650 C.3   1 <1>   0.1960 
  8 C        0.8210     1.7500     0.1690 C.2   1 <1>  -0.1400 
  9 C        2.0550    -0.1650    -0.2400 C.2   1 <1>  -0.1500 
 10 C       -2.6480    -2.2300    -0.2720 C.3   1 <1>   0.4230 
 11 C       -4.2810    -0.4180    -0.9790 C.3   1 <1>  -0.1600 
 12 S        2.2340     1.9390     1.1890 S.3   1 <1>  -0.0800 
 13 C       -0.1920     2.8800     0.2150 C.3   1 <1>  -0.0600 
 14 C        2.8870     0.4100     0.6460 C.2   1 <1>  -0.1400 
 15 N       -2.4920    -3.5120     0.4930 N.4   1 <1>  -0.9590 
 16 C       -4.1340    -1.8770    -0.4490 C.3   1 <1>  -0.1060 
 17 C        4.2240    -0.0130     1.2170 C.3   1 <1>  -0.0600 
 18 C       -3.4580    -4.5760     0.0600 C.3   1 <1>   0.3430 
 19 C       -1.0880    -3.9890     0.5920 C.3   1 <1>   0.2630 
 20 C       -4.8460    -1.9620     0.9150 C.2   1 <1>   0.9060 
 21 C       -4.7050    -2.9120    -1.4610 C.3   1 <1>  -0.1600 
 22 C       -4.0350    -4.3020    -1.3380 C.3   1 <1>  -0.1600 
 23 O       -4.1720    -2.1140     1.9490 O.co2 1 <1>  -0.9000 
 24 O       -6.0730    -1.9370     0.9460 O.co2 1 <1>  -0.9000 
 25 H       -0.9140    -1.2540     0.6090 H     1 <1>   0.0800 
 26 H       -2.4330    -0.5890     1.1190 H     1 <1>   0.0800 
 27 H       -3.1590     1.1290    -1.9810 H     1 <1>   0.0800 
 28 H       -2.8350    -0.4810    -2.5510 H     1 <1>   0.0800 
 29 H        2.2310    -1.1080    -0.7280 H     1 <1>   0.1500 
 30 H       -2.2420    -2.4060    -1.2540 H     1 <1>   0.0800 
 31 H       -4.5030     0.2460    -0.1590 H     1 <1>   0.0800 
 32 H       -5.1180    -0.3510    -1.6520 H     1 <1>   0.0800 
 33 H       -0.9960     2.7040    -0.4760 H     1 <1>   0.0800 
 34 H        0.2850     3.8070    -0.0450 H     1 <1>   0.0800 
 35 H       -0.6000     2.9640     1.2060 H     1 <1>   0.0800 
 36 H       -2.8650    -3.2130     1.4340 H     1 <1>   0.4500 
 37 H        4.5220    -0.9610     0.8070 H     1 <1>   0.0800 
 38 H        4.1540    -0.1030     2.2870 H     1 <1>   0.0800 
 39 H        4.9730     0.7200     0.9770 H     1 <1>   0.0800 
 40 H       -2.9830    -5.5430     0.0810 H     1 <1>   0.0800 
 41 H       -4.2790    -4.5960     0.7620 H     1 <1>   0.0800 
 42 H       -0.7000    -4.2020    -0.3910 H     1 <1>   0.0800 
 43 H       -1.0430    -4.8840     1.1890 H     1 <1>   0.0800 
 44 H       -0.4690    -3.2380     1.0530 H     1 <1>   0.0800 
 45 H       -5.7680    -3.0080    -1.3070 H     1 <1>   0.0800 
 46 H       -4.5670    -2.5610    -2.4690 H     1 <1>   0.0800 
 47 H       -3.2390    -4.3860    -2.0570 H     1 <1>   0.0800 
 48 H       -4.7580    -5.0630    -1.5760 H     1 <1>   0.0800 
@<TRIPOS>BOND
  1   1   2  2   
  2   1   3  2   
  3   1   4  am  
  4   1   5  1   
  5   4   6  1   
  6   4   7  1   
  7   5   8  2   
  8   5   9  1   
  9   6  10  1   
 10   6  25  1   
 11   6  26  1   
 12   7  11  1   
 13   7  27  1   
 14   7  28  1   
 15   8  12  1   
 16   8  13  1   
 17   9  14  2   
 18   9  29  1   
 19  10  15  1   
 20  10  16  1   
 21  10  30  1   
 22  11  16  1   
 23  11  31  1   
 24  11  32  1   
 25  12  14  1   
 26  13  33  1   
 27  13  34  1   
 28  13  35  1   
 29  14  17  1   
 30  15  18  1   
 31  15  19  1   
 32  15  36  1   
 33  16  20  1   
 34  16  21  1   
 35  17  37  1   
 36  17  38  1   
 37  17  39  1   
 38  18  22  1   
 39  18  40  1   
 40  18  41  1   
 41  19  42  1   
 42  19  43  1   
 43  19  44  1   
 44  20  23  ar  
 45  20  24  ar  
 46  21  22  1   
 47  21  45  1   
 48  21  46  1   
 49  22  47  1   
 50  22  48  1   
@<TRIPOS>SUBSTRUCTURE
  1 ****   6 GROUP 4 **** **** 0

# MOE 2024.06 (io_trps.svl 2023.06)
