@<TRIPOS>MOLECULE
NONAME
50 52 1 0 0 
SMALL
USER_CHARGES


@<TRIPOS>ATOM
  1 S        0.1570    -0.7410     0.2690 S.o2  1 <1>   1.4470 
  2 O        0.7610    -2.0300     0.5210 O.2   1 <1>  -0.6500 
  3 O       -0.8870    -0.2760     1.1540 O.2   1 <1>  -0.6500 
  4 N       -0.5770    -0.8060    -1.2440 N.am  1 <1>  -0.9140 
  5 C        1.4440     0.5130     0.0700 C.ar  1 <1>  -0.0090 
  6 C       -1.2980    -2.0140    -1.6590 C.3   1 <1>   0.2760 
  7 C        1.1270     1.8010    -0.3480 C.ar  1 <1>   0.0830 
  8 C        2.7740     0.2160     0.3390 C.ar  1 <1>  -0.1500 
  9 C       -2.2320    -2.6570    -0.6240 C.3   1 <1>  -0.0800 
 10 C       -0.3880    -3.1620    -2.1090 C.3   1 <1>   0.1200 
 11 O       -0.1780     2.0800    -0.6080 O.3   1 <1>  -0.3630 
 12 C        2.1330     2.7550    -0.4900 C.ar  1 <1>  -0.1500 
 13 C        3.7790     1.1600     0.2020 C.ar  1 <1>  -0.1430 
 14 C       -1.7040    -4.0920    -0.5380 C.3   1 <1>   0.1200 
 15 C       -3.6990    -2.6050    -1.0840 C.3   1 <1>  -0.0170 
 16 O       -1.0700    -4.3220    -1.7520 O.3   1 <1>  -0.5600 
 17 C       -0.6320     3.4020    -0.8090 C.3   1 <1>   0.0400 
 18 C        3.4540     2.4440    -0.2170 C.ar  1 <1>  -0.1430 
 19 C        5.2150     0.7630     0.5150 C.3   1 <1>  -0.0970 
 20 C       -4.6320    -3.2250    -0.0540 C.ar  1 <1>  -0.1430 
 21 C        4.5210     3.5170    -0.3850 C.3   1 <1>  -0.0970 
 22 C       -5.2810    -4.4220    -0.2790 C.ar  1 <1>  -0.1500 
 23 C       -4.8750    -2.6200     1.1630 C.ar  1 <1>  -0.1500 
 24 C       -6.1180    -4.9410     0.6950 C.ar  1 <1>   0.1600 
 25 C       -5.7300    -3.2240     2.0690 C.ar  1 <1>   0.1600 
 26 N       -6.3580    -4.3710     1.8640 N.ar  1 <1>  -0.6200 
 27 H       -1.2330    -0.0280    -1.1980 H     1 <1>   0.4200 
 28 H       -1.8760    -1.7450    -2.5270 H     1 <1>   0.0800 
 29 H        3.0240    -0.7800     0.6630 H     1 <1>   0.1500 
 30 H       -2.1670    -2.2150     0.3490 H     1 <1>   0.0800 
 31 H        0.5590    -3.1630    -1.6010 H     1 <1>   0.0800 
 32 H       -0.2370    -3.1640    -3.1730 H     1 <1>   0.0800 
 33 H        1.8990     3.7490    -0.8170 H     1 <1>   0.1500 
 34 H       -2.4730    -4.8290    -0.3930 H     1 <1>   0.0800 
 35 H       -0.9660    -4.1800     0.2420 H     1 <1>   0.0800 
 36 H       -3.8040    -3.1160    -2.0250 H     1 <1>   0.0800 
 37 H       -3.9910    -1.5800    -1.2330 H     1 <1>   0.0800 
 38 H       -1.7040     3.3800    -0.8900 H     1 <1>   0.0800 
 39 H       -0.2050     3.7850    -1.7190 H     1 <1>   0.0800 
 40 H       -0.3430     4.0020     0.0360 H     1 <1>   0.0800 
 41 H        5.2730    -0.2640     0.8300 H     1 <1>   0.0800 
 42 H        5.6050     1.3790     1.3040 H     1 <1>   0.0800 
 43 H        5.8290     0.8810    -0.3600 H     1 <1>   0.0800 
 44 H        4.0920     4.4440    -0.7180 H     1 <1>   0.0800 
 45 H        5.2490     3.2030    -1.1110 H     1 <1>   0.0800 
 46 H        5.0160     3.6940     0.5530 H     1 <1>   0.0800 
 47 H       -5.1440    -4.9570    -1.2010 H     1 <1>   0.1500 
 48 H       -4.4060    -1.6860     1.4160 H     1 <1>   0.1500 
 49 H       -6.6150    -5.8760     0.5010 H     1 <1>   0.1500 
 50 H       -5.9050    -2.7380     3.0130 H     1 <1>   0.1500 
@<TRIPOS>BOND
  1   1   2  2   
  2   1   3  2   
  3   1   4  am  
  4   1   5  1   
  5   4   6  1   
  6   4  27  1   
  7   5   7  ar  
  8   5   8  ar  
  9   6   9  1   
 10   6  10  1   
 11   6  28  1   
 12   7  11  1   
 13   7  12  ar  
 14   8  13  ar  
 15   8  29  1   
 16   9  14  1   
 17   9  15  1   
 18   9  30  1   
 19  10  16  1   
 20  10  31  1   
 21  10  32  1   
 22  11  17  1   
 23  12  18  ar  
 24  12  33  1   
 25  13  18  ar  
 26  13  19  1   
 27  14  16  1   
 28  14  34  1   
 29  14  35  1   
 30  15  20  1   
 31  15  36  1   
 32  15  37  1   
 33  17  38  1   
 34  17  39  1   
 35  17  40  1   
 36  18  21  1   
 37  19  41  1   
 38  19  42  1   
 39  19  43  1   
 40  20  22  ar  
 41  20  23  ar  
 42  21  44  1   
 43  21  45  1   
 44  21  46  1   
 45  22  24  ar  
 46  22  47  1   
 47  23  25  ar  
 48  23  48  1   
 49  24  26  ar  
 50  24  49  1   
 51  25  26  ar  
 52  25  50  1   
@<TRIPOS>SUBSTRUCTURE
  1 ****   1 GROUP 4 **** **** 0

# MOE 2024.06 (io_trps.svl 2023.06)
