@<TRIPOS>MOLECULE
NONAME
54 57 1 0 0 
SMALL
USER_CHARGES


@<TRIPOS>ATOM
  1 N        0.1040    -0.4270     0.4760 N.ar  1 <1>  -0.6200 
  2 C        1.1100     0.3620     0.1090 C.ar  1 <1>   0.7710 
  3 C        0.3590    -1.6970     0.7170 C.ar  1 <1>   0.4100 
  4 N        2.3600    -0.1140    -0.0400 N.ar  1 <1>  -0.1790 
  5 N        0.8740     1.6800    -0.1280 N.pl3 1 <1>  -0.8380 
  6 N       -0.6830    -2.4780     1.1090 N.pl3 1 <1>  -0.8380 
  7 C        1.6570    -2.2260     0.5790 C.ar  1 <1>  -0.1500 
  8 C        2.6680    -1.4120     0.1910 C.ar  1 <1>   0.2180 
  9 C       -0.5420     2.1950    -0.1610 C.3   1 <1>   0.2090 
 10 C        1.9380     2.7330    -0.2950 C.3   1 <1>   0.2090 
 11 C       -0.8680    -3.9060     0.6710 C.3   1 <1>   0.2090 
 12 C       -1.8290    -1.9290     1.9150 C.3   1 <1>   0.2090 
 13 C        4.1040    -1.8720     0.0110 C.3   1 <1>  -0.0970 
 14 C       -0.6510     3.4740    -0.9970 C.3   1 <1>  -0.1600 
 15 C        1.4730     4.0740     0.2800 C.3   1 <1>  -0.1600 
 16 C       -2.2470    -4.1250    -0.0100 C.3   1 <1>   0.5660 
 17 C       -3.1720    -2.1350     1.1820 C.3   1 <1>   0.3430 
 18 C        0.2230     4.6070    -0.4370 C.3   1 <1>  -0.1600 
 19 N       -3.3850    -3.5670     0.7740 N.4   1 <1>  -0.9060 
 20 C       -2.5460    -5.5940    -0.2400 C.ar  1 <1>  -0.1430 
 21 C       -2.8060    -6.0350    -1.5310 C.ar  1 <1>  -0.1500 
 22 C       -2.5770    -6.5080     0.8080 C.ar  1 <1>  -0.1500 
 23 C       -3.0940    -7.3660    -1.7710 C.ar  1 <1>  -0.1500 
 24 C       -2.8650    -7.8390     0.5640 C.ar  1 <1>  -0.1500 
 25 C       -3.1240    -8.2690    -0.7240 C.ar  1 <1>  -0.1500 
 26 H        3.0500     0.5580    -0.3520 H     1 <1>   0.4570 
 27 H        1.8240    -3.2630     0.7990 H     1 <1>   0.1500 
 28 H       -0.8680     2.3960     0.8460 H     1 <1>   0.0800 
 29 H       -1.1990     1.4540    -0.5850 H     1 <1>   0.0800 
 30 H        2.1570     2.8580    -1.3430 H     1 <1>   0.0800 
 31 H        2.8410     2.4490     0.2160 H     1 <1>   0.0800 
 32 H       -0.7720    -4.5500     1.5270 H     1 <1>   0.0800 
 33 H       -0.1010    -4.1850    -0.0310 H     1 <1>   0.0800 
 34 H       -1.6930    -0.8790     2.1120 H     1 <1>   0.0800 
 35 H       -1.8600    -2.4260     2.8690 H     1 <1>   0.0800 
 36 H        4.7580    -1.3350     0.6760 H     1 <1>   0.0800 
 37 H        4.4280    -1.7130    -1.0030 H     1 <1>   0.0800 
 38 H        4.1950    -2.9220     0.2300 H     1 <1>   0.0800 
 39 H       -1.6770     3.7980    -1.0290 H     1 <1>   0.0800 
 40 H       -0.3550     3.2490    -2.0070 H     1 <1>   0.0800 
 41 H        2.2640     4.7990     0.2020 H     1 <1>   0.0800 
 42 H        1.2610     3.9420     1.3270 H     1 <1>   0.0800 
 43 H       -2.2110    -3.6310    -0.9670 H     1 <1>   0.0800 
 44 H       -3.1740    -1.5050     0.3070 H     1 <1>   0.0800 
 45 H       -3.9780    -1.8110     1.8210 H     1 <1>   0.0800 
 46 H       -0.3480     5.1990     0.2580 H     1 <1>   0.0800 
 47 H        0.5130     5.2530    -1.2490 H     1 <1>   0.0800 
 48 H       -3.5120    -4.1650     1.5960 H     1 <1>   0.4500 
 49 H       -4.2360    -3.6730     0.2090 H     1 <1>   0.4500 
 50 H       -2.7900    -5.3580    -2.3690 H     1 <1>   0.1500 
 51 H       -2.3770    -6.2160     1.8250 H     1 <1>   0.1500 
 52 H       -3.2940    -7.7060    -2.7730 H     1 <1>   0.1500 
 53 H       -2.8870    -8.5490     1.3750 H     1 <1>   0.1500 
 54 H       -3.3470    -9.3060    -0.9120 H     1 <1>   0.1500 
@<TRIPOS>BOND
  1   1   2  ar  
  2   1   3  ar  
  3   2   4  ar  
  4   2   5  1   
  5   3   6  1   
  6   3   7  ar  
  7   4   8  ar  
  8   4  26  1   
  9   5   9  1   
 10   5  10  1   
 11   6  11  1   
 12   6  12  1   
 13   7   8  ar  
 14   7  27  1   
 15   8  13  1   
 16   9  14  1   
 17   9  28  1   
 18   9  29  1   
 19  10  15  1   
 20  10  30  1   
 21  10  31  1   
 22  11  16  1   
 23  11  32  1   
 24  11  33  1   
 25  12  17  1   
 26  12  34  1   
 27  12  35  1   
 28  13  36  1   
 29  13  37  1   
 30  13  38  1   
 31  14  18  1   
 32  14  39  1   
 33  14  40  1   
 34  15  18  1   
 35  15  41  1   
 36  15  42  1   
 37  16  19  1   
 38  16  20  1   
 39  16  43  1   
 40  17  19  1   
 41  17  44  1   
 42  17  45  1   
 43  18  46  1   
 44  18  47  1   
 45  19  48  1   
 46  19  49  1   
 47  20  21  ar  
 48  20  22  ar  
 49  21  23  ar  
 50  21  50  1   
 51  22  24  ar  
 52  22  51  1   
 53  23  25  ar  
 54  23  52  1   
 55  24  25  ar  
 56  24  53  1   
 57  25  54  1   
@<TRIPOS>SUBSTRUCTURE
  1 ****   3 GROUP 4 **** **** 0

# MOE 2024.06 (io_trps.svl 2023.06)
