@<TRIPOS>MOLECULE
NONAME
44 46 1 0 0 
SMALL
USER_CHARGES


@<TRIPOS>ATOM
  1 O       -0.7740     0.0020     0.1480 O.3   1 <1>  -0.3400 
  2 C       -0.5490     1.3390     0.1610 C.ar  1 <1>   0.0830 
  3 C       -2.0030    -0.5350     0.6020 C.3   1 <1>   0.2580 
  4 C       -1.4010     2.2640     0.7590 C.ar  1 <1>  -0.1500 
  5 C        0.6030     1.7850    -0.4660 C.ar  1 <1>  -0.1500 
  6 C       -2.1240    -2.0360     0.2650 C.3   1 <1>   0.2100 
  7 C       -3.1460    -0.3460    -0.4220 C.3   1 <1>   0.2100 
  8 C       -1.0980     3.6140     0.7160 C.ar  1 <1>  -0.1500 
  9 C        0.9030     3.1350    -0.5070 C.ar  1 <1>  -0.1500 
 10 N       -3.5290    -1.7610    -0.1590 N.3   1 <1>  -0.6890 
 11 C        0.0520     4.0570     0.0820 C.ar  1 <1>  -0.1430 
 12 C       -3.8840    -2.4750    -1.3890 C.3   1 <1>   0.2530 
 13 C        0.3810     5.5380     0.0390 C.3   1 <1>  -0.0970 
 14 C       -4.0190    -3.9640    -1.1150 C.ar  1 <1>  -0.1430 
 15 C       -4.8370    -4.4190    -0.0920 C.ar  1 <1>   0.1600 
 16 C       -3.3360    -4.8900    -1.8810 C.ar  1 <1>  -0.1500 
 17 N       -5.0340    -5.6910     0.2210 N.ar  1 <1>  -0.6200 
 18 C       -3.5250    -6.2170    -1.5690 C.ar  1 <1>  -0.1500 
 19 C       -4.3710    -6.5670    -0.5270 C.ar  1 <1>   0.3930 
 20 O       -4.5140    -7.8850    -0.2750 O.3   1 <1>  -0.3630 
 21 C       -5.3530    -8.3310     0.7680 C.3   1 <1>   0.1200 
 22 C       -5.3010    -9.8560     0.8030 C.3   1 <1>  -0.2400 
 23 H       -2.2210    -0.2810     1.6250 H     1 <1>   0.0000 
 24 H       -2.2970     1.9570     1.2640 H     1 <1>   0.1500 
 25 H        1.2630     1.0700    -0.9230 H     1 <1>   0.1500 
 26 H       -2.0910    -2.6870     1.1200 H     1 <1>   0.0000 
 27 H       -1.5000    -2.3430    -0.5580 H     1 <1>   0.0000 
 28 H       -2.7980    -0.1950    -1.4300 H     1 <1>   0.0000 
 29 H       -3.9150     0.3350    -0.1060 H     1 <1>   0.0000 
 30 H       -1.7620     4.3210     1.1820 H     1 <1>   0.1500 
 31 H        1.8020     3.4640    -0.9980 H     1 <1>   0.1500 
 32 H       -3.1400    -2.3060    -2.1490 H     1 <1>   0.0800 
 33 H       -4.8250    -2.0980    -1.7510 H     1 <1>   0.0800 
 34 H       -0.5210     6.1240     0.0400 H     1 <1>   0.0800 
 35 H        0.9360     5.7740    -0.8520 H     1 <1>   0.0800 
 36 H        0.9700     5.8050     0.8970 H     1 <1>   0.0800 
 37 H       -5.3580    -3.6890     0.5060 H     1 <1>   0.1500 
 38 H       -2.6850    -4.5960    -2.6850 H     1 <1>   0.1500 
 39 H       -3.0280    -6.9940    -2.1190 H     1 <1>   0.1500 
 40 H       -6.3540    -7.9840     0.5720 H     1 <1>   0.0800 
 41 H       -4.9970    -7.9120     1.6940 H     1 <1>   0.0800 
 42 H       -5.6480   -10.2590    -0.1310 H     1 <1>   0.0800 
 43 H       -5.9330   -10.2220     1.5910 H     1 <1>   0.0800 
 44 H       -4.2950   -10.1860     0.9880 H     1 <1>   0.0800 
@<TRIPOS>BOND
  1   1   2  1   
  2   1   3  1   
  3   2   4  ar  
  4   2   5  ar  
  5   3   6  1   
  6   3   7  1   
  7   3  23  1   
  8   4   8  ar  
  9   4  24  1   
 10   5   9  ar  
 11   5  25  1   
 12   6  10  1   
 13   6  26  1   
 14   6  27  1   
 15   7  10  1   
 16   7  28  1   
 17   7  29  1   
 18   8  11  ar  
 19   8  30  1   
 20   9  11  ar  
 21   9  31  1   
 22  10  12  1   
 23  11  13  1   
 24  12  14  1   
 25  12  32  1   
 26  12  33  1   
 27  13  34  1   
 28  13  35  1   
 29  13  36  1   
 30  14  15  ar  
 31  14  16  ar  
 32  15  17  ar  
 33  15  37  1   
 34  16  18  ar  
 35  16  38  1   
 36  17  19  ar  
 37  18  19  ar  
 38  18  39  1   
 39  19  20  1   
 40  20  21  1   
 41  21  22  1   
 42  21  40  1   
 43  21  41  1   
 44  22  42  1   
 45  22  43  1   
 46  22  44  1   
@<TRIPOS>SUBSTRUCTURE
  1 ****   6 GROUP 4 **** **** 0

# MOE 2024.06 (io_trps.svl 2023.06)
