@<TRIPOS>MOLECULE
NONAME
52 54 1 0 0 
SMALL
USER_CHARGES


@<TRIPOS>ATOM
  1 O        0.9210    -1.6870    -0.9990 O.3   1 <1>  -0.5600 
  2 C        0.1540    -2.1920     0.0730 C.3   1 <1>   0.4180 
  3 C        0.7070    -0.3490    -1.3710 C.3   1 <1>   0.1200 
  4 C       -1.2760    -1.6680     0.0170 C.2   1 <1>  -0.2880 
  5 C        0.8490    -1.8240     1.3870 C.3   1 <1>  -0.1600 
  6 C        0.1560    -3.7180    -0.0880 C.3   1 <1>  -0.1600 
  7 C       -0.7350    -0.1410    -1.8500 C.3   1 <1>  -0.0220 
  8 C       -1.7020    -0.7530    -0.8550 C.2   1 <1>  -0.2760 
  9 C        2.2960    -2.3290     1.4460 C.3   1 <1>   0.3430 
 10 C        1.4670    -4.3820     0.3490 C.3   1 <1>   0.3430 
 11 C       -3.1340    -0.2550    -0.9500 C.3   1 <1>  -0.1020 
 12 N        2.5560    -3.3740     0.4060 N.4   1 <1>  -0.9590 
 13 C        3.9040    -3.9940     0.4890 C.3   1 <1>   0.3430 
 14 C        4.9850    -2.9730     0.1280 C.3   1 <1>  -0.1600 
 15 C        6.3670    -3.6400     0.0940 C.3   1 <1>  -0.1600 
 16 C        7.4730    -2.6440    -0.2750 C.3   1 <1>  -0.0170 
 17 C        8.8200    -3.3460    -0.2900 C.ar  1 <1>  -0.1440 
 18 C        9.2920    -3.9330    -1.4540 C.ar  1 <1>  -0.1500 
 19 C        9.5880    -3.4110     0.8630 C.ar  1 <1>  -0.1500 
 20 C       10.5170    -4.5770    -1.4660 C.ar  1 <1>  -0.1500 
 21 C       10.8130    -4.0550     0.8520 C.ar  1 <1>  -0.1500 
 22 C       11.2790    -4.6390    -0.3130 C.ar  1 <1>  -0.1500 
 23 H        1.3980    -0.1070    -2.1590 H     1 <1>   0.0800 
 24 H        0.9120     0.2810    -0.5230 H     1 <1>   0.0800 
 25 H       -1.9240    -2.1160     0.7490 H     1 <1>   0.1500 
 26 H        0.2990    -2.2590     2.2020 H     1 <1>   0.0800 
 27 H        0.8240    -0.7600     1.5370 H     1 <1>   0.0800 
 28 H       -0.0570    -3.9610    -1.1140 H     1 <1>   0.0800 
 29 H       -0.6360    -4.1440     0.5000 H     1 <1>   0.0800 
 30 H       -0.8710    -0.5890    -2.8180 H     1 <1>   0.0800 
 31 H       -0.9150     0.9160    -1.9420 H     1 <1>   0.0800 
 32 H        2.4990    -2.7230     2.4290 H     1 <1>   0.0800 
 33 H        2.9590    -1.4960     1.2770 H     1 <1>   0.0800 
 34 H        1.7170    -5.1650    -0.3490 H     1 <1>   0.0800 
 35 H        1.3400    -4.8260     1.3240 H     1 <1>   0.0800 
 36 H       -3.5310    -0.4540    -1.9290 H     1 <1>   0.0800 
 37 H       -3.1730     0.8040    -0.7680 H     1 <1>   0.0800 
 38 H       -3.7560    -0.7480    -0.2240 H     1 <1>   0.0800 
 39 H        2.4730    -2.8640    -0.4960 H     1 <1>   0.4500 
 40 H        3.9630    -4.8170    -0.2050 H     1 <1>   0.0800 
 41 H        4.0760    -4.3780     1.4820 H     1 <1>   0.0800 
 42 H        5.0040    -2.1790     0.8540 H     1 <1>   0.0800 
 43 H        4.7750    -2.5560    -0.8420 H     1 <1>   0.0800 
 44 H        6.3710    -4.4410    -0.6270 H     1 <1>   0.0800 
 45 H        6.5930    -4.0650     1.0580 H     1 <1>   0.0800 
 46 H        7.4990    -1.8370     0.4360 H     1 <1>   0.0800 
 47 H        7.2810    -2.2190    -1.2450 H     1 <1>   0.0800 
 48 H        8.7100    -3.8910    -2.3580 H     1 <1>   0.1500 
 49 H        9.2380    -2.9610     1.7750 H     1 <1>   0.1500 
 50 H       10.8780    -5.0300    -2.3730 H     1 <1>   0.1500 
 51 H       11.4050    -4.1010     1.7490 H     1 <1>   0.1500 
 52 H       12.2310    -5.1390    -0.3220 H     1 <1>   0.1500 
@<TRIPOS>BOND
  1   1   2  1   
  2   1   3  1   
  3   2   4  1   
  4   2   5  1   
  5   2   6  1   
  6   3   7  1   
  7   3  23  1   
  8   3  24  1   
  9   4   8  2   
 10   4  25  1   
 11   5   9  1   
 12   5  26  1   
 13   5  27  1   
 14   6  10  1   
 15   6  28  1   
 16   6  29  1   
 17   7   8  1   
 18   7  30  1   
 19   7  31  1   
 20   8  11  1   
 21   9  12  1   
 22   9  32  1   
 23   9  33  1   
 24  10  12  1   
 25  10  34  1   
 26  10  35  1   
 27  11  36  1   
 28  11  37  1   
 29  11  38  1   
 30  12  13  1   
 31  12  39  1   
 32  13  14  1   
 33  13  40  1   
 34  13  41  1   
 35  14  15  1   
 36  14  42  1   
 37  14  43  1   
 38  15  16  1   
 39  15  44  1   
 40  15  45  1   
 41  16  17  1   
 42  16  46  1   
 43  16  47  1   
 44  17  18  ar  
 45  17  19  ar  
 46  18  20  ar  
 47  18  48  1   
 48  19  21  ar  
 49  19  49  1   
 50  20  22  ar  
 51  20  50  1   
 52  21  22  ar  
 53  21  51  1   
 54  22  52  1   
@<TRIPOS>SUBSTRUCTURE
  1 ****  14 GROUP 4 **** **** 0

# MOE 2024.06 (io_trps.svl 2023.06)
