@<TRIPOS>MOLECULE
NONAME
52 53 1 0 0 
SMALL
USER_CHARGES


@<TRIPOS>ATOM
  1 F       -1.8260    -0.5850    -0.4610 F     1 <1>  -0.3400 
  2 C       -1.1450    -1.7230    -0.4380 C.3   1 <1>   1.0200 
  3 F        0.0230    -1.4570     0.1280 F     1 <1>  -0.3400 
  4 F       -0.8940    -2.0330    -1.7030 F     1 <1>  -0.3400 
  5 C       -1.9040    -2.8320     0.2880 C.3   1 <1>  -0.1600 
  6 C       -3.2760    -3.1650    -0.3460 C.3   1 <1>  -0.0990 
  7 C       -4.0510    -4.2510     0.3910 C.2   1 <1>   0.5690 
  8 O       -3.4970    -4.8250     1.2990 O.2   1 <1>  -0.5700 
  9 N       -5.3410    -4.5540     0.0300 N.am  1 <1>  -0.6600 
 10 C       -6.1100    -5.6020     0.7710 C.3   1 <1>   0.1400 
 11 C       -6.0960    -3.8730    -1.0610 C.3   1 <1>   0.1400 
 12 C       -7.3460    -5.0240     1.4760 C.3   1 <1>   0.1400 
 13 C       -6.9830    -2.7770    -0.4610 C.3   1 <1>  -0.1600 
 14 N       -8.4110    -4.6580     0.4900 N.am  1 <1>  -0.6600 
 15 C       -8.3760    -3.2500    -0.0160 C.3   1 <1>   0.1400 
 16 C       -9.3970    -5.5200     0.0680 C.2   1 <1>   0.5690 
 17 O      -10.2210    -5.1850    -0.7510 O.2   1 <1>  -0.5700 
 18 C       -9.4680    -6.9430     0.6210 C.3   1 <1>  -0.0990 
 19 C      -10.6550    -7.7750     0.0980 C.3   1 <1>  -0.1600 
 20 C      -10.6210    -9.2030     0.6480 C.3   1 <1>   0.1400 
 21 N      -11.8740    -9.9120     0.3080 N.am  1 <1>  -0.6600 
 22 C      -12.7890   -10.3430     1.2060 C.2   1 <1>   0.5690 
 23 C      -12.2080   -10.2860    -1.0760 C.3   1 <1>   0.1400 
 24 O      -12.7360   -10.1890     2.4020 O.2   1 <1>  -0.5700 
 25 C      -13.9090   -11.0730     0.5200 C.3   1 <1>  -0.0990 
 26 C      -13.6370   -10.8410    -0.9770 C.3   1 <1>  -0.1600 
 27 H       -2.0460    -2.5260     1.3090 H     1 <1>   0.0800 
 28 H       -1.2870    -3.7120     0.2910 H     1 <1>   0.0800 
 29 H       -3.1260    -3.4930    -1.3590 H     1 <1>   0.0800 
 30 H       -3.8780    -2.2750    -0.3620 H     1 <1>   0.0800 
 31 H       -5.4840    -6.0600     1.5170 H     1 <1>   0.0800 
 32 H       -6.4070    -6.3750     0.0860 H     1 <1>   0.0800 
 33 H       -6.6940    -4.5890    -1.6000 H     1 <1>   0.0800 
 34 H       -5.4140    -3.4350    -1.7670 H     1 <1>   0.0800 
 35 H       -7.0610    -4.1600     2.0510 H     1 <1>   0.0800 
 36 H       -7.7230    -5.7510     2.1700 H     1 <1>   0.0800 
 37 H       -7.1300    -2.0130    -1.2030 H     1 <1>   0.0800 
 38 H       -6.4770    -2.3090     0.3650 H     1 <1>   0.0800 
 39 H       -9.0390    -3.1580    -0.8600 H     1 <1>   0.0800 
 40 H       -8.7510    -2.5950     0.7510 H     1 <1>   0.0800 
 41 H       -9.5470    -6.8860     1.6900 H     1 <1>   0.0800 
 42 H       -8.5530    -7.4460     0.3700 H     1 <1>   0.0800 
 43 H      -10.6240    -7.8020    -0.9760 H     1 <1>   0.0800 
 44 H      -11.5720    -7.2990     0.4020 H     1 <1>   0.0800 
 45 H      -10.5170    -9.1750     1.7200 H     1 <1>   0.0800 
 46 H       -9.7830    -9.7430     0.2420 H     1 <1>   0.0800 
 47 H      -11.5230   -11.0430    -1.4190 H     1 <1>   0.0800 
 48 H      -12.1690    -9.4290    -1.7270 H     1 <1>   0.0800 
 49 H      -14.8590   -10.6720     0.8220 H     1 <1>   0.0800 
 50 H      -13.8500   -12.1160     0.7710 H     1 <1>   0.0800 
 51 H      -13.7460   -11.7450    -1.5500 H     1 <1>   0.0800 
 52 H      -14.3220   -10.1050    -1.3600 H     1 <1>   0.0800 
@<TRIPOS>BOND
  1   1   2  1   
  2   2   3  1   
  3   2   4  1   
  4   2   5  1   
  5   5   6  1   
  6   5  27  1   
  7   5  28  1   
  8   6   7  1   
  9   6  29  1   
 10   6  30  1   
 11   7   8  2   
 12   7   9  am  
 13   9  10  1   
 14   9  11  1   
 15  10  12  1   
 16  10  31  1   
 17  10  32  1   
 18  11  13  1   
 19  11  33  1   
 20  11  34  1   
 21  12  14  1   
 22  12  35  1   
 23  12  36  1   
 24  13  15  1   
 25  13  37  1   
 26  13  38  1   
 27  14  15  1   
 28  14  16  am  
 29  15  39  1   
 30  15  40  1   
 31  16  17  2   
 32  16  18  1   
 33  18  19  1   
 34  18  41  1   
 35  18  42  1   
 36  19  20  1   
 37  19  43  1   
 38  19  44  1   
 39  20  21  1   
 40  20  45  1   
 41  20  46  1   
 42  21  22  am  
 43  21  23  1   
 44  22  24  2   
 45  22  25  1   
 46  23  26  1   
 47  23  47  1   
 48  23  48  1   
 49  25  26  1   
 50  25  49  1   
 51  25  50  1   
 52  26  51  1   
 53  26  52  1   
@<TRIPOS>SUBSTRUCTURE
  1 ****  10 GROUP 4 **** **** 0

# MOE 2024.06 (io_trps.svl 2023.06)
