@<TRIPOS>MOLECULE
NONAME
55 56 1 0 0 
SMALL
USER_CHARGES


@<TRIPOS>ATOM
  1 F       -0.7590     0.2660    -0.7770 F     1 <1>  -0.1900 
  2 C       -2.0450     0.5060    -0.8180 C.ar  1 <1>   0.1900 
  3 C       -2.5880     1.7170    -0.3760 C.ar  1 <1>   0.0820 
  4 C       -2.8420    -0.5050    -1.3210 C.ar  1 <1>  -0.1500 
  5 O       -1.9100     2.7840     0.1350 O.3   1 <1>  -0.3630 
  6 C       -3.9630     1.8710    -0.4530 C.ar  1 <1>  -0.1500 
  7 C       -4.2110    -0.3190    -1.3840 C.ar  1 <1>  -0.1500 
  8 C       -0.5020     2.8380     0.2070 C.3   1 <1>   0.0400 
  9 C       -4.7990     0.8680    -0.9440 C.ar  1 <1>   0.0530 
 10 C       -6.2250     1.0530    -0.9880 C.2   1 <1>   0.0870 
 11 O       -6.7550     2.2150    -1.2760 O.3   1 <1>  -0.0190 
 12 C       -7.2530     0.2010    -0.7500 C.2   1 <1>  -0.0860 
 13 N       -8.0630     2.1930    -1.2580 N.2   1 <1>  -0.4100 
 14 C       -8.3860     0.9850    -0.9520 C.2   1 <1>   0.3720 
 15 C       -7.2430    -1.1530    -0.3150 C.2   1 <1>   0.7160 
 16 N       -9.7050     0.5300    -0.8430 N.pl3 1 <1>  -0.8210 
 17 O       -7.2650    -2.0680    -1.1240 O.2   1 <1>  -0.5700 
 18 N       -7.1980    -1.4780     1.0280 N.am  1 <1>  -0.6600 
 19 C      -10.3390     0.4220    -2.1880 C.3   1 <1>   0.1290 
 20 C      -10.5370     1.3930     0.0450 C.3   1 <1>   0.1290 
 21 C       -6.8560    -2.8620     1.4820 C.3   1 <1>   0.1400 
 22 C       -7.2160    -0.4350     2.0980 C.3   1 <1>   0.0600 
 23 C       -8.0920    -3.7800     1.5940 C.3   1 <1>   0.3430 
 24 N       -8.9080    -3.7940     0.3390 N.4   1 <1>  -0.9590 
 25 C      -10.0920    -2.8990     0.4570 C.3   1 <1>   0.3430 
 26 C       -9.2400    -5.1870    -0.0890 C.3   1 <1>   0.2630 
 27 C      -10.8160    -2.7970    -0.8800 C.3   1 <1>  -0.2400 
 28 H       -2.3920    -1.4210    -1.6610 H     1 <1>   0.1500 
 29 H       -4.3930     2.7990    -0.1190 H     1 <1>   0.1500 
 30 H       -4.8280    -1.1030    -1.7880 H     1 <1>   0.1500 
 31 H       -0.2240     3.7980     0.6000 H     1 <1>   0.0800 
 32 H       -0.0960     2.7170    -0.7820 H     1 <1>   0.0800 
 33 H       -0.1550     2.0610     0.8650 H     1 <1>   0.0800 
 34 H       -9.7610    -0.2390    -2.8120 H     1 <1>   0.0800 
 35 H      -10.3800     1.3900    -2.6590 H     1 <1>   0.0800 
 36 H      -11.3380     0.0330    -2.1010 H     1 <1>   0.0800 
 37 H      -10.0380     1.5400     0.9870 H     1 <1>   0.0800 
 38 H      -11.4900     0.9270     0.2260 H     1 <1>   0.0800 
 39 H      -10.6970     2.3560    -0.4120 H     1 <1>   0.0800 
 40 H       -6.3620    -2.8170     2.4370 H     1 <1>   0.0800 
 41 H       -6.1580    -3.3010     0.7890 H     1 <1>   0.0800 
 42 H       -7.7560     0.4390     1.7750 H     1 <1>   0.0800 
 43 H       -6.2070    -0.1480     2.3420 H     1 <1>   0.0800 
 44 H       -7.6950    -0.8170     2.9820 H     1 <1>   0.0800 
 45 H       -8.6990    -3.4570     2.4230 H     1 <1>   0.0800 
 46 H       -7.7480    -4.7770     1.8140 H     1 <1>   0.0800 
 47 H       -8.3090    -3.3520    -0.3950 H     1 <1>   0.4500 
 48 H       -9.7650    -1.9120     0.7460 H     1 <1>   0.0800 
 49 H      -10.7670    -3.2690     1.2120 H     1 <1>   0.0800 
 50 H       -9.9040    -5.6500     0.6220 H     1 <1>   0.0800 
 51 H       -8.3410    -5.7780    -0.1650 H     1 <1>   0.0800 
 52 H       -9.7180    -5.1770    -1.0550 H     1 <1>   0.0800 
 53 H      -10.1320    -2.5010    -1.6560 H     1 <1>   0.0800 
 54 H      -11.5790    -2.0440    -0.8040 H     1 <1>   0.0800 
 55 H      -11.2950    -3.7210    -1.1440 H     1 <1>   0.0800 
@<TRIPOS>BOND
  1   1   2  1   
  2   2   3  ar  
  3   2   4  ar  
  4   3   5  1   
  5   3   6  ar  
  6   4   7  ar  
  7   4  28  1   
  8   5   8  1   
  9   6   9  ar  
 10   6  29  1   
 11   7   9  ar  
 12   7  30  1   
 13   8  31  1   
 14   8  32  1   
 15   8  33  1   
 16   9  10  1   
 17  10  11  1   
 18  10  12  2   
 19  11  13  1   
 20  12  14  1   
 21  12  15  1   
 22  13  14  2   
 23  14  16  1   
 24  15  17  2   
 25  15  18  am  
 26  16  19  1   
 27  16  20  1   
 28  18  21  1   
 29  18  22  1   
 30  19  34  1   
 31  19  35  1   
 32  19  36  1   
 33  20  37  1   
 34  20  38  1   
 35  20  39  1   
 36  21  23  1   
 37  21  40  1   
 38  21  41  1   
 39  22  42  1   
 40  22  43  1   
 41  22  44  1   
 42  23  24  1   
 43  23  45  1   
 44  23  46  1   
 45  24  25  1   
 46  24  26  1   
 47  24  47  1   
 48  25  27  1   
 49  25  48  1   
 50  25  49  1   
 51  26  50  1   
 52  26  51  1   
 53  26  52  1   
 54  27  53  1   
 55  27  54  1   
 56  27  55  1   
@<TRIPOS>SUBSTRUCTURE
  1 ****  12 GROUP 4 **** **** 0

# MOE 2024.06 (io_trps.svl 2023.06)
