@<TRIPOS>MOLECULE
NONAME
47 49 1 0 0 
SMALL
USER_CHARGES


@<TRIPOS>ATOM
  1 S       -0.0240     0.4700     0.2250 S.3   1 <1>  -0.0800 
  2 C        0.4610     1.9700    -0.5070 C.2   1 <1>   0.4620 
  3 C       -1.2450     0.3340    -1.0040 C.2   1 <1>   0.1980 
  4 N       -0.2600     2.2490    -1.5370 N.2   1 <1>  -0.3380 
  5 N        1.5030     2.7060     0.0260 N.pl3 1 <1>  -0.8220 
  6 N       -1.2220     1.3210    -1.8130 N.2   1 <1>  -0.3380 
  7 C       -2.1500    -0.9010    -0.9570 C.3   1 <1>   1.2000 
  8 C        2.3580     2.2870     1.1850 C.3   1 <1>   0.2090 
  9 C        1.8810     4.0280    -0.5650 C.3   1 <1>   0.2090 
 10 F       -2.8380    -0.9810     0.1790 F     1 <1>  -0.3400 
 11 F       -3.0500    -0.9400    -1.9350 F     1 <1>  -0.3400 
 12 F       -1.4610    -2.0350    -1.0470 F     1 <1>  -0.3400 
 13 C        3.8540     2.3660     0.8300 C.3   1 <1>   0.1400 
 14 C        3.3820     4.0780    -0.9010 C.3   1 <1>   0.1400 
 15 N        4.2130     3.7200     0.2940 N.am  1 <1>  -0.6600 
 16 C        5.1480     4.5050     0.9330 C.2   1 <1>   0.5690 
 17 O        5.7140     4.1050     1.9230 O.2   1 <1>  -0.5700 
 18 C        5.5260     5.9200     0.4720 C.3   1 <1>  -0.0190 
 19 C        4.3880     6.9430     0.6790 C.3   1 <1>  -0.1600 
 20 C        6.1630     5.9700    -0.9400 C.3   1 <1>  -0.1600 
 21 C        4.8280     8.3900     0.3730 C.3   1 <1>   0.2000 
 22 C        5.9320     7.3080    -1.6660 C.3   1 <1>  -0.1600 
 23 O        3.7010     9.0850    -0.1060 O.3   1 <1>  -0.5600 
 24 C        5.9670     8.4760    -0.6790 C.3   1 <1>   0.2000 
 25 C        2.8520     9.5840     0.8810 C.3   1 <1>   0.0400 
 26 O        5.8370     9.6460    -1.3980 O.3   1 <1>  -0.6800 
 27 H        2.1640     2.9380     2.0190 H     1 <1>   0.0800 
 28 H        2.1330     1.2830     1.4940 H     1 <1>   0.0800 
 29 H        1.3160     4.2190    -1.4610 H     1 <1>   0.0800 
 30 H        1.6490     4.8080     0.1390 H     1 <1>   0.0800 
 31 H        4.0790     1.6230     0.0860 H     1 <1>   0.0800 
 32 H        4.4330     2.1320     1.7060 H     1 <1>   0.0800 
 33 H        3.6250     5.0520    -1.2760 H     1 <1>   0.0800 
 34 H        3.5810     3.3720    -1.6880 H     1 <1>   0.0800 
 35 H        6.3050     6.2360     1.1460 H     1 <1>   0.0800 
 36 H        4.0530     6.8880     1.7000 H     1 <1>   0.0800 
 37 H        3.5580     6.6960     0.0470 H     1 <1>   0.0800 
 38 H        7.2220     5.8130    -0.8300 H     1 <1>   0.0800 
 39 H        5.8040     5.1710    -1.5630 H     1 <1>   0.0800 
 40 H        5.1780     8.8690     1.2720 H     1 <1>   0.0800 
 41 H        4.9700     7.2910    -2.1490 H     1 <1>   0.0800 
 42 H        6.6880     7.4430    -2.4200 H     1 <1>   0.0800 
 43 H        6.9250     8.4960    -0.1880 H     1 <1>   0.0800 
 44 H        2.0370    10.0920     0.3950 H     1 <1>   0.0800 
 45 H        3.3940    10.2790     1.4980 H     1 <1>   0.0800 
 46 H        2.4680     8.7710     1.4720 H     1 <1>   0.0800 
 47 H        4.8770     9.8680    -1.3730 H     1 <1>   0.4000 
@<TRIPOS>BOND
  1   1   2  1   
  2   1   3  1   
  3   2   4  2   
  4   2   5  1   
  5   3   6  2   
  6   3   7  1   
  7   4   6  1   
  8   5   8  1   
  9   5   9  1   
 10   7  10  1   
 11   7  11  1   
 12   7  12  1   
 13   8  13  1   
 14   8  27  1   
 15   8  28  1   
 16   9  14  1   
 17   9  29  1   
 18   9  30  1   
 19  13  15  1   
 20  13  31  1   
 21  13  32  1   
 22  14  15  1   
 23  14  33  1   
 24  14  34  1   
 25  15  16  am  
 26  16  17  2   
 27  16  18  1   
 28  18  19  1   
 29  18  20  1   
 30  18  35  1   
 31  19  21  1   
 32  19  36  1   
 33  19  37  1   
 34  20  22  1   
 35  20  38  1   
 36  20  39  1   
 37  21  23  1   
 38  21  24  1   
 39  21  40  1   
 40  22  24  1   
 41  22  41  1   
 42  22  42  1   
 43  23  25  1   
 44  24  26  1   
 45  24  43  1   
 46  25  44  1   
 47  25  45  1   
 48  25  46  1   
 49  26  47  1   
@<TRIPOS>SUBSTRUCTURE
  1 ****   9 GROUP 4 **** **** 0

# MOE 2024.06 (io_trps.svl 2023.06)
