@<TRIPOS>MOLECULE
NONAME
47 50 1 0 0 
SMALL
USER_CHARGES


@<TRIPOS>ATOM
  1 CL       0.4960     0.2630    -0.0290 Cl    1 <1>  -0.1770 
  2 C        0.2520    -1.4340     0.2830 C.ar  1 <1>   0.1770 
  3 C        0.9870    -2.3650    -0.4140 C.ar  1 <1>  -0.1500 
  4 C       -0.6840    -1.8160     1.2330 C.ar  1 <1>  -0.1500 
  5 C        0.7910    -3.7200    -0.1650 C.ar  1 <1>   0.1170 
  6 C       -0.8830    -3.1570     1.4860 C.ar  1 <1>  -0.1500 
  7 N        1.5130    -4.6890    -0.8550 N.am  1 <1>  -0.5470 
  8 C       -0.1530    -4.1290     0.7960 C.ar  1 <1>   0.0280 
  9 C        1.3400    -6.0230    -0.6570 C.2   1 <1>   0.6160 
 10 C       -0.3250    -5.5320     1.0310 C.2   1 <1>  -0.1780 
 11 O        1.9530    -6.8130    -1.3540 O.2   1 <1>  -0.5700 
 12 C        0.3990    -6.4440     0.3330 C.2   1 <1>  -0.1240 
 13 C        0.2730    -7.9380     0.5520 C.3   1 <1>   0.4810 
 14 N       -0.0970    -8.6190    -0.7200 N.4   1 <1>  -0.9590 
 15 C       -1.4550    -8.2060    -1.1940 C.3   1 <1>   0.3430 
 16 C       -0.1290   -10.1030    -0.5440 C.3   1 <1>   0.3430 
 17 C       -2.4080    -9.2880    -0.6820 C.3   1 <1>   0.2000 
 18 C       -1.5660   -10.5540    -0.8370 C.3   1 <1>  -0.0800 
 19 O       -2.6610    -9.0470     0.6680 O.3   1 <1>  -0.6800 
 20 C       -1.9980   -11.7790    -0.0070 C.3   1 <1>   0.0200 
 21 C       -0.9680   -12.8850    -0.1260 C.2   1 <1>  -0.0400 
 22 O       -0.5190   -13.2310    -1.3020 O.3   1 <1>  -0.0190 
 23 C       -0.3480   -13.6430     0.7920 C.2   1 <1>  -0.1500 
 24 N        0.3800   -14.1650    -1.2210 N.2   1 <1>  -0.4100 
 25 C        0.4980   -14.4420     0.0280 C.2   1 <1>   0.1080 
 26 C        1.4330   -15.4960     0.5800 C.3   1 <1>  -0.0590 
 27 H        1.7040    -2.0390    -1.1430 H     1 <1>   0.1500 
 28 H       -1.2410    -1.0600     1.7590 H     1 <1>   0.1500 
 29 H       -1.6060    -3.4580     2.2240 H     1 <1>   0.1500 
 30 H        2.2070    -4.4250    -1.5560 H     1 <1>   0.3700 
 31 H       -1.0430    -5.8180     1.7820 H     1 <1>   0.1500 
 32 H       -0.4740    -8.1340     1.3040 H     1 <1>   0.0800 
 33 H        1.2190    -8.3180     0.9030 H     1 <1>   0.0800 
 34 H        0.6330    -8.3380    -1.4050 H     1 <1>   0.4500 
 35 H       -1.7390    -7.2300    -0.8370 H     1 <1>   0.0800 
 36 H       -1.4700    -8.2060    -2.2720 H     1 <1>   0.0800 
 37 H        0.5620   -10.5920    -1.2150 H     1 <1>   0.0800 
 38 H        0.1320   -10.3620     0.4690 H     1 <1>   0.0800 
 39 H       -3.3410    -9.3090    -1.2210 H     1 <1>   0.0800 
 40 H       -1.5940   -10.8380    -1.8760 H     1 <1>   0.0800 
 41 H       -3.4800    -9.5020     0.9600 H     1 <1>   0.4000 
 42 H       -2.9460   -12.1440    -0.3660 H     1 <1>   0.0800 
 43 H       -2.1060   -11.5280     1.0330 H     1 <1>   0.0800 
 44 H       -0.4460   -13.6640     1.8620 H     1 <1>   0.1500 
 45 H        2.1430   -15.0440     1.2470 H     1 <1>   0.0800 
 46 H        1.9650   -15.9720    -0.2240 H     1 <1>   0.0800 
 47 H        0.8710   -16.2410     1.1110 H     1 <1>   0.0800 
@<TRIPOS>BOND
  1   1   2  1   
  2   2   3  ar  
  3   2   4  ar  
  4   3   5  ar  
  5   3  27  1   
  6   4   6  ar  
  7   4  28  1   
  8   5   7  1   
  9   5   8  ar  
 10   6   8  ar  
 11   6  29  1   
 12   7   9  am  
 13   7  30  1   
 14   8  10  1   
 15   9  11  2   
 16   9  12  1   
 17  10  12  2   
 18  10  31  1   
 19  12  13  1   
 20  13  14  1   
 21  13  32  1   
 22  13  33  1   
 23  14  15  1   
 24  14  16  1   
 25  14  34  1   
 26  15  17  1   
 27  15  35  1   
 28  15  36  1   
 29  16  18  1   
 30  16  37  1   
 31  16  38  1   
 32  17  18  1   
 33  17  19  1   
 34  17  39  1   
 35  18  20  1   
 36  18  40  1   
 37  19  41  1   
 38  20  21  1   
 39  20  42  1   
 40  20  43  1   
 41  21  22  1   
 42  21  23  2   
 43  22  24  1   
 44  23  25  1   
 45  23  44  1   
 46  24  25  2   
 47  25  26  1   
 48  26  45  1   
 49  26  46  1   
 50  26  47  1   
@<TRIPOS>SUBSTRUCTURE
  1 ****  13 GROUP 4 **** **** 0

# MOE 2024.06 (io_trps.svl 2023.06)
