@<TRIPOS>MOLECULE
NONAME
35 37 1 0 0 
SMALL
USER_CHARGES


@<TRIPOS>ATOM
  1 CL       0.4590     0.0290     0.4360 Cl    1 <1>  -0.1770 
  2 C       -0.9820     1.0300     0.4830 C.ar  1 <1>   0.1770 
  3 C       -0.9240     2.4250     0.2950 C.ar  1 <1>   0.4100 
  4 C       -2.1780     0.3950     0.7200 C.ar  1 <1>  -0.1500 
  5 N       -2.0130     3.1960     0.3430 N.ar  1 <1>  -0.6200 
  6 N        0.2640     3.1000     0.0440 N.pl3 1 <1>  -0.8380 
  7 C       -3.2880     1.2090     0.7600 C.ar  1 <1>   0.1770 
  8 C       -3.1620     2.5740     0.5710 C.ar  1 <1>   0.1600 
  9 C        0.4790     4.4280     0.7090 C.3   1 <1>   0.2090 
 10 C        0.9930     2.8120    -1.2230 C.3   1 <1>   0.2090 
 11 CL      -4.8610     0.5050     1.0540 Cl    1 <1>  -0.1770 
 12 C        1.9460     4.8420     0.9820 C.3   1 <1>   0.2200 
 13 C        2.5240     2.9380    -1.1420 C.3   1 <1>  -0.0190 
 14 N        2.6460     5.2700    -0.2640 N.am  1 <1>  -0.6600 
 15 C        2.7900     3.8140     1.7710 C.3   1 <1>   0.1200 
 16 C        2.9380     4.3860    -1.2610 C.2   1 <1>   0.5690 
 17 C        3.2490     2.2330     0.0220 C.3   1 <1>   0.1200 
 18 C        2.9990     6.7150    -0.3580 C.3   1 <1>   0.0600 
 19 O        2.7260     2.5030     1.2890 O.3   1 <1>  -0.5600 
 20 O        3.5240     4.7210    -2.2630 O.2   1 <1>  -0.5700 
 21 H       -2.2440    -0.6660     0.8670 H     1 <1>   0.1500 
 22 H       -4.0510     3.1790     0.6100 H     1 <1>   0.1500 
 23 H        0.0060     5.1910     0.1160 H     1 <1>   0.0800 
 24 H       -0.0300     4.4040     1.6570 H     1 <1>   0.0800 
 25 H        0.7550     1.8140    -1.5440 H     1 <1>   0.0800 
 26 H        0.6280     3.4800    -1.9850 H     1 <1>   0.0800 
 27 H        1.8870     5.7100     1.6140 H     1 <1>   0.0800 
 28 H        2.8950     2.4670    -2.0330 H     1 <1>   0.0800 
 29 H        2.4230     3.7740     2.7810 H     1 <1>   0.0800 
 30 H        3.8210     4.1180     1.8020 H     1 <1>   0.0800 
 31 H        4.2940     2.4950     0.0270 H     1 <1>   0.0800 
 32 H        3.1720     1.1690    -0.1130 H     1 <1>   0.0800 
 33 H        3.6670     6.9810     0.4420 H     1 <1>   0.0800 
 34 H        2.1070     7.3130    -0.2940 H     1 <1>   0.0800 
 35 H        3.4870     6.9300    -1.2940 H     1 <1>   0.0800 
@<TRIPOS>BOND
  1   1   2  1   
  2   2   3  ar  
  3   2   4  ar  
  4   3   5  ar  
  5   3   6  1   
  6   4   7  ar  
  7   4  21  1   
  8   5   8  ar  
  9   6   9  1   
 10   6  10  1   
 11   7   8  ar  
 12   7  11  1   
 13   8  22  1   
 14   9  12  1   
 15   9  23  1   
 16   9  24  1   
 17  10  13  1   
 18  10  25  1   
 19  10  26  1   
 20  12  14  1   
 21  12  15  1   
 22  12  27  1   
 23  13  16  1   
 24  13  17  1   
 25  13  28  1   
 26  14  16  am  
 27  14  18  1   
 28  15  19  1   
 29  15  29  1   
 30  15  30  1   
 31  16  20  2   
 32  17  19  1   
 33  17  31  1   
 34  17  32  1   
 35  18  33  1   
 36  18  34  1   
 37  18  35  1   
@<TRIPOS>SUBSTRUCTURE
  1 ****   6 GROUP 4 **** **** 0

# MOE 2024.06 (io_trps.svl 2023.06)
