@<TRIPOS>MOLECULE
NONAME
50 53 1 0 0 
SMALL
USER_CHARGES


@<TRIPOS>ATOM
  1 O        0.1330    -0.9640    -1.6570 O.2   1 <1>  -0.5700 
  2 C        0.5990    -1.7690    -0.8680 C.2   1 <1>   0.5440 
  3 N        0.9760    -1.2970     0.3800 N.am  1 <1>  -0.6600 
  4 C        0.7460    -3.1600    -1.2980 C.ar  1 <1>   0.3960 
  5 C        0.5580     0.0490     0.8830 C.3   1 <1>   0.1400 
  6 C        1.8300    -2.0480     1.3520 C.3   1 <1>   0.1400 
  7 N        0.5600    -4.1740    -0.4340 N.ar  1 <1>  -0.6200 
  8 C        1.0720    -3.3970    -2.6370 C.ar  1 <1>   0.1600 
  9 C        1.7560     0.8160     1.4640 C.3   1 <1>   0.1200 
 10 C        2.9420    -1.1520     1.9240 C.3   1 <1>   0.1200 
 11 C        0.7240    -5.3630    -0.9700 C.ar  1 <1>   0.4100 
 12 N        1.2520    -4.5890    -3.1900 N.ar  1 <1>  -0.6200 
 13 O        2.4150     0.0420     2.4260 O.3   1 <1>  -0.5600 
 14 N        0.5120    -6.3860    -0.0850 N.pl3 1 <1>  -0.8690 
 15 C        1.0750    -5.5570    -2.3150 C.ar  1 <1>   0.1600 
 16 C       -0.2630    -7.6120    -0.4030 C.3   1 <1>   0.2890 
 17 C       -1.7570    -7.4330    -0.1490 C.3   1 <1>  -0.0800 
 18 C        0.0670    -8.6840     0.6300 C.3   1 <1>   0.1200 
 19 C       -1.8930    -7.7220     1.3480 C.3   1 <1>   0.1200 
 20 C       -2.3870    -6.0950    -0.5790 C.3   1 <1>  -0.0170 
 21 O       -0.7440    -8.4160     1.7350 O.3   1 <1>  -0.5600 
 22 C       -3.8910    -6.1090    -0.3560 C.ar  1 <1>  -0.1430 
 23 C       -4.4730    -5.5090     0.7430 C.ar  1 <1>  -0.1500 
 24 C       -4.7530    -6.7250    -1.2410 C.ar  1 <1>  -0.1500 
 25 C       -5.8470    -5.5590     0.9030 C.ar  1 <1>   0.1600 
 26 C       -6.1150    -6.7180    -0.9880 C.ar  1 <1>   0.1600 
 27 N       -6.6820    -6.1530     0.0650 N.ar  1 <1>  -0.6200 
 28 H        0.1160     0.6340     0.0960 H     1 <1>   0.0800 
 29 H       -0.1830    -0.0800     1.6520 H     1 <1>   0.0800 
 30 H        1.2150    -2.4090     2.1570 H     1 <1>   0.0800 
 31 H        2.2930    -2.8950     0.8800 H     1 <1>   0.0800 
 32 H        1.1910    -2.5430    -3.2840 H     1 <1>   0.1500 
 33 H        1.4210     1.7190     1.9410 H     1 <1>   0.0800 
 34 H        2.4540     1.0720     0.6860 H     1 <1>   0.0800 
 35 H        3.6650    -0.9150     1.1630 H     1 <1>   0.0800 
 36 H        3.4440    -1.6540     2.7310 H     1 <1>   0.0800 
 37 H        0.3210    -6.0550     0.8660 H     1 <1>   0.4000 
 38 H        1.2140    -6.5630    -2.6590 H     1 <1>   0.1500 
 39 H       -0.0530    -7.9500    -1.4020 H     1 <1>   0.0800 
 40 H       -2.2690    -8.2230    -0.6700 H     1 <1>   0.0800 
 41 H        1.1010    -8.6660     0.9290 H     1 <1>   0.0800 
 42 H       -0.1940    -9.6600     0.2630 H     1 <1>   0.0800 
 43 H       -2.7590    -8.3250     1.5640 H     1 <1>   0.0800 
 44 H       -1.9310    -6.8140     1.9250 H     1 <1>   0.0800 
 45 H       -2.1850    -5.9160    -1.6210 H     1 <1>   0.0800 
 46 H       -1.9570    -5.2820    -0.0210 H     1 <1>   0.0800 
 47 H       -3.8720    -5.0020     1.4760 H     1 <1>   0.1500 
 48 H       -4.3800    -7.2090    -2.1240 H     1 <1>   0.1500 
 49 H       -6.2830    -5.0860     1.7660 H     1 <1>   0.1500 
 50 H       -6.7720    -7.2030    -1.6890 H     1 <1>   0.1500 
@<TRIPOS>BOND
  1   1   2  2   
  2   2   3  am  
  3   2   4  1   
  4   3   5  1   
  5   3   6  1   
  6   4   7  ar  
  7   4   8  ar  
  8   5   9  1   
  9   5  28  1   
 10   5  29  1   
 11   6  10  1   
 12   6  30  1   
 13   6  31  1   
 14   7  11  ar  
 15   8  12  ar  
 16   8  32  1   
 17   9  13  1   
 18   9  33  1   
 19   9  34  1   
 20  10  13  1   
 21  10  35  1   
 22  10  36  1   
 23  11  14  1   
 24  11  15  ar  
 25  12  15  ar  
 26  14  16  1   
 27  14  37  1   
 28  15  38  1   
 29  16  17  1   
 30  16  18  1   
 31  16  39  1   
 32  17  19  1   
 33  17  20  1   
 34  17  40  1   
 35  18  21  1   
 36  18  41  1   
 37  18  42  1   
 38  19  21  1   
 39  19  43  1   
 40  19  44  1   
 41  20  22  1   
 42  20  45  1   
 43  20  46  1   
 44  22  23  ar  
 45  22  24  ar  
 46  23  25  ar  
 47  23  47  1   
 48  24  26  ar  
 49  24  48  1   
 50  25  27  ar  
 51  25  49  1   
 52  26  27  ar  
 53  26  50  1   
@<TRIPOS>SUBSTRUCTURE
  1 ****   7 GROUP 4 **** **** 0

# MOE 2024.06 (io_trps.svl 2023.06)
