@<TRIPOS>MOLECULE
NONAME
54 57 1 0 0 
SMALL
USER_CHARGES


@<TRIPOS>ATOM
  1 O        0.3480     1.1490     0.6830 O.co2 1 <1>  -0.9000 
  2 C        1.4330     0.5740     0.7410 C.2   1 <1>   0.9060 
  3 O        1.6200    -0.3890     1.5010 O.co2 1 <1>  -0.9000 
  4 C        2.5590     1.0220    -0.2100 C.3   1 <1>  -0.1060 
  5 C        3.8660     0.2690     0.1080 C.3   1 <1>   0.4230 
  6 C        2.7650     2.5610    -0.0410 C.3   1 <1>  -0.1600 
  7 C        2.1850     0.6640    -1.6670 C.3   1 <1>  -0.1600 
  8 N        3.6480    -1.2140     0.0530 N.4   1 <1>  -0.9590 
  9 C        4.4830     0.8410     1.3970 C.3   1 <1>   0.1400 
 10 C        4.2250     3.0190     0.0810 C.3   1 <1>   0.1400 
 11 C        2.0390    -0.8620    -1.8270 C.3   1 <1>  -0.1600 
 12 C        3.2530    -1.6500    -1.3140 C.3   1 <1>   0.3430 
 13 C        4.7370    -2.0450     0.6320 C.3   1 <1>   0.2630 
 14 N        4.9710     2.2350     1.1220 N.am  1 <1>  -0.6600 
 15 C        6.1260     2.6900     1.7160 C.2   1 <1>   0.5690 
 16 O        6.7600     1.9860     2.4690 O.2   1 <1>  -0.5700 
 17 C        6.6540     4.1020     1.4690 C.3   1 <1>   0.1810 
 18 O        6.9090     4.3260     0.0890 O.3   1 <1>  -0.3630 
 19 C        7.2490     5.5540    -0.3690 C.ar  1 <1>   0.0820 
 20 C        7.5060     6.6420     0.4330 C.ar  1 <1>  -0.1500 
 21 C        7.3310     5.6870    -1.7600 C.ar  1 <1>  -0.1500 
 22 C        7.8420     7.8930    -0.1200 C.ar  1 <1>   0.0000 
 23 C        7.6560     6.8900    -2.3220 C.ar  1 <1>  -0.1500 
 24 C        7.9170     8.0220    -1.5240 C.ar  1 <1>   0.0000 
 25 C        8.1070     9.0270     0.6760 C.ar  1 <1>  -0.1500 
 26 C        8.2510     9.2750    -2.0740 C.ar  1 <1>  -0.1500 
 27 C        8.4290    10.2310     0.1150 C.ar  1 <1>  -0.1500 
 28 C        8.5020    10.3570    -1.2760 C.ar  1 <1>  -0.1500 
 29 H        4.5700     0.5050    -0.6700 H     1 <1>   0.0800 
 30 H        2.2660     2.8880     0.8580 H     1 <1>   0.0800 
 31 H        2.2870     3.0910    -0.8460 H     1 <1>   0.0800 
 32 H        1.2490     1.1350    -1.9230 H     1 <1>   0.0800 
 33 H        2.9370     1.0320    -2.3430 H     1 <1>   0.0800 
 34 H        2.7970    -1.3080     0.6730 H     1 <1>   0.4500 
 35 H        5.3110     0.2360     1.7140 H     1 <1>   0.0800 
 36 H        3.7530     0.8690     2.1880 H     1 <1>   0.0800 
 37 H        4.2370     4.0670     0.3290 H     1 <1>   0.0800 
 38 H        4.7210     2.8990    -0.8670 H     1 <1>   0.0800 
 39 H        1.8790    -1.0980    -2.8640 H     1 <1>   0.0800 
 40 H        1.1640    -1.1960    -1.2930 H     1 <1>   0.0800 
 41 H        4.0800    -1.4980    -1.9870 H     1 <1>   0.0800 
 42 H        3.0120    -2.7010    -1.3050 H     1 <1>   0.0800 
 43 H        5.6590    -1.8790     0.1000 H     1 <1>   0.0800 
 44 H        4.4780    -3.0890     0.5690 H     1 <1>   0.0800 
 45 H        4.8810    -1.7960     1.6700 H     1 <1>   0.0800 
 46 H        7.5750     4.2400     2.0050 H     1 <1>   0.0800 
 47 H        5.9260     4.8160     1.8050 H     1 <1>   0.0800 
 48 H        7.4640     6.5770     1.5020 H     1 <1>   0.1500 
 49 H        7.1340     4.8230    -2.3690 H     1 <1>   0.1500 
 50 H        7.7200     6.9910    -3.3910 H     1 <1>   0.1500 
 51 H        8.0510     8.9270     1.7450 H     1 <1>   0.1500 
 52 H        8.3070     9.3680    -3.1440 H     1 <1>   0.1500 
 53 H        8.6300    11.0930     0.7290 H     1 <1>   0.1500 
 54 H        8.7570    11.3120    -1.7030 H     1 <1>   0.1500 
@<TRIPOS>BOND
  1   1   2  ar  
  2   2   3  ar  
  3   2   4  1   
  4   4   5  1   
  5   4   6  1   
  6   4   7  1   
  7   5   8  1   
  8   5   9  1   
  9   5  29  1   
 10   6  10  1   
 11   6  30  1   
 12   6  31  1   
 13   7  11  1   
 14   7  32  1   
 15   7  33  1   
 16   8  12  1   
 17   8  13  1   
 18   8  34  1   
 19   9  14  1   
 20   9  35  1   
 21   9  36  1   
 22  10  14  1   
 23  10  37  1   
 24  10  38  1   
 25  11  12  1   
 26  11  39  1   
 27  11  40  1   
 28  12  41  1   
 29  12  42  1   
 30  13  43  1   
 31  13  44  1   
 32  13  45  1   
 33  14  15  am  
 34  15  16  2   
 35  15  17  1   
 36  17  18  1   
 37  17  46  1   
 38  17  47  1   
 39  18  19  1   
 40  19  20  ar  
 41  19  21  ar  
 42  20  22  ar  
 43  20  48  1   
 44  21  23  ar  
 45  21  49  1   
 46  22  24  ar  
 47  22  25  ar  
 48  23  24  ar  
 49  23  50  1   
 50  24  26  ar  
 51  25  27  ar  
 52  25  51  1   
 53  26  28  ar  
 54  26  52  1   
 55  27  28  ar  
 56  27  53  1   
 57  28  54  1   
@<TRIPOS>SUBSTRUCTURE
  1 ****  10 GROUP 4 **** **** 0

# MOE 2024.06 (io_trps.svl 2023.06)
