@<TRIPOS>MOLECULE
NONAME
40 41 1 0 0 
SMALL
USER_CHARGES


@<TRIPOS>ATOM
  1 O       -0.1300    -0.0690    -0.3100 O.2   1 <1>  -0.5700 
  2 C       -0.7460    -1.0450     0.0700 C.2   1 <1>   0.7800 
  3 O       -0.2060    -2.2660     0.0410 O.3   1 <1>  -0.4300 
  4 N       -2.0230    -0.9540     0.5410 N.am  1 <1>  -0.6600 
  5 C        1.0850    -2.6180    -0.4050 C.3   1 <1>   0.2800 
  6 C       -2.8080     0.2980     0.5250 C.3   1 <1>   0.1400 
  7 C       -2.8720    -2.1170     0.8690 C.3   1 <1>   0.1400 
  8 C        2.1510    -1.9390     0.4640 C.3   1 <1>  -0.2400 
  9 C        1.1730    -4.1330    -0.2170 C.3   1 <1>  -0.2400 
 10 C        1.2420    -2.2840    -1.8930 C.3   1 <1>  -0.2400 
 11 C       -4.2730    -0.1600     0.5090 C.3   1 <1>   0.0000 
 12 C       -4.2650    -1.5440     1.1690 C.3   1 <1>  -0.0800 
 13 C       -4.7600    -0.4650    -0.9180 C.3   1 <1>  -0.1600 
 14 C       -5.2310     0.8450     1.1840 C.3   1 <1>   0.1200 
 15 C       -5.4040    -2.3420     0.5170 C.3   1 <1>  -0.1600 
 16 C       -5.7660    -1.6080    -0.7790 C.3   1 <1>  -0.1600 
 17 O       -4.8470     1.1140     2.4900 O.3   1 <1>  -0.6800 
 18 H       -2.5820     0.8540     1.4180 H     1 <1>   0.0800 
 19 H       -2.5670     0.8980    -0.3350 H     1 <1>   0.0800 
 20 H       -2.8970    -2.7770     0.0180 H     1 <1>   0.0800 
 21 H       -2.4730    -2.6440     1.7190 H     1 <1>   0.0800 
 22 H        3.1250    -2.3170     0.2120 H     1 <1>   0.0800 
 23 H        1.9660    -2.1360     1.5040 H     1 <1>   0.0800 
 24 H        2.1640    -0.8770     0.3020 H     1 <1>   0.0800 
 25 H        2.1340    -4.4950    -0.5350 H     1 <1>   0.0800 
 26 H        0.4150    -4.6250    -0.7990 H     1 <1>   0.0800 
 27 H        1.0400    -4.3880     0.8190 H     1 <1>   0.0800 
 28 H        2.1700    -2.6800    -2.2620 H     1 <1>   0.0800 
 29 H        1.2560    -1.2220    -2.0530 H     1 <1>   0.0800 
 30 H        0.4370    -2.7160    -2.4600 H     1 <1>   0.0800 
 31 H       -4.3890    -1.4900     2.2360 H     1 <1>   0.0800 
 32 H       -5.1900     0.3960    -1.4010 H     1 <1>   0.0800 
 33 H       -3.9350    -0.8090    -1.5200 H     1 <1>   0.0800 
 34 H       -6.2370     0.4620     1.2050 H     1 <1>   0.0800 
 35 H       -5.2280     1.7800     0.6490 H     1 <1>   0.0800 
 36 H       -5.1140    -3.3600     0.3220 H     1 <1>   0.0800 
 37 H       -6.2610    -2.3540     1.1690 H     1 <1>   0.0800 
 38 H       -6.7630    -1.2090    -0.7020 H     1 <1>   0.0800 
 39 H       -5.7230    -2.2660    -1.6310 H     1 <1>   0.0800 
 40 H       -4.8300     0.2940     3.0190 H     1 <1>   0.4000 
@<TRIPOS>BOND
  1   1   2  2   
  2   2   3  1   
  3   2   4  am  
  4   3   5  1   
  5   4   6  1   
  6   4   7  1   
  7   5   8  1   
  8   5   9  1   
  9   5  10  1   
 10   6  11  1   
 11   6  18  1   
 12   6  19  1   
 13   7  12  1   
 14   7  20  1   
 15   7  21  1   
 16   8  22  1   
 17   8  23  1   
 18   8  24  1   
 19   9  25  1   
 20   9  26  1   
 21   9  27  1   
 22  10  28  1   
 23  10  29  1   
 24  10  30  1   
 25  11  12  1   
 26  11  13  1   
 27  11  14  1   
 28  12  15  1   
 29  12  31  1   
 30  13  16  1   
 31  13  32  1   
 32  13  33  1   
 33  14  17  1   
 34  14  34  1   
 35  14  35  1   
 36  15  16  1   
 37  15  36  1   
 38  15  37  1   
 39  16  38  1   
 40  16  39  1   
 41  17  40  1   
@<TRIPOS>SUBSTRUCTURE
  1 ****   4 GROUP 4 **** **** 0

# MOE 2024.06 (io_trps.svl 2023.06)
