@<TRIPOS>MOLECULE
NONAME
53 55 1 0 0 
SMALL
USER_CHARGES


@<TRIPOS>ATOM
  1 F       -0.8290    -0.4660     0.4590 F     1 <1>  -0.3400 
  2 C       -1.3880     0.3270    -0.4510 C.3   1 <1>   1.1640 
  3 F       -2.6340    -0.1190    -0.5980 F     1 <1>  -0.3400 
  4 F       -0.7760     0.0610    -1.6020 F     1 <1>  -0.3400 
  5 C       -1.3230     1.8310    -0.0690 C.ar  1 <1>   0.1660 
  6 N       -0.1470     2.4070     0.1340 N.ar  1 <1>  -0.6200 
  7 C       -2.4820     2.5720     0.0600 C.ar  1 <1>  -0.1500 
  8 C       -0.1410     3.6930     0.4660 C.ar  1 <1>   0.7200 
  9 C       -2.3740     3.8990     0.3970 C.ar  1 <1>   0.1660 
 10 N       -1.2150     4.4650     0.5990 N.ar  1 <1>  -0.6200 
 11 N        1.0870     4.2750     0.6860 N.pl3 1 <1>  -0.8380 
 12 C       -3.6010     4.7730     0.5540 C.3   1 <1>  -0.0970 
 13 C        1.2380     5.6300     1.2970 C.3   1 <1>   0.2090 
 14 C        2.3300     3.8010    -0.0030 C.3   1 <1>   0.2090 
 15 C        1.6760     6.6490     0.2310 C.3   1 <1>   0.1400 
 16 C        2.8030     4.8310    -1.0460 C.3   1 <1>   0.1400 
 17 N        2.9380     6.2040    -0.4500 N.am  1 <1>  -0.6600 
 18 C        4.1210     6.9000    -0.5410 C.2   1 <1>   0.5690 
 19 O        5.0610     6.4400    -1.1460 O.2   1 <1>  -0.5700 
 20 C        4.2830     8.2850     0.1100 C.3   1 <1>  -0.0190 
 21 C        3.6730     9.3920    -0.7730 C.3   1 <1>  -0.1600 
 22 C        5.7510     8.6420     0.4640 C.3   1 <1>  -0.1600 
 23 C        3.6350    10.7600    -0.0570 C.3   1 <1>   0.2000 
 24 C        5.9830    10.1440     0.7330 C.3   1 <1>  -0.1600 
 25 O        3.8740    11.7670    -1.0080 O.3   1 <1>  -0.5600 
 26 C        4.6840    10.8750     1.0800 C.3   1 <1>   0.2000 
 27 C        2.7850    12.0980    -1.8140 C.3   1 <1>   0.0400 
 28 O        4.9820    12.2060     1.2900 O.3   1 <1>  -0.6800 
 29 H       -3.4520     2.1360    -0.0980 H     1 <1>   0.1500 
 30 H       -4.5020     4.2170     0.3700 H     1 <1>   0.0800 
 31 H       -3.5500     5.5920    -0.1410 H     1 <1>   0.0800 
 32 H       -3.6350     5.1690     1.5520 H     1 <1>   0.0800 
 33 H        0.3210     5.9560     1.7550 H     1 <1>   0.0800 
 34 H        1.9840     5.5840     2.0710 H     1 <1>   0.0800 
 35 H        3.1050     3.6580     0.7290 H     1 <1>   0.0800 
 36 H        2.1700     2.8580    -0.4950 H     1 <1>   0.0800 
 37 H        1.7890     7.6110     0.6910 H     1 <1>   0.0800 
 38 H        0.8930     6.7300    -0.5020 H     1 <1>   0.0800 
 39 H        2.0890     4.8660    -1.8480 H     1 <1>   0.0800 
 40 H        3.7390     4.4990    -1.4590 H     1 <1>   0.0800 
 41 H        3.7530     8.2610     1.0430 H     1 <1>   0.0800 
 42 H        2.6760     9.1200    -1.0660 H     1 <1>   0.0800 
 43 H        4.2730     9.4680    -1.6650 H     1 <1>   0.0800 
 44 H        6.0430     8.0700     1.3270 H     1 <1>   0.0800 
 45 H        6.4070     8.3540    -0.3410 H     1 <1>   0.0800 
 46 H        2.6640    10.9220     0.3790 H     1 <1>   0.0800 
 47 H        6.3950    10.5920    -0.1550 H     1 <1>   0.0800 
 48 H        6.6950    10.2630     1.5310 H     1 <1>   0.0800 
 49 H        4.2860    10.4800     1.9980 H     1 <1>   0.0800 
 50 H        3.0880    12.8930    -2.4720 H     1 <1>   0.0800 
 51 H        1.9710    12.4320    -1.1940 H     1 <1>   0.0800 
 52 H        2.4940    11.2410    -2.3960 H     1 <1>   0.0800 
 53 H        4.9250    12.6360     0.4060 H     1 <1>   0.4000 
@<TRIPOS>BOND
  1   1   2  1   
  2   2   3  1   
  3   2   4  1   
  4   2   5  1   
  5   5   6  ar  
  6   5   7  ar  
  7   6   8  ar  
  8   7   9  ar  
  9   7  29  1   
 10   8  10  ar  
 11   8  11  1   
 12   9  10  ar  
 13   9  12  1   
 14  11  13  1   
 15  11  14  1   
 16  12  30  1   
 17  12  31  1   
 18  12  32  1   
 19  13  15  1   
 20  13  33  1   
 21  13  34  1   
 22  14  16  1   
 23  14  35  1   
 24  14  36  1   
 25  15  17  1   
 26  15  37  1   
 27  15  38  1   
 28  16  17  1   
 29  16  39  1   
 30  16  40  1   
 31  17  18  am  
 32  18  19  2   
 33  18  20  1   
 34  20  21  1   
 35  20  22  1   
 36  20  41  1   
 37  21  23  1   
 38  21  42  1   
 39  21  43  1   
 40  22  24  1   
 41  22  44  1   
 42  22  45  1   
 43  23  25  1   
 44  23  26  1   
 45  23  46  1   
 46  24  26  1   
 47  24  47  1   
 48  24  48  1   
 49  25  27  1   
 50  26  28  1   
 51  26  49  1   
 52  27  50  1   
 53  27  51  1   
 54  27  52  1   
 55  28  53  1   
@<TRIPOS>SUBSTRUCTURE
  1 ****  15 GROUP 4 **** **** 0

# MOE 2024.06 (io_trps.svl 2023.06)
