@<TRIPOS>MOLECULE
NONAME
54 56 1 0 0 
SMALL
USER_CHARGES


@<TRIPOS>ATOM
  1 O       -0.5560     0.3430    -1.5320 O.2   1 <1>  -0.5700 
  2 C       -1.5180     0.7190    -0.8940 C.2   1 <1>   0.7150 
  3 N       -2.4200    -0.2010    -0.4230 N.am  1 <1>  -0.6600 
  4 C       -1.7100     2.1150    -0.6070 C.2   1 <1>  -0.2370 
  5 C       -2.4280    -1.5770    -1.0140 C.3   1 <1>   0.3210 
  6 C       -3.3470     0.1040     0.7060 C.3   1 <1>   0.1400 
  7 N       -1.0840     2.7500     0.4410 N.pl3 1 <1>   0.0480 
  8 C       -2.5020     3.0250    -1.2490 C.2   1 <1>  -0.1810 
  9 C       -3.7800    -2.2890    -0.9060 C.2   1 <1>   0.0460 
 10 C       -4.6410     0.7580     0.1900 C.3   1 <1>   0.3430 
 11 C       -1.5540     4.0380     0.5090 C.ar  1 <1>  -0.1520 
 12 C        0.0450     2.2040     1.2230 C.3   1 <1>   0.0160 
 13 C       -2.4290     4.2430    -0.5530 C.ar  1 <1>   0.0000 
 14 C       -3.3140     2.8140    -2.5140 C.3   1 <1>  -0.0590 
 15 N       -4.8870    -1.7950    -1.5060 N.2   1 <1>  -0.5650 
 16 C       -4.0630    -3.4520    -0.2680 C.2   1 <1>  -0.3320 
 17 N       -5.3190     1.6240     1.2150 N.4   1 <1>  -0.9590 
 18 C       -1.2920     5.0650     1.4210 C.ar  1 <1>  -0.1500 
 19 C       -3.0380     5.4930    -0.7210 C.ar  1 <1>  -0.1500 
 20 C       -5.8010    -2.6730    -1.2470 C.2   1 <1>   0.0360 
 21 N       -5.3660    -3.7020    -0.4940 N.pl3 1 <1>   0.0330 
 22 C       -3.1890    -4.3970     0.5420 C.3   1 <1>  -0.0600 
 23 C       -6.7150     1.9150     0.7740 C.3   1 <1>   0.2630 
 24 C       -4.5730     2.9080     1.4270 C.3   1 <1>   0.2630 
 25 C       -1.9060     6.2840     1.2530 C.ar  1 <1>  -0.1500 
 26 C       -2.7790     6.4990     0.1790 C.ar  1 <1>  -0.1500 
 27 H       -1.6680    -2.1620    -0.5290 H     1 <1>   0.0800 
 28 H       -2.1700    -1.5150    -2.0570 H     1 <1>   0.0800 
 29 H       -2.8450     0.7660     1.3870 H     1 <1>   0.0800 
 30 H       -3.5820    -0.8010     1.2400 H     1 <1>   0.0800 
 31 H       -5.3160    -0.0220    -0.1170 H     1 <1>   0.0800 
 32 H       -4.4070     1.3510    -0.6770 H     1 <1>   0.0800 
 33 H        0.6470     1.5740     0.5940 H     1 <1>   0.0800 
 34 H       -0.3320     1.6330     2.0510 H     1 <1>   0.0800 
 35 H        0.6560     3.0100     1.5870 H     1 <1>   0.0800 
 36 H       -3.2390     1.7950    -2.8520 H     1 <1>   0.0800 
 37 H       -2.9380     3.4550    -3.2920 H     1 <1>   0.0800 
 38 H       -4.3480     3.0500    -2.3420 H     1 <1>   0.0800 
 39 H       -5.3600     1.1050     2.1040 H     1 <1>   0.4500 
 40 H       -0.6130     4.9050     2.2400 H     1 <1>   0.1500 
 41 H       -3.6970     5.6500    -1.5560 H     1 <1>   0.1500 
 42 H       -6.8180    -2.6130    -1.5940 H     1 <1>   0.1500 
 43 H       -5.9090    -4.5150    -0.1870 H     1 <1>   0.2700 
 44 H       -2.1850    -4.0230     0.6260 H     1 <1>   0.0800 
 45 H       -3.1500    -5.3620     0.0660 H     1 <1>   0.0800 
 46 H       -3.5890    -4.5180     1.5330 H     1 <1>   0.0800 
 47 H       -6.7070     2.4560    -0.1590 H     1 <1>   0.0800 
 48 H       -7.2260     2.5110     1.5130 H     1 <1>   0.0800 
 49 H       -7.2620     0.9970     0.6340 H     1 <1>   0.0800 
 50 H       -4.5560     3.4840     0.5160 H     1 <1>   0.0800 
 51 H       -3.5540     2.7160     1.7210 H     1 <1>   0.0800 
 52 H       -5.0460     3.4980     2.1950 H     1 <1>   0.0800 
 53 H       -1.7150     7.0900     1.9400 H     1 <1>   0.1500 
 54 H       -3.2360     7.4660     0.0630 H     1 <1>   0.1500 
@<TRIPOS>BOND
  1   1   2  2   
  2   2   3  am  
  3   2   4  1   
  4   3   5  1   
  5   3   6  1   
  6   4   7  1   
  7   4   8  2   
  8   5   9  1   
  9   5  27  1   
 10   5  28  1   
 11   6  10  1   
 12   6  29  1   
 13   6  30  1   
 14   7  11  1   
 15   7  12  1   
 16   8  13  1   
 17   8  14  1   
 18   9  15  1   
 19   9  16  2   
 20  10  17  1   
 21  10  31  1   
 22  10  32  1   
 23  11  13  ar  
 24  11  18  ar  
 25  12  33  1   
 26  12  34  1   
 27  12  35  1   
 28  13  19  ar  
 29  14  36  1   
 30  14  37  1   
 31  14  38  1   
 32  15  20  2   
 33  16  21  1   
 34  16  22  1   
 35  17  23  1   
 36  17  24  1   
 37  17  39  1   
 38  18  25  ar  
 39  18  40  1   
 40  19  26  ar  
 41  19  41  1   
 42  20  21  1   
 43  20  42  1   
 44  21  43  1   
 45  22  44  1   
 46  22  45  1   
 47  22  46  1   
 48  23  47  1   
 49  23  48  1   
 50  23  49  1   
 51  24  50  1   
 52  24  51  1   
 53  24  52  1   
 54  25  26  ar  
 55  25  53  1   
 56  26  54  1   
@<TRIPOS>SUBSTRUCTURE
  1 ****   6 GROUP 4 **** **** 0

# MOE 2024.06 (io_trps.svl 2023.06)
