@<TRIPOS>MOLECULE
NONAME
45 47 1 0 0 
SMALL
USER_CHARGES


@<TRIPOS>ATOM
  1 F        1.9790    -0.2410    -0.6330 F     1 <1>  -0.1900 
  2 C        2.5260     0.7710    -0.0150 C.ar  1 <1>   0.1900 
  3 C        3.3060     0.5440     1.1050 C.ar  1 <1>   0.1600 
  4 C        2.3170     2.0420    -0.4950 C.ar  1 <1>  -0.1500 
  5 N        3.8940     1.5160     1.7920 N.ar  1 <1>  -0.6200 
  6 C        2.9280     3.0780     0.1990 C.ar  1 <1>   0.0860 
  7 C        3.6800     2.7420     1.3280 C.ar  1 <1>   0.1600 
  8 C        2.7880     4.4570    -0.2180 C.2   1 <1>   0.5440 
  9 O        1.6820     4.8700    -0.5110 O.2   1 <1>  -0.5700 
 10 N        3.8660     5.3130    -0.3000 N.am  1 <1>  -0.6600 
 11 C        5.2660     4.8100    -0.4870 C.3   1 <1>   0.1400 
 12 C        3.6190     6.7830    -0.3500 C.3   1 <1>   0.1400 
 13 C        6.0790     5.5920    -1.5270 C.3   1 <1>   0.1100 
 14 C        4.7490     7.6090     0.2720 C.3   1 <1>  -0.1600 
 15 N        6.7720     6.7470    -0.9230 N.3   1 <1>  -0.8100 
 16 C        5.8930     7.9060    -0.7000 C.3   1 <1>   0.1100 
 17 C        7.9710     7.1140    -1.7300 C.3   1 <1>   0.2900 
 18 C        8.9310     8.0870    -1.0490 C.2   1 <1>   0.2980 
 19 O        8.6830     9.3710    -1.1240 O.3   1 <1>  -0.0190 
 20 N        9.9960     7.7730    -0.4220 N.2   1 <1>  -0.5650 
 21 N        9.6650     9.9220    -0.4790 N.2   1 <1>  -0.4100 
 22 C       10.4300     8.9820    -0.0820 C.2   1 <1>   0.3350 
 23 C       11.7060     9.1800     0.7300 C.3   1 <1>   0.3010 
 24 O       12.8460     9.0750    -0.0820 O.3   1 <1>  -0.5600 
 25 C       14.0470     9.2110     0.6030 C.3   1 <1>   0.0400 
 26 H        3.4460    -0.4670     1.4450 H     1 <1>   0.1500 
 27 H        1.7070     2.2280    -1.3620 H     1 <1>   0.1500 
 28 H        4.1330     3.5490     1.8810 H     1 <1>   0.1500 
 29 H        5.2240     3.7880    -0.8190 H     1 <1>   0.0800 
 30 H        5.7880     4.8290     0.4540 H     1 <1>   0.0800 
 31 H        2.7140     6.9950     0.1950 H     1 <1>   0.0800 
 32 H        3.4550     7.0810    -1.3710 H     1 <1>   0.0800 
 33 H        5.4570     5.8960    -2.3520 H     1 <1>   0.0800 
 34 H        6.8190     4.9100    -1.9090 H     1 <1>   0.0800 
 35 H        5.1160     7.1540     1.1740 H     1 <1>   0.0800 
 36 H        4.3260     8.5580     0.5490 H     1 <1>   0.0800 
 37 H        6.4700     8.7010    -0.2610 H     1 <1>   0.0800 
 38 H        5.5010     8.2610    -1.6390 H     1 <1>   0.0800 
 39 H        7.6630     7.5280    -2.6730 H     1 <1>   0.0800 
 40 H        8.5370     6.2220    -1.9320 H     1 <1>   0.0800 
 41 H       11.7580     8.4290     1.4970 H     1 <1>   0.0800 
 42 H       11.6970    10.1580     1.1770 H     1 <1>   0.0800 
 43 H       14.8490     9.1170    -0.1090 H     1 <1>   0.0800 
 44 H       14.1270     8.4320     1.3420 H     1 <1>   0.0800 
 45 H       14.0860    10.1820     1.0660 H     1 <1>   0.0800 
@<TRIPOS>BOND
  1   1   2  1   
  2   2   3  ar  
  3   2   4  ar  
  4   3   5  ar  
  5   3  26  1   
  6   4   6  ar  
  7   4  27  1   
  8   5   7  ar  
  9   6   7  ar  
 10   6   8  1   
 11   7  28  1   
 12   8   9  2   
 13   8  10  am  
 14  10  11  1   
 15  10  12  1   
 16  11  13  1   
 17  11  29  1   
 18  11  30  1   
 19  12  14  1   
 20  12  31  1   
 21  12  32  1   
 22  13  15  1   
 23  13  33  1   
 24  13  34  1   
 25  14  16  1   
 26  14  35  1   
 27  14  36  1   
 28  15  16  1   
 29  15  17  1   
 30  16  37  1   
 31  16  38  1   
 32  17  18  1   
 33  17  39  1   
 34  17  40  1   
 35  18  19  1   
 36  18  20  2   
 37  19  21  1   
 38  20  22  1   
 39  21  22  2   
 40  22  23  1   
 41  23  24  1   
 42  23  41  1   
 43  23  42  1   
 44  24  25  1   
 45  25  43  1   
 46  25  44  1   
 47  25  45  1   
@<TRIPOS>SUBSTRUCTURE
  1 ****  13 GROUP 4 **** **** 0

# MOE 2024.06 (io_trps.svl 2023.06)
