@<TRIPOS>MOLECULE
NONAME
53 55 1 0 0 
SMALL
USER_CHARGES


@<TRIPOS>ATOM
  1 S       -0.0690     0.0140     2.0260 S.o2  1 <1>   1.4470 
  2 O       -0.1960     1.0020     3.0710 O.2   1 <1>  -0.6500 
  3 O        0.0780    -1.3860     2.3810 O.2   1 <1>  -0.6500 
  4 N       -1.5200     0.0560     1.1440 N.am  1 <1>  -0.8490 
  5 C        1.1800     0.4980     0.8070 C.ar  1 <1>  -0.0090 
  6 C       -1.6270    -1.0390     0.1720 C.3   1 <1>   0.1960 
  7 C       -2.6700     0.1060     2.0480 C.3   1 <1>   0.1960 
  8 C        2.3820    -0.1920     0.7030 C.ar  1 <1>  -0.1500 
  9 C        0.9640     1.5670    -0.0540 C.ar  1 <1>  -0.1500 
 10 C       -2.6400    -2.1080     0.6690 C.3   1 <1>   0.4230 
 11 C       -3.9740    -0.3980     1.3670 C.3   1 <1>  -0.1600 
 12 C        3.3330     0.1570    -0.2410 C.ar  1 <1>  -0.1440 
 13 C        1.9050     1.9320    -1.0020 C.ar  1 <1>  -0.1430 
 14 N       -2.1710    -3.5260     0.3980 N.4   1 <1>  -0.9590 
 15 C       -4.1200    -1.6110     0.2950 C.3   1 <1>   0.0000 
 16 C        3.0870     1.2190    -1.0930 C.ar  1 <1>  -0.1500 
 17 C        4.6420    -0.6080    -0.3390 C.3   1 <1>  -0.0970 
 18 C        1.6510     3.1020    -1.9350 C.3   1 <1>  -0.0970 
 19 C       -1.9810    -3.7730    -1.0450 C.3   1 <1>   0.3430 
 20 C       -0.9550    -3.8950     1.1950 C.3   1 <1>   0.2630 
 21 C       -4.3190    -2.7590    -0.8340 C.3   1 <1>  -0.1600 
 22 C       -5.6160    -1.1080     0.0110 C.3   1 <1>   0.1200 
 23 C       -3.1410    -3.1170    -1.7720 C.3   1 <1>  -0.1600 
 24 O       -5.6350    -0.2650    -1.1010 O.3   1 <1>  -0.6800 
 25 H       -1.9850    -0.6230    -0.7550 H     1 <1>   0.0800 
 26 H       -0.6610    -1.4680    -0.0230 H     1 <1>   0.0800 
 27 H       -2.4740    -0.5010     2.9200 H     1 <1>   0.0800 
 28 H       -2.7990     1.1180     2.4010 H     1 <1>   0.0800 
 29 H        2.5780    -1.0110     1.3730 H     1 <1>   0.1500 
 30 H        0.0440     2.1220     0.0230 H     1 <1>   0.1500 
 31 H       -2.5940    -2.0850     1.7430 H     1 <1>   0.0800 
 32 H       -4.6250    -0.6030     2.2030 H     1 <1>   0.0800 
 33 H       -4.3150     0.5270     0.9260 H     1 <1>   0.0800 
 34 H       -2.9420    -4.1350     0.7030 H     1 <1>   0.4500 
 35 H        3.8230     1.4980    -1.8270 H     1 <1>   0.1500 
 36 H        4.9530    -0.6880    -1.3650 H     1 <1>   0.0800 
 37 H        4.5370    -1.6000     0.0620 H     1 <1>   0.0800 
 38 H        5.4060    -0.0910     0.2140 H     1 <1>   0.0800 
 39 H        2.5500     3.6790    -2.0590 H     1 <1>   0.0800 
 40 H        0.8880     3.7480    -1.5390 H     1 <1>   0.0800 
 41 H        1.3340     2.7420    -2.8970 H     1 <1>   0.0800 
 42 H       -1.0480    -3.3530    -1.3880 H     1 <1>   0.0800 
 43 H       -1.9740    -4.8340    -1.2370 H     1 <1>   0.0800 
 44 H       -0.1030    -3.3150     0.8810 H     1 <1>   0.0800 
 45 H       -0.7240    -4.9410     1.0690 H     1 <1>   0.0800 
 46 H       -1.1210    -3.7040     2.2440 H     1 <1>   0.0800 
 47 H       -4.6650    -3.6570    -0.3460 H     1 <1>   0.0800 
 48 H       -5.0750    -2.5680    -1.5830 H     1 <1>   0.0800 
 49 H       -6.1190    -0.5750     0.8030 H     1 <1>   0.0800 
 50 H       -6.3160    -1.9090    -0.1730 H     1 <1>   0.0800 
 51 H       -2.8000    -2.2300    -2.2790 H     1 <1>   0.0800 
 52 H       -3.4800    -3.7920    -2.5390 H     1 <1>   0.0800 
 53 H       -5.3110     0.6320    -0.8850 H     1 <1>   0.4000 
@<TRIPOS>BOND
  1   1   2  2   
  2   1   3  2   
  3   1   4  am  
  4   1   5  1   
  5   4   6  1   
  6   4   7  1   
  7   5   8  ar  
  8   5   9  ar  
  9   6  10  1   
 10   6  25  1   
 11   6  26  1   
 12   7  11  1   
 13   7  27  1   
 14   7  28  1   
 15   8  12  ar  
 16   8  29  1   
 17   9  13  ar  
 18   9  30  1   
 19  10  14  1   
 20  10  15  1   
 21  10  31  1   
 22  11  15  1   
 23  11  32  1   
 24  11  33  1   
 25  12  16  ar  
 26  12  17  1   
 27  13  16  ar  
 28  13  18  1   
 29  14  19  1   
 30  14  20  1   
 31  14  34  1   
 32  15  21  1   
 33  15  22  1   
 34  16  35  1   
 35  17  36  1   
 36  17  37  1   
 37  17  38  1   
 38  18  39  1   
 39  18  40  1   
 40  18  41  1   
 41  19  23  1   
 42  19  42  1   
 43  19  43  1   
 44  20  44  1   
 45  20  45  1   
 46  20  46  1   
 47  21  23  1   
 48  21  47  1   
 49  21  48  1   
 50  22  24  1   
 51  22  49  1   
 52  22  50  1   
 53  23  51  1   
 54  23  52  1   
 55  24  53  1   
@<TRIPOS>SUBSTRUCTURE
  1 ****   6 GROUP 4 **** **** 0

# MOE 2024.06 (io_trps.svl 2023.06)
