@<TRIPOS>MOLECULE
NONAME
63 66 1 0 0 
SMALL
USER_CHARGES


@<TRIPOS>ATOM
  1 O        0.9720    -0.2480    -0.1210 O.2   1 <1>  -0.5700 
  2 C        1.6700    -0.9440    -0.8330 C.2   1 <1>   0.5440 
  3 N        2.9180    -0.4600    -1.1470 N.am  1 <1>  -0.6600 
  4 C        1.2170    -2.2490    -1.2800 C.ar  1 <1>   0.0860 
  5 C        3.1060     1.0180    -1.2480 C.3   1 <1>   0.1400 
  6 C        4.1190    -1.1750    -0.6290 C.3   1 <1>   0.1400 
  7 C        0.2290    -2.9570    -0.6200 C.ar  1 <1>  -0.1500 
  8 C        1.7360    -2.8850    -2.4030 C.ar  1 <1>  -0.1500 
  9 C        3.5060     1.5950     0.1230 C.3   1 <1>   0.3430 
 10 C        4.5500    -0.5800     0.7320 C.3   1 <1>   0.3430 
 11 C       -0.1820    -4.2080    -1.0610 C.ar  1 <1>   0.4100 
 12 C        1.2740    -4.1330    -2.7680 C.ar  1 <1>   0.1600 
 13 N        4.7350     0.9180     0.6800 N.4   1 <1>  -0.9590 
 14 N        0.3420    -4.8060    -2.1230 N.ar  1 <1>  -0.6200 
 15 N       -1.1800    -4.8770    -0.3790 N.pl3 1 <1>  -0.8380 
 16 C        5.0610     1.4590     2.0340 C.3   1 <1>   0.2630 
 17 C       -2.5490    -4.2750    -0.4070 C.3   1 <1>   0.2090 
 18 C       -1.2470    -6.3680    -0.4880 C.3   1 <1>   0.2090 
 19 C       -3.4960    -4.9670     0.6030 C.3   1 <1>   0.2950 
 20 C       -2.2540    -6.9660     0.5210 C.3   1 <1>   0.2000 
 21 O       -3.5060    -6.3510     0.3890 O.3   1 <1>  -0.5600 
 22 C       -4.9620    -4.4990     0.5420 C.3   1 <1>  -0.1950 
 23 C       -2.4810    -8.4710     0.3270 C.3   1 <1>  -0.1600 
 24 C       -5.7100    -4.2730    -0.7370 C.3   1 <1>  -0.2000 
 25 C       -5.3800    -3.1110     0.1590 C.3   1 <1>  -0.2000 
 26 C       -1.2200    -9.3120     0.5850 C.3   1 <1>  -0.1600 
 27 C       -1.5240   -10.8090     0.4660 C.3   1 <1>  -0.1600 
 28 C       -0.2680   -11.6480     0.7160 C.3   1 <1>  -0.2400 
 29 H        3.8590     1.2410    -1.9830 H     1 <1>   0.0800 
 30 H        2.1860     1.4770    -1.5710 H     1 <1>   0.0800 
 31 H        3.8970    -2.2220    -0.5010 H     1 <1>   0.0800 
 32 H        4.9220    -1.0940    -1.3400 H     1 <1>   0.0800 
 33 H       -0.2340    -2.5430     0.2550 H     1 <1>   0.1500 
 34 H        2.4930    -2.4050    -2.9940 H     1 <1>   0.1500 
 35 H        2.6760     1.4570     0.7970 H     1 <1>   0.0800 
 36 H        3.6800     2.6540     0.0240 H     1 <1>   0.0800 
 37 H        5.4660    -1.0520     1.0490 H     1 <1>   0.0800 
 38 H        3.7890    -0.8200     1.4560 H     1 <1>   0.0800 
 39 H        1.6920    -4.6070    -3.6410 H     1 <1>   0.1500 
 40 H        5.5180     1.1190     0.0430 H     1 <1>   0.4500 
 41 H        4.2520     1.2620     2.7200 H     1 <1>   0.0800 
 42 H        5.2170     2.5250     1.9850 H     1 <1>   0.0800 
 43 H        5.9580     1.0000     2.4180 H     1 <1>   0.0800 
 44 H       -2.4870    -3.2280    -0.1710 H     1 <1>   0.0800 
 45 H       -2.9500    -4.3710    -1.4000 H     1 <1>   0.0800 
 46 H       -1.5400    -6.6420    -1.4870 H     1 <1>   0.0800 
 47 H       -0.2670    -6.7740    -0.3070 H     1 <1>   0.0800 
 48 H       -3.1240    -4.7880     1.5970 H     1 <1>   0.0800 
 49 H       -1.9010    -6.7870     1.5220 H     1 <1>   0.0800 
 50 H       -5.5230    -4.9510     1.3420 H     1 <1>   0.1000 
 51 H       -3.2510    -8.7830     1.0110 H     1 <1>   0.0800 
 52 H       -2.8320    -8.6470    -0.6750 H     1 <1>   0.0800 
 53 H       -5.1950    -4.3760    -1.6760 H     1 <1>   0.1000 
 54 H       -6.7280    -4.6170    -0.7940 H     1 <1>   0.1000 
 55 H       -6.1790    -2.6450     0.7100 H     1 <1>   0.1000 
 56 H       -4.6610    -2.3930    -0.1950 H     1 <1>   0.1000 
 57 H       -0.4540    -9.0550    -0.1270 H     1 <1>   0.0800 
 58 H       -0.8450    -9.1030     1.5730 H     1 <1>   0.0800 
 59 H       -2.2820   -11.0840     1.1810 H     1 <1>   0.0800 
 60 H       -1.9030   -11.0240    -0.5200 H     1 <1>   0.0800 
 61 H        0.1150   -11.4670     1.7050 H     1 <1>   0.0800 
 62 H        0.4950   -11.4060    -0.0020 H     1 <1>   0.0800 
 63 H       -0.5020   -12.6950     0.6270 H     1 <1>   0.0800 
@<TRIPOS>BOND
  1   1   2  2   
  2   2   3  am  
  3   2   4  1   
  4   3   5  1   
  5   3   6  1   
  6   4   7  ar  
  7   4   8  ar  
  8   5   9  1   
  9   5  29  1   
 10   5  30  1   
 11   6  10  1   
 12   6  31  1   
 13   6  32  1   
 14   7  11  ar  
 15   7  33  1   
 16   8  12  ar  
 17   8  34  1   
 18   9  13  1   
 19   9  35  1   
 20   9  36  1   
 21  10  13  1   
 22  10  37  1   
 23  10  38  1   
 24  11  14  ar  
 25  11  15  1   
 26  12  14  ar  
 27  12  39  1   
 28  13  16  1   
 29  13  40  1   
 30  15  17  1   
 31  15  18  1   
 32  16  41  1   
 33  16  42  1   
 34  16  43  1   
 35  17  19  1   
 36  17  44  1   
 37  17  45  1   
 38  18  20  1   
 39  18  46  1   
 40  18  47  1   
 41  19  21  1   
 42  19  22  1   
 43  19  48  1   
 44  20  21  1   
 45  20  23  1   
 46  20  49  1   
 47  22  24  1   
 48  22  25  1   
 49  22  50  1   
 50  23  26  1   
 51  23  51  1   
 52  23  52  1   
 53  24  25  1   
 54  24  53  1   
 55  24  54  1   
 56  25  55  1   
 57  25  56  1   
 58  26  27  1   
 59  26  57  1   
 60  26  58  1   
 61  27  28  1   
 62  27  59  1   
 63  27  60  1   
 64  28  61  1   
 65  28  62  1   
 66  28  63  1   
@<TRIPOS>SUBSTRUCTURE
  1 ****  11 GROUP 4 **** **** 0

# MOE 2024.06 (io_trps.svl 2023.06)
