@<TRIPOS>MOLECULE
NONAME
52 55 1 0 0 
SMALL
USER_CHARGES


@<TRIPOS>ATOM
  1 O       -2.9430     0.9540    -2.3350 O.2   1 <1>  -0.5700 
  2 C       -2.4130     0.9250    -1.2410 C.2   1 <1>   0.7150 
  3 N       -2.0780    -0.2780    -0.7110 N.am  1 <1>  -0.7300 
  4 C       -2.1700     2.1140    -0.4660 C.2   1 <1>  -0.2370 
  5 C       -2.2780    -1.6010    -1.3400 C.3   1 <1>   0.2200 
  6 N       -3.0760     3.1540    -0.3620 N.pl3 1 <1>   0.0480 
  7 C       -1.0750     2.4350     0.2870 C.2   1 <1>  -0.1810 
  8 C       -3.4380    -2.3460    -0.6930 C.3   1 <1>  -0.0800 
  9 C       -1.1160    -2.5070    -0.9580 C.3   1 <1>   0.1200 
 10 C       -2.5410     4.1380     0.4490 C.ar  1 <1>  -0.1520 
 11 C       -4.4480     3.1450    -0.9210 C.3   1 <1>   0.0160 
 12 C       -1.2960     3.6880     0.8820 C.ar  1 <1>   0.0000 
 13 C        0.2150     1.6550     0.4800 C.3   1 <1>  -0.0590 
 14 C       -2.7880    -2.9980     0.5330 C.3   1 <1>   0.1200 
 15 C       -4.6860    -1.5010    -0.3750 C.3   1 <1>  -0.0160 
 16 O       -1.4030    -2.9410     0.3360 O.3   1 <1>  -0.5600 
 17 C       -3.0040     5.4050     0.8620 C.ar  1 <1>  -0.1440 
 18 C       -0.5170     4.4620     1.7500 C.ar  1 <1>  -0.1500 
 19 C       -5.7980    -2.3660     0.1950 C.ar  1 <1>  -0.1440 
 20 C       -2.2210     6.1510     1.7150 C.ar  1 <1>  -0.1500 
 21 C       -4.3260     5.9930     0.3930 C.3   1 <1>  -0.0970 
 22 C       -0.9830     5.6840     2.1630 C.ar  1 <1>  -0.1500 
 23 C       -6.0520    -2.4340     1.5510 C.ar  1 <1>  -0.1500 
 24 C       -6.6130    -3.1290    -0.6160 C.ar  1 <1>  -0.1500 
 25 C       -7.0750    -3.2440     2.0150 C.ar  1 <1>   0.1600 
 26 C       -7.6100    -3.9060    -0.0490 C.ar  1 <1>   0.1600 
 27 N       -7.8590    -3.9830     1.2480 N.ar  1 <1>  -0.6200 
 28 H       -1.6900    -0.2960     0.2330 H     1 <1>   0.3700 
 29 H       -2.3870    -1.5030    -2.4080 H     1 <1>   0.0800 
 30 H       -3.7310    -3.1380    -1.3590 H     1 <1>   0.0800 
 31 H       -0.1680    -1.9990    -0.9710 H     1 <1>   0.0800 
 32 H       -1.0800    -3.3720    -1.5970 H     1 <1>   0.0800 
 33 H       -4.7400     2.1500    -1.1940 H     1 <1>   0.0800 
 34 H       -4.4770     3.7740    -1.7920 H     1 <1>   0.0800 
 35 H       -5.1390     3.5010    -0.1830 H     1 <1>   0.0800 
 36 H        1.0560     2.3120     0.3510 H     1 <1>   0.0800 
 37 H        0.3020     0.8620    -0.2380 H     1 <1>   0.0800 
 38 H        0.2480     1.2400     1.4710 H     1 <1>   0.0800 
 39 H       -3.0850    -4.0270     0.6420 H     1 <1>   0.0800 
 40 H       -3.0090    -2.4570     1.4360 H     1 <1>   0.0800 
 41 H       -5.0310    -1.0220    -1.2750 H     1 <1>   0.0800 
 42 H       -4.4450    -0.7240     0.3310 H     1 <1>   0.0800 
 43 H        0.4340     4.0900     2.0790 H     1 <1>   0.1500 
 44 H       -2.5480     7.1180     2.0540 H     1 <1>   0.1500 
 45 H       -4.4000     7.0300     0.6670 H     1 <1>   0.0800 
 46 H       -5.1450     5.4700     0.8490 H     1 <1>   0.0800 
 47 H       -4.4020     5.9300    -0.6760 H     1 <1>   0.0800 
 48 H       -0.4010     6.2940     2.8310 H     1 <1>   0.1500 
 49 H       -5.4660    -1.8660     2.2500 H     1 <1>   0.1500 
 50 H       -6.4820    -3.1270    -1.6830 H     1 <1>   0.1500 
 51 H       -7.2580    -3.2850     3.0760 H     1 <1>   0.1500 
 52 H       -8.2350    -4.4950    -0.6980 H     1 <1>   0.1500 
@<TRIPOS>BOND
  1   1   2  2   
  2   2   3  am  
  3   2   4  1   
  4   3   5  1   
  5   3  28  1   
  6   4   6  1   
  7   4   7  2   
  8   5   8  1   
  9   5   9  1   
 10   5  29  1   
 11   6  10  1   
 12   6  11  1   
 13   7  12  1   
 14   7  13  1   
 15   8  14  1   
 16   8  15  1   
 17   8  30  1   
 18   9  16  1   
 19   9  31  1   
 20   9  32  1   
 21  10  12  ar  
 22  10  17  ar  
 23  11  33  1   
 24  11  34  1   
 25  11  35  1   
 26  12  18  ar  
 27  13  36  1   
 28  13  37  1   
 29  13  38  1   
 30  14  16  1   
 31  14  39  1   
 32  14  40  1   
 33  15  19  1   
 34  15  41  1   
 35  15  42  1   
 36  17  20  ar  
 37  17  21  1   
 38  18  22  ar  
 39  18  43  1   
 40  19  23  ar  
 41  19  24  ar  
 42  20  22  ar  
 43  20  44  1   
 44  21  45  1   
 45  21  46  1   
 46  21  47  1   
 47  22  48  1   
 48  23  25  ar  
 49  23  49  1   
 50  24  26  ar  
 51  24  50  1   
 52  25  27  ar  
 53  25  51  1   
 54  26  27  ar  
 55  26  52  1   
@<TRIPOS>SUBSTRUCTURE
  1 ****   2 GROUP 4 **** **** 0

# MOE 2024.06 (io_trps.svl 2023.06)
