@<TRIPOS>MOLECULE
NONAME
36 37 1 0 0 
SMALL
USER_CHARGES


@<TRIPOS>ATOM
  1 O        1.0030     0.3780     1.7500 O.co2 1 <1>  -0.9000 
  2 C        1.6580     0.4760     0.7110 C.2   1 <1>   0.9060 
  3 O        1.1460     0.3930    -0.4150 O.co2 1 <1>  -0.9000 
  4 C        3.1540     0.6930     0.8200 C.3   1 <1>  -0.1860 
  5 C        3.9210    -0.3580     0.0080 C.3   1 <1>   0.2000 
  6 C        3.5770     2.1230     0.4180 C.3   1 <1>  -0.1600 
  7 O        3.5220    -0.2740    -1.3160 O.3   1 <1>  -0.6800 
  8 C        5.4430    -0.1330     0.1060 C.3   1 <1>   0.1400 
  9 C        5.0900     2.3150     0.5530 C.3   1 <1>   0.1400 
 10 N        5.8260     1.2790    -0.2290 N.am  1 <1>  -0.6600 
 11 C        6.7220     1.5350    -1.2360 C.2   1 <1>   0.5690 
 12 O        7.4750     0.6830    -1.6530 O.2   1 <1>  -0.5700 
 13 C        6.8080     2.9110    -1.8850 C.3   1 <1>   0.0440 
 14 C        7.5370     3.9550    -1.0390 C.ar  1 <1>  -0.1440 
 15 C        8.7040     3.6230    -0.3640 C.ar  1 <1>  -0.1500 
 16 C        7.0390     5.2470    -0.9430 C.ar  1 <1>  -0.1500 
 17 C        9.3600     4.5680     0.4040 C.ar  1 <1>  -0.1500 
 18 C        7.6930     6.1970    -0.1770 C.ar  1 <1>  -0.1500 
 19 C        8.8530     5.8510     0.4960 C.ar  1 <1>   0.0820 
 20 O        9.4980     6.7590     1.2440 O.3   1 <1>  -0.5330 
 21 H        3.4040     0.5520     1.8550 H     1 <1>   0.0800 
 22 H        3.6670    -1.3450     0.3550 H     1 <1>   0.0800 
 23 H        3.0660     2.8310     1.0470 H     1 <1>   0.0800 
 24 H        3.2800     2.3170    -0.5980 H     1 <1>   0.0800 
 25 H        2.5410    -0.0590    -1.2890 H     1 <1>   0.4000 
 26 H        5.9370    -0.8290    -0.5480 H     1 <1>   0.0800 
 27 H        5.7630    -0.3410     1.1110 H     1 <1>   0.0800 
 28 H        5.3700     2.2240     1.5880 H     1 <1>   0.0800 
 29 H        5.3510     3.3060     0.2330 H     1 <1>   0.0800 
 30 H        7.3250     2.8100    -2.8210 H     1 <1>   0.0800 
 31 H        5.8090     3.2360    -2.1070 H     1 <1>   0.0800 
 32 H        9.1070     2.6260    -0.4340 H     1 <1>   0.1500 
 33 H        6.1380     5.5200    -1.4650 H     1 <1>   0.1500 
 34 H       10.2630     4.3150     0.9310 H     1 <1>   0.1500 
 35 H        7.3000     7.1940    -0.1090 H     1 <1>   0.1500 
 36 H        9.0730     7.6340     1.2330 H     1 <1>   0.4500 
@<TRIPOS>BOND
  1   1   2  ar  
  2   2   3  ar  
  3   2   4  1   
  4   4   5  1   
  5   4   6  1   
  6   4  21  1   
  7   5   7  1   
  8   5   8  1   
  9   5  22  1   
 10   6   9  1   
 11   6  23  1   
 12   6  24  1   
 13   7  25  1   
 14   8  10  1   
 15   8  26  1   
 16   8  27  1   
 17   9  10  1   
 18   9  28  1   
 19   9  29  1   
 20  10  11  am  
 21  11  12  2   
 22  11  13  1   
 23  13  14  1   
 24  13  30  1   
 25  13  31  1   
 26  14  15  ar  
 27  14  16  ar  
 28  15  17  ar  
 29  15  32  1   
 30  16  18  ar  
 31  16  33  1   
 32  17  19  ar  
 33  17  34  1   
 34  18  19  ar  
 35  18  35  1   
 36  19  20  1   
 37  20  36  1   
@<TRIPOS>SUBSTRUCTURE
  1 ****   9 GROUP 4 **** **** 0

# MOE 2024.06 (io_trps.svl 2023.06)
