@<TRIPOS>MOLECULE
NONAME
48 49 1 0 0 
SMALL
USER_CHARGES


@<TRIPOS>ATOM
  1 O       -1.9230    -1.2530    -2.0610 O.2   1 <1>  -0.5700 
  2 C       -1.0490    -2.0270    -1.7390 C.2   1 <1>   0.6900 
  3 N       -1.2960    -3.3260    -1.4950 N.am  1 <1>  -0.7300 
  4 N        0.2020    -1.5850    -1.6180 N.am  1 <1>  -0.8000 
  5 C       -2.6550    -3.9510    -1.5050 C.3   1 <1>   0.2010 
  6 C       -3.0800    -4.4600    -0.1240 C.2   1 <1>   0.5690 
  7 O       -2.8130    -5.6110     0.1460 O.2   1 <1>  -0.5700 
  8 N       -3.7360    -3.6560     0.7760 N.am  1 <1>  -0.6600 
  9 C       -4.2900    -4.2310     2.0310 C.3   1 <1>   0.1400 
 10 C       -4.1270    -2.2440     0.5250 C.3   1 <1>   0.1400 
 11 C       -5.5970    -4.9950     1.7620 C.3   1 <1>   0.1400 
 12 C       -5.5750    -2.1490     0.0310 C.3   1 <1>  -0.1600 
 13 N       -6.5500    -4.3040     0.8280 N.am  1 <1>  -0.6600 
 14 C       -6.6130    -2.8160     0.9470 C.3   1 <1>   0.1400 
 15 C       -7.2920    -4.9270    -0.1600 C.2   1 <1>   0.5690 
 16 O       -7.8760    -4.2500    -0.9800 O.2   1 <1>  -0.5700 
 17 C       -7.4300    -6.4730    -0.3070 C.3   1 <1>   0.0610 
 18 C       -7.6500    -7.2390     1.0150 C.3   1 <1>  -0.1600 
 19 C       -8.7140    -6.8480    -1.0780 C.3   1 <1>  -0.1600 
 20 C       -6.2160    -7.0460    -1.0770 C.3   1 <1>  -0.2400 
 21 C       -8.4660    -8.4970     0.6920 C.3   1 <1>  -0.1600 
 22 C       -9.0510    -8.2910    -0.7040 C.3   1 <1>  -0.1600 
 23 H       -0.5750    -3.8800    -1.0350 H     1 <1>   0.3700 
 24 H        0.3880    -0.6230    -1.8980 H     1 <1>   0.3700 
 25 H        0.9970    -2.2160    -1.5910 H     1 <1>   0.3700 
 26 H       -2.6400    -4.7870    -2.1790 H     1 <1>   0.0800 
 27 H       -3.3850    -3.2560    -1.8770 H     1 <1>   0.0800 
 28 H       -4.4640    -3.4520     2.7500 H     1 <1>   0.0800 
 29 H       -3.5710    -4.9080     2.4620 H     1 <1>   0.0800 
 30 H       -3.4710    -1.7940    -0.1970 H     1 <1>   0.0800 
 31 H       -4.0190    -1.6820     1.4370 H     1 <1>   0.0800 
 32 H       -6.0950    -5.1820     2.6970 H     1 <1>   0.0800 
 33 H       -5.3080    -5.9400     1.3520 H     1 <1>   0.0800 
 34 H       -5.6530    -2.5630    -0.9580 H     1 <1>   0.0800 
 35 H       -5.8230    -1.1060    -0.0490 H     1 <1>   0.0800 
 36 H       -7.5950    -2.4820     0.6570 H     1 <1>   0.0800 
 37 H       -6.4670    -2.5160     1.9700 H     1 <1>   0.0800 
 38 H       -8.2240    -6.6200     1.6840 H     1 <1>   0.0800 
 39 H       -6.7320    -7.5140     1.4990 H     1 <1>   0.0800 
 40 H       -8.6080    -6.7180    -2.1410 H     1 <1>   0.0800 
 41 H       -9.5210    -6.2190    -0.7430 H     1 <1>   0.0800 
 42 H       -5.2950    -6.8400    -0.5670 H     1 <1>   0.0800 
 43 H       -6.1590    -6.5920    -2.0510 H     1 <1>   0.0800 
 44 H       -6.2970    -8.1100    -1.2040 H     1 <1>   0.0800 
 45 H       -9.2470    -8.6350     1.4200 H     1 <1>   0.0800 
 46 H       -7.8310    -9.3670     0.6950 H     1 <1>   0.0800 
 47 H       -8.5800    -8.9660    -1.3990 H     1 <1>   0.0800 
 48 H      -10.1140    -8.4600    -0.7220 H     1 <1>   0.0800 
@<TRIPOS>BOND
  1   1   2  2   
  2   2   3  am  
  3   2   4  am  
  4   3   5  1   
  5   3  23  1   
  6   4  24  1   
  7   4  25  1   
  8   5   6  1   
  9   5  26  1   
 10   5  27  1   
 11   6   7  2   
 12   6   8  am  
 13   8   9  1   
 14   8  10  1   
 15   9  11  1   
 16   9  28  1   
 17   9  29  1   
 18  10  12  1   
 19  10  30  1   
 20  10  31  1   
 21  11  13  1   
 22  11  32  1   
 23  11  33  1   
 24  12  14  1   
 25  12  34  1   
 26  12  35  1   
 27  13  14  1   
 28  13  15  am  
 29  14  36  1   
 30  14  37  1   
 31  15  16  2   
 32  15  17  1   
 33  17  18  1   
 34  17  19  1   
 35  17  20  1   
 36  18  21  1   
 37  18  38  1   
 38  18  39  1   
 39  19  22  1   
 40  19  40  1   
 41  19  41  1   
 42  20  42  1   
 43  20  43  1   
 44  20  44  1   
 45  21  22  1   
 46  21  45  1   
 47  21  46  1   
 48  22  47  1   
 49  22  48  1   
@<TRIPOS>SUBSTRUCTURE
  1 ****  13 GROUP 4 **** **** 0

# MOE 2024.06 (io_trps.svl 2023.06)
