@<TRIPOS>MOLECULE
NONAME
57 59 1 0 0 
SMALL
USER_CHARGES


@<TRIPOS>ATOM
  1 O       -0.6220     0.6610     0.2620 O.2   1 <1>  -0.5700 
  2 C        0.2210    -0.1420    -0.0920 C.2   1 <1>   0.5440 
  3 N       -0.1470    -1.4610    -0.2710 N.am  1 <1>  -0.6600 
  4 C        1.5770     0.3190    -0.3290 C.ar  1 <1>   0.0860 
  5 C        0.6100    -2.4230    -1.1180 C.3   1 <1>   0.1400 
  6 C       -1.4270    -1.9910     0.2740 C.3   1 <1>   0.1400 
  7 C        2.6760    -0.3220     0.2390 C.ar  1 <1>  -0.1500 
  8 C        1.8240     1.4290    -1.1340 C.ar  1 <1>  -0.1500 
  9 C        0.9060    -3.6940    -0.3160 C.3   1 <1>  -0.1600 
 10 C       -1.1470    -3.2590     1.0850 C.3   1 <1>  -0.1600 
 11 C        3.9710     0.1020    -0.0010 C.ar  1 <1>   0.0820 
 12 C        3.1130     1.8690    -1.3800 C.ar  1 <1>  -0.1500 
 13 C       -0.3860    -4.3100     0.2530 C.3   1 <1>  -0.0190 
 14 O        4.9640    -0.6050     0.5910 O.3   1 <1>  -0.3630 
 15 C        4.1900     1.2070    -0.8190 C.ar  1 <1>  -0.1500 
 16 C       -0.0790    -5.5750     1.0710 C.2   1 <1>   0.5690 
 17 C        6.3140    -0.2180     0.4720 C.3   1 <1>   0.0400 
 18 O        0.4040    -5.4170     2.1690 O.2   1 <1>  -0.5700 
 19 N       -0.3190    -6.8430     0.5910 N.am  1 <1>  -0.6600 
 20 C        0.0100    -8.0030     1.4750 C.3   1 <1>   0.3200 
 21 C       -0.6840    -7.1450    -0.8370 C.3   1 <1>   0.1400 
 22 C       -0.9070    -9.1840     1.2240 C.2   1 <1>  -0.3320 
 23 C       -2.2020    -7.2970    -1.0610 C.3   1 <1>   0.1200 
 24 N       -0.5850   -10.2570     0.4750 N.pl3 1 <1>   0.0330 
 25 C       -2.1580    -9.4050     1.6830 C.2   1 <1>   0.0770 
 26 O       -2.8950    -6.3060    -0.3840 O.3   1 <1>  -0.6800 
 27 C       -1.6730   -11.0550     0.5150 C.2   1 <1>   0.0060 
 28 N       -2.6380   -10.5760     1.2260 N.2   1 <1>  -0.5650 
 29 C       -1.7430   -12.3850    -0.2040 C.3   1 <1>  -0.0600 
 30 H        1.5290    -1.9900    -1.4720 H     1 <1>   0.0800 
 31 H        0.0110    -2.6680    -1.9780 H     1 <1>   0.0800 
 32 H       -2.0940    -2.2110    -0.5420 H     1 <1>   0.0800 
 33 H       -1.9010    -1.2610     0.9070 H     1 <1>   0.0800 
 34 H        2.5170    -1.1680     0.8840 H     1 <1>   0.1500 
 35 H        0.9860     1.9490    -1.5660 H     1 <1>   0.1500 
 36 H        1.5780    -3.4550     0.4890 H     1 <1>   0.0800 
 37 H        1.3990    -4.4070    -0.9520 H     1 <1>   0.0800 
 38 H       -2.0790    -3.6730     1.4240 H     1 <1>   0.0800 
 39 H       -0.5730    -2.9890     1.9560 H     1 <1>   0.0800 
 40 H        3.2760     2.7280    -2.0080 H     1 <1>   0.1500 
 41 H       -1.0230    -4.5550    -0.5720 H     1 <1>   0.0800 
 42 H        5.1810     1.5630    -1.0250 H     1 <1>   0.1500 
 43 H        6.9110    -0.9060     1.0440 H     1 <1>   0.0800 
 44 H        6.4280     0.7770     0.8650 H     1 <1>   0.0800 
 45 H        6.6000    -0.2600    -0.5640 H     1 <1>   0.0800 
 46 H       -0.0970    -7.7150     2.5070 H     1 <1>   0.0800 
 47 H        1.0370    -8.2860     1.3210 H     1 <1>   0.0800 
 48 H       -0.1930    -8.0470    -1.1530 H     1 <1>   0.0800 
 49 H       -0.3170    -6.3670    -1.4810 H     1 <1>   0.0800 
 50 H       -2.5510    -8.2510    -0.7080 H     1 <1>   0.0800 
 51 H       -2.4380    -7.2170    -2.1080 H     1 <1>   0.0800 
 52 H        0.2940   -10.4480    -0.0120 H     1 <1>   0.2700 
 53 H       -2.7510    -8.7730     2.3240 H     1 <1>   0.1500 
 54 H       -2.6840    -6.3810     0.5700 H     1 <1>   0.4000 
 55 H       -0.9790   -13.0450     0.1640 H     1 <1>   0.0800 
 56 H       -1.6170   -12.2430    -1.2610 H     1 <1>   0.0800 
 57 H       -2.7020   -12.8400    -0.0300 H     1 <1>   0.0800 
@<TRIPOS>BOND
  1   1   2  2   
  2   2   3  am  
  3   2   4  1   
  4   3   5  1   
  5   3   6  1   
  6   4   7  ar  
  7   4   8  ar  
  8   5   9  1   
  9   5  30  1   
 10   5  31  1   
 11   6  10  1   
 12   6  32  1   
 13   6  33  1   
 14   7  11  ar  
 15   7  34  1   
 16   8  12  ar  
 17   8  35  1   
 18   9  13  1   
 19   9  36  1   
 20   9  37  1   
 21  10  13  1   
 22  10  38  1   
 23  10  39  1   
 24  11  14  1   
 25  11  15  ar  
 26  12  15  ar  
 27  12  40  1   
 28  13  16  1   
 29  13  41  1   
 30  14  17  1   
 31  15  42  1   
 32  16  18  2   
 33  16  19  am  
 34  17  43  1   
 35  17  44  1   
 36  17  45  1   
 37  19  20  1   
 38  19  21  1   
 39  20  22  1   
 40  20  46  1   
 41  20  47  1   
 42  21  23  1   
 43  21  48  1   
 44  21  49  1   
 45  22  24  1   
 46  22  25  2   
 47  23  26  1   
 48  23  50  1   
 49  23  51  1   
 50  24  27  1   
 51  24  52  1   
 52  25  28  1   
 53  25  53  1   
 54  26  54  1   
 55  27  28  2   
 56  27  29  1   
 57  29  55  1   
 58  29  56  1   
 59  29  57  1   
@<TRIPOS>SUBSTRUCTURE
  1 ****  13 GROUP 4 **** **** 0

# MOE 2024.06 (io_trps.svl 2023.06)
