@<TRIPOS>MOLECULE
NONAME
48 50 1 0 0 
SMALL
USER_CHARGES


@<TRIPOS>ATOM
  1 S       -1.6190    -0.9870     0.2990 S.3   1 <1>  -0.0800 
  2 C       -0.8860     0.4710    -0.3490 C.2   1 <1>  -0.1400 
  3 C       -2.3770    -1.3530    -1.2430 C.2   1 <1>  -0.1400 
  4 C       -1.2230     0.6240    -1.6440 C.2   1 <1>  -0.1500 
  5 C       -0.0300     1.2930     0.6050 C.3   1 <1>   0.1000 
  6 C       -2.0680    -0.4120    -2.1550 C.2   1 <1>  -0.1500 
  7 C       -3.2290    -2.6020    -1.3060 C.3   1 <1>   0.5230 
  8 C        0.5520     2.5620    -0.0110 C.3   1 <1>  -0.1600 
  9 C        1.2080     0.5410     1.0910 C.3   1 <1>  -0.1600 
 10 N       -4.3240    -2.4760    -0.2990 N.4   1 <1>  -0.9590 
 11 C        1.7140     2.9380     0.9080 C.3   1 <1>  -0.1600 
 12 C        2.2100     1.6200     1.5150 C.3   1 <1>  -0.1600 
 13 C       -5.1150    -3.7420    -0.2020 C.3   1 <1>   0.5240 
 14 C       -5.1870    -1.2800    -0.5690 C.3   1 <1>   0.3430 
 15 C       -4.2680    -4.8650     0.3830 C.2   1 <1>   0.0460 
 16 C       -5.9870    -0.8410     0.6660 C.3   1 <1>   0.1200 
 17 N       -3.3150    -5.4690    -0.3530 N.2   1 <1>  -0.5650 
 18 C       -4.3250    -5.4010     1.6230 C.2   1 <1>  -0.3020 
 19 O       -6.9290     0.0810     0.2480 O.3   1 <1>  -0.6800 
 20 C       -2.8150    -6.3560     0.4420 C.2   1 <1>   0.0060 
 21 N       -3.3880    -6.3670     1.6650 N.pl3 1 <1>   0.0330 
 22 C       -1.6980    -7.3040     0.0570 C.3   1 <1>  -0.0600 
 23 H       -0.9090     1.4340    -2.2800 H     1 <1>   0.1500 
 24 H       -0.6230     1.5710     1.4610 H     1 <1>   0.0800 
 25 H       -2.3920    -0.3850    -3.1820 H     1 <1>   0.1500 
 26 H       -2.6010    -3.4480    -1.0840 H     1 <1>   0.0800 
 27 H       -3.6360    -2.7260    -2.2950 H     1 <1>   0.0800 
 28 H       -0.1790     3.3480    -0.0840 H     1 <1>   0.0800 
 29 H        0.9410     2.3450    -0.9910 H     1 <1>   0.0800 
 30 H        1.6220    -0.0250     0.2730 H     1 <1>   0.0800 
 31 H        0.9750    -0.1310     1.8980 H     1 <1>   0.0800 
 32 H       -3.8280    -2.3490     0.5910 H     1 <1>   0.4500 
 33 H        1.3570     3.5810     1.6950 H     1 <1>   0.0800 
 34 H        2.4930     3.4480     0.3680 H     1 <1>   0.0800 
 35 H        3.1950     1.3770     1.1540 H     1 <1>   0.0800 
 36 H        2.2440     1.7010     2.5880 H     1 <1>   0.0800 
 37 H       -5.4710    -4.0390    -1.1750 H     1 <1>   0.0800 
 38 H       -5.9670    -3.5940     0.4390 H     1 <1>   0.0800 
 39 H       -5.8720    -1.5020    -1.3700 H     1 <1>   0.0800 
 40 H       -4.5760    -0.4460    -0.8730 H     1 <1>   0.0800 
 41 H       -5.3450    -0.3650     1.3870 H     1 <1>   0.0800 
 42 H       -6.5150    -1.6630     1.1160 H     1 <1>   0.0800 
 43 H       -4.9600    -5.1710     2.4610 H     1 <1>   0.1500 
 44 H       -7.4240     0.4660     1.0030 H     1 <1>   0.4000 
 45 H       -3.1540    -6.9880     2.4470 H     1 <1>   0.2700 
 46 H       -1.4010    -7.1260    -0.9620 H     1 <1>   0.0800 
 47 H       -2.0300    -8.3230     0.1430 H     1 <1>   0.0800 
 48 H       -0.8460    -7.1530     0.6940 H     1 <1>   0.0800 
@<TRIPOS>BOND
  1   1   2  1   
  2   1   3  1   
  3   2   4  2   
  4   2   5  1   
  5   3   6  2   
  6   3   7  1   
  7   4   6  1   
  8   4  23  1   
  9   5   8  1   
 10   5   9  1   
 11   5  24  1   
 12   6  25  1   
 13   7  10  1   
 14   7  26  1   
 15   7  27  1   
 16   8  11  1   
 17   8  28  1   
 18   8  29  1   
 19   9  12  1   
 20   9  30  1   
 21   9  31  1   
 22  10  13  1   
 23  10  14  1   
 24  10  32  1   
 25  11  12  1   
 26  11  33  1   
 27  11  34  1   
 28  12  35  1   
 29  12  36  1   
 30  13  15  1   
 31  13  37  1   
 32  13  38  1   
 33  14  16  1   
 34  14  39  1   
 35  14  40  1   
 36  15  17  1   
 37  15  18  2   
 38  16  19  1   
 39  16  41  1   
 40  16  42  1   
 41  17  20  2   
 42  18  21  1   
 43  18  43  1   
 44  19  44  1   
 45  20  21  1   
 46  20  22  1   
 47  21  45  1   
 48  22  46  1   
 49  22  47  1   
 50  22  48  1   
@<TRIPOS>SUBSTRUCTURE
  1 ****   1 GROUP 4 **** **** 0

# MOE 2024.06 (io_trps.svl 2023.06)
