@<TRIPOS>MOLECULE
NONAME
51 54 1 0 0 
SMALL
USER_CHARGES


@<TRIPOS>ATOM
  1 O       -0.2070     1.6140     2.3980 O.2   1 <1>  -0.5700 
  2 C       -0.4620     2.1250     1.3230 C.2   1 <1>   0.5440 
  3 N       -1.6550     1.8090     0.7010 N.am  1 <1>  -0.6600 
  4 C        0.4810     3.0700     0.7570 C.ar  1 <1>   0.0860 
  5 C       -2.2940     2.6510    -0.3630 C.3   1 <1>   0.1400 
  6 C       -2.5280     0.7050     1.1920 C.3   1 <1>   0.1400 
  7 C        0.9090     2.9820    -0.5660 C.ar  1 <1>  -0.1500 
  8 C        1.0030     4.1040     1.5290 C.ar  1 <1>  -0.1500 
  9 C       -3.6130     3.2680     0.1410 C.3   1 <1>   0.1440 
 10 C       -3.8460     1.2810     1.7230 C.3   1 <1>  -0.1600 
 11 C        1.7960     3.8900    -1.1140 C.ar  1 <1>   0.0820 
 12 C        1.8870     5.0270     1.0010 C.ar  1 <1>  -0.1500 
 13 C       -4.2370     4.0600    -0.9940 C.ar  1 <1>   0.1660 
 14 C       -4.5480     2.1570     0.6700 C.3   1 <1>  -0.1600 
 15 C       -3.3530     4.3670     1.2070 C.3   1 <1>  -0.1600 
 16 O        2.1110     3.6660    -2.4210 O.3   1 <1>  -0.3630 
 17 C        2.2910     4.9450    -0.3290 C.ar  1 <1>   0.0820 
 18 N       -4.8400     3.5480    -2.0410 N.ar  1 <1>  -0.6200 
 19 C       -4.0830     5.4030    -0.8090 C.ar  1 <1>  -0.1430 
 20 C       -3.3370     5.7150     0.4640 C.3   1 <1>  -0.0170 
 21 C        3.4120     3.9210    -2.9040 C.3   1 <1>   0.0400 
 22 O        3.1320     5.8650    -0.8750 O.3   1 <1>  -0.3630 
 23 C       -5.2880     4.4520    -2.8990 C.ar  1 <1>   0.7200 
 24 C       -4.5990     6.2450    -1.7650 C.ar  1 <1>   0.1600 
 25 C        3.6480     6.9550    -0.1430 C.3   1 <1>   0.0400 
 26 N       -5.2180     5.7740    -2.8250 N.ar  1 <1>  -0.6200 
 27 N       -5.9190     3.9680    -3.9700 N.pl3 1 <1>  -0.9000 
 28 H       -2.4970     2.0320    -1.2200 H     1 <1>   0.0800 
 29 H       -1.6400     3.4420    -0.6800 H     1 <1>   0.0800 
 30 H       -2.0360     0.1450     1.9690 H     1 <1>   0.0800 
 31 H       -2.7260     0.0310     0.3770 H     1 <1>   0.0800 
 32 H        0.5430     2.1810    -1.1820 H     1 <1>   0.1500 
 33 H        0.7040     4.1760     2.5610 H     1 <1>   0.1500 
 34 H       -3.6390     1.8560     2.6090 H     1 <1>   0.0800 
 35 H       -4.4940     0.4710     2.0070 H     1 <1>   0.0800 
 36 H        2.2480     5.8040     1.6480 H     1 <1>   0.1500 
 37 H       -4.8430     1.5320    -0.1550 H     1 <1>   0.0800 
 38 H       -5.4430     2.5890     1.0810 H     1 <1>   0.0800 
 39 H       -2.4450     4.2060     1.7590 H     1 <1>   0.0800 
 40 H       -4.1700     4.3850     1.9070 H     1 <1>   0.0800 
 41 H       -2.3280     6.0080     0.2300 H     1 <1>   0.0800 
 42 H       -3.8220     6.4870     1.0350 H     1 <1>   0.0800 
 43 H        3.5600     3.3360    -3.7930 H     1 <1>   0.0800 
 44 H        4.1290     3.6380    -2.1530 H     1 <1>   0.0800 
 45 H        3.4970     4.9660    -3.1390 H     1 <1>   0.0800 
 46 H       -4.5040     7.3120    -1.6610 H     1 <1>   0.1500 
 47 H        4.2760     7.5310    -0.7990 H     1 <1>   0.0800 
 48 H        4.2290     6.5790     0.6810 H     1 <1>   0.0800 
 49 H        2.8300     7.5620     0.2040 H     1 <1>   0.0800 
 50 H       -6.5200     4.6300    -4.4520 H     1 <1>   0.4000 
 51 H       -6.2590     3.0160    -3.8790 H     1 <1>   0.4000 
@<TRIPOS>BOND
  1   1   2  2   
  2   2   3  am  
  3   2   4  1   
  4   3   5  1   
  5   3   6  1   
  6   4   7  ar  
  7   4   8  ar  
  8   5   9  1   
  9   5  28  1   
 10   5  29  1   
 11   6  10  1   
 12   6  30  1   
 13   6  31  1   
 14   7  11  ar  
 15   7  32  1   
 16   8  12  ar  
 17   8  33  1   
 18   9  13  1   
 19   9  14  1   
 20   9  15  1   
 21  10  14  1   
 22  10  34  1   
 23  10  35  1   
 24  11  16  1   
 25  11  17  ar  
 26  12  17  ar  
 27  12  36  1   
 28  13  18  ar  
 29  13  19  ar  
 30  14  37  1   
 31  14  38  1   
 32  15  20  1   
 33  15  39  1   
 34  15  40  1   
 35  16  21  1   
 36  17  22  1   
 37  18  23  ar  
 38  19  20  1   
 39  19  24  ar  
 40  20  41  1   
 41  20  42  1   
 42  21  43  1   
 43  21  44  1   
 44  21  45  1   
 45  22  25  1   
 46  23  26  ar  
 47  23  27  1   
 48  24  26  ar  
 49  24  46  1   
 50  25  47  1   
 51  25  48  1   
 52  25  49  1   
 53  27  50  1   
 54  27  51  1   
@<TRIPOS>SUBSTRUCTURE
  1 ****   5 GROUP 4 **** **** 0

# MOE 2024.06 (io_trps.svl 2023.06)
