@<TRIPOS>MOLECULE
NONAME
56 59 1 0 0 
SMALL
USER_CHARGES


@<TRIPOS>ATOM
  1 O        1.0030     0.7180    -0.3200 O.3   1 <1>  -0.5600 
  2 C        2.2050     0.0990     0.0530 C.3   1 <1>   0.3440 
  3 C        1.0940     2.0900    -0.5990 C.3   1 <1>   0.2000 
  4 C        1.9590    -1.3780     0.3270 C.ar  1 <1>  -0.1440 
  5 C        2.7670     0.7710     1.3260 C.3   1 <1>   0.3430 
  6 C       -0.2740     2.5940    -1.1130 C.3   1 <1>  -0.0800 
  7 C        1.5660     2.8450     0.6640 C.3   1 <1>   0.3430 
  8 C        2.9470    -2.3050     0.0270 C.ar  1 <1>  -0.1500 
  9 C        0.7680    -1.8200     0.8900 C.ar  1 <1>  -0.1500 
 10 N        2.8430     2.2680     1.2050 N.4   1 <1>  -0.9590 
 11 C       -1.4150     2.3940    -0.1000 C.3   1 <1>  -0.2400 
 12 C       -0.6450     1.9120    -2.4390 C.3   1 <1>  -0.2400 
 13 C        2.7530    -3.6490     0.2940 C.ar  1 <1>  -0.1500 
 14 C        0.5730    -3.1630     1.1560 C.ar  1 <1>  -0.1500 
 15 C        3.2940     2.9510     2.4350 C.3   1 <1>   0.5240 
 16 C        1.5660    -4.0790     0.8600 C.ar  1 <1>  -0.1500 
 17 C        3.8520     4.2950     2.0250 C.2   1 <1>  -0.1810 
 18 C        4.4480     4.6370     0.8500 C.2   1 <1>  -0.0260 
 19 C        3.8710     5.4490     2.7900 C.2   1 <1>   0.1390 
 20 N        4.6930     3.8820    -0.2820 N.2   1 <1>  -0.5760 
 21 N        4.7990     5.9650     0.9730 N.pl3 1 <1>   0.6010 
 22 N        4.4250     6.4530     2.1750 N.2   1 <1>  -0.7070 
 23 C        5.3010     4.4890    -1.2510 C.2   1 <1>   0.3750 
 24 C        5.4460     6.5980    -0.0790 C.2   1 <1>  -0.1690 
 25 C        5.6980     5.8560    -1.1890 C.2   1 <1>  -0.1360 
 26 C        5.6080     3.7190    -2.5170 C.3   1 <1>  -0.1790 
 27 C        5.8310     8.0640     0.0780 C.3   1 <1>  -0.1020 
 28 H        2.8980     0.2020    -0.7630 H     1 <1>   0.0800 
 29 H        1.8200     2.2230    -1.3830 H     1 <1>   0.0800 
 30 H        3.7430     0.3640     1.5300 H     1 <1>   0.0800 
 31 H        2.1220     0.5040     2.1470 H     1 <1>   0.0800 
 32 H       -0.1860     3.6490    -1.3110 H     1 <1>   0.0800 
 33 H        0.7930     2.7810     1.4100 H     1 <1>   0.0800 
 34 H        1.7100     3.8850     0.4190 H     1 <1>   0.0800 
 35 H        3.8770    -1.9980    -0.4200 H     1 <1>   0.1500 
 36 H       -0.0200    -1.1230     1.1180 H     1 <1>   0.1500 
 37 H        3.5800     2.5220     0.5140 H     1 <1>   0.4500 
 38 H       -1.5300     1.3510     0.1400 H     1 <1>   0.0800 
 39 H       -2.3440     2.7430    -0.5180 H     1 <1>   0.0800 
 40 H       -1.2400     2.9420     0.8080 H     1 <1>   0.0800 
 41 H       -0.7720     0.8520    -2.2980 H     1 <1>   0.0800 
 42 H        0.1240     2.0670    -3.1750 H     1 <1>   0.0800 
 43 H       -1.5650     2.3140    -2.8250 H     1 <1>   0.0800 
 44 H        3.5220    -4.3640     0.0580 H     1 <1>   0.1500 
 45 H       -0.3530    -3.4980     1.5910 H     1 <1>   0.1500 
 46 H        2.4750     3.0700     3.1250 H     1 <1>   0.0800 
 47 H        4.0740     2.3810     2.9130 H     1 <1>   0.0800 
 48 H        1.4140    -5.1250     1.0660 H     1 <1>   0.1500 
 49 H        3.4790     5.5410     3.7920 H     1 <1>   0.1500 
 50 H        6.1980     6.2740    -2.0450 H     1 <1>   0.1500 
 51 H        5.1160     4.1790    -3.3540 H     1 <1>   0.0800 
 52 H        5.2700     2.7020    -2.4340 H     1 <1>   0.0800 
 53 H        6.6680     3.7140    -2.6920 H     1 <1>   0.0800 
 54 H        6.4940     8.1830     0.9180 H     1 <1>   0.0800 
 55 H        4.9520     8.6600     0.2540 H     1 <1>   0.0800 
 56 H        6.3250     8.4300    -0.8040 H     1 <1>   0.0800 
@<TRIPOS>BOND
  1   1   2  1   
  2   1   3  1   
  3   2   4  1   
  4   2   5  1   
  5   2  28  1   
  6   3   6  1   
  7   3   7  1   
  8   3  29  1   
  9   4   8  ar  
 10   4   9  ar  
 11   5  10  1   
 12   5  30  1   
 13   5  31  1   
 14   6  11  1   
 15   6  12  1   
 16   6  32  1   
 17   7  10  1   
 18   7  33  1   
 19   7  34  1   
 20   8  13  ar  
 21   8  35  1   
 22   9  14  ar  
 23   9  36  1   
 24  10  15  1   
 25  10  37  1   
 26  11  38  1   
 27  11  39  1   
 28  11  40  1   
 29  12  41  1   
 30  12  42  1   
 31  12  43  1   
 32  13  16  ar  
 33  13  44  1   
 34  14  16  ar  
 35  14  45  1   
 36  15  17  1   
 37  15  46  1   
 38  15  47  1   
 39  16  48  1   
 40  17  18  2   
 41  17  19  1   
 42  18  20  1   
 43  18  21  1   
 44  19  22  2   
 45  19  49  1   
 46  20  23  2   
 47  21  22  1   
 48  21  24  1   
 49  23  25  1   
 50  23  26  1   
 51  24  25  2   
 52  24  27  1   
 53  25  50  1   
 54  26  51  1   
 55  26  52  1   
 56  26  53  1   
 57  27  54  1   
 58  27  55  1   
 59  27  56  1   
@<TRIPOS>SUBSTRUCTURE
  1 ****  10 GROUP 4 **** **** 0

# MOE 2024.06 (io_trps.svl 2023.06)
