@<TRIPOS>MOLECULE
NONAME
48 50 1 0 0 
SMALL
USER_CHARGES


@<TRIPOS>ATOM
  1 CL       0.5150     0.0520    -0.9130 Cl    1 <1>  -0.1770 
  2 C        0.2810    -1.6630    -0.6870 C.ar  1 <1>   0.1770 
  3 C        1.0010    -2.3210     0.2900 C.ar  1 <1>  -0.1500 
  4 C       -0.6210    -2.3380    -1.4910 C.ar  1 <1>  -0.1500 
  5 C        0.7860    -3.6770     0.4380 C.ar  1 <1>   0.1900 
  6 C       -0.8160    -3.7010    -1.3210 C.ar  1 <1>  -0.1500 
  7 F        1.4680    -4.3110     1.3600 F     1 <1>  -0.1900 
  8 C       -0.1150    -4.4060    -0.3420 C.ar  1 <1>   0.1170 
  9 N       -0.2570    -5.7920    -0.1090 N.am  1 <1>  -0.5470 
 10 C       -1.2060    -6.6880    -0.5310 C.2   1 <1>   0.5690 
 11 O       -2.1430    -6.3890    -1.2320 O.2   1 <1>  -0.5700 
 12 C       -1.1160    -8.1610    -0.0870 C.3   1 <1>   0.4040 
 13 N       -2.4280    -8.9060    -0.2020 N.4   1 <1>  -0.9590 
 14 C       -3.4370    -8.4100     0.7790 C.3   1 <1>   0.3430 
 15 C       -2.2630   -10.3840    -0.1530 C.3   1 <1>   0.3430 
 16 C       -4.7910    -9.0540     0.4840 C.3   1 <1>  -0.1600 
 17 C       -3.6000   -11.0640    -0.4510 C.3   1 <1>  -0.1600 
 18 C       -4.7230   -10.5910     0.4920 C.3   1 <1>  -0.0800 
 19 C       -6.0940   -11.1690     0.0890 C.3   1 <1>  -0.1600 
 20 C       -6.1900   -12.6970     0.2350 C.3   1 <1>   0.0960 
 21 N       -7.4950   -13.1760    -0.2550 N.pl3 1 <1>   0.3140 
 22 N       -7.7150   -13.3950    -1.5630 N.2   1 <1>  -0.7070 
 23 C       -8.5950   -13.4400     0.4790 C.2   1 <1>  -0.3020 
 24 C       -8.9490   -13.7950    -1.6300 C.2   1 <1>   0.1390 
 25 C       -9.5540   -13.8430    -0.3810 C.2   1 <1>  -0.1500 
 26 H        1.7010    -1.7940     0.9110 H     1 <1>   0.1500 
 27 H       -1.1650    -1.7980    -2.2460 H     1 <1>   0.1500 
 28 H       -1.5170    -4.2000    -1.9640 H     1 <1>   0.1500 
 29 H        0.4680    -6.1370     0.5260 H     1 <1>   0.3700 
 30 H       -0.7650    -8.1990     0.9290 H     1 <1>   0.0800 
 31 H       -0.3820    -8.6400    -0.7130 H     1 <1>   0.0800 
 32 H       -2.8070    -8.6480    -1.1300 H     1 <1>   0.4500 
 33 H       -3.5330    -7.3370     0.7020 H     1 <1>   0.0800 
 34 H       -3.1300    -8.6570     1.7820 H     1 <1>   0.0800 
 35 H       -1.9190   -10.6800     0.8260 H     1 <1>   0.0800 
 36 H       -1.5330   -10.7000    -0.8810 H     1 <1>   0.0800 
 37 H       -5.1440    -8.7020    -0.4700 H     1 <1>   0.0800 
 38 H       -5.4970    -8.7220     1.2260 H     1 <1>   0.0800 
 39 H       -3.4600   -12.1260    -0.3530 H     1 <1>   0.0800 
 40 H       -3.8710   -10.8710    -1.4750 H     1 <1>   0.0800 
 41 H       -4.4960   -10.9150     1.4960 H     1 <1>   0.0800 
 42 H       -6.3060   -10.9060    -0.9350 H     1 <1>   0.0800 
 43 H       -6.8590   -10.7270     0.7050 H     1 <1>   0.0800 
 44 H       -6.0790   -12.9900     1.2620 H     1 <1>   0.0800 
 45 H       -5.4340   -13.1860    -0.3500 H     1 <1>   0.0800 
 46 H       -8.6350   -13.3290     1.5460 H     1 <1>   0.1500 
 47 H       -9.4370   -14.0560    -2.5540 H     1 <1>   0.1500 
 48 H      -10.5670   -14.1410    -0.1770 H     1 <1>   0.1500 
@<TRIPOS>BOND
  1   1   2  1   
  2   2   3  ar  
  3   2   4  ar  
  4   3   5  ar  
  5   3  26  1   
  6   4   6  ar  
  7   4  27  1   
  8   5   7  1   
  9   5   8  ar  
 10   6   8  ar  
 11   6  28  1   
 12   8   9  1   
 13   9  10  am  
 14   9  29  1   
 15  10  11  2   
 16  10  12  1   
 17  12  13  1   
 18  12  30  1   
 19  12  31  1   
 20  13  14  1   
 21  13  15  1   
 22  13  32  1   
 23  14  16  1   
 24  14  33  1   
 25  14  34  1   
 26  15  17  1   
 27  15  35  1   
 28  15  36  1   
 29  16  18  1   
 30  16  37  1   
 31  16  38  1   
 32  17  18  1   
 33  17  39  1   
 34  17  40  1   
 35  18  19  1   
 36  18  41  1   
 37  19  20  1   
 38  19  42  1   
 39  19  43  1   
 40  20  21  1   
 41  20  44  1   
 42  20  45  1   
 43  21  22  1   
 44  21  23  1   
 45  22  24  2   
 46  23  25  2   
 47  23  46  1   
 48  24  25  1   
 49  24  47  1   
 50  25  48  1   
@<TRIPOS>SUBSTRUCTURE
  1 ****  13 GROUP 4 **** **** 0

# MOE 2024.06 (io_trps.svl 2023.06)
