@<TRIPOS>MOLECULE
NONAME
40 41 1 0 0 
SMALL
USER_CHARGES


@<TRIPOS>ATOM
  1 N        0.1620    -0.4150     0.5100 N.ar  1 <1>  -0.6200 
  2 C        0.3790    -1.6930     0.3050 C.ar  1 <1>   0.7710 
  3 C        1.0040     0.4510    -0.0240 C.ar  1 <1>   0.4100 
  4 N        1.4030    -2.1530    -0.4290 N.ar  1 <1>  -0.1790 
  5 N       -0.4920    -2.5300     0.8820 N.pl3 1 <1>  -0.8690 
  6 N        0.7720     1.7590     0.2540 N.pl3 1 <1>  -0.8380 
  7 C        2.0850     0.0340    -0.8430 C.ar  1 <1>  -0.1430 
  8 C        2.2680    -1.2980    -1.0260 C.ar  1 <1>   0.2110 
  9 C       -0.6500    -4.0010     0.9060 C.3   1 <1>   0.2090 
 10 C       -0.6120     2.3140     0.2820 C.3   1 <1>   0.1290 
 11 C        1.7830     2.6330     0.9110 C.3   1 <1>   0.1290 
 12 C        3.0030     1.0370    -1.5400 C.3   1 <1>  -0.0970 
 13 C       -2.0940    -4.3350     0.5330 C.3   1 <1>  -0.1600 
 14 C       -2.3580    -5.8470     0.5940 C.3   1 <1>   0.0960 
 15 N       -3.7550    -6.1350     0.2210 N.pl3 1 <1>   0.0480 
 16 C       -4.8040    -6.3680     1.0420 C.2   1 <1>   0.0360 
 17 C       -4.2680    -6.2240    -1.0200 C.2   1 <1>  -0.3020 
 18 N       -5.9180    -6.5900     0.4240 N.2   1 <1>  -0.5650 
 19 C       -5.5830    -6.5000    -0.8760 C.2   1 <1>   0.0770 
 20 H        1.4820    -3.1590    -0.5160 H     1 <1>   0.4570 
 21 H       -1.2070    -2.0300     1.4270 H     1 <1>   0.4000 
 22 H        3.0650    -1.7000    -1.6300 H     1 <1>   0.1500 
 23 H       -0.4380    -4.3620     1.9010 H     1 <1>   0.0800 
 24 H        0.0260    -4.4750     0.2160 H     1 <1>   0.0800 
 25 H       -1.2810     1.6800    -0.2730 H     1 <1>   0.0800 
 26 H       -0.6230     3.2950    -0.1610 H     1 <1>   0.0800 
 27 H       -0.9590     2.3790     1.2990 H     1 <1>   0.0800 
 28 H        2.6630     2.0670     1.1660 H     1 <1>   0.0800 
 29 H        1.3760     3.0470     1.8180 H     1 <1>   0.0800 
 30 H        2.0560     3.4370     0.2500 H     1 <1>   0.0800 
 31 H        2.4190     1.8320    -1.9730 H     1 <1>   0.0800 
 32 H        3.5660     0.5720    -2.3290 H     1 <1>   0.0800 
 33 H        3.6970     1.4640    -0.8380 H     1 <1>   0.0800 
 34 H       -2.2950    -3.9820    -0.4640 H     1 <1>   0.0800 
 35 H       -2.7620    -3.8410     1.2190 H     1 <1>   0.0800 
 36 H       -2.1860    -6.2190     1.5880 H     1 <1>   0.0800 
 37 H       -1.7120    -6.3720    -0.0870 H     1 <1>   0.0800 
 38 H       -4.7050    -6.3640     2.1130 H     1 <1>   0.1500 
 39 H       -3.6950    -6.0920    -1.9180 H     1 <1>   0.1500 
 40 H       -6.3180    -6.6430    -1.6510 H     1 <1>   0.1500 
@<TRIPOS>BOND
  1   1   2  ar  
  2   1   3  ar  
  3   2   4  ar  
  4   2   5  1   
  5   3   6  1   
  6   3   7  ar  
  7   4   8  ar  
  8   4  20  1   
  9   5   9  1   
 10   5  21  1   
 11   6  10  1   
 12   6  11  1   
 13   7   8  ar  
 14   7  12  1   
 15   8  22  1   
 16   9  13  1   
 17   9  23  1   
 18   9  24  1   
 19  10  25  1   
 20  10  26  1   
 21  10  27  1   
 22  11  28  1   
 23  11  29  1   
 24  11  30  1   
 25  12  31  1   
 26  12  32  1   
 27  12  33  1   
 28  13  14  1   
 29  13  34  1   
 30  13  35  1   
 31  14  15  1   
 32  14  36  1   
 33  14  37  1   
 34  15  16  1   
 35  15  17  1   
 36  16  18  2   
 37  16  38  1   
 38  17  19  2   
 39  17  39  1   
 40  18  19  1   
 41  19  40  1   
@<TRIPOS>SUBSTRUCTURE
  1 ****   5 GROUP 4 **** **** 0

# MOE 2024.06 (io_trps.svl 2023.06)
