@<TRIPOS>MOLECULE
NONAME
47 50 1 0 0 
SMALL
USER_CHARGES


@<TRIPOS>ATOM
  1 O        0.7570    -0.2550    -1.2720 O.3   1 <1>  -0.6800 
  2 C        1.8800    -0.5280    -2.0540 C.3   1 <1>   0.2000 
  3 C        2.4480    -1.8980    -1.6800 C.3   1 <1>  -0.0800 
  4 C        3.0080     0.4130    -1.6240 C.3   1 <1>   0.3430 
  5 C        3.2310    -1.6400    -0.3840 C.3   1 <1>   0.3430 
  6 C        1.4340    -3.0570    -1.5890 C.3   1 <1>  -0.0160 
  7 N        3.5550    -0.1850    -0.3700 N.4   1 <1>  -0.9590 
  8 C        2.1130    -4.3070    -1.0390 C.ar  1 <1>  -0.1430 
  9 C        3.0010     0.5200     0.8160 C.3   1 <1>   0.5230 
 10 C        2.1020    -4.6580     0.3350 C.ar  1 <1>   0.0000 
 11 C        2.7860    -5.1290    -1.8950 C.ar  1 <1>  -0.1500 
 12 C        3.7500     1.8370     0.9650 C.2   1 <1>   0.0070 
 13 C        2.8310    -5.8110     0.7200 C.ar  1 <1>   0.3100 
 14 C        1.4170    -3.9450     1.3490 C.ar  1 <1>  -0.1500 
 15 C        3.4580    -6.2570    -1.4110 C.ar  1 <1>   0.1600 
 16 N        4.9150     2.0500     0.4290 N.2   1 <1>  -0.5650 
 17 N        3.2710     2.8950     1.6660 N.pl3 1 <1>   0.0480 
 18 N        3.5030    -6.5910    -0.1610 N.ar  1 <1>  -0.6200 
 19 C        2.8710    -6.1720     2.0760 C.ar  1 <1>  -0.1500 
 20 C        1.4730    -4.3270     2.6610 C.ar  1 <1>  -0.1500 
 21 C        5.2130     3.3090     0.8000 C.2   1 <1>   0.0770 
 22 C        4.2230     3.8360     1.5510 C.2   1 <1>  -0.3020 
 23 C        2.0030     3.0430     2.4090 C.3   1 <1>   0.0160 
 24 C        2.2130    -5.4510     3.0330 C.ar  1 <1>  -0.1500 
 25 H       -0.0570    -0.6050    -1.6940 H     1 <1>   0.4000 
 26 H        1.6250    -0.4220    -3.0950 H     1 <1>   0.0800 
 27 H        3.1760    -2.1660    -2.4260 H     1 <1>   0.0800 
 28 H        2.6550     1.4210    -1.4780 H     1 <1>   0.0800 
 29 H        3.7750     0.4170    -2.3800 H     1 <1>   0.0800 
 30 H        4.1240    -2.2440    -0.3510 H     1 <1>   0.0800 
 31 H        2.6140    -1.8840     0.4640 H     1 <1>   0.0800 
 32 H        1.0570    -3.2670    -2.5750 H     1 <1>   0.0800 
 33 H        0.5810    -2.7980    -0.9900 H     1 <1>   0.0800 
 34 H        4.5690     0.0260    -0.3220 H     1 <1>   0.4500 
 35 H        1.9460     0.6930     0.6880 H     1 <1>   0.0800 
 36 H        3.1580    -0.0710     1.7030 H     1 <1>   0.0800 
 37 H        2.8250    -4.9410    -2.9530 H     1 <1>   0.1500 
 38 H        0.8250    -3.0870     1.0980 H     1 <1>   0.1500 
 39 H        3.9760    -6.8820    -2.1190 H     1 <1>   0.1500 
 40 H        3.4390    -7.0460     2.3380 H     1 <1>   0.1500 
 41 H        0.9460    -3.7790     3.4250 H     1 <1>   0.1500 
 42 H        6.1380     3.7810     0.5050 H     1 <1>   0.1500 
 43 H        4.1560     4.8120     1.9980 H     1 <1>   0.1500 
 44 H        1.9180     4.0510     2.7730 H     1 <1>   0.0800 
 45 H        1.9920     2.3670     3.2440 H     1 <1>   0.0800 
 46 H        1.1740     2.8360     1.7570 H     1 <1>   0.0800 
 47 H        2.2510    -5.7440     4.0690 H     1 <1>   0.1500 
@<TRIPOS>BOND
  1   1   2  1   
  2   1  25  1   
  3   2   3  1   
  4   2   4  1   
  5   2  26  1   
  6   3   5  1   
  7   3   6  1   
  8   3  27  1   
  9   4   7  1   
 10   4  28  1   
 11   4  29  1   
 12   5   7  1   
 13   5  30  1   
 14   5  31  1   
 15   6   8  1   
 16   6  32  1   
 17   6  33  1   
 18   7   9  1   
 19   7  34  1   
 20   8  10  ar  
 21   8  11  ar  
 22   9  12  1   
 23   9  35  1   
 24   9  36  1   
 25  10  13  ar  
 26  10  14  ar  
 27  11  15  ar  
 28  11  37  1   
 29  12  16  2   
 30  12  17  1   
 31  13  18  ar  
 32  13  19  ar  
 33  14  20  ar  
 34  14  38  1   
 35  15  18  ar  
 36  15  39  1   
 37  16  21  1   
 38  17  22  1   
 39  17  23  1   
 40  19  24  ar  
 41  19  40  1   
 42  20  24  ar  
 43  20  41  1   
 44  21  22  2   
 45  21  42  1   
 46  22  43  1   
 47  23  44  1   
 48  23  45  1   
 49  23  46  1   
 50  24  47  1   
@<TRIPOS>SUBSTRUCTURE
  1 ****   5 GROUP 4 **** **** 0

# MOE 2024.06 (io_trps.svl 2023.06)
