@<TRIPOS>MOLECULE
NONAME
40 42 1 0 0 
SMALL
USER_CHARGES


@<TRIPOS>ATOM
  1 O       -0.7870     0.3630     0.1720 O.3   1 <1>  -0.5600 
  2 C       -1.4710     0.3060     1.3940 C.3   1 <1>   0.1200 
  3 C       -1.0490    -0.6730    -0.7300 C.3   1 <1>   0.1200 
  4 C       -2.9000     0.8890     1.2640 C.3   1 <1>   0.4230 
  5 C       -2.5500    -0.8280    -1.0610 C.3   1 <1>  -0.0800 
  6 N       -3.0960     1.4940    -0.1120 N.4   1 <1>  -0.9590 
  7 C       -3.9780    -0.1370     1.7010 C.3   1 <1>   0.2090 
  8 C       -3.2860    -1.8140    -0.1280 C.3   1 <1>   0.2090 
  9 C       -3.3000     0.5080    -1.2280 C.3   1 <1>   0.3430 
 10 C       -4.1920     2.5020    -0.1250 C.3   1 <1>   0.2630 
 11 N       -4.3550    -1.1430     0.6600 N.pl3 1 <1>  -0.8380 
 12 C       -5.6970    -1.3060     0.3030 C.ar  1 <1>   0.4100 
 13 N       -6.3220    -0.1700     0.0140 N.ar  1 <1>  -0.6200 
 14 C       -6.3410    -2.5790     0.2400 C.ar  1 <1>   0.3930 
 15 C       -7.5900    -0.3640    -0.3250 C.ar  1 <1>   0.1600 
 16 O       -5.6190    -3.6890     0.5620 O.3   1 <1>  -0.3630 
 17 N       -7.6060    -2.7490    -0.1130 N.ar  1 <1>  -0.6200 
 18 C       -8.2080    -1.6020    -0.3870 C.ar  1 <1>   0.1600 
 19 C       -6.2220    -4.9700     0.5780 C.3   1 <1>   0.0400 
 20 H       -1.4710    -0.7070     1.7590 H     1 <1>   0.0800 
 21 H       -0.9140     0.9020     2.0950 H     1 <1>   0.0800 
 22 H       -0.5070    -0.4340    -1.6290 H     1 <1>   0.0800 
 23 H       -0.6360    -1.5850    -0.3330 H     1 <1>   0.0800 
 24 H       -2.9490     1.6870     1.9860 H     1 <1>   0.0800 
 25 H       -2.5770    -1.3060    -2.0240 H     1 <1>   0.0800 
 26 H       -2.1790     1.9280    -0.3100 H     1 <1>   0.4500 
 27 H       -4.8560     0.4070     2.0030 H     1 <1>   0.0800 
 28 H       -3.6360    -0.6620     2.5750 H     1 <1>   0.0800 
 29 H       -2.6020    -2.3050     0.5440 H     1 <1>   0.0800 
 30 H       -3.7330    -2.5850    -0.7330 H     1 <1>   0.0800 
 31 H       -4.3520     0.2900    -1.3220 H     1 <1>   0.0800 
 32 H       -2.9870     0.9650    -2.1520 H     1 <1>   0.0800 
 33 H       -5.1360     2.0220     0.0810 H     1 <1>   0.0800 
 34 H       -4.2520     2.9770    -1.0910 H     1 <1>   0.0800 
 35 H       -4.0170     3.2600     0.6210 H     1 <1>   0.0800 
 36 H       -8.1720     0.5080    -0.5670 H     1 <1>   0.1500 
 37 H       -9.2440    -1.6540    -0.6760 H     1 <1>   0.1500 
 38 H       -5.4800    -5.6910     0.8710 H     1 <1>   0.0800 
 39 H       -6.5880    -5.1970    -0.4080 H     1 <1>   0.0800 
 40 H       -7.0320    -4.9650     1.2870 H     1 <1>   0.0800 
@<TRIPOS>BOND
  1   1   2  1   
  2   1   3  1   
  3   2   4  1   
  4   2  20  1   
  5   2  21  1   
  6   3   5  1   
  7   3  22  1   
  8   3  23  1   
  9   4   6  1   
 10   4   7  1   
 11   4  24  1   
 12   5   8  1   
 13   5   9  1   
 14   5  25  1   
 15   6   9  1   
 16   6  10  1   
 17   6  26  1   
 18   7  11  1   
 19   7  27  1   
 20   7  28  1   
 21   8  11  1   
 22   8  29  1   
 23   8  30  1   
 24   9  31  1   
 25   9  32  1   
 26  10  33  1   
 27  10  34  1   
 28  10  35  1   
 29  11  12  1   
 30  12  13  ar  
 31  12  14  ar  
 32  13  15  ar  
 33  14  16  1   
 34  14  17  ar  
 35  15  18  ar  
 36  15  36  1   
 37  16  19  1   
 38  17  18  ar  
 39  18  37  1   
 40  19  38  1   
 41  19  39  1   
 42  19  40  1   
@<TRIPOS>SUBSTRUCTURE
  1 ****  11 GROUP 4 **** **** 0

# MOE 2024.06 (io_trps.svl 2023.06)
