@<TRIPOS>MOLECULE
NONAME
55 58 1 0 0 
SMALL
USER_CHARGES


@<TRIPOS>ATOM
  1 O       -0.6840     4.3460     1.7200 O.2   1 <1>  -0.5700 
  2 C       -0.7000     3.3380     1.0470 C.2   1 <1>   0.5690 
  3 N       -1.9090     2.7710     0.6960 N.am  1 <1>  -0.6600 
  4 C        0.7400     2.8320     0.6950 C.3   1 <1>   0.5640 
  5 C       -3.1670     3.6000     0.7400 C.3   1 <1>   0.1400 
  6 C       -2.2220     1.3630     0.3180 C.3   1 <1>   0.1400 
  7 N        1.5730     2.8670     1.9190 N.4   1 <1>  -0.8530 
  8 C        1.4200     3.7800    -0.3000 C.3   1 <1>  -0.1600 
  9 C        0.9760     1.4780     0.0170 C.3   1 <1>  -0.1600 
 10 C       -3.8470     3.6390    -0.6450 C.3   1 <1>   0.1430 
 11 C       -2.8070     1.3430    -1.0980 C.3   1 <1>  -0.1600 
 12 C        2.6360     3.0330    -0.8690 C.3   1 <1>  -0.1600 
 13 C        2.3810     1.5470    -0.5970 C.3   1 <1>  -0.1600 
 14 C       -5.1440     4.4150    -0.5200 C.ar  1 <1>   0.1670 
 15 C       -4.0820     2.2030    -1.1680 C.3   1 <1>  -0.1600 
 16 C       -3.0360     4.4980    -1.6550 C.3   1 <1>  -0.1600 
 17 N       -6.2260     3.9850     0.0800 N.ar  1 <1>  -0.6200 
 18 C       -5.0540     5.6440    -1.0980 C.ar  1 <1>  -0.1430 
 19 C       -3.6910     5.8910    -1.6920 C.3   1 <1>  -0.0170 
 20 C       -7.2570     4.8340     0.0720 C.ar  1 <1>   0.7200 
 21 C       -6.1620     6.4510    -1.0530 C.ar  1 <1>   0.1600 
 22 N       -7.2690     6.0550    -0.4730 N.ar  1 <1>  -0.6200 
 23 N       -8.4200     4.4090     0.6850 N.pl3 1 <1>  -0.8380 
 24 C       -8.4540     3.2250     1.5860 C.3   1 <1>   0.1290 
 25 C       -9.7170     5.1150     0.4930 C.3   1 <1>   0.1290 
 26 H       -2.9620     4.6070     1.0590 H     1 <1>   0.0800 
 27 H       -3.8480     3.1690     1.4550 H     1 <1>   0.0800 
 28 H       -2.9620     0.9810     1.0030 H     1 <1>   0.0800 
 29 H       -1.3750     0.7140     0.3940 H     1 <1>   0.0800 
 30 H        1.3420     3.7530     2.3930 H     1 <1>   0.4500 
 31 H        2.5630     2.8450     1.6690 H     1 <1>   0.4500 
 32 H        1.3340     2.1000     2.5480 H     1 <1>   0.4500 
 33 H        1.6820     4.7290     0.1360 H     1 <1>   0.0800 
 34 H        0.7330     3.9730    -1.1080 H     1 <1>   0.0800 
 35 H        0.2860     1.3750    -0.8020 H     1 <1>   0.0800 
 36 H        0.8600     0.6410     0.6830 H     1 <1>   0.0800 
 37 H       -3.0510     0.3300    -1.3680 H     1 <1>   0.0800 
 38 H       -2.0760     1.7020    -1.8010 H     1 <1>   0.0800 
 39 H        3.5470     3.3520    -0.3880 H     1 <1>   0.0800 
 40 H        2.7320     3.2210    -1.9260 H     1 <1>   0.0800 
 41 H        2.4350     0.9680    -1.5060 H     1 <1>   0.0800 
 42 H        3.1180     1.1620     0.0900 H     1 <1>   0.0800 
 43 H       -4.4620     2.2300    -2.1750 H     1 <1>   0.0800 
 44 H       -4.8400     1.7370    -0.5600 H     1 <1>   0.0800 
 45 H       -3.1160     4.0700    -2.6380 H     1 <1>   0.0800 
 46 H       -1.9940     4.5640    -1.4000 H     1 <1>   0.0800 
 47 H       -3.7590     6.2710    -2.6970 H     1 <1>   0.0800 
 48 H       -3.1490     6.5860    -1.0730 H     1 <1>   0.0800 
 49 H       -6.1410     7.4320    -1.4960 H     1 <1>   0.1500 
 50 H       -7.5040     3.0960     2.0750 H     1 <1>   0.0800 
 51 H       -8.6740     2.3430     1.0110 H     1 <1>   0.0800 
 52 H       -9.2070     3.3550     2.3420 H     1 <1>   0.0800 
 53 H       -9.7500     5.5860    -0.4750 H     1 <1>   0.0800 
 54 H       -9.8320     5.8680     1.2520 H     1 <1>   0.0800 
 55 H      -10.5320     4.4170     0.5560 H     1 <1>   0.0800 
@<TRIPOS>BOND
  1   1   2  2   
  2   2   3  am  
  3   2   4  1   
  4   3   5  1   
  5   3   6  1   
  6   4   7  1   
  7   4   8  1   
  8   4   9  1   
  9   5  10  1   
 10   5  26  1   
 11   5  27  1   
 12   6  11  1   
 13   6  28  1   
 14   6  29  1   
 15   7  30  1   
 16   7  31  1   
 17   7  32  1   
 18   8  12  1   
 19   8  33  1   
 20   8  34  1   
 21   9  13  1   
 22   9  35  1   
 23   9  36  1   
 24  10  14  1   
 25  10  15  1   
 26  10  16  1   
 27  11  15  1   
 28  11  37  1   
 29  11  38  1   
 30  12  13  1   
 31  12  39  1   
 32  12  40  1   
 33  13  41  1   
 34  13  42  1   
 35  14  17  ar  
 36  14  18  ar  
 37  15  43  1   
 38  15  44  1   
 39  16  19  1   
 40  16  45  1   
 41  16  46  1   
 42  17  20  ar  
 43  18  19  1   
 44  18  21  ar  
 45  19  47  1   
 46  19  48  1   
 47  20  22  ar  
 48  20  23  1   
 49  21  22  ar  
 50  21  49  1   
 51  23  24  1   
 52  23  25  1   
 53  24  50  1   
 54  24  51  1   
 55  24  52  1   
 56  25  53  1   
 57  25  54  1   
 58  25  55  1   
@<TRIPOS>SUBSTRUCTURE
  1 ****   5 GROUP 4 **** **** 0

# MOE 2024.06 (io_trps.svl 2023.06)
