@<TRIPOS>MOLECULE
NONAME
51 53 1 0 0 
SMALL
USER_CHARGES


@<TRIPOS>ATOM
  1 S        0.8040     0.1180     0.6000 S.o2  1 <1>   1.3330 
  2 O        2.2240     0.3670     0.7020 O.2   1 <1>  -0.6500 
  3 O       -0.0010     0.0470     1.7980 O.2   1 <1>  -0.6500 
  4 N        0.5650    -1.3070    -0.2910 N.am  1 <1>  -0.8490 
  5 C        0.1130     1.3760    -0.4750 C.3   1 <1>  -0.0550 
  6 C        1.6190    -2.2990    -0.0510 C.3   1 <1>   0.1160 
  7 C       -0.7510    -1.9190    -0.0730 C.3   1 <1>   0.1160 
  8 C        0.1890     2.7940     0.1240 C.3   1 <1>  -0.0800 
  9 C       -0.5120     3.8370    -0.7520 C.3   1 <1>   0.2000 
 10 C        1.6320     3.3080     0.2610 C.3   1 <1>   0.1100 
 11 O       -1.5450     4.4200    -0.0290 O.3   1 <1>  -0.6800 
 12 C        0.5610     4.8930    -1.0380 C.3   1 <1>   0.1100 
 13 N        1.5970     4.7550     0.0040 N.3   1 <1>  -0.8100 
 14 C        1.2340     5.4970     1.2380 C.3   1 <1>   0.2480 
 15 C        1.4820     6.9910     1.0390 C.2   1 <1>   0.2030 
 16 N        2.5490     7.3250     0.2530 N.pl3 1 <1>  -0.6450 
 17 C        0.7510     7.9930     1.5480 C.2   1 <1>  -0.1360 
 18 C        2.9310     8.5860    -0.0340 C.cat 1 <1>   0.7390 
 19 C        1.1000     9.3400     1.2800 C.2   1 <1>   0.9370 
 20 N        2.2340     9.6450     0.4790 N.pl3 1 <1>  -0.5760 
 21 C        4.0440     8.7870    -0.8600 C.2   1 <1>  -0.1800 
 22 O        0.4050    10.2100     1.7520 O.2   1 <1>  -0.5700 
 23 C        2.6770    10.9300     0.1720 C.2   1 <1>   0.2030 
 24 C        4.4740    10.0440    -1.1700 C.2   1 <1>  -0.1500 
 25 C        3.7690    11.1210    -0.6350 C.2   1 <1>  -0.1500 
 26 C        1.9950    12.1890     0.7010 C.3   1 <1>  -0.1020 
 27 H        0.6300     1.3550    -1.4150 H     1 <1>   0.0800 
 28 H       -0.9150     1.1360    -0.6620 H     1 <1>   0.0800 
 29 H        1.4440    -3.1820    -0.6420 H     1 <1>   0.0800 
 30 H        1.6480    -2.5700     0.9920 H     1 <1>   0.0800 
 31 H        2.5780    -1.8950    -0.3290 H     1 <1>   0.0800 
 32 H       -0.8790    -2.7630    -0.7280 H     1 <1>   0.0800 
 33 H       -1.5310    -1.2070    -0.2800 H     1 <1>   0.0800 
 34 H       -0.8480    -2.2500     0.9480 H     1 <1>   0.0800 
 35 H       -0.2540     2.7760     1.1050 H     1 <1>   0.0800 
 36 H       -0.9180     3.4390    -1.6670 H     1 <1>   0.0800 
 37 H        2.2570     2.8490    -0.4880 H     1 <1>   0.0800 
 38 H        2.0520     3.0760     1.2270 H     1 <1>   0.0800 
 39 H       -2.2640     3.7760     0.1280 H     1 <1>   0.4000 
 40 H        0.1440     5.8850    -1.0850 H     1 <1>   0.0800 
 41 H        1.0120     4.6700    -1.9900 H     1 <1>   0.0800 
 42 H        0.2130     5.3160     1.5240 H     1 <1>   0.0800 
 43 H        1.8670     5.1630     2.0430 H     1 <1>   0.0800 
 44 H        2.9990     6.5160    -0.2010 H     1 <1>   0.4500 
 45 H       -0.1120     7.8320     2.1660 H     1 <1>   0.1500 
 46 H        4.5630     7.9310    -1.2500 H     1 <1>   0.1500 
 47 H        5.3300    10.2190    -1.8040 H     1 <1>   0.1500 
 48 H        4.1140    12.1120    -0.8770 H     1 <1>   0.1500 
 49 H        1.9980    12.1940     1.7760 H     1 <1>   0.0800 
 50 H        0.9800    12.2430     0.3480 H     1 <1>   0.0800 
 51 H        2.5000    13.0790     0.3710 H     1 <1>   0.0800 
@<TRIPOS>BOND
  1   1   2  2   
  2   1   3  2   
  3   1   4  am  
  4   1   5  1   
  5   4   6  1   
  6   4   7  1   
  7   5   8  1   
  8   5  27  1   
  9   5  28  1   
 10   6  29  1   
 11   6  30  1   
 12   6  31  1   
 13   7  32  1   
 14   7  33  1   
 15   7  34  1   
 16   8   9  1   
 17   8  10  1   
 18   8  35  1   
 19   9  11  1   
 20   9  12  1   
 21   9  36  1   
 22  10  13  1   
 23  10  37  1   
 24  10  38  1   
 25  11  39  1   
 26  12  13  1   
 27  12  40  1   
 28  12  41  1   
 29  13  14  1   
 30  14  15  1   
 31  14  42  1   
 32  14  43  1   
 33  15  16  1   
 34  15  17  2   
 35  16  18  ar  
 36  16  44  1   
 37  17  19  1   
 38  17  45  1   
 39  18  20  ar  
 40  18  21  1   
 41  19  20  1   
 42  19  22  2   
 43  20  23  1   
 44  21  24  2   
 45  21  46  1   
 46  23  25  2   
 47  23  26  1   
 48  24  25  1   
 49  24  47  1   
 50  25  48  1   
 51  26  49  1   
 52  26  50  1   
 53  26  51  1   
@<TRIPOS>SUBSTRUCTURE
  1 ****  13 GROUP 4 **** **** 0

# MOE 2024.06 (io_trps.svl 2023.06)
