@<TRIPOS>MOLECULE
NONAME
42 43 1 0 0 
SMALL
USER_CHARGES


@<TRIPOS>ATOM
  1 CL      -0.2820     0.5980     0.3190 Cl    1 <1>  -0.1770 
  2 C        1.2540     1.3510    -0.0700 C.ar  1 <1>   0.1770 
  3 C        2.4540     0.6450    -0.2370 C.ar  1 <1>   0.0830 
  4 C        1.2180     2.7250    -0.1980 C.ar  1 <1>  -0.1500 
  5 O        2.6550    -0.6950    -0.1460 O.3   1 <1>  -0.3630 
  6 C        3.5950     1.3750    -0.5340 C.ar  1 <1>  -0.1500 
  7 C        2.3650     3.4610    -0.4880 C.ar  1 <1>   0.0860 
  8 C        1.6350    -1.6540     0.0030 C.3   1 <1>   0.1200 
  9 C        3.5530     2.7500    -0.6610 C.ar  1 <1>  -0.1500 
 10 C        2.3100     4.9050    -0.6130 C.2   1 <1>   0.5440 
 11 C        2.2720    -3.0420    -0.0780 C.3   1 <1>  -0.1600 
 12 O        1.4240     5.4100    -1.2760 O.2   1 <1>  -0.5700 
 13 N        3.2300     5.7270     0.0000 N.am  1 <1>  -0.6600 
 14 C        1.2210    -4.1470     0.0760 C.3   1 <1>  -0.2400 
 15 C        3.3890     7.1450    -0.4250 C.3   1 <1>   0.3210 
 16 C        4.0590     5.3150     1.1700 C.3   1 <1>   0.0600 
 17 C        4.8530     7.4250    -0.7190 C.2   1 <1>  -0.1810 
 18 C        5.7430     8.2410    -0.1090 C.2   1 <1>  -0.3320 
 19 C        5.5690     6.8230    -1.7480 C.2   1 <1>   0.1390 
 20 N        6.9090     8.0990    -0.7760 N.pl3 1 <1>   0.3000 
 21 C        5.5750     9.1680     1.0830 C.3   1 <1>  -0.0600 
 22 N        6.8040     7.2180    -1.7870 N.2   1 <1>  -0.7070 
 23 H        0.2850     3.2450    -0.0740 H     1 <1>   0.1500 
 24 H        4.5250     0.8490    -0.6710 H     1 <1>   0.1500 
 25 H        0.9220    -1.5210    -0.7920 H     1 <1>   0.0800 
 26 H        1.1690    -1.5100     0.9620 H     1 <1>   0.0800 
 27 H        4.4530     3.2890    -0.9040 H     1 <1>   0.1500 
 28 H        3.0060    -3.1400     0.7030 H     1 <1>   0.0800 
 29 H        2.7640    -3.1510    -1.0290 H     1 <1>   0.0800 
 30 H        0.7260    -4.0660     1.0290 H     1 <1>   0.0800 
 31 H        1.6920    -5.1120     0.0170 H     1 <1>   0.0800 
 32 H        0.4840    -4.0770    -0.7050 H     1 <1>   0.0800 
 33 H        3.0330     7.7900     0.3570 H     1 <1>   0.0800 
 34 H        2.8120     7.3460    -1.3110 H     1 <1>   0.0800 
 35 H        3.6740     4.4140     1.6150 H     1 <1>   0.0800 
 36 H        4.0510     6.0920     1.9140 H     1 <1>   0.0800 
 37 H        5.0750     5.1470     0.8530 H     1 <1>   0.0800 
 38 H        5.1520     6.1070    -2.4360 H     1 <1>   0.1500 
 39 H        7.7900     8.5840    -0.5670 H     1 <1>   0.2700 
 40 H        4.5730     9.1180     1.4670 H     1 <1>   0.0800 
 41 H        5.7780    10.1840     0.7930 H     1 <1>   0.0800 
 42 H        6.2540     8.8870     1.8690 H     1 <1>   0.0800 
@<TRIPOS>BOND
  1   1   2  1   
  2   2   3  ar  
  3   2   4  ar  
  4   3   5  1   
  5   3   6  ar  
  6   4   7  ar  
  7   4  23  1   
  8   5   8  1   
  9   6   9  ar  
 10   6  24  1   
 11   7   9  ar  
 12   7  10  1   
 13   8  11  1   
 14   8  25  1   
 15   8  26  1   
 16   9  27  1   
 17  10  12  2   
 18  10  13  am  
 19  11  14  1   
 20  11  28  1   
 21  11  29  1   
 22  13  15  1   
 23  13  16  1   
 24  14  30  1   
 25  14  31  1   
 26  14  32  1   
 27  15  17  1   
 28  15  33  1   
 29  15  34  1   
 30  16  35  1   
 31  16  36  1   
 32  16  37  1   
 33  17  18  2   
 34  17  19  1   
 35  18  20  1   
 36  18  21  1   
 37  19  22  2   
 38  19  38  1   
 39  20  22  1   
 40  20  39  1   
 41  21  40  1   
 42  21  41  1   
 43  21  42  1   
@<TRIPOS>SUBSTRUCTURE
  1 ****   7 GROUP 4 **** **** 0

# MOE 2024.06 (io_trps.svl 2023.06)
