@<TRIPOS>MOLECULE
NONAME
45 47 1 0 0 
SMALL
USER_CHARGES


@<TRIPOS>ATOM
  1 F        0.3630    -0.7810    -0.5380 F     1 <1>  -0.1900 
  2 C       -0.3980    -1.8150    -0.2870 C.ar  1 <1>   0.1900 
  3 C       -0.0090    -2.8250     0.6010 C.ar  1 <1>   0.0820 
  4 C       -1.6130    -1.8580    -0.9430 C.ar  1 <1>  -0.1500 
  5 O        1.1580    -2.8950     1.3050 O.3   1 <1>  -0.3630 
  6 C       -0.8890    -3.8780     0.8010 C.ar  1 <1>  -0.1500 
  7 C       -2.4660    -2.9220    -0.7190 C.ar  1 <1>  -0.1500 
  8 C        2.1860    -1.9380     1.1850 C.3   1 <1>   0.0400 
  9 C       -2.1250    -3.9580     0.1540 C.ar  1 <1>   0.0530 
 10 C       -3.0130    -5.0710     0.3880 C.2   1 <1>   0.0870 
 11 O       -2.9140    -5.7940     1.4820 O.3   1 <1>  -0.0190 
 12 C       -4.0380    -5.5970    -0.3270 C.2   1 <1>  -0.2330 
 13 N       -3.8070    -6.7510     1.5450 N.2   1 <1>  -0.4100 
 14 C       -4.4930    -6.6450     0.4650 C.2   1 <1>   0.3720 
 15 C       -4.6210    -5.2580    -1.5790 C.2   1 <1>   1.0330 
 16 N       -5.5640    -7.4890     0.1630 N.pl3 1 <1>  -0.8210 
 17 O       -4.3600    -5.9110    -2.6020 O.co2 1 <1>  -0.9000 
 18 O       -5.5080    -4.3890    -1.6290 O.co2 1 <1>  -0.9000 
 19 C       -6.8350    -6.7220    -0.1160 C.3   1 <1>   0.2090 
 20 C       -5.2320    -8.4180    -0.9580 C.3   1 <1>   0.2090 
 21 C       -8.0560    -7.4730     0.4420 C.3   1 <1>   0.3430 
 22 C       -5.9200    -9.7680    -0.7340 C.3   1 <1>  -0.1600 
 23 N       -7.7020    -8.9020     0.7190 N.4   1 <1>  -0.9590 
 24 C       -7.4340    -9.6710    -0.5240 C.3   1 <1>   0.3430 
 25 C       -8.6200    -9.5760     1.6760 C.3   1 <1>   0.2630 
 26 H       -1.8900    -1.0700    -1.6200 H     1 <1>   0.1500 
 27 H       -0.6000    -4.6610     1.4780 H     1 <1>   0.1500 
 28 H       -3.4150    -2.9430    -1.2290 H     1 <1>   0.1500 
 29 H        2.9990    -2.2390     1.8210 H     1 <1>   0.0800 
 30 H        1.8120    -0.9810     1.5020 H     1 <1>   0.0800 
 31 H        2.5160    -1.9050     0.1620 H     1 <1>   0.0800 
 32 H       -6.9610    -6.5700    -1.1750 H     1 <1>   0.0800 
 33 H       -6.7890    -5.7430     0.3340 H     1 <1>   0.0800 
 34 H       -4.1640    -8.5620    -1.0070 H     1 <1>   0.0800 
 35 H       -5.5380    -7.9970    -1.9020 H     1 <1>   0.0800 
 36 H       -8.8810    -7.4010    -0.2470 H     1 <1>   0.0800 
 37 H       -8.3440    -6.9920     1.3610 H     1 <1>   0.0800 
 38 H       -5.4640   -10.2630     0.1040 H     1 <1>   0.0800 
 39 H       -5.7340   -10.3780    -1.5990 H     1 <1>   0.0800 
 40 H       -6.7500    -8.7800     1.1330 H     1 <1>   0.4500 
 41 H       -7.8410   -10.6650    -0.4370 H     1 <1>   0.0800 
 42 H       -7.8930    -9.1870    -1.3710 H     1 <1>   0.0800 
 43 H       -9.6040    -9.6710     1.2460 H     1 <1>   0.0800 
 44 H       -8.6910    -9.0040     2.5860 H     1 <1>   0.0800 
 45 H       -8.2490   -10.5590     1.9170 H     1 <1>   0.0800 
@<TRIPOS>BOND
  1   1   2  1   
  2   2   3  ar  
  3   2   4  ar  
  4   3   5  1   
  5   3   6  ar  
  6   4   7  ar  
  7   4  26  1   
  8   5   8  1   
  9   6   9  ar  
 10   6  27  1   
 11   7   9  ar  
 12   7  28  1   
 13   8  29  1   
 14   8  30  1   
 15   8  31  1   
 16   9  10  1   
 17  10  11  1   
 18  10  12  2   
 19  11  13  1   
 20  12  14  1   
 21  12  15  1   
 22  13  14  2   
 23  14  16  1   
 24  15  17  ar  
 25  15  18  ar  
 26  16  19  1   
 27  16  20  1   
 28  19  21  1   
 29  19  32  1   
 30  19  33  1   
 31  20  22  1   
 32  20  34  1   
 33  20  35  1   
 34  21  23  1   
 35  21  36  1   
 36  21  37  1   
 37  22  24  1   
 38  22  38  1   
 39  22  39  1   
 40  23  24  1   
 41  23  25  1   
 42  23  40  1   
 43  24  41  1   
 44  24  42  1   
 45  25  43  1   
 46  25  44  1   
 47  25  45  1   
@<TRIPOS>SUBSTRUCTURE
  1 ****  12 GROUP 4 **** **** 0

# MOE 2024.06 (io_trps.svl 2023.06)
