@<TRIPOS>MOLECULE
NONAME
46 48 1 0 0 
SMALL
USER_CHARGES


@<TRIPOS>ATOM
  1 O       -3.7850    -2.3920    -0.6380 O.2   1 <1>  -0.5700 
  2 C       -4.2770    -1.2910    -0.7580 C.2   1 <1>   0.5440 
  3 N       -3.4370    -0.3120    -1.1680 N.am  1 <1>  -0.8000 
  4 C       -5.6780    -1.0400    -0.4620 C.ar  1 <1>   0.0860 
  5 C       -6.3930    -1.8910     0.3820 C.ar  1 <1>  -0.1500 
  6 C       -6.3710     0.0490    -1.0000 C.ar  1 <1>  -0.1500 
  7 C       -7.7230    -1.6630     0.6840 C.ar  1 <1>  -0.1500 
  8 C       -7.7010     0.2850    -0.7040 C.ar  1 <1>  -0.1500 
  9 C       -8.3890    -0.5750     0.1470 C.ar  1 <1>   0.0830 
 10 O       -9.6880    -0.4200     0.4910 O.3   1 <1>  -0.3630 
 11 C      -10.4750     0.6300    -0.0110 C.3   1 <1>   0.1200 
 12 C      -11.8750     0.4640     0.5790 C.3   1 <1>  -0.1600 
 13 C      -12.8160     1.5570     0.0760 C.3   1 <1>   0.3430 
 14 N      -14.1550     1.4120     0.7100 N.4   1 <1>  -0.9590 
 15 C      -14.9260     0.2030     0.2260 C.3   1 <1>   0.3430 
 16 C      -15.0170     2.6290     0.4800 C.3   1 <1>   0.3430 
 17 C      -16.1170     0.8080    -0.4960 C.3   1 <1>  -0.0800 
 18 C      -16.4020     2.0340     0.3220 C.3   1 <1>  -0.0800 
 19 C      -17.4980     0.1840    -0.6400 C.3   1 <1>  -0.1600 
 20 C      -17.5730     2.6570    -0.4270 C.3   1 <1>  -0.1600 
 21 C      -18.4060     1.4200    -0.8350 C.3   1 <1>  -0.1600 
 22 H       -2.4570    -0.5510    -1.3210 H     1 <1>   0.3700 
 23 H       -3.6720     0.6780    -1.1640 H     1 <1>   0.3700 
 24 H       -5.8910    -2.7440     0.8060 H     1 <1>   0.1500 
 25 H       -5.8610     0.7180    -1.6690 H     1 <1>   0.1500 
 26 H       -8.2510    -2.3330     1.3390 H     1 <1>   0.1500 
 27 H       -8.1820     1.1370    -1.1440 H     1 <1>   0.1500 
 28 H      -10.4910     0.5540    -1.0850 H     1 <1>   0.0800 
 29 H      -10.0280     1.5610     0.2940 H     1 <1>   0.0800 
 30 H      -11.7990     0.5180     1.6510 H     1 <1>   0.0800 
 31 H      -12.2450    -0.5050     0.2950 H     1 <1>   0.0800 
 32 H      -12.9080     1.5010    -0.9970 H     1 <1>   0.0800 
 33 H      -12.4000     2.5200     0.3300 H     1 <1>   0.0800 
 34 H      -14.0220     1.3070     1.7260 H     1 <1>   0.4500 
 35 H      -15.2670    -0.3800     1.0670 H     1 <1>   0.0800 
 36 H      -14.3430    -0.4180    -0.4340 H     1 <1>   0.0800 
 37 H      -14.7320     3.1240    -0.4350 H     1 <1>   0.0800 
 38 H      -14.9680     3.3230     1.3030 H     1 <1>   0.0800 
 39 H      -15.7860     1.0960    -1.4820 H     1 <1>   0.0800 
 40 H      -16.7540     1.7500     1.3010 H     1 <1>   0.0800 
 41 H      -17.7760    -0.3370     0.2610 H     1 <1>   0.0800 
 42 H      -17.5550    -0.4930    -1.4770 H     1 <1>   0.0800 
 43 H      -17.2300     3.1760    -1.3060 H     1 <1>   0.0800 
 44 H      -18.1380     3.3350     0.1910 H     1 <1>   0.0800 
 45 H      -19.2860     1.3310    -0.2200 H     1 <1>   0.0800 
 46 H      -18.7170     1.5080    -1.8630 H     1 <1>   0.0800 
@<TRIPOS>BOND
  1   1   2  2   
  2   2   3  am  
  3   2   4  1   
  4   3  22  1   
  5   3  23  1   
  6   4   5  ar  
  7   4   6  ar  
  8   5   7  ar  
  9   5  24  1   
 10   6   8  ar  
 11   6  25  1   
 12   7   9  ar  
 13   7  26  1   
 14   8   9  ar  
 15   8  27  1   
 16   9  10  1   
 17  10  11  1   
 18  11  12  1   
 19  11  28  1   
 20  11  29  1   
 21  12  13  1   
 22  12  30  1   
 23  12  31  1   
 24  13  14  1   
 25  13  32  1   
 26  13  33  1   
 27  14  15  1   
 28  14  16  1   
 29  14  34  1   
 30  15  17  1   
 31  15  35  1   
 32  15  36  1   
 33  16  18  1   
 34  16  37  1   
 35  16  38  1   
 36  17  18  1   
 37  17  19  1   
 38  17  39  1   
 39  18  20  1   
 40  18  40  1   
 41  19  21  1   
 42  19  41  1   
 43  19  42  1   
 44  20  21  1   
 45  20  43  1   
 46  20  44  1   
 47  21  45  1   
 48  21  46  1   
@<TRIPOS>SUBSTRUCTURE
  1 ****  11 GROUP 4 **** **** 0

# MOE 2024.06 (io_trps.svl 2023.06)
