@<TRIPOS>MOLECULE
NONAME
61 64 1 0 0 
SMALL
USER_CHARGES


@<TRIPOS>ATOM
  1 O        0.9340    -1.9200    -1.8240 O.3   1 <1>  -0.6800 
  2 C        0.4420    -1.9450    -0.5260 C.3   1 <1>   0.1200 
  3 C        1.5350    -1.5550     0.5130 C.3   1 <1>   0.0000 
  4 C        2.8830    -2.3110     0.3210 C.3   1 <1>   0.4230 
  5 C        1.7980    -0.0270     0.4300 C.3   1 <1>  -0.1600 
  6 C        0.9900    -1.8760     1.9340 C.3   1 <1>  -0.1600 
  7 N        2.7450    -3.8310     0.4240 N.4   1 <1>  -0.9590 
  8 C        3.6900    -1.7870    -0.9130 C.3   1 <1>   0.3430 
  9 C        2.5170     0.4160    -0.8480 C.3   1 <1>   0.3430 
 10 C        1.4640    -3.2340     2.4920 C.3   1 <1>  -0.1600 
 11 C        1.6910    -4.2800     1.3990 C.3   1 <1>   0.3430 
 12 C        2.5240    -4.5430    -0.8820 C.3   1 <1>   0.2630 
 13 N        3.8350    -0.2840    -0.9600 N.4   1 <1>  -0.9590 
 14 C        4.5430     0.1570    -2.1960 C.3   1 <1>   0.5240 
 15 C        4.8770     1.6210    -2.0310 C.2   1 <1>  -0.1810 
 16 C        4.3430     2.6610    -2.7820 C.2   1 <1>   0.1390 
 17 C        5.7070     2.2300    -1.1540 C.2   1 <1>  -0.3020 
 18 N        4.7820     3.8110    -2.3940 N.2   1 <1>  -0.7070 
 19 N        5.6550     3.5690    -1.3830 N.pl3 1 <1>   0.5930 
 20 C        6.3350     4.5840    -0.6530 C.ar  1 <1>  -0.0230 
 21 C        7.6210     4.3790    -0.1620 C.ar  1 <1>  -0.1500 
 22 C        5.7220     5.8070    -0.4050 C.ar  1 <1>  -0.1500 
 23 C        8.2780     5.3550     0.5720 C.ar  1 <1>  -0.1440 
 24 C        6.3690     6.7840     0.3260 C.ar  1 <1>  -0.1500 
 25 C        7.6450     6.5680     0.8210 C.ar  1 <1>  -0.1440 
 26 C        9.6830     5.0760     1.0870 C.3   1 <1>  -0.0960 
 27 C        8.3220     7.6710     1.6230 C.3   1 <1>  -0.0960 
 28 H        0.1920    -2.0130    -2.4670 H     1 <1>   0.4000 
 29 H       -0.3880    -1.2590    -0.4720 H     1 <1>   0.0800 
 30 H        0.0600    -2.9350    -0.3430 H     1 <1>   0.0800 
 31 H        3.4750    -2.0200     1.1720 H     1 <1>   0.0800 
 32 H        2.3890     0.3020     1.2680 H     1 <1>   0.0800 
 33 H        0.8620     0.5030     0.4900 H     1 <1>   0.0800 
 34 H        1.2890    -1.1210     2.6430 H     1 <1>   0.0800 
 35 H       -0.0880    -1.8550     1.9240 H     1 <1>   0.0800 
 36 H        3.6320    -4.1870     0.8110 H     1 <1>   0.4500 
 37 H        3.1910    -2.1110    -1.8100 H     1 <1>   0.0800 
 38 H        4.6700    -2.2340    -0.8980 H     1 <1>   0.0800 
 39 H        2.6670     1.4850    -0.8180 H     1 <1>   0.0800 
 40 H        1.9040     0.1940    -1.7070 H     1 <1>   0.0800 
 41 H        0.7270    -3.6040     3.1850 H     1 <1>   0.0800 
 42 H        2.3760    -3.1090     3.0500 H     1 <1>   0.0800 
 43 H        0.7580    -4.4400     0.8830 H     1 <1>   0.0800 
 44 H        1.9800    -5.2180     1.8470 H     1 <1>   0.0800 
 45 H        1.6080    -4.2130    -1.3440 H     1 <1>   0.0800 
 46 H        2.4570    -5.6070    -0.7200 H     1 <1>   0.0800 
 47 H        3.3390    -4.3590    -1.5630 H     1 <1>   0.0800 
 48 H        4.4220     0.0570    -0.1870 H     1 <1>   0.4500 
 49 H        5.4560    -0.4000    -2.3270 H     1 <1>   0.0800 
 50 H        3.9200     0.0110    -3.0650 H     1 <1>   0.0800 
 51 H        3.6400     2.5540    -3.5940 H     1 <1>   0.1500 
 52 H        6.3330     1.8260    -0.3810 H     1 <1>   0.1500 
 53 H        8.1210     3.4490    -0.3600 H     1 <1>   0.1500 
 54 H        4.7330     5.9970    -0.7870 H     1 <1>   0.1500 
 55 H        5.8700     7.7210     0.5040 H     1 <1>   0.1500 
 56 H       10.0270     4.1070     0.7750 H     1 <1>   0.0800 
 57 H        9.6950     5.1100     2.1610 H     1 <1>   0.0800 
 58 H       10.3680     5.8130     0.7050 H     1 <1>   0.0800 
 59 H        7.6740     8.5210     1.7340 H     1 <1>   0.0800 
 60 H        9.2170     7.9920     1.1220 H     1 <1>   0.0800 
 61 H        8.5770     7.3120     2.6030 H     1 <1>   0.0800 
@<TRIPOS>BOND
  1   1   2  1   
  2   1  28  1   
  3   2   3  1   
  4   2  29  1   
  5   2  30  1   
  6   3   4  1   
  7   3   5  1   
  8   3   6  1   
  9   4   7  1   
 10   4   8  1   
 11   4  31  1   
 12   5   9  1   
 13   5  32  1   
 14   5  33  1   
 15   6  10  1   
 16   6  34  1   
 17   6  35  1   
 18   7  11  1   
 19   7  12  1   
 20   7  36  1   
 21   8  13  1   
 22   8  37  1   
 23   8  38  1   
 24   9  13  1   
 25   9  39  1   
 26   9  40  1   
 27  10  11  1   
 28  10  41  1   
 29  10  42  1   
 30  11  43  1   
 31  11  44  1   
 32  12  45  1   
 33  12  46  1   
 34  12  47  1   
 35  13  14  1   
 36  13  48  1   
 37  14  15  1   
 38  14  49  1   
 39  14  50  1   
 40  15  16  1   
 41  15  17  2   
 42  16  18  2   
 43  16  51  1   
 44  17  19  1   
 45  17  52  1   
 46  18  19  1   
 47  19  20  1   
 48  20  21  ar  
 49  20  22  ar  
 50  21  23  ar  
 51  21  53  1   
 52  22  24  ar  
 53  22  54  1   
 54  23  25  ar  
 55  23  26  1   
 56  24  25  ar  
 57  24  55  1   
 58  25  27  1   
 59  26  56  1   
 60  26  57  1   
 61  26  58  1   
 62  27  59  1   
 63  27  60  1   
 64  27  61  1   
@<TRIPOS>SUBSTRUCTURE
  1 ****  13 GROUP 4 **** **** 0

# MOE 2024.06 (io_trps.svl 2023.06)
