@<TRIPOS>MOLECULE
NONAME
47 48 1 0 0 
SMALL
USER_CHARGES


@<TRIPOS>ATOM
  1 O       -2.4810     1.0350    -1.5820 O.2   1 <1>  -0.5700 
  2 C       -2.1200     0.7960    -0.4560 C.2   1 <1>   0.5690 
  3 N       -1.9530    -0.4740    -0.0160 N.am  1 <1>  -0.7300 
  4 C       -1.8650     1.9420     0.5030 C.3   1 <1>  -0.0990 
  5 C       -2.0990    -1.6870    -0.8540 C.3   1 <1>   0.2200 
  6 C       -0.5020     2.6370     0.2870 C.3   1 <1>  -0.0800 
  7 C       -3.3720    -2.4480    -0.5090 C.3   1 <1>  -0.0800 
  8 C       -1.0450    -2.7010    -0.4320 C.3   1 <1>   0.1200 
  9 C        0.6550     1.6350     0.5130 C.3   1 <1>  -0.1600 
 10 C       -0.4060     3.8780     1.2080 C.3   1 <1>  -0.1600 
 11 C       -2.9490    -3.3040     0.6900 C.3   1 <1>   0.1200 
 12 C       -4.6250    -1.5860    -0.2670 C.3   1 <1>  -0.0160 
 13 O       -1.5510    -3.2850     0.7300 O.3   1 <1>  -0.5600 
 14 C        2.0540     2.2150     0.2820 C.3   1 <1>  -0.2400 
 15 C        0.2590     5.0820     0.5260 C.3   1 <1>  -0.2400 
 16 C       -5.8470    -2.4610    -0.0310 C.ar  1 <1>  -0.1440 
 17 C       -6.3150    -2.7430     1.2370 C.ar  1 <1>  -0.1500 
 18 C       -6.5500    -3.0190    -1.0780 C.ar  1 <1>  -0.1500 
 19 C       -7.4280    -3.5520     1.3910 C.ar  1 <1>   0.1600 
 20 C       -7.6530    -3.8150    -0.8160 C.ar  1 <1>   0.1600 
 21 N       -8.1080    -4.0970     0.3940 N.ar  1 <1>  -0.6200 
 22 H       -1.6510    -0.6650     0.9410 H     1 <1>   0.3700 
 23 H       -2.6540     2.6560     0.3520 H     1 <1>   0.0800 
 24 H       -1.9380     1.5860     1.5140 H     1 <1>   0.0800 
 25 H       -2.0330    -1.4380    -1.9000 H     1 <1>   0.0800 
 26 H       -0.4750     2.9630    -0.7400 H     1 <1>   0.0800 
 27 H       -3.5810    -3.1190    -1.3240 H     1 <1>   0.0800 
 28 H       -0.0890    -2.2520    -0.2300 H     1 <1>   0.0800 
 29 H       -0.9410    -3.4750    -1.1730 H     1 <1>   0.0800 
 30 H        0.6030     1.2410     1.5140 H     1 <1>   0.0800 
 31 H        0.5400     0.8070    -0.1660 H     1 <1>   0.0800 
 32 H       -1.3910     4.1940     1.5050 H     1 <1>   0.0800 
 33 H        0.1260     3.6300     2.1110 H     1 <1>   0.0800 
 34 H       -3.2840    -4.3220     0.5900 H     1 <1>   0.0800 
 35 H       -3.3060    -2.8940     1.6190 H     1 <1>   0.0800 
 36 H       -4.7960    -0.9570    -1.1230 H     1 <1>   0.0800 
 37 H       -4.4810    -0.9410     0.5820 H     1 <1>   0.0800 
 38 H        2.2950     2.9450     1.0330 H     1 <1>   0.0800 
 39 H        2.1160     2.6710    -0.6900 H     1 <1>   0.0800 
 40 H        2.7880     1.4300     0.3360 H     1 <1>   0.0800 
 41 H       -0.3050     5.3770    -0.3420 H     1 <1>   0.0800 
 42 H        1.2630     4.8570     0.2180 H     1 <1>   0.0800 
 43 H        0.2940     5.9140     1.2060 H     1 <1>   0.0800 
 44 H       -5.8270    -2.3420     2.1060 H     1 <1>   0.1500 
 45 H       -6.2520    -2.8420    -2.0960 H     1 <1>   0.1500 
 46 H       -7.7790    -3.7620     2.3860 H     1 <1>   0.1500 
 47 H       -8.1900    -4.2420    -1.6460 H     1 <1>   0.1500 
@<TRIPOS>BOND
  1   1   2  2   
  2   2   3  am  
  3   2   4  1   
  4   3   5  1   
  5   3  22  1   
  6   4   6  1   
  7   4  23  1   
  8   4  24  1   
  9   5   7  1   
 10   5   8  1   
 11   5  25  1   
 12   6   9  1   
 13   6  10  1   
 14   6  26  1   
 15   7  11  1   
 16   7  12  1   
 17   7  27  1   
 18   8  13  1   
 19   8  28  1   
 20   8  29  1   
 21   9  14  1   
 22   9  30  1   
 23   9  31  1   
 24  10  15  1   
 25  10  32  1   
 26  10  33  1   
 27  11  13  1   
 28  11  34  1   
 29  11  35  1   
 30  12  16  1   
 31  12  36  1   
 32  12  37  1   
 33  14  38  1   
 34  14  39  1   
 35  14  40  1   
 36  15  41  1   
 37  15  42  1   
 38  15  43  1   
 39  16  17  ar  
 40  16  18  ar  
 41  17  19  ar  
 42  17  44  1   
 43  18  20  ar  
 44  18  45  1   
 45  19  21  ar  
 46  19  46  1   
 47  20  21  ar  
 48  20  47  1   
@<TRIPOS>SUBSTRUCTURE
  1 ****   3 GROUP 4 **** **** 0

# MOE 2024.06 (io_trps.svl 2023.06)
