@<TRIPOS>MOLECULE
NONAME
51 53 1 0 0 
SMALL
USER_CHARGES


@<TRIPOS>ATOM
  1 O        0.7290    -3.0300     1.1900 O.3   1 <1>  -0.5320 
  2 C       -0.2950    -2.2690     0.7780 C.ar  1 <1>   0.0830 
  3 C       -1.5990    -2.7250     0.8770 C.ar  1 <1>  -0.1500 
  4 C       -0.0250    -1.0180     0.2530 C.ar  1 <1>  -0.1500 
  5 C       -2.6450    -1.9220     0.4430 C.ar  1 <1>  -0.1430 
  6 C       -1.0650    -0.2120    -0.1690 C.ar  1 <1>  -0.1500 
  7 C       -2.3720    -0.6600    -0.0720 C.ar  1 <1>  -0.1500 
  8 C       -4.0760    -2.4140     0.5200 C.3   1 <1>   0.4860 
  9 N       -4.5390    -2.7310    -0.8650 N.4   1 <1>  -0.9590 
 10 C       -6.0080    -2.9010    -1.0480 C.3   1 <1>   0.4230 
 11 C       -3.7900    -3.9060    -1.4180 C.3   1 <1>   0.2630 
 12 C       -6.8030    -1.6240    -0.7840 C.3   1 <1>  -0.1600 
 13 C       -6.6560    -3.9370    -0.1280 C.3   1 <1>  -0.1600 
 14 C       -8.2460    -2.1150    -0.5800 C.3   1 <1>  -0.0800 
 15 C       -8.1530    -3.5870    -0.1650 C.3   1 <1>  -0.0800 
 16 C       -9.0500    -1.3930     0.5150 C.3   1 <1>  -0.1600 
 17 C       -8.9040    -3.7210     1.1710 C.3   1 <1>  -0.1600 
 18 C       -9.7770    -2.4730     1.3280 C.3   1 <1>   0.4230 
 19 N      -11.1820    -2.7270     0.8730 N.4   1 <1>  -0.9590 
 20 C      -11.3650    -3.0030    -0.5890 C.3   1 <1>   0.2630 
 21 C      -12.0890    -1.6140     1.2990 C.3   1 <1>   0.2630 
 22 H        0.4710    -3.8620     1.6240 H     1 <1>   0.4500 
 23 H       -1.7840    -3.7000     1.2920 H     1 <1>   0.1500 
 24 H        0.9950    -0.6820     0.1840 H     1 <1>   0.1500 
 25 H       -0.8530     0.7660    -0.5680 H     1 <1>   0.1500 
 26 H       -3.1630    -0.0070    -0.3990 H     1 <1>   0.1500 
 27 H       -4.6850    -1.6410     0.9570 H     1 <1>   0.0800 
 28 H       -4.1330    -3.2890     1.1460 H     1 <1>   0.0800 
 29 H       -4.2520    -1.9200    -1.4290 H     1 <1>   0.4500 
 30 H       -6.2030    -3.1970    -2.0680 H     1 <1>   0.0800 
 31 H       -4.0020    -4.7930    -0.8440 H     1 <1>   0.0800 
 32 H       -2.7270    -3.7210    -1.3860 H     1 <1>   0.0800 
 33 H       -4.0710    -4.0820    -2.4430 H     1 <1>   0.0800 
 34 H       -6.4530    -1.1310     0.1030 H     1 <1>   0.0800 
 35 H       -6.7430    -0.9450    -1.6170 H     1 <1>   0.0800 
 36 H       -6.4880    -4.9390    -0.4800 H     1 <1>   0.0800 
 37 H       -6.2820    -3.8430     0.8750 H     1 <1>   0.0800 
 38 H       -8.7750    -2.0550    -1.5190 H     1 <1>   0.0800 
 39 H       -8.6360    -4.1900    -0.9170 H     1 <1>   0.0800 
 40 H       -9.7140    -0.6530     0.1070 H     1 <1>   0.0800 
 41 H       -8.3780    -0.8910     1.1880 H     1 <1>   0.0800 
 42 H       -8.2020    -3.7220     1.9860 H     1 <1>   0.0800 
 43 H       -9.4720    -4.6340     1.2270 H     1 <1>   0.0800 
 44 H       -9.8010    -2.1870     2.3680 H     1 <1>   0.0800 
 45 H      -11.4950    -3.5700     1.3780 H     1 <1>   0.4500 
 46 H      -11.0580    -2.1520    -1.1740 H     1 <1>   0.0800 
 47 H      -12.4020    -3.2080    -0.8020 H     1 <1>   0.0800 
 48 H      -10.7820    -3.8590    -0.8850 H     1 <1>   0.0800 
 49 H      -11.8250    -0.6970     0.7960 H     1 <1>   0.0800 
 50 H      -12.0170    -1.4560     2.3630 H     1 <1>   0.0800 
 51 H      -13.1130    -1.8530     1.0590 H     1 <1>   0.0800 
@<TRIPOS>BOND
  1   1   2  1   
  2   1  22  1   
  3   2   3  ar  
  4   2   4  ar  
  5   3   5  ar  
  6   3  23  1   
  7   4   6  ar  
  8   4  24  1   
  9   5   7  ar  
 10   5   8  1   
 11   6   7  ar  
 12   6  25  1   
 13   7  26  1   
 14   8   9  1   
 15   8  27  1   
 16   8  28  1   
 17   9  10  1   
 18   9  11  1   
 19   9  29  1   
 20  10  12  1   
 21  10  13  1   
 22  10  30  1   
 23  11  31  1   
 24  11  32  1   
 25  11  33  1   
 26  12  14  1   
 27  12  34  1   
 28  12  35  1   
 29  13  15  1   
 30  13  36  1   
 31  13  37  1   
 32  14  15  1   
 33  14  16  1   
 34  14  38  1   
 35  15  17  1   
 36  15  39  1   
 37  16  18  1   
 38  16  40  1   
 39  16  41  1   
 40  17  18  1   
 41  17  42  1   
 42  17  43  1   
 43  18  19  1   
 44  18  44  1   
 45  19  20  1   
 46  19  21  1   
 47  19  45  1   
 48  20  46  1   
 49  20  47  1   
 50  20  48  1   
 51  21  49  1   
 52  21  50  1   
 53  21  51  1   
@<TRIPOS>SUBSTRUCTURE
  1 ****  10 GROUP 4 **** **** 0

# MOE 2024.06 (io_trps.svl 2023.06)
