@<TRIPOS>MOLECULE
NONAME
58 60 1 0 0 
SMALL
USER_CHARGES


@<TRIPOS>ATOM
  1 F       -0.0660    -5.0240    -0.3370 F     1 <1>  -0.1900 
  2 C       -1.3020    -5.0040     0.0820 C.ar  1 <1>   0.1900 
  3 C       -1.6370    -5.7370     1.2040 C.ar  1 <1>  -0.1500 
  4 C       -2.2310    -4.2560    -0.6150 C.ar  1 <1>  -0.1500 
  5 C       -2.9520    -5.7210     1.6360 C.ar  1 <1>  -0.1500 
  6 C       -3.5440    -4.2480    -0.1710 C.ar  1 <1>  -0.1500 
  7 C       -3.9090    -4.9810     0.9520 C.ar  1 <1>  -0.1430 
  8 C       -5.3550    -4.9940     1.4280 C.3   1 <1>  -0.0160 
  9 C       -5.9790    -6.3550     1.1090 C.3   1 <1>  -0.1600 
 10 C       -7.4620    -6.4650     1.5080 C.3   1 <1>  -0.0990 
 11 C       -7.9580    -7.8750     1.2320 C.2   1 <1>   0.5690 
 12 O       -8.1050    -8.6110     2.1780 O.2   1 <1>  -0.5700 
 13 N       -8.1360    -8.3060    -0.0520 N.am  1 <1>  -0.6600 
 14 C       -7.8430    -9.7340    -0.3990 C.3   1 <1>   0.3640 
 15 C       -8.5240    -7.4100    -1.1810 C.3   1 <1>   0.1400 
 16 C       -6.3320    -9.8600    -0.6750 C.ar  1 <1>  -0.1430 
 17 C       -8.7680   -10.2280    -1.5480 C.3   1 <1>   0.2000 
 18 C       -8.3240    -8.0630    -2.5550 C.3   1 <1>   0.1200 
 19 C       -5.4610    -9.7240     0.4000 C.ar  1 <1>  -0.1500 
 20 C       -5.7840   -10.0850    -1.9360 C.ar  1 <1>  -0.1500 
 21 O       -8.9160    -9.3330    -2.6370 O.3   1 <1>  -0.5600 
 22 C      -10.1800   -10.5370    -1.0310 C.3   1 <1>   0.1200 
 23 C       -4.0880    -9.7470     0.2300 C.ar  1 <1>   0.0830 
 24 C       -4.4120   -10.1040    -2.1210 C.ar  1 <1>  -0.1500 
 25 O      -10.1690   -11.6980    -0.2620 O.3   1 <1>  -0.6800 
 26 O       -3.3180    -9.6110     1.3370 O.3   1 <1>  -0.3630 
 27 C       -3.5560    -9.9030    -1.0530 C.ar  1 <1>   0.0830 
 28 C       -2.5540   -10.7380     1.7020 C.3   1 <1>   0.0400 
 29 O       -2.2260    -9.8520    -1.3140 O.3   1 <1>  -0.3630 
 30 C       -1.5860    -8.6220    -1.0440 C.3   1 <1>   0.0400 
 31 H       -0.8880    -6.3070     1.7230 H     1 <1>   0.1500 
 32 H       -1.9320    -3.6970    -1.4820 H     1 <1>   0.1500 
 33 H       -3.2300    -6.2950     2.5030 H     1 <1>   0.1500 
 34 H       -4.2780    -3.6730    -0.7070 H     1 <1>   0.1500 
 35 H       -5.3840    -4.8160     2.4890 H     1 <1>   0.0800 
 36 H       -5.9120    -4.2120     0.9440 H     1 <1>   0.0800 
 37 H       -5.4280    -7.1170     1.6330 H     1 <1>   0.0800 
 38 H       -5.8710    -6.5520     0.0570 H     1 <1>   0.0800 
 39 H       -8.0610    -5.7470     0.9810 H     1 <1>   0.0800 
 40 H       -7.5650    -6.2690     2.5610 H     1 <1>   0.0800 
 41 H       -8.0490   -10.3500     0.4600 H     1 <1>   0.0800 
 42 H       -9.5610    -7.1440    -1.0710 H     1 <1>   0.0800 
 43 H       -7.9440    -6.5050    -1.1510 H     1 <1>   0.0800 
 44 H       -8.3650   -11.1370    -1.9560 H     1 <1>   0.0800 
 45 H       -7.2760    -8.1510    -2.7730 H     1 <1>   0.0800 
 46 H       -8.7680    -7.4510    -3.3190 H     1 <1>   0.0800 
 47 H       -5.8420    -9.5920     1.3970 H     1 <1>   0.1500 
 48 H       -6.4100   -10.2350    -2.7970 H     1 <1>   0.1500 
 49 H      -10.8600   -10.6890    -1.8510 H     1 <1>   0.0800 
 50 H      -10.5360    -9.7340    -0.4100 H     1 <1>   0.0800 
 51 H       -3.9960   -10.2610    -3.1000 H     1 <1>   0.1500 
 52 H      -10.0800   -12.4910    -0.8270 H     1 <1>   0.4000 
 53 H       -2.0640   -10.5240     2.6340 H     1 <1>   0.0800 
 54 H       -1.8230   -10.9350     0.9390 H     1 <1>   0.0800 
 55 H       -3.2130   -11.5800     1.8160 H     1 <1>   0.0800 
 56 H       -0.5950    -8.6590    -1.4590 H     1 <1>   0.0800 
 57 H       -1.5310    -8.4740     0.0190 H     1 <1>   0.0800 
 58 H       -2.1480    -7.8260    -1.5000 H     1 <1>   0.0800 
@<TRIPOS>BOND
  1   1   2  1   
  2   2   3  ar  
  3   2   4  ar  
  4   3   5  ar  
  5   3  31  1   
  6   4   6  ar  
  7   4  32  1   
  8   5   7  ar  
  9   5  33  1   
 10   6   7  ar  
 11   6  34  1   
 12   7   8  1   
 13   8   9  1   
 14   8  35  1   
 15   8  36  1   
 16   9  10  1   
 17   9  37  1   
 18   9  38  1   
 19  10  11  1   
 20  10  39  1   
 21  10  40  1   
 22  11  12  2   
 23  11  13  am  
 24  13  14  1   
 25  13  15  1   
 26  14  16  1   
 27  14  17  1   
 28  14  41  1   
 29  15  18  1   
 30  15  42  1   
 31  15  43  1   
 32  16  19  ar  
 33  16  20  ar  
 34  17  21  1   
 35  17  22  1   
 36  17  44  1   
 37  18  21  1   
 38  18  45  1   
 39  18  46  1   
 40  19  23  ar  
 41  19  47  1   
 42  20  24  ar  
 43  20  48  1   
 44  22  25  1   
 45  22  49  1   
 46  22  50  1   
 47  23  26  1   
 48  23  27  ar  
 49  24  27  ar  
 50  24  51  1   
 51  25  52  1   
 52  26  28  1   
 53  27  29  1   
 54  28  53  1   
 55  28  54  1   
 56  28  55  1   
 57  29  30  1   
 58  30  56  1   
 59  30  57  1   
 60  30  58  1   
@<TRIPOS>SUBSTRUCTURE
  1 ****  19 GROUP 4 **** **** 0

# MOE 2024.06 (io_trps.svl 2023.06)
