@<TRIPOS>MOLECULE
NONAME
47 49 1 0 0 
SMALL
USER_CHARGES


@<TRIPOS>ATOM
  1 O        1.2830     0.2910    -0.6340 O.3   1 <1>  -0.6800 
  2 C        1.6990     0.0410     0.6600 C.3   1 <1>   0.2800 
  3 C        3.2440     0.1600     0.7180 C.3   1 <1>  -0.0800 
  4 C        1.2710    -1.3930     1.0160 C.3   1 <1>  -0.1600 
  5 C        0.9750     1.0500     1.5780 C.3   1 <1>  -0.1600 
  6 C        4.0270    -1.1230     0.3620 C.3   1 <1>  -0.0800 
  7 C        3.8130     1.2150    -0.2220 C.3   1 <1>   0.3430 
  8 C        1.8820    -2.4850     0.1130 C.3   1 <1>  -0.1600 
  9 C        1.2470     2.5400     1.3040 C.3   1 <1>  -0.2400 
 10 C        3.2190    -2.0800    -0.5300 C.3   1 <1>  -0.1600 
 11 C        5.2980    -0.6570    -0.3560 C.3   1 <1>   0.3430 
 12 N        5.2280     0.8230    -0.4010 N.4   1 <1>  -0.9590 
 13 C        5.8670     1.4720    -1.5810 C.3   1 <1>   0.4860 
 14 C        6.1170     2.9430    -1.2570 C.ar  1 <1>   0.1670 
 15 N        6.5200     3.2080    -0.0170 N.ar  1 <1>  -0.6200 
 16 C        5.9090     3.9080    -2.2310 C.ar  1 <1>  -0.1500 
 17 C        6.7320     4.4840     0.2620 C.ar  1 <1>   0.1670 
 18 C        6.1300     5.2330    -1.9260 C.ar  1 <1>  -0.1500 
 19 C        6.5520     5.5160    -0.6450 C.ar  1 <1>  -0.1500 
 20 C        7.1990     4.7880     1.6700 C.3   1 <1>  -0.0970 
 21 H        0.3180     0.1450    -0.6940 H     1 <1>   0.4000 
 22 H        3.5200     0.4310     1.7210 H     1 <1>   0.0800 
 23 H        1.5860    -1.5860     2.0270 H     1 <1>   0.0800 
 24 H        0.1980    -1.4800     1.0080 H     1 <1>   0.0800 
 25 H       -0.0860     0.8830     1.5040 H     1 <1>   0.0800 
 26 H        1.2430     0.8440     2.6000 H     1 <1>   0.0800 
 27 H        4.2970    -1.6470     1.2640 H     1 <1>   0.0800 
 28 H        3.7250     2.2100     0.1830 H     1 <1>   0.0800 
 29 H        3.3010     1.1690    -1.1700 H     1 <1>   0.0800 
 30 H        2.0180    -3.3780     0.6980 H     1 <1>   0.0800 
 31 H        1.1870    -2.7250    -0.6740 H     1 <1>   0.0800 
 32 H        1.0560     2.7850     0.2730 H     1 <1>   0.0800 
 33 H        2.2580     2.8030     1.5530 H     1 <1>   0.0800 
 34 H        0.5950     3.1420     1.9140 H     1 <1>   0.0800 
 35 H        3.0100    -1.5940    -1.4690 H     1 <1>   0.0800 
 36 H        3.7900    -2.9670    -0.7480 H     1 <1>   0.0800 
 37 H        5.3130    -1.0590    -1.3560 H     1 <1>   0.0800 
 38 H        6.1820    -0.9820     0.1700 H     1 <1>   0.0800 
 39 H        5.7430     1.2340     0.3990 H     1 <1>   0.4500 
 40 H        6.8160     1.0050    -1.7810 H     1 <1>   0.0800 
 41 H        5.2390     1.3780    -2.4510 H     1 <1>   0.0800 
 42 H        5.5800     3.6410    -3.2200 H     1 <1>   0.1500 
 43 H        5.9820     6.0150    -2.6530 H     1 <1>   0.1500 
 44 H        6.7410     6.5350    -0.3580 H     1 <1>   0.1500 
 45 H        7.3570     5.8420     1.8080 H     1 <1>   0.0800 
 46 H        8.1230     4.2740     1.8630 H     1 <1>   0.0800 
 47 H        6.4620     4.4550     2.3770 H     1 <1>   0.0800 
@<TRIPOS>BOND
  1   1   2  1   
  2   1  21  1   
  3   2   3  1   
  4   2   4  1   
  5   2   5  1   
  6   3   6  1   
  7   3   7  1   
  8   3  22  1   
  9   4   8  1   
 10   4  23  1   
 11   4  24  1   
 12   5   9  1   
 13   5  25  1   
 14   5  26  1   
 15   6  10  1   
 16   6  11  1   
 17   6  27  1   
 18   7  12  1   
 19   7  28  1   
 20   7  29  1   
 21   8  10  1   
 22   8  30  1   
 23   8  31  1   
 24   9  32  1   
 25   9  33  1   
 26   9  34  1   
 27  10  35  1   
 28  10  36  1   
 29  11  12  1   
 30  11  37  1   
 31  11  38  1   
 32  12  13  1   
 33  12  39  1   
 34  13  14  1   
 35  13  40  1   
 36  13  41  1   
 37  14  15  ar  
 38  14  16  ar  
 39  15  17  ar  
 40  16  18  ar  
 41  16  42  1   
 42  17  19  ar  
 43  17  20  1   
 44  18  19  ar  
 45  18  43  1   
 46  19  44  1   
 47  20  45  1   
 48  20  46  1   
 49  20  47  1   
@<TRIPOS>SUBSTRUCTURE
  1 ****   7 GROUP 4 **** **** 0

# MOE 2024.06 (io_trps.svl 2023.06)
