@<TRIPOS>MOLECULE
NONAME
50 52 1 0 0 
SMALL
USER_CHARGES


@<TRIPOS>ATOM
  1 S        0.3820     1.1280     2.7910 S.3   1 <1>  -0.0800 
  2 C        0.3700    -0.3090     1.7830 C.2   1 <1>  -0.1400 
  3 C        1.7210     1.8000     1.8790 C.2   1 <1>  -0.1100 
  4 C        1.3280    -0.2330     0.8420 C.2   1 <1>  -0.1500 
  5 C       -0.6640    -1.3720     2.0830 C.3   1 <1>   0.5230 
  6 C        2.1080     0.9700     0.8880 C.2   1 <1>   0.0190 
  7 N       -2.0090    -0.7730     1.8200 N.4   1 <1>  -0.9590 
  8 C        3.1670     1.2070    -0.0450 C.1   1 <1>  -0.0190 
  9 C       -2.2510    -0.6400     0.3420 C.3   1 <1>   0.3430 
 10 C       -3.0880    -1.5460     2.5200 C.3   1 <1>   0.3430 
 11 C        4.0500     1.4030    -0.8200 C.1   1 <1>  -0.2000 
 12 C       -2.4030    -1.9920    -0.3930 C.3   1 <1>   0.2000 
 13 C       -3.9100    -2.4350     1.5650 C.3   1 <1>  -0.1600 
 14 C        5.1570     1.6440    -1.7820 C.3   1 <1>   0.3200 
 15 O       -1.1620    -2.3460    -0.9030 O.3   1 <1>  -0.6800 
 16 C       -3.0320    -3.1260     0.4800 C.3   1 <1>  -0.1060 
 17 O        4.5960     1.7840    -3.0330 O.3   1 <1>  -0.6800 
 18 C       -1.9420    -3.9850     1.1480 C.2   1 <1>   0.9060 
 19 C       -3.8790    -4.0930    -0.3890 C.3   1 <1>  -0.0170 
 20 O       -1.8580    -4.0340     2.3800 O.co2 1 <1>  -0.9000 
 21 O       -1.0740    -4.4940     0.4350 O.co2 1 <1>  -0.9000 
 22 C       -5.0810    -3.4600    -1.0870 C.ar  1 <1>  -0.1430 
 23 C       -4.9720    -2.9930    -2.3880 C.ar  1 <1>  -0.1500 
 24 C       -6.3040    -3.3650    -0.4370 C.ar  1 <1>  -0.1500 
 25 C       -6.0590    -2.4150    -3.0210 C.ar  1 <1>  -0.1500 
 26 C       -7.3920    -2.7880    -1.0680 C.ar  1 <1>  -0.1500 
 27 C       -7.2690    -2.3090    -2.3600 C.ar  1 <1>  -0.1500 
 28 H        2.0950     2.7630     2.1770 H     1 <1>   0.1500 
 29 H        1.5300    -0.9840     0.0950 H     1 <1>   0.1500 
 30 H       -0.5840    -1.6900     3.1100 H     1 <1>   0.0800 
 31 H       -0.4860    -2.2260     1.4540 H     1 <1>   0.0800 
 32 H       -1.9490     0.1650     2.2280 H     1 <1>   0.4500 
 33 H       -3.1660    -0.0910     0.2010 H     1 <1>   0.0800 
 34 H       -1.4560    -0.0790    -0.1220 H     1 <1>   0.0800 
 35 H       -2.6430    -2.1690     3.2810 H     1 <1>   0.0800 
 36 H       -3.7590    -0.8660     3.0180 H     1 <1>   0.0800 
 37 H       -3.0210    -1.7980    -1.2480 H     1 <1>   0.0800 
 38 H       -4.4090    -3.1840     2.1550 H     1 <1>   0.0800 
 39 H       -4.6720    -1.8310     1.1060 H     1 <1>   0.0800 
 40 H        5.8350     0.8080    -1.8040 H     1 <1>   0.0800 
 41 H        5.6940     2.5470    -1.5460 H     1 <1>   0.0800 
 42 H       -0.9400    -3.2750    -0.5660 H     1 <1>   0.4000 
 43 H        3.8840     1.1250    -3.1350 H     1 <1>   0.4000 
 44 H       -3.2420    -4.5410    -1.1330 H     1 <1>   0.0800 
 45 H       -4.2290    -4.9020     0.2300 H     1 <1>   0.0800 
 46 H       -4.0390    -3.0820    -2.9170 H     1 <1>   0.1500 
 47 H       -6.4140    -3.7450     0.5630 H     1 <1>   0.1500 
 48 H       -5.9630    -2.0530    -4.0300 H     1 <1>   0.1500 
 49 H       -8.3360    -2.7160    -0.5560 H     1 <1>   0.1500 
 50 H       -8.1150    -1.8610    -2.8520 H     1 <1>   0.1500 
@<TRIPOS>BOND
  1   1   2  1   
  2   1   3  1   
  3   2   4  2   
  4   2   5  1   
  5   3   6  2   
  6   3  28  1   
  7   4   6  1   
  8   4  29  1   
  9   5   7  1   
 10   5  30  1   
 11   5  31  1   
 12   6   8  1   
 13   7   9  1   
 14   7  10  1   
 15   7  32  1   
 16   8  11  3   
 17   9  12  1   
 18   9  33  1   
 19   9  34  1   
 20  10  13  1   
 21  10  35  1   
 22  10  36  1   
 23  11  14  1   
 24  12  15  1   
 25  12  16  1   
 26  12  37  1   
 27  13  16  1   
 28  13  38  1   
 29  13  39  1   
 30  14  17  1   
 31  14  40  1   
 32  14  41  1   
 33  15  42  1   
 34  16  18  1   
 35  16  19  1   
 36  17  43  1   
 37  18  20  ar  
 38  18  21  ar  
 39  19  22  1   
 40  19  44  1   
 41  19  45  1   
 42  22  23  ar  
 43  22  24  ar  
 44  23  25  ar  
 45  23  46  1   
 46  24  26  ar  
 47  24  47  1   
 48  25  27  ar  
 49  25  48  1   
 50  26  27  ar  
 51  26  49  1   
 52  27  50  1   
@<TRIPOS>SUBSTRUCTURE
  1 ****   9 GROUP 4 **** **** 0

# MOE 2024.06 (io_trps.svl 2023.06)
