@<TRIPOS>MOLECULE
NONAME
42 44 1 0 0 
SMALL
USER_CHARGES


@<TRIPOS>ATOM
  1 S       -0.5360    -0.2120     1.1040 S.3   1 <1>  -0.0800 
  2 C       -1.6830    -1.5290     1.1810 C.2   1 <1>  -0.1100 
  3 C        0.7330    -1.3000     0.5830 C.2   1 <1>  -0.1100 
  4 C       -1.1290    -2.7120     0.8140 C.2   1 <1>  -0.0860 
  5 C        0.2650    -2.5570     0.4840 C.2   1 <1>  -0.1500 
  6 C       -1.7770    -4.0090     0.7540 C.2   1 <1>   0.7160 
  7 O       -1.1570    -4.9920     1.1150 O.2   1 <1>  -0.5700 
  8 N       -3.0680    -4.1700     0.2890 N.am  1 <1>  -0.6600 
  9 C       -3.7780    -5.4780     0.4720 C.3   1 <1>   0.1400 
 10 C       -3.7020    -3.2070    -0.6570 C.3   1 <1>   0.1400 
 11 C       -5.2440    -5.3240     0.9080 C.3   1 <1>   0.1400 
 12 C       -4.9040    -2.5290     0.0090 C.3   1 <1>  -0.1600 
 13 N       -6.0880    -4.7590    -0.1910 N.am  1 <1>  -0.6600 
 14 C       -6.2320    -3.2730    -0.1940 C.3   1 <1>   0.1400 
 15 C       -6.7670    -5.5200    -1.1200 C.2   1 <1>   0.5690 
 16 O       -7.4140    -5.0050    -2.0020 O.2   1 <1>  -0.5700 
 17 C       -6.7250    -7.0410    -1.1190 C.3   1 <1>   0.0810 
 18 C       -7.8040    -7.6360    -0.2340 C.2   1 <1>  -0.0400 
 19 O       -7.6980    -7.5800     1.0660 O.3   1 <1>  -0.0190 
 20 C       -8.9500    -8.2700    -0.5250 C.2   1 <1>  -0.1500 
 21 N       -8.7080    -8.1430     1.6620 N.2   1 <1>  -0.4100 
 22 C       -9.4810    -8.5660     0.7270 C.2   1 <1>   0.1080 
 23 C      -10.7900    -9.2860     0.9650 C.3   1 <1>  -0.0590 
 24 H       -2.6790    -1.2890     1.5040 H     1 <1>   0.1500 
 25 H        1.7070    -0.8780     0.4070 H     1 <1>   0.1500 
 26 H        0.8470    -3.4140     0.1900 H     1 <1>   0.1500 
 27 H       -3.2760    -6.0550     1.2300 H     1 <1>   0.0800 
 28 H       -3.7270    -6.0380    -0.4440 H     1 <1>   0.0800 
 29 H       -4.0090    -3.7210    -1.5530 H     1 <1>   0.0800 
 30 H       -2.9880    -2.4580    -0.9540 H     1 <1>   0.0800 
 31 H       -5.2990    -4.6930     1.7780 H     1 <1>   0.0800 
 32 H       -5.6160    -6.2860     1.2010 H     1 <1>   0.0800 
 33 H       -5.0210    -1.5470    -0.4130 H     1 <1>   0.0800 
 34 H       -4.7190    -2.3970     1.0590 H     1 <1>   0.0800 
 35 H       -6.6490    -2.9540    -1.1350 H     1 <1>   0.0800 
 36 H       -6.9280    -2.9870     0.5750 H     1 <1>   0.0800 
 37 H       -5.7610    -7.3980    -0.8150 H     1 <1>   0.0800 
 38 H       -6.8860    -7.3770    -2.1270 H     1 <1>   0.0800 
 39 H       -9.3860    -8.5060    -1.4780 H     1 <1>   0.1500 
 40 H      -11.5970    -8.7300     0.5230 H     1 <1>   0.0800 
 41 H      -10.9710    -9.3800     2.0210 H     1 <1>   0.0800 
 42 H      -10.7520   -10.2670     0.5300 H     1 <1>   0.0800 
@<TRIPOS>BOND
  1   1   2  1   
  2   1   3  1   
  3   2   4  2   
  4   2  24  1   
  5   3   5  2   
  6   3  25  1   
  7   4   5  1   
  8   4   6  1   
  9   5  26  1   
 10   6   7  2   
 11   6   8  am  
 12   8   9  1   
 13   8  10  1   
 14   9  11  1   
 15   9  27  1   
 16   9  28  1   
 17  10  12  1   
 18  10  29  1   
 19  10  30  1   
 20  11  13  1   
 21  11  31  1   
 22  11  32  1   
 23  12  14  1   
 24  12  33  1   
 25  12  34  1   
 26  13  14  1   
 27  13  15  am  
 28  14  35  1   
 29  14  36  1   
 30  15  16  2   
 31  15  17  1   
 32  17  18  1   
 33  17  37  1   
 34  17  38  1   
 35  18  19  1   
 36  18  20  2   
 37  19  21  1   
 38  20  22  1   
 39  20  39  1   
 40  21  22  2   
 41  22  23  1   
 42  23  40  1   
 43  23  41  1   
 44  23  42  1   
@<TRIPOS>SUBSTRUCTURE
  1 ****  11 GROUP 4 **** **** 0

# MOE 2024.06 (io_trps.svl 2023.06)
