@<TRIPOS>MOLECULE
NONAME
52 55 1 0 0 
SMALL
USER_CHARGES


@<TRIPOS>ATOM
  1 S        0.2690    -0.5820    -2.1170 S.3   1 <1>  -0.0800 
  2 C        1.6760    -0.7530    -1.0840 C.2   1 <1>   0.4620 
  3 C       -0.4460    -1.9540    -1.3150 C.2   1 <1>  -0.1100 
  4 N        1.6030    -1.7190    -0.2500 N.2   1 <1>  -0.5650 
  5 N        2.7060     0.1140    -1.2300 N.pl3 1 <1>  -0.8840 
  6 C        0.4070    -2.4000    -0.3770 C.2   1 <1>   0.0460 
  7 C        0.2080    -3.5760     0.5700 C.3   1 <1>   0.0210 
  8 C       -1.1450    -4.2850     0.3860 C.3   1 <1>  -0.0990 
  9 C       -1.3560    -5.4660     1.3230 C.2   1 <1>   0.5690 
 10 O       -0.4900    -5.7220     2.1260 O.2   1 <1>  -0.5700 
 11 N       -2.5080    -6.2100     1.2410 N.am  1 <1>  -0.6600 
 12 C       -3.6410    -5.9600     0.3050 C.3   1 <1>   0.1400 
 13 C       -2.7210    -7.4060     2.1060 C.3   1 <1>   0.1400 
 14 C       -3.8120    -7.1730    -0.6120 C.3   1 <1>  -0.1600 
 15 C       -2.8960    -8.6460     1.2250 C.3   1 <1>  -0.1600 
 16 C       -4.0230    -8.4720     0.1910 C.3   1 <1>   0.4240 
 17 O       -5.1760    -8.2730     0.9820 O.3   1 <1>  -0.5600 
 18 C       -4.1620    -9.7250    -0.7220 C.ar  1 <1>  -0.1430 
 19 C       -6.4150    -8.5270     0.4060 C.3   1 <1>   0.1200 
 20 C       -3.1240   -10.1580    -1.5600 C.ar  1 <1>   0.0830 
 21 C       -5.3500   -10.4560    -0.7220 C.ar  1 <1>  -0.1430 
 22 C       -6.5150   -10.0210     0.1430 C.3   1 <1>  -0.0170 
 23 O       -1.9640    -9.4510    -1.5930 O.3   1 <1>  -0.3620 
 24 C       -3.2870   -11.2940    -2.3510 C.ar  1 <1>  -0.1500 
 25 C       -5.4990   -11.5850    -1.5090 C.ar  1 <1>  -0.1500 
 26 C       -0.7970    -9.9320    -2.2220 C.3   1 <1>   0.0400 
 27 C       -4.4680   -12.0060    -2.3230 C.ar  1 <1>  -0.1500 
 28 H       -1.4210    -2.2650    -1.6400 H     1 <1>   0.1500 
 29 H        3.5260     0.0180    -0.6300 H     1 <1>   0.4000 
 30 H        2.6990     0.8670    -1.9180 H     1 <1>   0.4000 
 31 H        0.2880    -3.2170     1.5810 H     1 <1>   0.0800 
 32 H        1.0050    -4.2810     0.4110 H     1 <1>   0.0800 
 33 H       -1.2120    -4.6450    -0.6240 H     1 <1>   0.0800 
 34 H       -1.9330    -3.5760     0.5590 H     1 <1>   0.0800 
 35 H       -3.4770    -5.0810    -0.2900 H     1 <1>   0.0800 
 36 H       -4.5390    -5.8050     0.8800 H     1 <1>   0.0800 
 37 H       -3.6000    -7.2530     2.7090 H     1 <1>   0.0800 
 38 H       -1.8870    -7.5530     2.7700 H     1 <1>   0.0800 
 39 H       -2.9310    -7.2490    -1.2180 H     1 <1>   0.0800 
 40 H       -4.6370    -7.0180    -1.2810 H     1 <1>   0.0800 
 41 H       -3.1140    -9.5010     1.8390 H     1 <1>   0.0800 
 42 H       -1.9580    -8.8340     0.7430 H     1 <1>   0.0800 
 43 H       -6.5100    -7.9620    -0.5040 H     1 <1>   0.0800 
 44 H       -7.1730    -8.2140     1.1020 H     1 <1>   0.0800 
 45 H       -7.4470   -10.2300    -0.3500 H     1 <1>   0.0800 
 46 H       -6.4950   -10.5530     1.0770 H     1 <1>   0.0800 
 47 H       -2.5080   -11.6410    -3.0010 H     1 <1>   0.1500 
 48 H       -6.4200   -12.1420    -1.4920 H     1 <1>   0.1500 
 49 H        0.0020    -9.2430    -2.0130 H     1 <1>   0.0800 
 50 H       -0.9670    -9.9830    -3.2820 H     1 <1>   0.0800 
 51 H       -0.5570   -10.9010    -1.8200 H     1 <1>   0.0800 
 52 H       -4.5870   -12.8830    -2.9350 H     1 <1>   0.1500 
@<TRIPOS>BOND
  1   1   2  1   
  2   1   3  1   
  3   2   4  2   
  4   2   5  1   
  5   3   6  2   
  6   3  28  1   
  7   4   6  1   
  8   5  29  1   
  9   5  30  1   
 10   6   7  1   
 11   7   8  1   
 12   7  31  1   
 13   7  32  1   
 14   8   9  1   
 15   8  33  1   
 16   8  34  1   
 17   9  10  2   
 18   9  11  am  
 19  11  12  1   
 20  11  13  1   
 21  12  14  1   
 22  12  35  1   
 23  12  36  1   
 24  13  15  1   
 25  13  37  1   
 26  13  38  1   
 27  14  16  1   
 28  14  39  1   
 29  14  40  1   
 30  15  16  1   
 31  15  41  1   
 32  15  42  1   
 33  16  17  1   
 34  16  18  1   
 35  17  19  1   
 36  18  20  ar  
 37  18  21  ar  
 38  19  22  1   
 39  19  43  1   
 40  19  44  1   
 41  20  23  1   
 42  20  24  ar  
 43  21  22  1   
 44  21  25  ar  
 45  22  45  1   
 46  22  46  1   
 47  23  26  1   
 48  24  27  ar  
 49  24  47  1   
 50  25  27  ar  
 51  25  48  1   
 52  26  49  1   
 53  26  50  1   
 54  26  51  1   
 55  27  52  1   
@<TRIPOS>SUBSTRUCTURE
  1 ****  14 GROUP 4 **** **** 0

# MOE 2024.06 (io_trps.svl 2023.06)
