@<TRIPOS>MOLECULE
NONAME
60 62 1 0 0 
SMALL
USER_CHARGES


@<TRIPOS>ATOM
  1 O        0.7260    -1.0820    -0.1960 O.3   1 <1>  -0.5600 
  2 C        0.0470    -2.2510     0.2290 C.3   1 <1>   0.2800 
  3 C        0.1930     0.1730     0.1350 C.3   1 <1>   0.1200 
  4 C       -1.2390    -1.9200     1.0450 C.3   1 <1>   0.2000 
  5 C        1.0440    -3.0380     1.1000 C.3   1 <1>  -0.1600 
  6 C       -0.2340    -3.0570    -1.0620 C.3   1 <1>  -0.1600 
  7 C       -1.2640     0.2330    -0.3280 C.3   1 <1>  -0.1600 
  8 O       -1.9710    -3.0750     1.3370 O.3   1 <1>  -0.6800 
  9 C       -2.1260    -0.8140     0.4000 C.3   1 <1>   0.2800 
 10 C        2.3600    -3.3670     0.3880 C.3   1 <1>   0.3430 
 11 C        0.9790    -3.8180    -1.6060 C.3   1 <1>   0.3430 
 12 O       -2.7630    -0.1730     1.4430 O.3   1 <1>  -0.6800 
 13 C       -3.2530    -1.3160    -0.5140 C.3   1 <1>  -0.2400 
 14 N        2.2210    -3.2050    -1.0870 N.4   1 <1>  -0.9590 
 15 C        3.4480    -3.5550    -1.8520 C.3   1 <1>   0.4860 
 16 C        4.6330    -2.7950    -1.2710 C.ar  1 <1>  -0.1440 
 17 C        5.5780    -3.4360    -0.4640 C.ar  1 <1>  -0.1440 
 18 C        4.7580    -1.4350    -1.5510 C.ar  1 <1>  -0.1440 
 19 C        6.6520    -2.7110     0.0550 C.ar  1 <1>  -0.1440 
 20 C        5.4700    -4.9320    -0.1390 C.3   1 <1>  -0.0970 
 21 C        5.8100    -0.7240    -1.0070 C.ar  1 <1>  -0.1500 
 22 C        3.7800    -0.6730    -2.4420 C.3   1 <1>  -0.0970 
 23 C        6.7550    -1.3450    -0.2030 C.ar  1 <1>   0.0820 
 24 C        7.7320    -3.3910     0.9060 C.3   1 <1>  -0.0970 
 25 O        7.7890    -0.6580     0.3530 O.3   1 <1>  -0.3620 
 26 C        8.0170     0.7110     0.0990 C.3   1 <1>   0.0400 
 27 H        0.2780     0.3240     1.1990 H     1 <1>   0.0800 
 28 H        0.7800     0.9230    -0.3680 H     1 <1>   0.0800 
 29 H       -0.9050    -1.5430     1.9970 H     1 <1>   0.0800 
 30 H        1.2590    -2.4900     2.0000 H     1 <1>   0.0800 
 31 H        0.5850    -3.9610     1.4060 H     1 <1>   0.0800 
 32 H       -1.0040    -3.7860    -0.8830 H     1 <1>   0.0800 
 33 H       -0.6070    -2.3960    -1.8220 H     1 <1>   0.0800 
 34 H       -1.2720     0.0490    -1.3870 H     1 <1>   0.0800 
 35 H       -1.6550     1.2230    -0.1750 H     1 <1>   0.0800 
 36 H       -2.7510    -2.8170     1.8720 H     1 <1>   0.4000 
 37 H        2.6600    -4.3730     0.6300 H     1 <1>   0.0800 
 38 H        3.1270    -2.6950     0.7430 H     1 <1>   0.0800 
 39 H        0.9640    -3.7910    -2.6840 H     1 <1>   0.0800 
 40 H        0.9310    -4.8480    -1.2910 H     1 <1>   0.0800 
 41 H       -3.4210     0.4590     1.0940 H     1 <1>   0.4000 
 42 H       -2.8520    -1.8910    -1.3260 H     1 <1>   0.0800 
 43 H       -3.8000    -0.4900    -0.9320 H     1 <1>   0.0800 
 44 H       -3.9370    -1.9450     0.0290 H     1 <1>   0.0800 
 45 H        2.0870    -2.1820    -1.1830 H     1 <1>   0.4500 
 46 H        3.6200    -4.6150    -1.8200 H     1 <1>   0.0800 
 47 H        3.3250    -3.2790    -2.8860 H     1 <1>   0.0800 
 48 H        4.4780    -5.3230    -0.2340 H     1 <1>   0.0800 
 49 H        5.7670    -5.1230     0.8760 H     1 <1>   0.0800 
 50 H        6.1200    -5.4890    -0.7920 H     1 <1>   0.0800 
 51 H        5.8880     0.3250    -1.2180 H     1 <1>   0.1500 
 52 H        4.1950     0.2760    -2.7360 H     1 <1>   0.0800 
 53 H        2.8640    -0.4790    -1.9140 H     1 <1>   0.0800 
 54 H        3.5700    -1.2180    -3.3440 H     1 <1>   0.0800 
 55 H        7.9870    -4.3550     0.5080 H     1 <1>   0.0800 
 56 H        7.3830    -3.5040     1.9160 H     1 <1>   0.0800 
 57 H        8.6440    -2.8230     0.9290 H     1 <1>   0.0800 
 58 H        8.9040     1.0040     0.6310 H     1 <1>   0.0800 
 59 H        7.1750     1.2780     0.4550 H     1 <1>   0.0800 
 60 H        8.1620     0.8500    -0.9570 H     1 <1>   0.0800 
@<TRIPOS>BOND
  1   1   2  1   
  2   1   3  1   
  3   2   4  1   
  4   2   5  1   
  5   2   6  1   
  6   3   7  1   
  7   3  27  1   
  8   3  28  1   
  9   4   8  1   
 10   4   9  1   
 11   4  29  1   
 12   5  10  1   
 13   5  30  1   
 14   5  31  1   
 15   6  11  1   
 16   6  32  1   
 17   6  33  1   
 18   7   9  1   
 19   7  34  1   
 20   7  35  1   
 21   8  36  1   
 22   9  12  1   
 23   9  13  1   
 24  10  14  1   
 25  10  37  1   
 26  10  38  1   
 27  11  14  1   
 28  11  39  1   
 29  11  40  1   
 30  12  41  1   
 31  13  42  1   
 32  13  43  1   
 33  13  44  1   
 34  14  15  1   
 35  14  45  1   
 36  15  16  1   
 37  15  46  1   
 38  15  47  1   
 39  16  17  ar  
 40  16  18  ar  
 41  17  19  ar  
 42  17  20  1   
 43  18  21  ar  
 44  18  22  1   
 45  19  23  ar  
 46  19  24  1   
 47  20  48  1   
 48  20  49  1   
 49  20  50  1   
 50  21  23  ar  
 51  21  51  1   
 52  22  52  1   
 53  22  53  1   
 54  22  54  1   
 55  23  25  1   
 56  24  55  1   
 57  24  56  1   
 58  24  57  1   
 59  25  26  1   
 60  26  58  1   
 61  26  59  1   
 62  26  60  1   
@<TRIPOS>SUBSTRUCTURE
  1 ****  14 GROUP 4 **** **** 0

# MOE 2024.06 (io_trps.svl 2023.06)
