@<TRIPOS>MOLECULE
NONAME
44 45 1 0 0 
SMALL
USER_CHARGES


@<TRIPOS>ATOM
  1 S        0.2400     0.3930    -1.2340 S.o2  1 <1>   1.3330 
  2 O       -0.7820     1.2980    -1.7090 O.2   1 <1>  -0.6500 
  3 O        0.4790    -0.8500    -1.9330 O.2   1 <1>  -0.6500 
  4 N       -0.1360     0.0160     0.3800 N.am  1 <1>  -0.8490 
  5 C        1.8000     1.2730    -1.1140 C.3   1 <1>  -0.0550 
  6 C       -0.7580     1.1290     1.1070 C.3   1 <1>   0.1160 
  7 C       -0.9830    -1.1760     0.4850 C.3   1 <1>   0.1160 
  8 C        2.9930     0.3960    -0.6750 C.3   1 <1>  -0.0800 
  9 C        4.3470     1.0860    -0.7390 C.3   1 <1>   0.2200 
 10 C        2.9400    -0.1110     0.7720 C.3   1 <1>   0.1200 
 11 N        4.2640     2.4620    -0.1950 N.am  1 <1>  -0.7300 
 12 C        5.1400     0.2260     0.2340 C.3   1 <1>   0.1200 
 13 O        4.2480    -0.0560     1.2680 O.3   1 <1>  -0.5600 
 14 C        4.2330     3.6090    -0.9310 C.2   1 <1>   0.5440 
 15 O        4.1690     3.5130    -2.1400 O.2   1 <1>  -0.5700 
 16 C        4.2180     4.9090    -0.2840 C.ar  1 <1>   0.0860 
 17 C        5.1660     5.3070     0.6760 C.ar  1 <1>  -0.1440 
 18 C        3.2050     5.8100    -0.6270 C.ar  1 <1>  -0.1500 
 19 C        5.0690     6.5530     1.2790 C.ar  1 <1>  -0.1500 
 20 C        6.3330     4.4100     1.0740 C.3   1 <1>  -0.0970 
 21 C        3.1050     7.0540    -0.0330 C.ar  1 <1>  -0.1500 
 22 C        4.0420     7.4020     0.9180 C.ar  1 <1>   0.1900 
 23 F        3.9570     8.5700     1.4900 F     1 <1>  -0.1900 
 24 H        2.0290     1.6800    -2.0810 H     1 <1>   0.0800 
 25 H        1.6880     2.1000    -0.4420 H     1 <1>   0.0800 
 26 H       -0.8930     0.8650     2.1420 H     1 <1>   0.0800 
 27 H       -1.7190     1.3680     0.6790 H     1 <1>   0.0800 
 28 H       -0.1320     2.0020     1.0580 H     1 <1>   0.0800 
 29 H       -1.1950    -1.3960     1.5170 H     1 <1>   0.0800 
 30 H       -0.4780    -2.0270     0.0580 H     1 <1>   0.0800 
 31 H       -1.9100    -1.0240    -0.0450 H     1 <1>   0.0800 
 32 H        3.0340    -0.4650    -1.3190 H     1 <1>   0.0800 
 33 H        4.7720     1.0890    -1.7290 H     1 <1>   0.0800 
 34 H        2.5840    -1.1260     0.8270 H     1 <1>   0.0800 
 35 H        2.3320     0.5210     1.3960 H     1 <1>   0.0800 
 36 H        4.2320     2.5050     0.8270 H     1 <1>   0.3700 
 37 H        6.0080     0.7270     0.6250 H     1 <1>   0.0800 
 38 H        5.4260    -0.7060    -0.2220 H     1 <1>   0.0800 
 39 H        2.4880     5.5210    -1.3770 H     1 <1>   0.1500 
 40 H        5.7780     6.8780     2.0190 H     1 <1>   0.1500 
 41 H        7.1130     4.9810     1.5460 H     1 <1>   0.0800 
 42 H        6.7550     3.9330     0.2060 H     1 <1>   0.0800 
 43 H        6.0030     3.6530     1.7630 H     1 <1>   0.0800 
 44 H        2.3230     7.7420    -0.2990 H     1 <1>   0.1500 
@<TRIPOS>BOND
  1   1   2  2   
  2   1   3  2   
  3   1   4  am  
  4   1   5  1   
  5   4   6  1   
  6   4   7  1   
  7   5   8  1   
  8   5  24  1   
  9   5  25  1   
 10   6  26  1   
 11   6  27  1   
 12   6  28  1   
 13   7  29  1   
 14   7  30  1   
 15   7  31  1   
 16   8   9  1   
 17   8  10  1   
 18   8  32  1   
 19   9  11  1   
 20   9  12  1   
 21   9  33  1   
 22  10  13  1   
 23  10  34  1   
 24  10  35  1   
 25  11  14  am  
 26  11  36  1   
 27  12  13  1   
 28  12  37  1   
 29  12  38  1   
 30  14  15  2   
 31  14  16  1   
 32  16  17  ar  
 33  16  18  ar  
 34  17  19  ar  
 35  17  20  1   
 36  18  21  ar  
 37  18  39  1   
 38  19  22  ar  
 39  19  40  1   
 40  20  41  1   
 41  20  42  1   
 42  20  43  1   
 43  21  22  ar  
 44  21  44  1   
 45  22  23  1   
@<TRIPOS>SUBSTRUCTURE
  1 ****  11 GROUP 4 **** **** 0

# MOE 2024.06 (io_trps.svl 2023.06)
