@<TRIPOS>MOLECULE
NONAME
60 63 1 0 0 
SMALL
USER_CHARGES


@<TRIPOS>ATOM
  1 O        0.7270     0.0410    -0.5060 O.3   1 <1>  -0.5600 
  2 C        1.4530    -0.4580    -1.6100 C.3   1 <1>   0.2000 
  3 C       -0.0580     1.1770    -0.7460 C.3   1 <1>   0.1200 
  4 C        2.8490     0.2130    -1.7090 C.3   1 <1>   0.3430 
  5 C        1.5740    -1.9930    -1.4450 C.3   1 <1>   0.3430 
  6 C        0.7560     2.4570    -0.5290 C.3   1 <1>  -0.1600 
  7 N        2.9720     1.4700    -0.9010 N.4   1 <1>  -0.9590 
  8 N        0.3370    -2.5700    -0.8320 N.4   1 <1>  -0.9590 
  9 C        2.0460     2.5500    -1.3400 C.3   1 <1>   0.3430 
 10 C        4.3780     1.9560    -0.7890 C.3   1 <1>   0.4860 
 11 C        0.5150    -3.9000    -0.1920 C.3   1 <1>   0.3430 
 12 C       -0.8180    -2.7300    -1.7510 C.3   1 <1>   0.3430 
 13 C        4.4310     2.9800     0.3260 C.ar  1 <1>  -0.1430 
 14 C       -0.9030    -4.4420    -0.0180 C.3   1 <1>  -0.0800 
 15 C       -1.7860    -3.6270    -0.9870 C.3   1 <1>  -0.0800 
 16 C        4.6050     4.3250     0.0320 C.ar  1 <1>  -0.1500 
 17 C        4.2980     2.5820     1.6500 C.ar  1 <1>  -0.1500 
 18 C       -1.3750    -4.3680     1.4520 C.3   1 <1>  -0.1600 
 19 C       -2.8730    -2.8040    -0.2630 C.3   1 <1>  -0.1600 
 20 C        4.6290     5.2630     1.0490 C.ar  1 <1>  -0.1500 
 21 C        4.3220     3.5220     2.6650 C.ar  1 <1>  -0.1500 
 22 C       -2.8850    -4.6280     1.5680 C.3   1 <1>   0.2000 
 23 C       -3.7350    -3.6930     0.6490 C.3   1 <1>   0.2000 
 24 C        4.4850     4.8620     2.3650 C.ar  1 <1>  -0.1500 
 25 O       -3.0840    -5.9500     1.2120 O.3   1 <1>  -0.6800 
 26 O       -4.5620    -4.4340    -0.1930 O.3   1 <1>  -0.6800 
 27 H        0.8980    -0.2640    -2.5120 H     1 <1>   0.0800 
 28 H       -0.4750     1.1390    -1.7390 H     1 <1>   0.0800 
 29 H       -0.8760     1.1580    -0.0430 H     1 <1>   0.0800 
 30 H        3.0700     0.4190    -2.7440 H     1 <1>   0.0800 
 31 H        3.5890    -0.4900    -1.3650 H     1 <1>   0.0800 
 32 H        2.4080    -2.1980    -0.7940 H     1 <1>   0.0800 
 33 H        1.7770    -2.4600    -2.3950 H     1 <1>   0.0800 
 34 H        0.1340     3.2930    -0.7980 H     1 <1>   0.0800 
 35 H        0.9780     2.5720     0.5190 H     1 <1>   0.0800 
 36 H        2.6710     1.2530     0.0610 H     1 <1>   0.4500 
 37 H        0.0410    -1.9010    -0.0990 H     1 <1>   0.4500 
 38 H        2.4890     3.5160    -1.1550 H     1 <1>   0.0800 
 39 H        1.8400     2.4740    -2.3960 H     1 <1>   0.0800 
 40 H        5.0400     1.1410    -0.5470 H     1 <1>   0.0800 
 41 H        4.7010     2.3990    -1.7170 H     1 <1>   0.0800 
 42 H        1.0660    -4.5540    -0.8480 H     1 <1>   0.0800 
 43 H        1.0280    -3.8250     0.7530 H     1 <1>   0.0800 
 44 H       -1.2700    -1.7840    -2.0020 H     1 <1>   0.0800 
 45 H       -0.5050    -3.2320    -2.6530 H     1 <1>   0.0800 
 46 H       -0.9070    -5.4780    -0.3160 H     1 <1>   0.0800 
 47 H       -2.2740    -4.2880    -1.6840 H     1 <1>   0.0800 
 48 H        4.7270     4.6630    -0.9830 H     1 <1>   0.1500 
 49 H        4.1810     1.5450     1.9150 H     1 <1>   0.1500 
 50 H       -1.1640    -3.3970     1.8630 H     1 <1>   0.0800 
 51 H       -0.8470    -5.0890     2.0530 H     1 <1>   0.0800 
 52 H       -3.5100    -2.3080    -0.9770 H     1 <1>   0.0800 
 53 H       -2.4160    -2.0390     0.3400 H     1 <1>   0.0800 
 54 H        4.7640     6.3070     0.8210 H     1 <1>   0.1500 
 55 H        4.2180     3.2160     3.6930 H     1 <1>   0.1500 
 56 H       -3.1930    -4.5190     2.5940 H     1 <1>   0.0800 
 57 H       -4.3660    -3.0640     1.2560 H     1 <1>   0.0800 
 58 H        4.5040     5.5930     3.1560 H     1 <1>   0.1500 
 59 H       -3.5320    -5.9470     0.3370 H     1 <1>   0.4000 
 60 H       -5.2860    -4.8450     0.3260 H     1 <1>   0.4000 
@<TRIPOS>BOND
  1   1   2  1   
  2   1   3  1   
  3   2   4  1   
  4   2   5  1   
  5   2  27  1   
  6   3   6  1   
  7   3  28  1   
  8   3  29  1   
  9   4   7  1   
 10   4  30  1   
 11   4  31  1   
 12   5   8  1   
 13   5  32  1   
 14   5  33  1   
 15   6   9  1   
 16   6  34  1   
 17   6  35  1   
 18   7   9  1   
 19   7  10  1   
 20   7  36  1   
 21   8  11  1   
 22   8  12  1   
 23   8  37  1   
 24   9  38  1   
 25   9  39  1   
 26  10  13  1   
 27  10  40  1   
 28  10  41  1   
 29  11  14  1   
 30  11  42  1   
 31  11  43  1   
 32  12  15  1   
 33  12  44  1   
 34  12  45  1   
 35  13  16  ar  
 36  13  17  ar  
 37  14  15  1   
 38  14  18  1   
 39  14  46  1   
 40  15  19  1   
 41  15  47  1   
 42  16  20  ar  
 43  16  48  1   
 44  17  21  ar  
 45  17  49  1   
 46  18  22  1   
 47  18  50  1   
 48  18  51  1   
 49  19  23  1   
 50  19  52  1   
 51  19  53  1   
 52  20  24  ar  
 53  20  54  1   
 54  21  24  ar  
 55  21  55  1   
 56  22  23  1   
 57  22  25  1   
 58  22  56  1   
 59  23  26  1   
 60  23  57  1   
 61  24  58  1   
 62  25  59  1   
 63  26  60  1   
@<TRIPOS>SUBSTRUCTURE
  1 ****   1 GROUP 4 **** **** 0

# MOE 2024.06 (io_trps.svl 2023.06)
