@<TRIPOS>MOLECULE
NONAME
42 45 1 0 0 
SMALL
USER_CHARGES


@<TRIPOS>ATOM
  1 S       -4.6580    -0.1960    -2.8670 S.3   1 <1>  -0.4600 
  2 C       -4.2100     0.6910    -1.3400 C.3   1 <1>   0.2510 
  3 C       -4.5930    -1.8990    -2.2350 C.3   1 <1>   0.2510 
  4 C       -4.0360    -0.4240    -0.3350 C.2   1 <1>   0.1080 
  5 C       -4.2280    -1.7140    -0.7800 C.2   1 <1>  -0.1810 
  6 N       -3.7270    -0.3620     0.9200 N.2   1 <1>  -0.7070 
  7 C       -4.0130    -2.5070     0.2940 C.2   1 <1>  -0.0880 
  8 N       -3.7070    -1.6570     1.3240 N.pl3 1 <1>   0.3140 
  9 N       -4.1190    -3.9190     0.2960 N.am  1 <1>  -0.4940 
 10 C       -3.4630    -1.9610     2.7400 C.3   1 <1>   0.0160 
 11 C       -3.5130    -4.8980     1.0450 C.2   1 <1>   0.5690 
 12 O       -2.7550    -4.6510     1.9520 O.2   1 <1>  -0.5700 
 13 C       -3.7800    -6.3690     0.7250 C.3   1 <1>   0.2370 
 14 N       -4.6630    -6.5000    -0.4670 N.pl3 1 <1>   0.0480 
 15 C       -4.3720    -7.1210     1.9330 C.3   1 <1>   0.0200 
 16 C       -5.9970    -6.2220    -0.5440 C.2   1 <1>  -0.3020 
 17 C       -4.2780    -6.9130    -1.7040 C.2   1 <1>  -0.3020 
 18 C       -4.5350    -8.6180     1.6870 C.2   1 <1>  -0.3320 
 19 C       -6.4420    -6.4560    -1.8060 C.2   1 <1>  -0.1500 
 20 C       -5.3430    -6.8980    -2.5470 C.2   1 <1>  -0.1500 
 21 N       -5.3000    -9.1590     0.7160 N.pl3 1 <1>   0.0330 
 22 C       -3.9850    -9.6600     2.3520 C.2   1 <1>   0.0770 
 23 C       -5.1590   -10.4930     0.8540 C.2   1 <1>   0.0360 
 24 N       -4.3780   -10.8350     1.8260 N.2   1 <1>  -0.5650 
 25 H       -5.0160     1.3500    -1.0760 H     1 <1>   0.0800 
 26 H       -3.2940     1.2270    -1.5100 H     1 <1>   0.0800 
 27 H       -3.8370    -2.4310    -2.7830 H     1 <1>   0.0800 
 28 H       -5.5650    -2.3410    -2.3640 H     1 <1>   0.0800 
 29 H       -4.6900    -4.2870    -0.4730 H     1 <1>   0.3700 
 30 H       -3.6340    -1.0770     3.3260 H     1 <1>   0.0800 
 31 H       -2.4440    -2.2780     2.8590 H     1 <1>   0.0800 
 32 H       -4.1300    -2.7390     3.0590 H     1 <1>   0.0800 
 33 H       -2.8360    -6.8210     0.4850 H     1 <1>   0.0800 
 34 H       -5.3190    -6.6910     2.2090 H     1 <1>   0.0800 
 35 H       -3.7120    -6.9900     2.7740 H     1 <1>   0.0800 
 36 H       -6.5720    -5.8710     0.2970 H     1 <1>   0.1500 
 37 H       -3.2650    -7.2020    -1.9290 H     1 <1>   0.1500 
 38 H       -7.4400    -6.3340    -2.1930 H     1 <1>   0.1500 
 39 H       -5.3660    -7.1680    -3.5900 H     1 <1>   0.1500 
 40 H       -5.8460    -8.6630     0.0000 H     1 <1>   0.2700 
 41 H       -3.3160    -9.6300     3.1960 H     1 <1>   0.1500 
 42 H       -5.6560   -11.1900     0.2030 H     1 <1>   0.1500 
@<TRIPOS>BOND
  1   1   2  1   
  2   1   3  1   
  3   2   4  1   
  4   2  25  1   
  5   2  26  1   
  6   3   5  1   
  7   3  27  1   
  8   3  28  1   
  9   4   5  1   
 10   4   6  2   
 11   5   7  2   
 12   6   8  1   
 13   7   8  1   
 14   7   9  1   
 15   8  10  1   
 16   9  11  am  
 17   9  29  1   
 18  10  30  1   
 19  10  31  1   
 20  10  32  1   
 21  11  12  2   
 22  11  13  1   
 23  13  14  1   
 24  13  15  1   
 25  13  33  1   
 26  14  16  1   
 27  14  17  1   
 28  15  18  1   
 29  15  34  1   
 30  15  35  1   
 31  16  19  2   
 32  16  36  1   
 33  17  20  2   
 34  17  37  1   
 35  18  21  1   
 36  18  22  2   
 37  19  20  1   
 38  19  38  1   
 39  20  39  1   
 40  21  23  1   
 41  21  40  1   
 42  22  24  1   
 43  22  41  1   
 44  23  24  2   
 45  23  42  1   
@<TRIPOS>SUBSTRUCTURE
  1 ****   9 GROUP 4 **** **** 0

# MOE 2024.06 (io_trps.svl 2023.06)
