@<TRIPOS>MOLECULE
NONAME
39 40 1 0 0 
SMALL
USER_CHARGES


@<TRIPOS>ATOM
  1 F       -0.3760    -0.8340    -0.3460 F     1 <1>  -0.1900 
  2 C       -1.5780    -1.3300    -0.1840 C.ar  1 <1>   0.1900 
  3 C       -2.5870    -0.5600     0.3380 C.ar  1 <1>   0.1600 
  4 C       -1.8500    -2.6290    -0.5330 C.ar  1 <1>   0.1600 
  5 N       -3.7970    -1.0500     0.5050 N.ar  1 <1>  -0.6200 
  6 N       -3.0540    -3.1360    -0.3750 N.ar  1 <1>  -0.6200 
  7 C       -3.9840    -2.3220     0.1370 C.ar  1 <1>   0.7200 
  8 N       -5.2480    -2.8450     0.3030 N.pl3 1 <1>  -0.8380 
  9 C       -5.6910    -4.0630    -0.4500 C.3   1 <1>   0.2090 
 10 C       -6.1760    -2.3390     1.3540 C.3   1 <1>   0.2090 
 11 C       -7.1360    -3.9120    -0.9620 C.3   1 <1>   0.2000 
 12 C       -7.5840    -2.1720     0.7710 C.3   1 <1>  -0.1600 
 13 O       -7.5400    -5.1050    -1.5630 O.3   1 <1>  -0.6800 
 14 C       -8.1430    -3.4740     0.1400 C.3   1 <1>   0.0000 
 15 C       -8.2590    -4.5930     1.2140 C.3   1 <1>   0.1200 
 16 C       -9.5620    -3.2170    -0.4500 C.3   1 <1>  -0.1600 
 17 O       -9.0750    -4.2110     2.2710 O.3   1 <1>  -0.6800 
 18 C       -9.6580    -2.2190    -1.6200 C.3   1 <1>  -0.1600 
 19 C      -11.1130    -2.0450    -2.0640 C.3   1 <1>  -0.2400 
 20 H       -2.3950     0.4600     0.6180 H     1 <1>   0.1500 
 21 H       -1.0740    -3.2500    -0.9420 H     1 <1>   0.1500 
 22 H       -5.0570    -4.2220    -1.3050 H     1 <1>   0.0800 
 23 H       -5.6060    -4.9170     0.1970 H     1 <1>   0.0800 
 24 H       -6.1840    -3.0320     2.1770 H     1 <1>   0.0800 
 25 H       -5.8470    -1.3900     1.7410 H     1 <1>   0.0800 
 26 H       -7.1100    -3.1710    -1.7400 H     1 <1>   0.0800 
 27 H       -8.2430    -1.8110     1.5380 H     1 <1>   0.0800 
 28 H       -7.5190    -1.3990     0.0270 H     1 <1>   0.0800 
 29 H       -7.6380    -5.8150    -0.9030 H     1 <1>   0.4000 
 30 H       -7.3010    -4.8540     1.6260 H     1 <1>   0.0800 
 31 H       -8.6960    -5.4800     0.7880 H     1 <1>   0.0800 
 32 H       -9.9660    -4.1570    -0.7870 H     1 <1>   0.0800 
 33 H      -10.2080    -2.8700     0.3380 H     1 <1>   0.0800 
 34 H       -8.7730    -3.3670     2.6550 H     1 <1>   0.4000 
 35 H       -9.2720    -1.2580    -1.3330 H     1 <1>   0.0800 
 36 H       -9.0900    -2.5760    -2.4610 H     1 <1>   0.0800 
 37 H      -11.7120    -1.6650    -1.2550 H     1 <1>   0.0800 
 38 H      -11.5230    -2.9860    -2.3860 H     1 <1>   0.0800 
 39 H      -11.1670    -1.3510    -2.8840 H     1 <1>   0.0800 
@<TRIPOS>BOND
  1   1   2  1   
  2   2   3  ar  
  3   2   4  ar  
  4   3   5  ar  
  5   3  20  1   
  6   4   6  ar  
  7   4  21  1   
  8   5   7  ar  
  9   6   7  ar  
 10   7   8  1   
 11   8   9  1   
 12   8  10  1   
 13   9  11  1   
 14   9  22  1   
 15   9  23  1   
 16  10  12  1   
 17  10  24  1   
 18  10  25  1   
 19  11  13  1   
 20  11  14  1   
 21  11  26  1   
 22  12  14  1   
 23  12  27  1   
 24  12  28  1   
 25  13  29  1   
 26  14  15  1   
 27  14  16  1   
 28  15  17  1   
 29  15  30  1   
 30  15  31  1   
 31  16  18  1   
 32  16  32  1   
 33  16  33  1   
 34  17  34  1   
 35  18  19  1   
 36  18  35  1   
 37  18  36  1   
 38  19  37  1   
 39  19  38  1   
 40  19  39  1   
@<TRIPOS>SUBSTRUCTURE
  1 ****   8 GROUP 4 **** **** 0

# MOE 2024.06 (io_trps.svl 2023.06)
