@<TRIPOS>MOLECULE
NONAME
50 52 1 0 0 
SMALL
USER_CHARGES


@<TRIPOS>ATOM
  1 S       -0.7080     0.7240     1.2340 S.o2  1 <1>   1.5010 
  2 O       -0.6380    -0.5400     1.9410 O.2   1 <1>  -0.6500 
  3 O       -1.2410     1.8890     1.9000 O.2   1 <1>  -0.6500 
  4 N       -1.6830     0.4190    -0.1300 N.am  1 <1>  -0.8490 
  5 C        0.8950     1.0980     0.4830 C.2   1 <1>  -0.0630 
  6 C       -1.5220    -0.9250    -0.7060 C.3   1 <1>   0.1960 
  7 C       -3.0910     0.8200     0.0030 C.3   1 <1>   0.1960 
  8 C        1.1640     2.0770    -0.4090 C.2   1 <1>  -0.1400 
  9 C        2.0630     0.3200     0.8000 C.2   1 <1>  -0.1500 
 10 C       -2.3260    -2.0190     0.0610 C.3   1 <1>   0.4230 
 11 C       -3.8760    -0.2090     0.8270 C.3   1 <1>  -0.1600 
 12 S        2.8480     2.0530    -0.8980 S.3   1 <1>  -0.0800 
 13 C        0.3030     3.1560    -1.0390 C.3   1 <1>  -0.0600 
 14 C        3.1800     0.6930     0.1520 C.2   1 <1>  -0.1400 
 15 N       -2.1000    -3.4390    -0.4460 N.4   1 <1>  -0.9590 
 16 C       -3.8240    -1.6380     0.2190 C.3   1 <1>   0.0000 
 17 C        4.6020     0.1730     0.1820 C.3   1 <1>  -0.0600 
 18 C       -3.1440    -4.4180     0.0040 C.3   1 <1>   0.3430 
 19 C       -1.8710    -3.5780    -1.9220 C.3   1 <1>   0.2630 
 20 C       -4.5020    -2.6300     1.2090 C.3   1 <1>  -0.1600 
 21 C       -4.5390    -1.6750    -1.1630 C.3   1 <1>   0.1200 
 22 C       -3.7740    -3.9830     1.3260 C.3   1 <1>  -0.1600 
 23 O       -5.7980    -1.1030    -1.1020 O.3   1 <1>  -0.6800 
 24 H       -1.8470    -0.8810    -1.7300 H     1 <1>   0.0800 
 25 H       -0.4760    -1.1820    -0.7050 H     1 <1>   0.0800 
 26 H       -3.1650     1.7930     0.4620 H     1 <1>   0.0800 
 27 H       -3.5280     0.9090    -0.9770 H     1 <1>   0.0800 
 28 H        2.0060    -0.4860     1.5120 H     1 <1>   0.1500 
 29 H       -1.9420    -2.0130     1.0650 H     1 <1>   0.0800 
 30 H       -3.4770    -0.2110     1.8270 H     1 <1>   0.0800 
 31 H       -4.8950     0.1290     0.9110 H     1 <1>   0.0800 
 32 H       -0.7040     3.1110    -0.6650 H     1 <1>   0.0800 
 33 H        0.2830     3.0330    -2.1060 H     1 <1>   0.0800 
 34 H        0.7090     4.1250    -0.8090 H     1 <1>   0.0800 
 35 H       -1.2290    -3.7350     0.0210 H     1 <1>   0.4500 
 36 H        4.6830    -0.6530     0.8640 H     1 <1>   0.0800 
 37 H        5.2690     0.9540     0.5010 H     1 <1>   0.0800 
 38 H        4.8940    -0.1540    -0.8000 H     1 <1>   0.0800 
 39 H       -3.9230    -4.4880    -0.7380 H     1 <1>   0.0800 
 40 H       -2.7040    -5.3970     0.1140 H     1 <1>   0.0800 
 41 H       -2.7380    -3.2490    -2.4730 H     1 <1>   0.0800 
 42 H       -1.6780    -4.6090    -2.1740 H     1 <1>   0.0800 
 43 H       -1.0210    -2.9920    -2.2330 H     1 <1>   0.0800 
 44 H       -4.5480    -2.2050     2.1980 H     1 <1>   0.0800 
 45 H       -5.5230    -2.8040     0.9140 H     1 <1>   0.0800 
 46 H       -4.6620    -2.6820    -1.5190 H     1 <1>   0.0800 
 47 H       -3.9920    -1.1190    -1.9030 H     1 <1>   0.0800 
 48 H       -4.4750    -4.7330     1.6500 H     1 <1>   0.0800 
 49 H       -3.0060    -3.9250     2.0800 H     1 <1>   0.0800 
 50 H       -6.3970    -1.5850    -0.4990 H     1 <1>   0.4000 
@<TRIPOS>BOND
  1   1   2  2   
  2   1   3  2   
  3   1   4  am  
  4   1   5  1   
  5   4   6  1   
  6   4   7  1   
  7   5   8  2   
  8   5   9  1   
  9   6  10  1   
 10   6  24  1   
 11   6  25  1   
 12   7  11  1   
 13   7  26  1   
 14   7  27  1   
 15   8  12  1   
 16   8  13  1   
 17   9  14  2   
 18   9  28  1   
 19  10  15  1   
 20  10  16  1   
 21  10  29  1   
 22  11  16  1   
 23  11  30  1   
 24  11  31  1   
 25  12  14  1   
 26  13  32  1   
 27  13  33  1   
 28  13  34  1   
 29  14  17  1   
 30  15  18  1   
 31  15  19  1   
 32  15  35  1   
 33  16  20  1   
 34  16  21  1   
 35  17  36  1   
 36  17  37  1   
 37  17  38  1   
 38  18  22  1   
 39  18  39  1   
 40  18  40  1   
 41  19  41  1   
 42  19  42  1   
 43  19  43  1   
 44  20  22  1   
 45  20  44  1   
 46  20  45  1   
 47  21  23  1   
 48  21  46  1   
 49  21  47  1   
 50  22  48  1   
 51  22  49  1   
 52  23  50  1   
@<TRIPOS>SUBSTRUCTURE
  1 ****   6 GROUP 4 **** **** 0

# MOE 2024.06 (io_trps.svl 2023.06)
