@<TRIPOS>MOLECULE
NONAME
45 48 1 0 0 
SMALL
USER_CHARGES


@<TRIPOS>ATOM
  1 S       -0.6890     1.2560    -0.1660 S.3   1 <1>  -0.0800 
  2 C       -0.9040     1.9090    -1.7770 C.2   1 <1>  -0.0450 
  3 C       -1.1280    -0.3260    -0.7550 C.2   1 <1>   0.2280 
  4 C       -0.6740     3.3000    -2.0670 C.2   1 <1>   0.7150 
  5 C       -1.2560     0.8780    -2.5740 C.2   1 <1>   0.0770 
  6 N       -1.3930    -0.3700    -1.9990 N.2   1 <1>  -0.5650 
  7 O       -0.2640     3.6020    -3.1730 O.2   1 <1>  -0.5700 
  8 N       -0.9020     4.3110    -1.1600 N.am  1 <1>  -0.6600 
  9 C       -2.0600     4.3260    -0.1960 C.3   1 <1>   0.2200 
 10 C       -0.0370     5.5270    -1.2040 C.3   1 <1>   0.1400 
 11 C       -2.3090     5.7160     0.4730 C.3   1 <1>   0.1380 
 12 C       -3.3490     3.6960    -0.7680 C.3   1 <1>  -0.1600 
 13 C        0.2260     6.1130     0.1950 C.3   1 <1>  -0.1600 
 14 C       -2.7260     6.8810    -0.4770 C.2   1 <1>  -0.2760 
 15 C       -3.4260     5.5170     1.5450 C.3   1 <1>   0.1200 
 16 C       -0.9720     6.0640     1.1690 C.3   1 <1>  -0.1600 
 17 C       -4.5860     4.1860    -0.0090 C.3   1 <1>   0.1200 
 18 C       -3.0010     6.7890    -1.7870 C.2   1 <1>  -0.2880 
 19 C       -2.7960     8.2780     0.1530 C.3   1 <1>  -0.0220 
 20 O       -4.2250     4.3840     1.3190 O.3   1 <1>  -0.5600 
 21 C       -3.3760     7.9650    -2.6800 C.3   1 <1>   0.2580 
 22 C       -3.5880     9.2510    -0.7300 C.3   1 <1>   0.1200 
 23 O       -3.1150     9.1770    -2.0380 O.3   1 <1>  -0.5600 
 24 H       -1.1440    -1.1310    -0.0420 H     1 <1>   0.1500 
 25 H       -1.4360     0.9680    -3.6330 H     1 <1>   0.1500 
 26 H       -1.7730     3.6830     0.6180 H     1 <1>   0.0800 
 27 H        0.9060     5.2860    -1.6670 H     1 <1>   0.0800 
 28 H       -0.5070     6.2680    -1.8250 H     1 <1>   0.0800 
 29 H       -3.3020     2.6300    -0.6510 H     1 <1>   0.0800 
 30 H       -3.4740     3.8990    -1.8130 H     1 <1>   0.0800 
 31 H        1.0570     5.5900     0.6340 H     1 <1>   0.0800 
 32 H        0.5340     7.1360     0.0660 H     1 <1>   0.0800 
 33 H       -4.0880     6.3600     1.5830 H     1 <1>   0.0800 
 34 H       -2.9940     5.3920     2.5220 H     1 <1>   0.0800 
 35 H       -1.0400     6.9880     1.7130 H     1 <1>   0.0800 
 36 H       -0.7620     5.3000     1.8990 H     1 <1>   0.0800 
 37 H       -5.3710     3.4500    -0.0400 H     1 <1>   0.0800 
 38 H       -4.9570     5.1140    -0.4100 H     1 <1>   0.0800 
 39 H       -2.9670     5.8810    -2.3530 H     1 <1>   0.1500 
 40 H       -1.8020     8.6680     0.2730 H     1 <1>   0.0800 
 41 H       -3.2590     8.2610     1.1210 H     1 <1>   0.0800 
 42 H       -4.4200     7.9320    -2.9390 H     1 <1>   0.0800 
 43 H       -2.7890     7.9510    -3.5820 H     1 <1>   0.0800 
 44 H       -3.4610    10.2630    -0.3880 H     1 <1>   0.0800 
 45 H       -4.6370     9.0070    -0.7300 H     1 <1>   0.0800 
@<TRIPOS>BOND
  1   1   2  1   
  2   1   3  1   
  3   2   4  1   
  4   2   5  2   
  5   3   6  2   
  6   3  24  1   
  7   4   7  2   
  8   4   8  am  
  9   5   6  1   
 10   5  25  1   
 11   8   9  1   
 12   8  10  1   
 13   9  11  1   
 14   9  12  1   
 15   9  26  1   
 16  10  13  1   
 17  10  27  1   
 18  10  28  1   
 19  11  14  1   
 20  11  15  1   
 21  11  16  1   
 22  12  17  1   
 23  12  29  1   
 24  12  30  1   
 25  13  16  1   
 26  13  31  1   
 27  13  32  1   
 28  14  18  2   
 29  14  19  1   
 30  15  20  1   
 31  15  33  1   
 32  15  34  1   
 33  16  35  1   
 34  16  36  1   
 35  17  20  1   
 36  17  37  1   
 37  17  38  1   
 38  18  21  1   
 39  18  39  1   
 40  19  22  1   
 41  19  40  1   
 42  19  41  1   
 43  21  23  1   
 44  21  42  1   
 45  21  43  1   
 46  22  23  1   
 47  22  44  1   
 48  22  45  1   
@<TRIPOS>SUBSTRUCTURE
  1 ****   9 GROUP 4 **** **** 0

# MOE 2024.06 (io_trps.svl 2023.06)
