@<TRIPOS>MOLECULE
NONAME
50 53 1 0 0 
SMALL
USER_CHARGES


@<TRIPOS>ATOM
  1 S        0.0160     0.5900     0.3860 S.3   1 <1>  -0.0800 
  2 C        1.5150     1.5030     0.3470 C.2   1 <1>  -0.1400 
  3 C        0.8680    -0.9080     0.7030 C.2   1 <1>  -0.1400 
  4 C        2.5620     0.6780     0.5670 C.2   1 <1>  -0.1500 
  5 C        1.3270     2.9890     0.0820 C.3   1 <1>   0.5230 
  6 C        2.1920    -0.6890     0.7680 C.2   1 <1>  -0.1500 
  7 C        0.0350    -2.1640     0.8510 C.3   1 <1>  -0.0600 
  8 N        2.6170     3.7260    -0.0180 N.4   1 <1>  -0.9590 
  9 C        3.3210     3.7520     1.3100 C.3   1 <1>   0.3430 
 10 C        3.4360     3.2730    -1.1950 C.3   1 <1>   0.3430 
 11 C        4.4510     4.8100     1.3630 C.3   1 <1>   0.2200 
 12 C        4.7810     4.0010    -1.4320 C.3   1 <1>  -0.0800 
 13 N        4.3150     5.8390     0.2630 N.am  1 <1>  -0.6600 
 14 C        5.8200     4.1090     1.3660 C.3   1 <1>   0.1200 
 15 C        5.9780     3.2470    -0.8290 C.3   1 <1>   0.1200 
 16 C        4.8190     5.5050    -1.1020 C.3   1 <1>   0.1400 
 17 C        3.3500     6.8080     0.3690 C.2   1 <1>   0.7150 
 18 O        5.7980     2.9950     0.5230 O.3   1 <1>  -0.5600 
 19 O        2.2910     6.4760     0.8670 O.2   1 <1>  -0.5700 
 20 C        3.5190     8.1070    -0.2060 C.2   1 <1>  -0.2370 
 21 N        4.6630     8.8420    -0.1850 N.pl3 1 <1>   0.3140 
 22 C        2.6140     8.8730    -0.8740 C.2   1 <1>  -0.1500 
 23 N        4.5270    10.0020    -0.8360 N.2   1 <1>  -0.7070 
 24 C        5.9270     8.5410     0.5070 C.3   1 <1>   0.0160 
 25 C        3.2930    10.0190    -1.2410 C.2   1 <1>   0.1390 
 26 H        3.6050     0.9440     0.6030 H     1 <1>   0.1500 
 27 H        0.7320     3.4100     0.8760 H     1 <1>   0.0800 
 28 H        0.7750     3.1070    -0.8370 H     1 <1>   0.0800 
 29 H        2.9390    -1.4430     0.9530 H     1 <1>   0.1500 
 30 H        0.6690    -3.0110     1.0420 H     1 <1>   0.0800 
 31 H       -0.5210    -2.3440    -0.0510 H     1 <1>   0.0800 
 32 H       -0.6540    -2.0540     1.6690 H     1 <1>   0.0800 
 33 H        2.3790     4.7240    -0.1600 H     1 <1>   0.4500 
 34 H        2.6070     4.0030     2.0770 H     1 <1>   0.0800 
 35 H        3.7200     2.7820     1.5500 H     1 <1>   0.0800 
 36 H        3.6380     2.2180    -1.1060 H     1 <1>   0.0800 
 37 H        2.8370     3.4000    -2.0820 H     1 <1>   0.0800 
 38 H        4.3690     5.3290     2.3020 H     1 <1>   0.0800 
 39 H        4.9510     3.9430    -2.4930 H     1 <1>   0.0800 
 40 H        6.0210     3.7350     2.3550 H     1 <1>   0.0800 
 41 H        6.6200     4.7740     1.0890 H     1 <1>   0.0800 
 42 H        6.9000     3.7880    -0.9630 H     1 <1>   0.0800 
 43 H        6.0850     2.2890    -1.3110 H     1 <1>   0.0800 
 44 H        4.2250     6.0300    -1.8330 H     1 <1>   0.0800 
 45 H        5.8280     5.8680    -1.2000 H     1 <1>   0.0800 
 46 H        1.5810     8.6560    -1.0850 H     1 <1>   0.1500 
 47 H        5.7180     8.1060     1.4660 H     1 <1>   0.0800 
 48 H        6.4750     9.4550     0.6450 H     1 <1>   0.0800 
 49 H        6.5080     7.8660    -0.0910 H     1 <1>   0.0800 
 50 H        2.8670    10.8390    -1.7950 H     1 <1>   0.1500 
@<TRIPOS>BOND
  1   1   2  1   
  2   1   3  1   
  3   2   4  2   
  4   2   5  1   
  5   3   6  2   
  6   3   7  1   
  7   4   6  1   
  8   4  26  1   
  9   5   8  1   
 10   5  27  1   
 11   5  28  1   
 12   6  29  1   
 13   7  30  1   
 14   7  31  1   
 15   7  32  1   
 16   8   9  1   
 17   8  10  1   
 18   8  33  1   
 19   9  11  1   
 20   9  34  1   
 21   9  35  1   
 22  10  12  1   
 23  10  36  1   
 24  10  37  1   
 25  11  13  1   
 26  11  14  1   
 27  11  38  1   
 28  12  15  1   
 29  12  16  1   
 30  12  39  1   
 31  13  16  1   
 32  13  17  am  
 33  14  18  1   
 34  14  40  1   
 35  14  41  1   
 36  15  18  1   
 37  15  42  1   
 38  15  43  1   
 39  16  44  1   
 40  16  45  1   
 41  17  19  2   
 42  17  20  1   
 43  20  21  1   
 44  20  22  2   
 45  21  23  1   
 46  21  24  1   
 47  22  25  1   
 48  22  46  1   
 49  23  25  2   
 50  24  47  1   
 51  24  48  1   
 52  24  49  1   
 53  25  50  1   
@<TRIPOS>SUBSTRUCTURE
  1 ****   8 GROUP 4 **** **** 0

# MOE 2024.06 (io_trps.svl 2023.06)
