@<TRIPOS>MOLECULE
NONAME
55 57 1 0 0 
SMALL
USER_CHARGES


@<TRIPOS>ATOM
  1 F       -2.0240    -0.8000     1.8510 F     1 <1>  -0.1900 
  2 C       -2.3050    -2.0410     1.5600 C.ar  1 <1>   0.1900 
  3 C       -3.5350    -2.5520     1.9210 C.ar  1 <1>  -0.1500 
  4 C       -1.3610    -2.8030     0.8990 C.ar  1 <1>  -0.1500 
  5 C       -3.8230    -3.8680     1.6080 C.ar  1 <1>  -0.1500 
  6 C       -1.6670    -4.1180     0.5940 C.ar  1 <1>  -0.1500 
  7 C       -2.9000    -4.6800     0.9390 C.ar  1 <1>   0.0530 
  8 C       -3.2110    -6.0560     0.6150 C.2   1 <1>   0.0870 
  9 O       -4.3860    -6.5730     0.9510 O.3   1 <1>  -0.2800 
 10 C       -2.4860    -7.0170    -0.0190 C.2   1 <1>  -0.1500 
 11 C       -4.4370    -7.8280     0.5530 C.2   1 <1>  -0.0400 
 12 C       -3.2800    -8.1640    -0.0570 C.2   1 <1>  -0.1500 
 13 C       -5.7020    -8.6200     0.8340 C.3   1 <1>   0.3200 
 14 N       -5.7020    -9.8840     0.0690 N.am  1 <1>  -0.7300 
 15 C       -6.2290   -11.0470     0.5210 C.2   1 <1>   0.5690 
 16 O       -6.7200   -11.1300     1.6230 O.2   1 <1>  -0.5700 
 17 C       -6.2460   -12.2590    -0.4110 C.3   1 <1>  -0.0190 
 18 C       -7.6800   -12.6340    -0.8730 C.3   1 <1>  -0.0190 
 19 C       -5.4930   -13.4540     0.2300 C.3   1 <1>  -0.1600 
 20 C       -8.5800   -11.4140    -1.0710 C.2   1 <1>   0.5690 
 21 C       -8.3000   -13.7070     0.0430 C.3   1 <1>  -0.1600 
 22 C       -5.9910   -14.8030    -0.3030 C.3   1 <1>  -0.1600 
 23 O       -8.7260   -10.9810    -2.1880 O.2   1 <1>  -0.5700 
 24 N       -9.1690   -10.8330     0.0050 N.am  1 <1>  -0.7300 
 25 C       -7.4820   -15.0140     0.0180 C.3   1 <1>  -0.1600 
 26 C      -10.0440    -9.6490    -0.0370 C.3   1 <1>   0.1400 
 27 C      -11.1330    -9.7990     1.0240 C.3   1 <1>  -0.1600 
 28 C      -12.0720    -8.5880     1.0340 C.3   1 <1>  -0.2400 
 29 H       -4.2460    -1.9310     2.4350 H     1 <1>   0.1500 
 30 H       -0.4130    -2.3720     0.6330 H     1 <1>   0.1500 
 31 H       -4.7790    -4.2760     1.8860 H     1 <1>   0.1500 
 32 H       -0.9370    -4.7150     0.0800 H     1 <1>   0.1500 
 33 H       -1.4930    -6.9440    -0.4230 H     1 <1>   0.1500 
 34 H       -2.9940    -9.1070    -0.4880 H     1 <1>   0.1500 
 35 H       -6.5570    -8.0360     0.5410 H     1 <1>   0.0800 
 36 H       -5.7720    -8.8200     1.8900 H     1 <1>   0.0800 
 37 H       -5.4070    -9.7920    -0.9030 H     1 <1>   0.3700 
 38 H       -5.7090   -11.9840    -1.3010 H     1 <1>   0.0800 
 39 H       -7.5920   -13.0860    -1.8460 H     1 <1>   0.0800 
 40 H       -4.4370   -13.3520     0.0500 H     1 <1>   0.0800 
 41 H       -5.6370   -13.4480     1.2970 H     1 <1>   0.0800 
 42 H       -8.3310   -13.3320     1.0520 H     1 <1>   0.0800 
 43 H       -9.3130   -13.9120    -0.2590 H     1 <1>   0.0800 
 44 H       -5.8450   -14.8340    -1.3700 H     1 <1>   0.0800 
 45 H       -5.4140   -15.6050     0.1260 H     1 <1>   0.0800 
 46 H       -8.8210   -11.0950     0.9360 H     1 <1>   0.3700 
 47 H       -7.5770   -15.4930     0.9780 H     1 <1>   0.0800 
 48 H       -7.8980   -15.6840    -0.7150 H     1 <1>   0.0800 
 49 H       -9.4560    -8.7680     0.1540 H     1 <1>   0.0800 
 50 H      -10.4880    -9.5600    -1.0150 H     1 <1>   0.0800 
 51 H      -11.7060   -10.6870     0.8200 H     1 <1>   0.0800 
 52 H      -10.6780    -9.8990     1.9940 H     1 <1>   0.0800 
 53 H      -12.5530    -8.4780     0.0780 H     1 <1>   0.0800 
 54 H      -11.5250    -7.6880     1.2530 H     1 <1>   0.0800 
 55 H      -12.8320    -8.7170     1.7850 H     1 <1>   0.0800 
@<TRIPOS>BOND
  1   1   2  1   
  2   2   3  ar  
  3   2   4  ar  
  4   3   5  ar  
  5   3  29  1   
  6   4   6  ar  
  7   4  30  1   
  8   5   7  ar  
  9   5  31  1   
 10   6   7  ar  
 11   6  32  1   
 12   7   8  1   
 13   8   9  1   
 14   8  10  2   
 15   9  11  1   
 16  10  12  1   
 17  10  33  1   
 18  11  12  2   
 19  11  13  1   
 20  12  34  1   
 21  13  14  1   
 22  13  35  1   
 23  13  36  1   
 24  14  15  am  
 25  14  37  1   
 26  15  16  2   
 27  15  17  1   
 28  17  18  1   
 29  17  19  1   
 30  17  38  1   
 31  18  20  1   
 32  18  21  1   
 33  18  39  1   
 34  19  22  1   
 35  19  40  1   
 36  19  41  1   
 37  20  23  2   
 38  20  24  am  
 39  21  25  1   
 40  21  42  1   
 41  21  43  1   
 42  22  25  1   
 43  22  44  1   
 44  22  45  1   
 45  24  26  1   
 46  24  46  1   
 47  25  47  1   
 48  25  48  1   
 49  26  27  1   
 50  26  49  1   
 51  26  50  1   
 52  27  28  1   
 53  27  51  1   
 54  27  52  1   
 55  28  53  1   
 56  28  54  1   
 57  28  55  1   
@<TRIPOS>SUBSTRUCTURE
  1 ****  13 GROUP 4 **** **** 0

# MOE 2024.06 (io_trps.svl 2023.06)
