@<TRIPOS>MOLECULE
NONAME
51 53 1 0 0 
SMALL
USER_CHARGES


@<TRIPOS>ATOM
  1 O        1.9300     0.7820    -1.0780 O.3   1 <1>  -0.6800 
  2 C        2.7700     1.7730    -0.5940 C.3   1 <1>   0.2000 
  3 C        2.6990     3.0080    -1.5130 C.3   1 <1>   0.2090 
  4 C        4.1850     1.1910    -0.5280 C.3   1 <1>  -0.1600 
  5 N        3.7240     4.0320    -1.1110 N.pl3 1 <1>  -0.8380 
  6 C        5.1970     2.2840    -0.1490 C.3   1 <1>  -0.1600 
  7 C        3.4380     5.2980    -0.7060 C.ar  1 <1>   0.4100 
  8 C        5.1170     3.4820    -1.1010 C.3   1 <1>   0.2090 
  9 N        4.2550     5.8650     0.1610 N.ar  1 <1>  -0.6200 
 10 C        2.3120     5.9860    -1.1980 C.ar  1 <1>  -0.1500 
 11 C        3.9940     7.0930     0.5870 C.ar  1 <1>   0.7710 
 12 C        2.0600     7.2390    -0.7540 C.ar  1 <1>   0.2110 
 13 N        2.9180     7.7700     0.1480 N.ar  1 <1>  -0.1790 
 14 N        4.8220     7.6900     1.4820 N.pl3 1 <1>  -0.8380 
 15 C        6.0950     7.0140     1.9070 C.3   1 <1>   0.3900 
 16 C        4.6340     9.0360     2.1030 C.3   1 <1>   0.2090 
 17 C        7.2500     7.5900     1.1150 C.2   1 <1>  -0.1810 
 18 C        5.0030    10.1380     1.1110 C.3   1 <1>  -0.2400 
 19 C        8.2570     8.4100     1.6090 C.2   1 <1>   0.1390 
 20 C        7.5430     7.4450    -0.1950 C.2   1 <1>  -0.3020 
 21 N        9.1020     8.7560     0.6890 N.2   1 <1>  -0.7070 
 22 N        8.6660     8.1530    -0.4310 N.pl3 1 <1>   0.3140 
 23 C        9.3730     8.2900    -1.7210 C.3   1 <1>   0.0960 
 24 C       10.1210     7.0000    -2.0840 C.3   1 <1>  -0.2400 
 25 H        0.9980     0.9720    -0.8570 H     1 <1>   0.4000 
 26 H        2.4390     2.0360     0.3960 H     1 <1>   0.0800 
 27 H        1.7080     3.4160    -1.4540 H     1 <1>   0.0800 
 28 H        2.8930     2.7050    -2.5270 H     1 <1>   0.0800 
 29 H        4.4480     0.7840    -1.4890 H     1 <1>   0.0800 
 30 H        4.2160     0.4000     0.2000 H     1 <1>   0.0800 
 31 H        6.1920     1.8760    -0.1780 H     1 <1>   0.0800 
 32 H        5.0120     2.6260     0.8540 H     1 <1>   0.0800 
 33 H        5.8310     4.2300    -0.8020 H     1 <1>   0.0800 
 34 H        5.3750     3.1670    -2.0980 H     1 <1>   0.0800 
 35 H        1.6840     5.5150    -1.9290 H     1 <1>   0.1500 
 36 H        1.2180     7.8240    -1.0920 H     1 <1>   0.1500 
 37 H        2.8260     8.7100     0.5150 H     1 <1>   0.4570 
 38 H        6.0590     5.9490     1.7480 H     1 <1>   0.0800 
 39 H        6.2610     7.1650     2.9600 H     1 <1>   0.0800 
 40 H        5.2580     9.1310     2.9770 H     1 <1>   0.0800 
 41 H        3.6150     9.1550     2.4320 H     1 <1>   0.0800 
 42 H        6.0390    10.0580     0.8310 H     1 <1>   0.0800 
 43 H        4.8690    11.0980     1.5780 H     1 <1>   0.0800 
 44 H        4.4020    10.1100     0.2230 H     1 <1>   0.0800 
 45 H        8.3430     8.7350     2.6330 H     1 <1>   0.1500 
 46 H        7.0280     6.8870    -0.9560 H     1 <1>   0.1500 
 47 H       10.0690     9.1050    -1.6350 H     1 <1>   0.0800 
 48 H        8.6540     8.5320    -2.4810 H     1 <1>   0.0800 
 49 H       10.8400     6.7650    -1.3190 H     1 <1>   0.0800 
 50 H       10.6440     7.1330    -3.0140 H     1 <1>   0.0800 
 51 H        9.4330     6.1810    -2.1910 H     1 <1>   0.0800 
@<TRIPOS>BOND
  1   1   2  1   
  2   1  25  1   
  3   2   3  1   
  4   2   4  1   
  5   2  26  1   
  6   3   5  1   
  7   3  27  1   
  8   3  28  1   
  9   4   6  1   
 10   4  29  1   
 11   4  30  1   
 12   5   7  1   
 13   5   8  1   
 14   6   8  1   
 15   6  31  1   
 16   6  32  1   
 17   7   9  ar  
 18   7  10  ar  
 19   8  33  1   
 20   8  34  1   
 21   9  11  ar  
 22  10  12  ar  
 23  10  35  1   
 24  11  13  ar  
 25  11  14  1   
 26  12  13  ar  
 27  12  36  1   
 28  13  37  1   
 29  14  15  1   
 30  14  16  1   
 31  15  17  1   
 32  15  38  1   
 33  15  39  1   
 34  16  18  1   
 35  16  40  1   
 36  16  41  1   
 37  17  19  1   
 38  17  20  2   
 39  18  42  1   
 40  18  43  1   
 41  18  44  1   
 42  19  21  2   
 43  19  45  1   
 44  20  22  1   
 45  20  46  1   
 46  21  22  1   
 47  22  23  1   
 48  23  24  1   
 49  23  47  1   
 50  23  48  1   
 51  24  49  1   
 52  24  50  1   
 53  24  51  1   
@<TRIPOS>SUBSTRUCTURE
  1 ****   9 GROUP 4 **** **** 0

# MOE 2024.06 (io_trps.svl 2023.06)
