@<TRIPOS>MOLECULE
NONAME
24 24 1 0 0 
SMALL
USER_CHARGES


@<TRIPOS>ATOM
  1 O        7.6430     2.0690    -0.0110 O.2   1 <1>  -0.5700 
  2 C        6.5820     1.4700    -0.0050 C.2   1 <1>   0.8060 
  3 O        5.4450     2.1740    -0.0040 O.3   1 <1>  -0.4300 
  4 C        6.5160     0.0160     0.0010 C.2   1 <1>   0.2030 
  5 C        5.4410     3.5840    -0.0090 C.3   1 <1>   0.1200 
  6 N        5.4360    -0.7450     0.0080 N.2   1 <1>  -0.7070 
  7 C        7.6560    -0.8000     0.0010 C.2   1 <1>  -0.1500 
  8 C        3.9890     4.0510    -0.0070 C.3   1 <1>  -0.2400 
  9 N        5.8640    -2.0070     0.0120 N.pl3 1 <1>   0.3000 
 10 C        7.2150    -2.0790     0.0070 C.2   1 <1>  -0.3320 
 11 C        7.9470    -3.3990     0.0100 C.3   1 <1>   0.5230 
 12 N        9.3830    -3.0970     0.0040 N.4   1 <1>  -0.8530 
 13 H        5.9540     3.9250    -0.8940 H     1 <1>   0.0800 
 14 H        5.9600     3.9320     0.8680 H     1 <1>   0.0800 
 15 H        8.6540    -0.3920    -0.0040 H     1 <1>   0.1500 
 16 H        3.4810     3.6870    -0.8820 H     1 <1>   0.0800 
 17 H        3.9530     5.1250    -0.0110 H     1 <1>   0.0800 
 18 H        3.4870     3.6940     0.8750 H     1 <1>   0.0800 
 19 H        5.1900    -2.7870     0.0170 H     1 <1>   0.2700 
 20 H        7.6820    -3.9720    -0.8650 H     1 <1>   0.0800 
 21 H        7.6870    -3.9650     0.8920 H     1 <1>   0.0800 
 22 H        9.6030    -2.5380    -0.8260 H     1 <1>   0.4500 
 23 H        9.9570    -3.9450     0.0060 H     1 <1>   0.4500 
 24 H        9.6090    -2.5310     0.8290 H     1 <1>   0.4500 
@<TRIPOS>BOND
  1   1   2  2   
  2   2   3  1   
  3   2   4  1   
  4   3   5  1   
  5   4   6  2   
  6   4   7  1   
  7   5   8  1   
  8   5  13  1   
  9   5  14  1   
 10   6   9  1   
 11   7  10  2   
 12   7  15  1   
 13   8  16  1   
 14   8  17  1   
 15   8  18  1   
 16   9  10  1   
 17   9  19  1   
 18  10  11  1   
 19  11  12  1   
 20  11  20  1   
 21  11  21  1   
 22  12  22  1   
 23  12  23  1   
 24  12  24  1   
@<TRIPOS>SUBSTRUCTURE
  1 ****   4 GROUP 4 **** **** 0

# MOE 2024.06 (io_trps.svl 2023.06)
