@<TRIPOS>MOLECULE
NONAME
48 51 1 0 0 
SMALL
USER_CHARGES


@<TRIPOS>ATOM
  1 O        0.8650     1.6750    -1.0940 O.2   1 <1>  -0.5700 
  2 C        0.3160     2.7520    -1.1230 C.2   1 <1>   0.5690 
  3 N       -0.4010     3.2690    -0.0740 N.am  1 <1>  -0.5090 
  4 C        0.4340     3.5840    -2.3930 C.3   1 <1>   0.1810 
  5 C       -1.0430     4.6220    -0.1700 C.3   1 <1>   0.3640 
  6 C       -0.3410     2.6710     1.2850 C.3   1 <1>   0.0490 
  7 O        0.5200     4.9500    -2.0880 O.3   1 <1>  -0.5600 
  8 C       -2.5640     4.4750    -0.1950 C.ar  1 <1>  -0.1440 
  9 C       -0.6050     5.4740    -1.3990 C.3   1 <1>   0.2610 
 10 C       -0.7280     1.2370     1.4640 C.3   1 <1>  -0.2000 
 11 C       -1.5950     2.3160     2.0250 C.3   1 <1>  -0.2000 
 12 C       -3.1830     3.4820    -0.9450 C.ar  1 <1>   0.1600 
 13 C       -3.3600     5.3470     0.5240 C.ar  1 <1>  -0.1500 
 14 C       -0.3380     6.9220    -0.9670 C.2   1 <1>   0.5690 
 15 N       -4.4900     3.3040    -1.0400 N.ar  1 <1>  -0.6200 
 16 C       -4.7240     5.1700     0.4430 C.ar  1 <1>  -0.1500 
 17 O       -1.1230     7.4870    -0.2420 O.2   1 <1>  -0.5700 
 18 N        0.7820     7.5510    -1.4020 N.am  1 <1>  -0.7300 
 19 C       -5.2300     4.1490    -0.3430 C.ar  1 <1>   0.1600 
 20 C        1.2200     8.9180    -1.0440 C.3   1 <1>   0.2840 
 21 C        2.6640     8.8910    -0.5650 C.ar  1 <1>   0.1670 
 22 N        3.5890     8.5510    -1.4530 N.ar  1 <1>  -0.6200 
 23 C        2.9520     9.2130     0.7580 C.ar  1 <1>   0.1600 
 24 C        4.8040     8.5600    -0.9290 C.ar  1 <1>   0.1600 
 25 N        4.1680     9.2240     1.2790 N.ar  1 <1>  -0.6200 
 26 C        5.0890     8.8860     0.3950 C.ar  1 <1>   0.1670 
 27 C        6.5160     8.8690     0.9040 C.3   1 <1>  -0.0970 
 28 H       -0.4150     3.4170    -3.0310 H     1 <1>   0.0800 
 29 H        1.3300     3.3080    -2.9190 H     1 <1>   0.0800 
 30 H       -0.7740     5.1600     0.7230 H     1 <1>   0.0800 
 31 H        0.5030     3.0310     1.8500 H     1 <1>   0.1000 
 32 H       -1.4120     5.5050    -2.1090 H     1 <1>   0.0800 
 33 H       -1.0710     0.6850     0.6060 H     1 <1>   0.1000 
 34 H       -0.1540     0.6310     2.1420 H     1 <1>   0.1000 
 35 H       -1.6190     2.4340     3.0940 H     1 <1>   0.1000 
 36 H       -2.5660     2.4370     1.5800 H     1 <1>   0.1000 
 37 H       -2.5750     2.7880    -1.4990 H     1 <1>   0.1500 
 38 H       -2.9430     6.1400     1.1240 H     1 <1>   0.1500 
 39 H       -5.3920     5.8180     0.9800 H     1 <1>   0.1500 
 40 H        1.4670     7.0160    -1.9500 H     1 <1>   0.3700 
 41 H       -6.2980     4.0220    -0.4010 H     1 <1>   0.1500 
 42 H        1.1520     9.5470    -1.9150 H     1 <1>   0.0800 
 43 H        0.5770     9.3240    -0.2830 H     1 <1>   0.0800 
 44 H        2.1430     9.4710     1.4190 H     1 <1>   0.1500 
 45 H        5.6150     8.2950    -1.5830 H     1 <1>   0.1500 
 46 H        7.2040     8.5900     0.1280 H     1 <1>   0.0800 
 47 H        6.6000     8.1670     1.7140 H     1 <1>   0.0800 
 48 H        6.7780     9.8460     1.2670 H     1 <1>   0.0800 
@<TRIPOS>BOND
  1   1   2  2   
  2   2   3  am  
  3   2   4  1   
  4   3   5  1   
  5   3   6  1   
  6   4   7  1   
  7   4  28  1   
  8   4  29  1   
  9   5   8  1   
 10   5   9  1   
 11   5  30  1   
 12   6  10  1   
 13   6  11  1   
 14   6  31  1   
 15   7   9  1   
 16   8  12  ar  
 17   8  13  ar  
 18   9  14  1   
 19   9  32  1   
 20  10  11  1   
 21  10  33  1   
 22  10  34  1   
 23  11  35  1   
 24  11  36  1   
 25  12  15  ar  
 26  12  37  1   
 27  13  16  ar  
 28  13  38  1   
 29  14  17  2   
 30  14  18  am  
 31  15  19  ar  
 32  16  19  ar  
 33  16  39  1   
 34  18  20  1   
 35  18  40  1   
 36  19  41  1   
 37  20  21  1   
 38  20  42  1   
 39  20  43  1   
 40  21  22  ar  
 41  21  23  ar  
 42  22  24  ar  
 43  23  25  ar  
 44  23  44  1   
 45  24  26  ar  
 46  24  45  1   
 47  25  26  ar  
 48  26  27  1   
 49  27  46  1   
 50  27  47  1   
 51  27  48  1   
@<TRIPOS>SUBSTRUCTURE
  1 ****   9 GROUP 4 **** **** 0

# MOE 2024.06 (io_trps.svl 2023.06)
