@<TRIPOS>MOLECULE
NONAME
40 42 1 0 0 
SMALL
USER_CHARGES


@<TRIPOS>ATOM
  1 O       -0.3850     0.1170     0.5660 O.2   1 <1>  -0.5700 
  2 C       -1.4170     0.7570     0.6690 C.2   1 <1>   0.7160 
  3 N       -2.6130     0.0760     0.6090 N.am  1 <1>  -0.6600 
  4 C       -1.3840     2.1970     0.8320 C.2   1 <1>  -0.0860 
  5 C       -3.9020     0.7050     0.2280 C.3   1 <1>   0.1400 
  6 C       -2.6700    -1.3930     0.4170 C.3   1 <1>   0.1400 
  7 C       -0.6140     3.1430     0.1940 C.2   1 <1>  -0.3320 
  8 C       -2.1810     2.9290     1.7380 C.2   1 <1>  -0.1500 
  9 C       -4.7020    -0.4140    -0.4370 C.3   1 <1>   0.2000 
 10 C       -4.1400    -1.7130     0.1380 C.3   1 <1>  -0.0800 
 11 N       -0.9120     4.3780     0.6600 N.pl3 1 <1>   0.0330 
 12 C        0.4380     2.9280    -0.8810 C.3   1 <1>  -0.0600 
 13 C       -1.8750     4.2420     1.6060 C.2   1 <1>  -0.3020 
 14 O       -6.0550    -0.3140    -0.1550 O.3   1 <1>  -0.6800 
 15 C       -4.3420    -2.9160    -0.7970 C.3   1 <1>  -0.0170 
 16 C       -3.7650    -4.1850    -0.1880 C.ar  1 <1>  -0.1440 
 17 C       -2.4960    -4.6350    -0.4940 C.ar  1 <1>  -0.1500 
 18 C       -4.4830    -4.9500     0.7070 C.ar  1 <1>  -0.1500 
 19 C       -2.0190    -5.7930     0.0980 C.ar  1 <1>   0.1600 
 20 C       -3.9140    -6.0940     1.2410 C.ar  1 <1>   0.1600 
 21 N       -2.6980    -6.5330     0.9590 N.ar  1 <1>  -0.6200 
 22 H       -4.3980     1.0550     1.1150 H     1 <1>   0.0800 
 23 H       -3.7420     1.5210    -0.4560 H     1 <1>   0.0800 
 24 H       -2.0520    -1.6580    -0.4240 H     1 <1>   0.0800 
 25 H       -2.3130    -1.9050     1.2940 H     1 <1>   0.0800 
 26 H       -2.8940     2.4880     2.4130 H     1 <1>   0.1500 
 27 H       -4.5720    -0.3680    -1.5050 H     1 <1>   0.0800 
 28 H       -4.6050    -1.9160     1.0860 H     1 <1>   0.0800 
 29 H       -0.4820     5.2610     0.3610 H     1 <1>   0.2700 
 30 H        0.5020     1.8900    -1.1500 H     1 <1>   0.0800 
 31 H        1.4010     3.2420    -0.5200 H     1 <1>   0.0800 
 32 H        0.1920     3.4930    -1.7620 H     1 <1>   0.0800 
 33 H       -2.2840     5.0840     2.1360 H     1 <1>   0.1500 
 34 H       -6.2090    -0.3660     0.8080 H     1 <1>   0.4000 
 35 H       -3.8760    -2.7260    -1.7480 H     1 <1>   0.0800 
 36 H       -5.3950    -3.0550    -0.9750 H     1 <1>   0.0800 
 37 H       -1.8710    -4.0980    -1.1840 H     1 <1>   0.1500 
 38 H       -5.4800    -4.6690     0.9940 H     1 <1>   0.1500 
 39 H       -1.0270    -6.1280    -0.1510 H     1 <1>   0.1500 
 40 H       -4.4900    -6.6800     1.9380 H     1 <1>   0.1500 
@<TRIPOS>BOND
  1   1   2  2   
  2   2   3  am  
  3   2   4  1   
  4   3   5  1   
  5   3   6  1   
  6   4   7  2   
  7   4   8  1   
  8   5   9  1   
  9   5  22  1   
 10   5  23  1   
 11   6  10  1   
 12   6  24  1   
 13   6  25  1   
 14   7  11  1   
 15   7  12  1   
 16   8  13  2   
 17   8  26  1   
 18   9  10  1   
 19   9  14  1   
 20   9  27  1   
 21  10  15  1   
 22  10  28  1   
 23  11  13  1   
 24  11  29  1   
 25  12  30  1   
 26  12  31  1   
 27  12  32  1   
 28  13  33  1   
 29  14  34  1   
 30  15  16  1   
 31  15  35  1   
 32  15  36  1   
 33  16  17  ar  
 34  16  18  ar  
 35  17  19  ar  
 36  17  37  1   
 37  18  20  ar  
 38  18  38  1   
 39  19  21  ar  
 40  19  39  1   
 41  20  21  ar  
 42  20  40  1   
@<TRIPOS>SUBSTRUCTURE
  1 ****   6 GROUP 4 **** **** 0

# MOE 2024.06 (io_trps.svl 2023.06)
