@<TRIPOS>MOLECULE
NONAME
49 50 1 0 0 
SMALL
USER_CHARGES


@<TRIPOS>ATOM
  1 F        0.6690     1.1700    -0.5550 F     1 <1>  -0.1900 
  2 C        1.7590     1.8560    -0.3370 C.ar  1 <1>   0.1900 
  3 C        2.9450     1.4170    -0.8910 C.ar  1 <1>  -0.1500 
  4 C        1.6840     2.9960     0.4400 C.ar  1 <1>  -0.1500 
  5 C        4.0960     2.1510    -0.6550 C.ar  1 <1>  -0.1500 
  6 C        2.8420     3.7200     0.6690 C.ar  1 <1>  -0.1500 
  7 C        4.0500     3.3020     0.1230 C.ar  1 <1>  -0.1430 
  8 C        5.3240     4.1000     0.3780 C.3   1 <1>   0.2540 
  9 N        5.9870     4.4780    -0.8880 N.3   1 <1>  -0.8100 
 10 C        7.3360     5.0510    -0.6270 C.3   1 <1>   0.1710 
 11 C        5.1380     5.3490    -1.7150 C.3   1 <1>   0.0300 
 12 C        7.3660     6.3430     0.2010 C.2   1 <1>   0.5690 
 13 O        7.4990     6.2640     1.4000 O.2   1 <1>  -0.5700 
 14 N        7.2370     7.5360    -0.4550 N.am  1 <1>  -0.4940 
 15 C        7.1260     8.8240     0.1110 C.2   1 <1>  -0.0880 
 16 N        8.1390     9.6260     0.5570 N.pl3 1 <1>   0.3140 
 17 C        5.9790     9.5160     0.2980 C.2   1 <1>  -0.1500 
 18 N        7.6500    10.8100     1.0040 N.2   1 <1>  -0.7070 
 19 C        9.6180     9.4140     0.5310 C.3   1 <1>   0.1760 
 20 C        6.3680    10.7260     0.8530 C.2   1 <1>   0.1080 
 21 C       10.1160     9.1290    -0.9010 C.3   1 <1>  -0.1600 
 22 C       10.0530     8.3410     1.5420 C.3   1 <1>  -0.2400 
 23 C        5.4360    11.8470     1.2490 C.3   1 <1>  -0.0590 
 24 C       11.6460     9.1800    -1.0300 C.3   1 <1>  -0.2400 
 25 H        2.9660     0.5260    -1.4920 H     1 <1>   0.1500 
 26 H        0.7410     3.3040     0.8550 H     1 <1>   0.1500 
 27 H        5.0330     1.8350    -1.0810 H     1 <1>   0.1500 
 28 H        2.8000     4.6100     1.2730 H     1 <1>   0.1500 
 29 H        5.9930     3.4910     0.9630 H     1 <1>   0.0800 
 30 H        5.0970     4.9830     0.9520 H     1 <1>   0.0800 
 31 H        7.8240     5.2310    -1.5670 H     1 <1>   0.0800 
 32 H        7.9240     4.3160    -0.1060 H     1 <1>   0.0800 
 33 H        4.2430     4.8230    -2.0020 H     1 <1>   0.0800 
 34 H        5.6590     5.6270    -2.6140 H     1 <1>   0.0800 
 35 H        4.8560     6.2350    -1.1720 H     1 <1>   0.0800 
 36 H        6.9980     7.4710    -1.4450 H     1 <1>   0.3700 
 37 H        4.9740     9.2120     0.0770 H     1 <1>   0.1500 
 38 H       10.0520    10.3460     0.8470 H     1 <1>   0.0800 
 39 H        9.6980     9.8710    -1.5610 H     1 <1>   0.0800 
 40 H        9.7750     8.1620    -1.2220 H     1 <1>   0.0800 
 41 H        9.8240     7.3570     1.1810 H     1 <1>   0.0800 
 42 H        9.5540     8.4980     2.4820 H     1 <1>   0.0800 
 43 H       11.1120     8.3990     1.7120 H     1 <1>   0.0800 
 44 H        4.4170    11.5810     1.0440 H     1 <1>   0.0800 
 45 H        5.6900    12.7340     0.6990 H     1 <1>   0.0800 
 46 H        5.5450    12.0460     2.2990 H     1 <1>   0.0800 
 47 H       12.0200    10.1310    -0.6900 H     1 <1>   0.0800 
 48 H       11.9310     9.0520    -2.0590 H     1 <1>   0.0800 
 49 H       12.1080     8.3980    -0.4540 H     1 <1>   0.0800 
@<TRIPOS>BOND
  1   1   2  1   
  2   2   3  ar  
  3   2   4  ar  
  4   3   5  ar  
  5   3  25  1   
  6   4   6  ar  
  7   4  26  1   
  8   5   7  ar  
  9   5  27  1   
 10   6   7  ar  
 11   6  28  1   
 12   7   8  1   
 13   8   9  1   
 14   8  29  1   
 15   8  30  1   
 16   9  10  1   
 17   9  11  1   
 18  10  12  1   
 19  10  31  1   
 20  10  32  1   
 21  11  33  1   
 22  11  34  1   
 23  11  35  1   
 24  12  13  2   
 25  12  14  am  
 26  14  15  1   
 27  14  36  1   
 28  15  16  1   
 29  15  17  2   
 30  16  18  1   
 31  16  19  1   
 32  17  20  1   
 33  17  37  1   
 34  18  20  2   
 35  19  21  1   
 36  19  22  1   
 37  19  38  1   
 38  20  23  1   
 39  21  24  1   
 40  21  39  1   
 41  21  40  1   
 42  22  41  1   
 43  22  42  1   
 44  22  43  1   
 45  23  44  1   
 46  23  45  1   
 47  23  46  1   
 48  24  47  1   
 49  24  48  1   
 50  24  49  1   
@<TRIPOS>SUBSTRUCTURE
  1 ****  12 GROUP 4 **** **** 0

# MOE 2024.06 (io_trps.svl 2023.06)
