@<TRIPOS>MOLECULE
NONAME
50 53 1 0 0 
SMALL
USER_CHARGES


@<TRIPOS>ATOM
  1 O       -0.2210     0.6680    -0.0530 O.2   1 <1>  -0.5700 
  2 C       -1.3620     0.9970     0.2360 C.2   1 <1>   0.5440 
  3 N       -2.4080     0.3740    -0.4290 N.am  1 <1>  -0.6600 
  4 C       -1.5790     2.0400     1.2440 C.ar  1 <1>   0.3960 
  5 C       -2.2030    -0.8100    -1.3080 C.3   1 <1>   0.1400 
  6 C       -3.8420     0.7000    -0.2100 C.3   1 <1>   0.1400 
  7 N       -2.2350     1.7110     2.3740 N.ar  1 <1>  -0.6200 
  8 C       -1.1160     3.3470     1.0170 C.ar  1 <1>  -0.1430 
  9 C       -2.8640    -2.0280    -0.6570 C.3   1 <1>  -0.1600 
 10 C       -4.5160    -0.4920     0.4730 C.3   1 <1>  -0.1600 
 11 C       -2.4140     2.6630     3.2670 C.ar  1 <1>   0.1600 
 12 C       -1.3200     4.3260     1.9680 C.ar  1 <1>  -0.1500 
 13 C       -0.3850     3.7230    -0.2680 C.3   1 <1>  -0.0970 
 14 C       -4.3500    -1.7840    -0.3490 C.3   1 <1>   0.4240 
 15 C       -1.9840     3.9670     3.1180 C.ar  1 <1>  -0.1500 
 16 O       -4.9580    -1.5820    -1.6040 O.3   1 <1>  -0.5600 
 17 C       -4.9530    -2.9990     0.3910 C.ar  1 <1>  -0.1430 
 18 C       -6.3330    -1.7880    -1.6940 C.3   1 <1>   0.1200 
 19 C       -6.0280    -3.7050    -0.1390 C.ar  1 <1>  -0.1430 
 20 C       -4.4300    -3.4070     1.6140 C.ar  1 <1>  -0.1500 
 21 C       -6.6250    -3.2670    -1.4620 C.3   1 <1>  -0.0170 
 22 C       -6.5580    -4.7970     0.5300 C.ar  1 <1>  -0.1500 
 23 C       -4.9590    -4.4950     2.2840 C.ar  1 <1>  -0.1500 
 24 C       -6.0230    -5.2000     1.7490 C.ar  1 <1>   0.0830 
 25 O       -6.4800    -6.2570     2.4670 O.3   1 <1>  -0.3630 
 26 C       -7.5450    -7.0540     2.0000 C.3   1 <1>   0.0400 
 27 H       -1.1550    -1.0040    -1.4580 H     1 <1>   0.0800 
 28 H       -2.6470    -0.6180    -2.2700 H     1 <1>   0.0800 
 29 H       -4.3090     0.8900    -1.1620 H     1 <1>   0.0800 
 30 H       -3.9550     1.5810     0.3950 H     1 <1>   0.0800 
 31 H       -2.3280    -2.2480     0.2470 H     1 <1>   0.0800 
 32 H       -2.7740    -2.8820    -1.3020 H     1 <1>   0.0800 
 33 H       -5.5560    -0.2860     0.6360 H     1 <1>   0.0800 
 34 H       -4.0650    -0.6180     1.4400 H     1 <1>   0.0800 
 35 H       -2.9320     2.3920     4.1710 H     1 <1>   0.1500 
 36 H       -0.9750     5.3360     1.8260 H     1 <1>   0.1500 
 37 H       -0.9480     3.4020    -1.1270 H     1 <1>   0.0800 
 38 H        0.5800     3.2460    -0.2920 H     1 <1>   0.0800 
 39 H       -0.2400     4.7860    -0.3390 H     1 <1>   0.0800 
 40 H       -2.1680     4.6890     3.8930 H     1 <1>   0.1500 
 41 H       -6.6470    -1.4930    -2.6800 H     1 <1>   0.0800 
 42 H       -6.8340    -1.1750    -0.9660 H     1 <1>   0.0800 
 43 H       -3.6040    -2.8810     2.0580 H     1 <1>   0.1500 
 44 H       -6.1980    -3.8460    -2.2610 H     1 <1>   0.0800 
 45 H       -7.6880    -3.4220    -1.4600 H     1 <1>   0.0800 
 46 H       -7.3830    -5.3240     0.0930 H     1 <1>   0.1500 
 47 H       -4.5480    -4.8060     3.2270 H     1 <1>   0.1500 
 48 H       -7.7240    -7.8280     2.7230 H     1 <1>   0.0800 
 49 H       -7.2670    -7.4900     1.0570 H     1 <1>   0.0800 
 50 H       -8.4220    -6.4390     1.8980 H     1 <1>   0.0800 
@<TRIPOS>BOND
  1   1   2  2   
  2   2   3  am  
  3   2   4  1   
  4   3   5  1   
  5   3   6  1   
  6   4   7  ar  
  7   4   8  ar  
  8   5   9  1   
  9   5  27  1   
 10   5  28  1   
 11   6  10  1   
 12   6  29  1   
 13   6  30  1   
 14   7  11  ar  
 15   8  12  ar  
 16   8  13  1   
 17   9  14  1   
 18   9  31  1   
 19   9  32  1   
 20  10  14  1   
 21  10  33  1   
 22  10  34  1   
 23  11  15  ar  
 24  11  35  1   
 25  12  15  ar  
 26  12  36  1   
 27  13  37  1   
 28  13  38  1   
 29  13  39  1   
 30  14  16  1   
 31  14  17  1   
 32  15  40  1   
 33  16  18  1   
 34  17  19  ar  
 35  17  20  ar  
 36  18  21  1   
 37  18  41  1   
 38  18  42  1   
 39  19  21  1   
 40  19  22  ar  
 41  20  23  ar  
 42  20  43  1   
 43  21  44  1   
 44  21  45  1   
 45  22  24  ar  
 46  22  46  1   
 47  23  24  ar  
 48  23  47  1   
 49  24  25  1   
 50  25  26  1   
 51  26  48  1   
 52  26  49  1   
 53  26  50  1   
@<TRIPOS>SUBSTRUCTURE
  1 ****  10 GROUP 4 **** **** 0

# MOE 2024.06 (io_trps.svl 2023.06)
