@<TRIPOS>MOLECULE
NONAME
48 50 1 0 0 
SMALL
USER_CHARGES


@<TRIPOS>ATOM
  1 S       -0.3200    -0.0950    -1.3830 S.3   1 <1>  -0.0800 
  2 C       -0.0250    -1.4660    -0.3710 C.2   1 <1>   0.1980 
  3 C        0.9320     0.7110    -0.5070 C.2   1 <1>   0.1980 
  4 N        0.9040    -1.2660     0.4760 N.2   1 <1>  -0.3380 
  5 C       -0.8620    -2.7190    -0.5840 C.3   1 <1>   0.2900 
  6 N        1.4530    -0.0140     0.3990 N.2   1 <1>  -0.3380 
  7 C        1.2660     2.1340    -0.8900 C.3   1 <1>  -0.0600 
  8 N       -2.3110    -2.4970    -0.3600 N.3   1 <1>  -0.8100 
  9 C       -3.0820    -3.6570    -0.8520 C.3   1 <1>   0.1100 
 10 C       -2.5900    -2.1560     1.0500 C.3   1 <1>   0.1100 
 11 C       -4.6060    -3.4730    -0.7720 C.3   1 <1>   0.1400 
 12 C       -3.9160    -1.3980     1.1590 C.3   1 <1>  -0.1600 
 13 N       -5.0990    -3.5740     0.6380 N.am  1 <1>  -0.6600 
 14 C       -5.1430    -2.2890     1.3930 C.3   1 <1>   0.1400 
 15 C       -5.5760    -4.7330     1.2130 C.2   1 <1>   0.5690 
 16 O       -6.1290    -4.7080     2.2910 O.2   1 <1>  -0.5700 
 17 C       -5.4010    -6.0930     0.5330 C.3   1 <1>   0.2370 
 18 N       -6.4860    -6.2750    -0.4550 N.pl3 1 <1>   0.3140 
 19 C       -5.3320    -7.2830     1.5230 C.3   1 <1>  -0.1600 
 20 N       -6.2210    -6.5000    -1.7620 N.2   1 <1>  -0.7070 
 21 C       -7.8160    -6.2470    -0.2310 C.2   1 <1>  -0.3020 
 22 C       -5.0230    -8.6240     0.8400 C.3   1 <1>  -0.2400 
 23 C       -7.3860    -6.6120    -2.3240 C.2   1 <1>   0.1390 
 24 C       -8.4260    -6.4620    -1.4150 C.2   1 <1>  -0.1500 
 25 H       -0.5090    -3.4910     0.0770 H     1 <1>   0.0800 
 26 H       -0.7040    -3.0470    -1.5960 H     1 <1>   0.0800 
 27 H        0.4000     2.7570    -0.7660 H     1 <1>   0.0800 
 28 H        1.5870     2.1700    -1.9140 H     1 <1>   0.0800 
 29 H        2.0560     2.5040    -0.2620 H     1 <1>   0.0800 
 30 H       -2.7980    -4.5440    -0.3130 H     1 <1>   0.0800 
 31 H       -2.8350    -3.8100    -1.8890 H     1 <1>   0.0800 
 32 H       -1.8190    -1.5020     1.4220 H     1 <1>   0.0800 
 33 H       -2.5940    -3.0400     1.6670 H     1 <1>   0.0800 
 34 H       -5.0780    -4.2200    -1.3800 H     1 <1>   0.0800 
 35 H       -4.8750    -2.5190    -1.1920 H     1 <1>   0.0800 
 36 H       -4.0580    -0.7900     0.2830 H     1 <1>   0.0800 
 37 H       -3.8510    -0.7230     1.9920 H     1 <1>   0.0800 
 38 H       -6.0360    -1.7530     1.1230 H     1 <1>   0.0800 
 39 H       -5.2020    -2.5030     2.4480 H     1 <1>   0.0800 
 40 H       -4.4770    -6.0750    -0.0090 H     1 <1>   0.0800 
 41 H       -6.2620    -7.3570     2.0610 H     1 <1>   0.0800 
 42 H       -4.5620    -7.0790     2.2460 H     1 <1>   0.0800 
 43 H       -8.2420    -6.0770     0.7430 H     1 <1>   0.1500 
 44 H       -5.8050    -8.8900     0.1490 H     1 <1>   0.0800 
 45 H       -4.9470    -9.4030     1.5780 H     1 <1>   0.0800 
 46 H       -4.0930    -8.5700     0.3010 H     1 <1>   0.0800 
 47 H       -7.5220    -6.8000    -3.3760 H     1 <1>   0.1500 
 48 H       -9.4770    -6.5100    -1.6370 H     1 <1>   0.1500 
@<TRIPOS>BOND
  1   1   2  1   
  2   1   3  1   
  3   2   4  2   
  4   2   5  1   
  5   3   6  2   
  6   3   7  1   
  7   4   6  1   
  8   5   8  1   
  9   5  25  1   
 10   5  26  1   
 11   7  27  1   
 12   7  28  1   
 13   7  29  1   
 14   8   9  1   
 15   8  10  1   
 16   9  11  1   
 17   9  30  1   
 18   9  31  1   
 19  10  12  1   
 20  10  32  1   
 21  10  33  1   
 22  11  13  1   
 23  11  34  1   
 24  11  35  1   
 25  12  14  1   
 26  12  36  1   
 27  12  37  1   
 28  13  14  1   
 29  13  15  am  
 30  14  38  1   
 31  14  39  1   
 32  15  16  2   
 33  15  17  1   
 34  17  18  1   
 35  17  19  1   
 36  17  40  1   
 37  18  20  1   
 38  18  21  1   
 39  19  22  1   
 40  19  41  1   
 41  19  42  1   
 42  20  23  2   
 43  21  24  2   
 44  21  43  1   
 45  22  44  1   
 46  22  45  1   
 47  22  46  1   
 48  23  24  1   
 49  23  47  1   
 50  24  48  1   
@<TRIPOS>SUBSTRUCTURE
  1 ****   9 GROUP 4 **** **** 0

# MOE 2024.06 (io_trps.svl 2023.06)
