@<TRIPOS>MOLECULE
NONAME
46 48 1 0 0 
SMALL
USER_CHARGES


@<TRIPOS>ATOM
  1 O       -4.4550    -3.6000     0.6970 O.co2 1 <1>  -0.9000 
  2 C       -4.8340    -3.3370    -0.4450 C.2   1 <1>   0.9060 
  3 O       -5.6770    -4.0590    -0.9970 O.co2 1 <1>  -0.9000 
  4 C       -4.5430    -1.9720    -1.0340 C.3   1 <1>   0.0140 
  5 O       -5.7590    -1.2550    -1.2600 O.3   1 <1>  -0.3630 
  6 C       -6.1320    -0.2910    -0.3910 C.ar  1 <1>   0.0830 
  7 C       -6.6830    -0.5600     0.8660 C.ar  1 <1>  -0.1440 
  8 C       -5.9970     1.0170    -0.8290 C.ar  1 <1>  -0.1500 
  9 C       -7.0790     0.5100     1.6580 C.ar  1 <1>  -0.1500 
 10 C       -6.8740    -1.9590     1.4450 C.3   1 <1>   0.4870 
 11 C       -6.3960     2.0690    -0.0290 C.ar  1 <1>  -0.1500 
 12 C       -6.9380     1.8140     1.2170 C.ar  1 <1>  -0.1500 
 13 N       -7.6050    -2.8760     0.5320 N.4   1 <1>  -0.9590 
 14 C       -8.7060    -2.3190    -0.2910 C.3   1 <1>   0.3430 
 15 C       -8.0190    -4.1590     1.1350 C.3   1 <1>   0.3430 
 16 C       -9.8120    -3.3800    -0.2830 C.3   1 <1>   0.2000 
 17 C       -9.1590    -4.6590     0.2480 C.3   1 <1>  -0.0800 
 18 O      -10.8100    -2.9920     0.6050 O.3   1 <1>  -0.6800 
 19 C       -8.6230    -5.5560    -0.8890 C.3   1 <1>  -0.0170 
 20 C       -7.9890    -6.8310    -0.3470 C.ar  1 <1>   0.1670 
 21 N       -8.7890    -7.6110     0.3640 N.ar  1 <1>  -0.6200 
 22 C       -6.6510    -7.1340    -0.6070 C.ar  1 <1>   0.1600 
 23 C       -8.1780    -8.7070     0.7800 C.ar  1 <1>   0.1600 
 24 N       -6.0430    -8.2360    -0.1930 N.ar  1 <1>  -0.6200 
 25 C       -6.8500    -9.0100     0.5090 C.ar  1 <1>   0.1600 
 26 H       -4.0540    -2.1000    -1.9800 H     1 <1>   0.0800 
 27 H       -3.9130    -1.4100    -0.3700 H     1 <1>   0.0800 
 28 H       -5.5790     1.2040    -1.8020 H     1 <1>   0.1500 
 29 H       -7.5010     0.3420     2.6340 H     1 <1>   0.1500 
 30 H       -7.4300    -1.8700     2.3620 H     1 <1>   0.0800 
 31 H       -5.9150    -2.3760     1.6980 H     1 <1>   0.0800 
 32 H       -6.2850     3.0830    -0.3740 H     1 <1>   0.1500 
 33 H       -7.2490     2.6340     1.8430 H     1 <1>   0.1500 
 34 H       -6.8750    -3.1820    -0.1590 H     1 <1>   0.4500 
 35 H       -9.0710    -1.3880     0.1090 H     1 <1>   0.0800 
 36 H       -8.3460    -2.1590    -1.2940 H     1 <1>   0.0800 
 37 H       -7.1930    -4.8550     1.1610 H     1 <1>   0.0800 
 38 H       -8.3820    -3.9960     2.1350 H     1 <1>   0.0800 
 39 H      -10.2650    -3.5000    -1.2530 H     1 <1>   0.0800 
 40 H       -9.8610    -5.2350     0.8260 H     1 <1>   0.0800 
 41 H      -10.4960    -2.9950     1.5290 H     1 <1>   0.4000 
 42 H       -7.9170    -5.0220    -1.4980 H     1 <1>   0.0800 
 43 H       -9.4410    -5.8440    -1.5260 H     1 <1>   0.0800 
 44 H       -6.0580    -6.4410    -1.1810 H     1 <1>   0.1500 
 45 H       -8.7550    -9.4020     1.3620 H     1 <1>   0.1500 
 46 H       -6.4390    -9.9280     0.8890 H     1 <1>   0.1500 
@<TRIPOS>BOND
  1   1   2  ar  
  2   2   3  ar  
  3   2   4  1   
  4   4   5  1   
  5   4  26  1   
  6   4  27  1   
  7   5   6  1   
  8   6   7  ar  
  9   6   8  ar  
 10   7   9  ar  
 11   7  10  1   
 12   8  11  ar  
 13   8  28  1   
 14   9  12  ar  
 15   9  29  1   
 16  10  13  1   
 17  10  30  1   
 18  10  31  1   
 19  11  12  ar  
 20  11  32  1   
 21  12  33  1   
 22  13  14  1   
 23  13  15  1   
 24  13  34  1   
 25  14  16  1   
 26  14  35  1   
 27  14  36  1   
 28  15  17  1   
 29  15  37  1   
 30  15  38  1   
 31  16  17  1   
 32  16  18  1   
 33  16  39  1   
 34  17  19  1   
 35  17  40  1   
 36  18  41  1   
 37  19  20  1   
 38  19  42  1   
 39  19  43  1   
 40  20  21  ar  
 41  20  22  ar  
 42  21  23  ar  
 43  22  24  ar  
 44  22  44  1   
 45  23  25  ar  
 46  23  45  1   
 47  24  25  ar  
 48  25  46  1   
@<TRIPOS>SUBSTRUCTURE
  1 ****  13 GROUP 4 **** **** 0

# MOE 2024.06 (io_trps.svl 2023.06)
