@<TRIPOS>MOLECULE
NONAME
39 41 1 0 0 
SMALL
USER_CHARGES


@<TRIPOS>ATOM
  1 F        1.7800    -0.8940     2.3410 F     1 <1>  -0.3400 
  2 C        2.3550    -1.2280     1.1930 C.3   1 <1>   1.1640 
  3 F        3.4770    -1.8630     1.5050 F     1 <1>  -0.3400 
  4 F        2.7200    -0.0910     0.6140 F     1 <1>  -0.3400 
  5 C        1.4530    -2.0760     0.2890 C.ar  1 <1>  -0.1440 
  6 C        0.3520    -2.7600     0.7650 C.ar  1 <1>  -0.1500 
  7 C        1.6990    -2.2110    -1.0690 C.ar  1 <1>  -0.1500 
  8 C       -0.4330    -3.5210    -0.0930 C.ar  1 <1>   0.4100 
  9 C        0.8610    -2.9910    -1.8450 C.ar  1 <1>   0.1600 
 10 N       -0.1920    -3.6460    -1.3910 N.ar  1 <1>  -0.6200 
 11 N       -1.5230    -4.1930     0.4120 N.pl3 1 <1>  -0.8380 
 12 C       -2.8430    -3.8140    -0.1680 C.3   1 <1>   0.2090 
 13 C       -1.4090    -5.6780     0.4190 C.3   1 <1>   0.2090 
 14 C       -3.4030    -5.0910    -0.7880 C.3   1 <1>   0.2000 
 15 C       -2.7780    -6.2250     0.0140 C.3   1 <1>  -0.0800 
 16 O       -4.7890    -5.1530    -0.7030 O.3   1 <1>  -0.6800 
 17 C       -2.7040    -7.5400    -0.7760 C.3   1 <1>  -0.0170 
 18 C       -2.0080    -8.6260     0.0290 C.ar  1 <1>  -0.1430 
 19 C       -0.6880    -8.9660    -0.1860 C.ar  1 <1>  -0.1500 
 20 C       -2.6640    -9.3260     1.0220 C.ar  1 <1>  -0.1500 
 21 C       -0.1030    -9.9580     0.5830 C.ar  1 <1>   0.1600 
 22 C       -1.9850   -10.3010     1.7340 C.ar  1 <1>   0.1600 
 23 N       -0.7190   -10.6330     1.5390 N.ar  1 <1>  -0.6200 
 24 H        0.0700    -2.7290     1.8010 H     1 <1>   0.1500 
 25 H        2.5370    -1.7140    -1.5290 H     1 <1>   0.1500 
 26 H        1.0690    -3.0820    -2.8980 H     1 <1>   0.1500 
 27 H       -3.4790    -3.4630     0.6250 H     1 <1>   0.0800 
 28 H       -2.7380    -3.0460    -0.9150 H     1 <1>   0.0800 
 29 H       -0.6570    -5.9880    -0.2870 H     1 <1>   0.0800 
 30 H       -1.1300    -6.0280     1.3980 H     1 <1>   0.0800 
 31 H       -3.1190    -5.1390    -1.8260 H     1 <1>   0.0800 
 32 H       -3.3380    -6.3770     0.9190 H     1 <1>   0.0800 
 33 H       -5.0740    -5.1190     0.2300 H     1 <1>   0.4000 
 34 H       -2.1770    -7.3810    -1.7010 H     1 <1>   0.0800 
 35 H       -3.7010    -7.8630    -1.0250 H     1 <1>   0.0800 
 36 H       -0.1080    -8.4710    -0.9440 H     1 <1>   0.1500 
 37 H       -3.6940    -9.1220     1.2480 H     1 <1>   0.1500 
 38 H        0.9280   -10.2100     0.4010 H     1 <1>   0.1500 
 39 H       -2.5130   -10.8360     2.5050 H     1 <1>   0.1500 
@<TRIPOS>BOND
  1   1   2  1   
  2   2   3  1   
  3   2   4  1   
  4   2   5  1   
  5   5   6  ar  
  6   5   7  ar  
  7   6   8  ar  
  8   6  24  1   
  9   7   9  ar  
 10   7  25  1   
 11   8  10  ar  
 12   8  11  1   
 13   9  10  ar  
 14   9  26  1   
 15  11  12  1   
 16  11  13  1   
 17  12  14  1   
 18  12  27  1   
 19  12  28  1   
 20  13  15  1   
 21  13  29  1   
 22  13  30  1   
 23  14  15  1   
 24  14  16  1   
 25  14  31  1   
 26  15  17  1   
 27  15  32  1   
 28  16  33  1   
 29  17  18  1   
 30  17  34  1   
 31  17  35  1   
 32  18  19  ar  
 33  18  20  ar  
 34  19  21  ar  
 35  19  36  1   
 36  20  22  ar  
 37  20  37  1   
 38  21  23  ar  
 39  21  38  1   
 40  22  23  ar  
 41  22  39  1   
@<TRIPOS>SUBSTRUCTURE
  1 ****  13 GROUP 4 **** **** 0

# MOE 2024.06 (io_trps.svl 2023.06)
