@<TRIPOS>MOLECULE
NONAME
50 53 1 0 0 
SMALL
USER_CHARGES


@<TRIPOS>ATOM
  1 O       -0.5020     2.2430     2.3030 O.2   1 <1>  -0.5700 
  2 C       -0.7300     2.0520     1.1270 C.2   1 <1>   0.6900 
  3 N       -1.9180     1.5890     0.6390 N.am  1 <1>  -0.4200 
  4 N        0.1510     2.3010     0.1170 N.am  1 <1>  -0.6600 
  5 C       -1.8650     1.5200    -0.7180 C.2   1 <1>   0.5690 
  6 C       -3.0320     1.0930     1.4870 C.3   1 <1>   0.2010 
  7 C       -0.4880     1.9680    -1.1820 C.3   1 <1>   0.2010 
  8 C        1.5580     2.7510     0.2400 C.3   1 <1>   0.0600 
  9 O       -2.7600     1.1780    -1.4510 O.2   1 <1>  -0.5700 
 10 C       -3.2380    -0.4160     1.3510 C.2   1 <1>   0.5690 
 11 O       -2.4060    -1.1470     1.8350 O.2   1 <1>  -0.5700 
 12 N       -4.3360    -0.9380     0.7150 N.am  1 <1>  -0.6600 
 13 C       -5.3840    -0.1920    -0.0320 C.3   1 <1>   0.1400 
 14 C       -4.4970    -2.3980     0.4950 C.3   1 <1>   0.1400 
 15 C       -6.4400    -1.2440    -0.3590 C.3   1 <1>   0.2000 
 16 C       -5.6240    -2.5300    -0.5390 C.3   1 <1>  -0.0800 
 17 O       -7.2760    -1.3700     0.7420 O.3   1 <1>  -0.6800 
 18 C       -6.4450    -3.8320    -0.4190 C.3   1 <1>  -0.0170 
 19 C       -5.7140    -5.1430    -0.7340 C.ar  1 <1>  -0.1440 
 20 C       -6.3480    -6.3810    -0.4620 C.ar  1 <1>   0.0000 
 21 C       -4.4640    -5.1990    -1.2860 C.ar  1 <1>  -0.1500 
 22 C       -5.6390    -7.5730    -0.7530 C.ar  1 <1>   0.3100 
 23 C       -7.6510    -6.5090     0.0770 C.ar  1 <1>  -0.1500 
 24 C       -3.8530    -6.4330    -1.5400 C.ar  1 <1>   0.1600 
 25 N       -4.3940    -7.5820    -1.2900 N.ar  1 <1>  -0.6200 
 26 C       -6.2430    -8.8110    -0.4830 C.ar  1 <1>  -0.1500 
 27 C       -8.2130    -7.7320     0.3260 C.ar  1 <1>  -0.1500 
 28 C       -7.5010    -8.9000     0.0450 C.ar  1 <1>  -0.1500 
 29 H       -2.8140     1.3050     2.5180 H     1 <1>   0.0800 
 30 H       -3.9270     1.6220     1.2250 H     1 <1>   0.0800 
 31 H       -0.5580     2.8340    -1.8130 H     1 <1>   0.0800 
 32 H        0.0300     1.1640    -1.6730 H     1 <1>   0.0800 
 33 H        1.6930     3.6760    -0.2920 H     1 <1>   0.0800 
 34 H        2.2170     2.0030    -0.1640 H     1 <1>   0.0800 
 35 H        1.8020     2.9060     1.2780 H     1 <1>   0.0800 
 36 H       -5.8000     0.6170     0.5420 H     1 <1>   0.0800 
 37 H       -4.9650     0.1890    -0.9470 H     1 <1>   0.0800 
 38 H       -3.5760    -2.8300     0.1440 H     1 <1>   0.0800 
 39 H       -4.7700    -2.8640     1.4260 H     1 <1>   0.0800 
 40 H       -7.0380    -0.9910    -1.2170 H     1 <1>   0.0800 
 41 H       -5.1860    -2.4840    -1.5200 H     1 <1>   0.0800 
 42 H       -6.7240    -1.4700     1.5450 H     1 <1>   0.4000 
 43 H       -7.2940    -3.7590    -1.0770 H     1 <1>   0.0800 
 44 H       -6.8220    -3.8960     0.5870 H     1 <1>   0.0800 
 45 H       -3.9020    -4.3250    -1.5490 H     1 <1>   0.1500 
 46 H       -8.2240    -5.6280     0.2970 H     1 <1>   0.1500 
 47 H       -2.8660    -6.4250    -1.9710 H     1 <1>   0.1500 
 48 H       -5.6770    -9.6960    -0.7110 H     1 <1>   0.1500 
 49 H       -9.2040    -7.8110     0.7380 H     1 <1>   0.1500 
 50 H       -7.9520    -9.8570     0.2470 H     1 <1>   0.1500 
@<TRIPOS>BOND
  1   1   2  2   
  2   2   3  am  
  3   2   4  am  
  4   3   5  am  
  5   3   6  1   
  6   4   7  1   
  7   4   8  1   
  8   5   7  1   
  9   5   9  2   
 10   6  10  1   
 11   6  29  1   
 12   6  30  1   
 13   7  31  1   
 14   7  32  1   
 15   8  33  1   
 16   8  34  1   
 17   8  35  1   
 18  10  11  2   
 19  10  12  am  
 20  12  13  1   
 21  12  14  1   
 22  13  15  1   
 23  13  36  1   
 24  13  37  1   
 25  14  16  1   
 26  14  38  1   
 27  14  39  1   
 28  15  16  1   
 29  15  17  1   
 30  15  40  1   
 31  16  18  1   
 32  16  41  1   
 33  17  42  1   
 34  18  19  1   
 35  18  43  1   
 36  18  44  1   
 37  19  20  ar  
 38  19  21  ar  
 39  20  22  ar  
 40  20  23  ar  
 41  21  24  ar  
 42  21  45  1   
 43  22  25  ar  
 44  22  26  ar  
 45  23  27  ar  
 46  23  46  1   
 47  24  25  ar  
 48  24  47  1   
 49  26  28  ar  
 50  26  48  1   
 51  27  28  ar  
 52  27  49  1   
 53  28  50  1   
@<TRIPOS>SUBSTRUCTURE
  1 ****  14 GROUP 4 **** **** 0

# MOE 2024.06 (io_trps.svl 2023.06)
