@<TRIPOS>MOLECULE
NONAME
42 44 1 0 0 
SMALL
USER_CHARGES


@<TRIPOS>ATOM
  1 F        1.4050     0.2950    -0.9630 F     1 <1>  -0.3400 
  2 C        1.6180     0.8740     0.2120 C.3   1 <1>   1.0200 
  3 F        0.4360     1.3060     0.6340 F     1 <1>  -0.3400 
  4 F        1.9750    -0.0970     1.0430 F     1 <1>  -0.3400 
  5 C        2.6640     2.0080     0.1280 C.3   1 <1>  -0.0800 
  6 C        4.0270     1.5240    -0.4230 C.3   1 <1>  -0.1600 
  7 C        2.8720     2.7300     1.4820 C.3   1 <1>  -0.1600 
  8 C        5.0400     2.6690    -0.4830 C.3   1 <1>   0.2090 
  9 C        3.9180     3.8390     1.3640 C.3   1 <1>   0.2090 
 10 N        5.1860     3.2460     0.8750 N.pl3 1 <1>  -0.8210 
 11 C        6.2840     4.1040     0.9880 C.2   1 <1>   0.3720 
 12 N        7.3120     3.8080     1.7010 N.2   1 <1>  -0.4100 
 13 C        6.4340     5.3520     0.3840 C.2   1 <1>  -0.2330 
 14 O        8.1240     4.8280     1.5870 O.3   1 <1>  -0.0190 
 15 C        7.6480     5.7790     0.8160 C.2   1 <1>   0.0870 
 16 C        5.4880     5.9650    -0.4840 C.2   1 <1>   1.0330 
 17 C        8.4150     6.9810     0.5870 C.ar  1 <1>   0.0530 
 18 O        4.6610     6.7790    -0.0350 O.co2 1 <1>  -0.9000 
 19 O        5.4580     5.6890    -1.6950 O.co2 1 <1>  -0.9000 
 20 C        9.7950     7.0040     0.8030 C.ar  1 <1>  -0.1500 
 21 C        7.8250     8.1680     0.1480 C.ar  1 <1>  -0.1500 
 22 C       10.5440     8.1460     0.5900 C.ar  1 <1>  -0.1500 
 23 C        8.5650     9.3140    -0.0700 C.ar  1 <1>  -0.1500 
 24 C        9.9390     9.3120     0.1510 C.ar  1 <1>   0.0820 
 25 O       10.7380    10.3890    -0.0380 O.3   1 <1>  -0.3630 
 26 C       10.2180    11.6100    -0.5140 C.3   1 <1>   0.0400 
 27 H        2.2740     2.7320    -0.5660 H     1 <1>   0.0800 
 28 H        3.9060     1.1220    -1.4120 H     1 <1>   0.0800 
 29 H        4.4300     0.7490     0.2050 H     1 <1>   0.0800 
 30 H        3.2020     2.0320     2.2320 H     1 <1>   0.0800 
 31 H        1.9470     3.1650     1.8170 H     1 <1>   0.0800 
 32 H        4.6990     3.4220    -1.1730 H     1 <1>   0.0800 
 33 H        5.9950     2.3050    -0.8230 H     1 <1>   0.0800 
 34 H        4.0840     4.3010     2.3230 H     1 <1>   0.0800 
 35 H        3.5700     4.5950     0.6800 H     1 <1>   0.0800 
 36 H       10.2860     6.1080     1.1410 H     1 <1>   0.1500 
 37 H        6.7630     8.1990    -0.0240 H     1 <1>   0.1500 
 38 H       11.6050     8.1410     0.7620 H     1 <1>   0.1500 
 39 H        8.0530    10.1930    -0.4100 H     1 <1>   0.1500 
 40 H       11.0290    12.3090    -0.5990 H     1 <1>   0.0800 
 41 H        9.4890    11.9750     0.1870 H     1 <1>   0.0800 
 42 H        9.7740    11.4450    -1.4800 H     1 <1>   0.0800 
@<TRIPOS>BOND
  1   1   2  1   
  2   2   3  1   
  3   2   4  1   
  4   2   5  1   
  5   5   6  1   
  6   5   7  1   
  7   5  27  1   
  8   6   8  1   
  9   6  28  1   
 10   6  29  1   
 11   7   9  1   
 12   7  30  1   
 13   7  31  1   
 14   8  10  1   
 15   8  32  1   
 16   8  33  1   
 17   9  10  1   
 18   9  34  1   
 19   9  35  1   
 20  10  11  1   
 21  11  12  2   
 22  11  13  1   
 23  12  14  1   
 24  13  15  2   
 25  13  16  1   
 26  14  15  1   
 27  15  17  1   
 28  16  18  ar  
 29  16  19  ar  
 30  17  20  ar  
 31  17  21  ar  
 32  20  22  ar  
 33  20  36  1   
 34  21  23  ar  
 35  21  37  1   
 36  22  24  ar  
 37  22  38  1   
 38  23  24  ar  
 39  23  39  1   
 40  24  25  1   
 41  25  26  1   
 42  26  40  1   
 43  26  41  1   
 44  26  42  1   
@<TRIPOS>SUBSTRUCTURE
  1 ****  13 GROUP 4 **** **** 0

# MOE 2024.06 (io_trps.svl 2023.06)
