@<TRIPOS>MOLECULE
NONAME
42 44 1 0 0 
SMALL
USER_CHARGES


@<TRIPOS>ATOM
  1 O       -1.0330    -1.4820     0.4260 O.2   1 <1>  -0.5700 
  2 C        0.1140    -1.8450     0.5540 C.2   1 <1>   0.6900 
  3 N        0.8010    -2.6070    -0.3330 N.am  1 <1>  -0.6600 
  4 N        0.8700    -1.5750     1.6390 N.am  1 <1>  -0.4900 
  5 C        2.1330    -2.9500     0.2440 C.3   1 <1>   0.2010 
  6 C        0.2300    -3.3180    -1.5160 C.3   1 <1>   0.2010 
  7 C        2.0740    -2.1820     1.5560 C.2   1 <1>   0.5690 
  8 C        0.0590    -4.8210    -1.2840 C.2   1 <1>   0.5690 
  9 O        2.9460    -2.1190     2.3830 O.2   1 <1>  -0.5700 
 10 O        0.9320    -5.5530    -1.6900 O.2   1 <1>  -0.5700 
 11 N       -1.0390    -5.3140    -0.6300 N.am  1 <1>  -0.6600 
 12 C       -2.1470    -4.5230    -0.0350 C.3   1 <1>   0.1400 
 13 C       -1.2440    -6.7650    -0.3960 C.3   1 <1>   0.1400 
 14 C       -3.1910    -5.5640     0.3670 C.3   1 <1>   0.2000 
 15 C       -2.4060    -6.8530     0.5950 C.3   1 <1>  -0.0800 
 16 O       -3.8650    -5.2010     1.5210 O.3   1 <1>  -0.6800 
 17 C       -3.2590    -8.1200     0.4310 C.3   1 <1>   0.0210 
 18 C       -2.4060    -9.3710     0.5260 C.2   1 <1>   0.1080 
 19 N       -1.7030    -9.6660     1.5750 N.2   1 <1>  -0.7070 
 20 C       -2.2720   -10.3190    -0.4810 C.2   1 <1>  -0.1500 
 21 N       -1.0950   -10.8260     1.2610 N.pl3 1 <1>   0.3000 
 22 C       -1.4230   -11.2410     0.0190 C.2   1 <1>  -0.3320 
 23 C       -0.8950   -12.5110    -0.6220 C.3   1 <1>  -0.0600 
 24 H        0.5510    -1.0080     2.4160 H     1 <1>   0.3700 
 25 H        2.2230    -4.0070     0.4220 H     1 <1>   0.0800 
 26 H        2.9310    -2.5910    -0.3800 H     1 <1>   0.0800 
 27 H       -0.7210    -2.8870    -1.7700 H     1 <1>   0.0800 
 28 H        0.8860    -3.1760    -2.3560 H     1 <1>   0.0800 
 29 H       -1.7830    -4.0000     0.8320 H     1 <1>   0.0800 
 30 H       -2.5550    -3.8270    -0.7470 H     1 <1>   0.0800 
 31 H       -1.4940    -7.2380    -1.3300 H     1 <1>   0.0800 
 32 H       -0.3540    -7.2220     0.0040 H     1 <1>   0.0800 
 33 H       -3.9120    -5.6770    -0.4250 H     1 <1>   0.0800 
 34 H       -1.9770    -6.8460     1.5820 H     1 <1>   0.0800 
 35 H       -3.2530    -5.1890     2.2820 H     1 <1>   0.4000 
 36 H       -3.7640    -8.1070    -0.5170 H     1 <1>   0.0800 
 37 H       -4.0050    -8.1520     1.2060 H     1 <1>   0.0800 
 38 H       -2.7510   -10.2980    -1.4440 H     1 <1>   0.1500 
 39 H       -0.4650   -11.3060     1.9140 H     1 <1>   0.2700 
 40 H       -1.3010   -12.6210    -1.6120 H     1 <1>   0.0800 
 41 H       -1.1790   -13.3690    -0.0380 H     1 <1>   0.0800 
 42 H        0.1770   -12.4740    -0.6940 H     1 <1>   0.0800 
@<TRIPOS>BOND
  1   1   2  2   
  2   2   3  am  
  3   2   4  am  
  4   3   5  1   
  5   3   6  1   
  6   4   7  am  
  7   4  24  1   
  8   5   7  1   
  9   5  25  1   
 10   5  26  1   
 11   6   8  1   
 12   6  27  1   
 13   6  28  1   
 14   7   9  2   
 15   8  10  2   
 16   8  11  am  
 17  11  12  1   
 18  11  13  1   
 19  12  14  1   
 20  12  29  1   
 21  12  30  1   
 22  13  15  1   
 23  13  31  1   
 24  13  32  1   
 25  14  15  1   
 26  14  16  1   
 27  14  33  1   
 28  15  17  1   
 29  15  34  1   
 30  16  35  1   
 31  17  18  1   
 32  17  36  1   
 33  17  37  1   
 34  18  19  2   
 35  18  20  1   
 36  19  21  1   
 37  20  22  2   
 38  20  38  1   
 39  21  22  1   
 40  21  39  1   
 41  22  23  1   
 42  23  40  1   
 43  23  41  1   
 44  23  42  1   
@<TRIPOS>SUBSTRUCTURE
  1 ****  11 GROUP 4 **** **** 0

# MOE 2024.06 (io_trps.svl 2023.06)
