@<TRIPOS>MOLECULE
NONAME
42 45 1 0 0 
SMALL
USER_CHARGES


@<TRIPOS>ATOM
  1 O       -0.3720     0.2840     0.7800 O.2   1 <1>  -0.5700 
  2 C       -1.2790     0.9740     0.3530 C.2   1 <1>   0.5440 
  3 N       -2.4170     0.3570    -0.1330 N.am  1 <1>  -0.6600 
  4 C       -1.1340     2.4160     0.3890 C.ar  1 <1>   0.0860 
  5 C       -3.7190     1.0820    -0.2550 C.3   1 <1>   0.2200 
  6 C       -2.4120    -1.1230    -0.3480 C.3   1 <1>   0.0600 
  7 C       -1.3380     3.2010    -0.7360 C.ar  1 <1>  -0.1500 
  8 C       -0.7770     3.0610     1.5940 C.ar  1 <1>  -0.1500 
  9 C       -4.8670     0.4450     0.5260 C.3   1 <1>  -0.1600 
 10 C       -4.2350     1.1610    -1.6890 C.3   1 <1>  -0.1600 
 11 C       -1.2290     4.5860    -0.6550 C.ar  1 <1>   0.2270 
 12 C       -0.6550     4.4270     1.6820 C.ar  1 <1>  -0.1500 
 13 C       -6.1300     1.0280    -0.1190 C.3   1 <1>  -0.0800 
 14 C       -5.7330     1.4630    -1.5420 C.3   1 <1>  -0.0800 
 15 N       -1.4100     5.5430    -1.5980 N.2   1 <1>  -0.2270 
 16 C       -0.8940     5.1840     0.5310 C.ar  1 <1>  -0.1520 
 17 C       -6.6510     2.2880     0.5870 C.3   1 <1>  -0.1600 
 18 C       -6.0660     2.9590    -1.6500 C.3   1 <1>  -0.1600 
 19 N       -1.2030     6.6850    -1.0600 N.2   1 <1>  -0.4180 
 20 N       -0.8830     6.4980     0.2300 N.pl3 1 <1>   0.3000 
 21 C       -7.0810     3.2080    -0.5450 C.3   1 <1>   0.2000 
 22 O       -7.0290     4.5220    -0.1370 O.3   1 <1>  -0.6800 
 23 H       -3.6160     2.0870     0.1140 H     1 <1>   0.0800 
 24 H       -3.1080    -1.4060    -1.1150 H     1 <1>   0.0800 
 25 H       -2.6720    -1.6200     0.5700 H     1 <1>   0.0800 
 26 H       -1.4290    -1.4490    -0.6450 H     1 <1>   0.0800 
 27 H       -1.5810     2.7550    -1.6820 H     1 <1>   0.1500 
 28 H       -0.5960     2.4420     2.4580 H     1 <1>   0.1500 
 29 H       -4.8810    -0.6190     0.3840 H     1 <1>   0.0800 
 30 H       -4.8020     0.6610     1.5780 H     1 <1>   0.0800 
 31 H       -3.7220     1.9100    -2.2630 H     1 <1>   0.0800 
 32 H       -4.1240     0.2110    -2.1780 H     1 <1>   0.0800 
 33 H       -0.3820     4.9060     2.6070 H     1 <1>   0.1500 
 34 H       -6.9120     0.2890    -0.1610 H     1 <1>   0.0800 
 35 H       -6.3030     0.9110    -2.2710 H     1 <1>   0.0800 
 36 H       -5.8610     2.7530     1.1520 H     1 <1>   0.0800 
 37 H       -7.4750     2.0610     1.2390 H     1 <1>   0.0800 
 38 H       -6.4760     3.2010    -2.6140 H     1 <1>   0.0800 
 39 H       -5.1850     3.5510    -1.4740 H     1 <1>   0.0800 
 40 H       -0.6650     7.2690     0.8670 H     1 <1>   0.2700 
 41 H       -8.0810     2.9780    -0.8730 H     1 <1>   0.0800 
 42 H       -6.1120     4.7640     0.0890 H     1 <1>   0.4000 
@<TRIPOS>BOND
  1   1   2  2   
  2   2   3  am  
  3   2   4  1   
  4   3   5  1   
  5   3   6  1   
  6   4   7  ar  
  7   4   8  ar  
  8   5   9  1   
  9   5  10  1   
 10   5  23  1   
 11   6  24  1   
 12   6  25  1   
 13   6  26  1   
 14   7  11  ar  
 15   7  27  1   
 16   8  12  ar  
 17   8  28  1   
 18   9  13  1   
 19   9  29  1   
 20   9  30  1   
 21  10  14  1   
 22  10  31  1   
 23  10  32  1   
 24  11  15  1   
 25  11  16  ar  
 26  12  16  ar  
 27  12  33  1   
 28  13  14  1   
 29  13  17  1   
 30  13  34  1   
 31  14  18  1   
 32  14  35  1   
 33  15  19  2   
 34  16  20  1   
 35  17  21  1   
 36  17  36  1   
 37  17  37  1   
 38  18  21  1   
 39  18  38  1   
 40  18  39  1   
 41  19  20  1   
 42  20  40  1   
 43  21  22  1   
 44  21  41  1   
 45  22  42  1   
@<TRIPOS>SUBSTRUCTURE
  1 ****   5 GROUP 4 **** **** 0

# MOE 2024.06 (io_trps.svl 2023.06)
