@<TRIPOS>MOLECULE
NONAME
45 48 1 0 0 
SMALL
USER_CHARGES


@<TRIPOS>ATOM
  1 CL      -1.0270    -0.1090     0.3630 Cl    1 <1>  -0.1770 
  2 C       -0.4100    -1.7260     0.1190 C.ar  1 <1>   0.1770 
  3 C       -1.0610    -2.6300    -0.7100 C.ar  1 <1>  -0.0090 
  4 C        0.7520    -2.0580     0.7930 C.ar  1 <1>  -0.1500 
  5 S       -2.5830    -2.1940    -1.5790 S.o2  1 <1>   1.4470 
  6 C       -0.4980    -3.8970    -0.8420 C.ar  1 <1>  -0.1500 
  7 C        1.2920    -3.3230     0.6480 C.ar  1 <1>  -0.1500 
  8 O       -3.1120    -3.3690    -2.2400 O.2   1 <1>  -0.6500 
  9 O       -2.3700    -0.9970    -2.3630 O.2   1 <1>  -0.6500 
 10 N       -3.6710    -1.8220    -0.3340 N.am  1 <1>  -0.8490 
 11 C        0.6640    -4.2420    -0.1730 C.ar  1 <1>  -0.1500 
 12 C       -4.8110    -1.0260    -0.8280 C.3   1 <1>   0.1960 
 13 C       -4.1430    -3.0120     0.3820 C.3   1 <1>   0.1960 
 14 C       -5.6950    -0.5220     0.3300 C.3   1 <1>   0.1440 
 15 C       -4.9820    -2.5990     1.5970 C.3   1 <1>  -0.1600 
 16 C       -6.8470     0.2730    -0.2540 C.ar  1 <1>   0.1670 
 17 C       -6.1700    -1.7180     1.1810 C.3   1 <1>  -0.1600 
 18 C       -4.9530     0.5440     1.1830 C.3   1 <1>  -0.1600 
 19 N       -7.8870    -0.2350    -0.8770 N.ar  1 <1>  -0.6200 
 20 C       -6.6740     1.6130    -0.0730 C.ar  1 <1>  -0.1430 
 21 C       -5.3890     1.9210     0.6540 C.3   1 <1>  -0.0170 
 22 C       -8.7610     0.6650    -1.3050 C.ar  1 <1>   0.4770 
 23 C       -7.6420     2.4550    -0.5590 C.ar  1 <1>   0.1600 
 24 N       -8.7030     1.9850    -1.1830 N.ar  1 <1>  -0.6200 
 25 C       -9.9680     0.1120    -2.0230 C.3   1 <1>  -0.0970 
 26 H        1.2280    -1.3290     1.4250 H     1 <1>   0.1500 
 27 H       -0.9740    -4.6240    -1.4800 H     1 <1>   0.1500 
 28 H        2.1970    -3.5890     1.1680 H     1 <1>   0.1500 
 29 H        1.0820    -5.2290    -0.2920 H     1 <1>   0.1500 
 30 H       -5.4050    -1.6210    -1.5030 H     1 <1>   0.0800 
 31 H       -4.4510    -0.1710    -1.3750 H     1 <1>   0.0800 
 32 H       -3.3000    -3.5930     0.7180 H     1 <1>   0.0800 
 33 H       -4.7350    -3.6270    -0.2770 H     1 <1>   0.0800 
 34 H       -4.3530    -2.0710     2.2920 H     1 <1>   0.0800 
 35 H       -5.3460    -3.4820     2.0920 H     1 <1>   0.0800 
 36 H       -6.8510    -2.3110     0.5950 H     1 <1>   0.0800 
 37 H       -6.7070    -1.3730     2.0470 H     1 <1>   0.0800 
 38 H       -3.8840     0.4280     1.1500 H     1 <1>   0.0800 
 39 H       -5.2680     0.4660     2.2090 H     1 <1>   0.0800 
 40 H       -4.6620     2.3060    -0.0420 H     1 <1>   0.0800 
 41 H       -5.5390     2.6240     1.4540 H     1 <1>   0.0800 
 42 H       -7.5500     3.5210    -0.4410 H     1 <1>   0.1500 
 43 H      -10.4170    -0.6620    -1.4290 H     1 <1>   0.0800 
 44 H       -9.6620    -0.2980    -2.9670 H     1 <1>   0.0800 
 45 H      -10.6930     0.8870    -2.1940 H     1 <1>   0.0800 
@<TRIPOS>BOND
  1   1   2  1   
  2   2   3  ar  
  3   2   4  ar  
  4   3   5  1   
  5   3   6  ar  
  6   4   7  ar  
  7   4  26  1   
  8   5   8  2   
  9   5   9  2   
 10   5  10  am  
 11   6  11  ar  
 12   6  27  1   
 13   7  11  ar  
 14   7  28  1   
 15  10  12  1   
 16  10  13  1   
 17  11  29  1   
 18  12  14  1   
 19  12  30  1   
 20  12  31  1   
 21  13  15  1   
 22  13  32  1   
 23  13  33  1   
 24  14  16  1   
 25  14  17  1   
 26  14  18  1   
 27  15  17  1   
 28  15  34  1   
 29  15  35  1   
 30  16  19  ar  
 31  16  20  ar  
 32  17  36  1   
 33  17  37  1   
 34  18  21  1   
 35  18  38  1   
 36  18  39  1   
 37  19  22  ar  
 38  20  21  1   
 39  20  23  ar  
 40  21  40  1   
 41  21  41  1   
 42  22  24  ar  
 43  22  25  1   
 44  23  24  ar  
 45  23  42  1   
 46  25  43  1   
 47  25  44  1   
 48  25  45  1   
@<TRIPOS>SUBSTRUCTURE
  1 ****  12 GROUP 4 **** **** 0

# MOE 2024.06 (io_trps.svl 2023.06)
