@<TRIPOS>MOLECULE
NONAME
46 48 1 0 0 
SMALL
USER_CHARGES


@<TRIPOS>ATOM
  1 S        0.0030     0.4160    -0.3680 S.o2  1 <1>   1.3330 
  2 O       -0.2390     0.7860    -1.7440 O.2   1 <1>  -0.6500 
  3 O       -1.0670     0.4830     0.5970 O.2   1 <1>  -0.6500 
  4 N        1.2860     1.3950     0.1770 N.am  1 <1>  -0.8490 
  5 C        0.7000    -1.2200    -0.3090 C.3   1 <1>  -0.1350 
  6 C        2.1090     1.8720    -0.9530 C.3   1 <1>   0.1960 
  7 C        0.7870     2.4420     1.0810 C.3   1 <1>   0.1960 
  8 C        3.5060     2.3520    -0.5200 C.3   1 <1>   0.3430 
  9 C        1.8840     3.3180     1.6890 C.3   1 <1>  -0.1600 
 10 N        3.5850     3.7900    -0.0960 N.4   1 <1>  -0.9590 
 11 C        2.4340     4.3260     0.6860 C.3   1 <1>   0.3430 
 12 C        3.9680     4.6770    -1.2300 C.3   1 <1>   0.4860 
 13 C        4.1990     6.1000    -0.7330 C.ar  1 <1>  -0.1440 
 14 C        5.3590     6.4800    -0.0350 C.ar  1 <1>  -0.0230 
 15 C        3.2130     7.0430    -0.9950 C.ar  1 <1>  -0.1500 
 16 N        6.4220     5.5680     0.2500 N.pl3 1 <1>   0.5930 
 17 C        5.4860     7.8010     0.3990 C.ar  1 <1>  -0.1500 
 18 C        3.3800     8.3390    -0.5510 C.ar  1 <1>   0.1900 
 19 N        6.2230     4.3170     0.7540 N.2   1 <1>  -0.7070 
 20 C        7.7480     5.7910     0.0920 C.2   1 <1>  -0.3020 
 21 C        4.5010     8.7380     0.1460 C.ar  1 <1>  -0.1500 
 22 F        2.4420     9.2110    -0.7960 F     1 <1>  -0.1900 
 23 C        7.4110     3.8160     0.9120 C.2   1 <1>   0.1390 
 24 C        8.4090     4.6930     0.5090 C.2   1 <1>  -0.1500 
 25 H       -0.0280    -1.9380    -0.6320 H     1 <1>   0.0800 
 26 H        0.9930    -1.4600     0.6940 H     1 <1>   0.0800 
 27 H        1.5560    -1.2890    -0.9490 H     1 <1>   0.0800 
 28 H        1.5900     2.6340    -1.5110 H     1 <1>   0.0800 
 29 H        2.2700     1.0430    -1.6210 H     1 <1>   0.0800 
 30 H        0.2780     1.9660     1.9050 H     1 <1>   0.0800 
 31 H        0.0610     3.0520     0.5680 H     1 <1>   0.0800 
 32 H        4.1920     2.1930    -1.3350 H     1 <1>   0.0800 
 33 H        3.8280     1.7210     0.2930 H     1 <1>   0.0800 
 34 H        2.6580     2.7260     2.1440 H     1 <1>   0.0800 
 35 H        1.4210     3.8840     2.4770 H     1 <1>   0.0800 
 36 H        4.4160     3.8460     0.5330 H     1 <1>   0.4500 
 37 H        2.7600     5.2040     1.2220 H     1 <1>   0.0800 
 38 H        1.6420     4.6250     0.0190 H     1 <1>   0.0800 
 39 H        3.1900     4.6750    -1.9760 H     1 <1>   0.0800 
 40 H        4.8740     4.3120    -1.6870 H     1 <1>   0.0800 
 41 H        2.3150     6.8000    -1.5380 H     1 <1>   0.1500 
 42 H        6.3630     8.1080     0.9460 H     1 <1>   0.1500 
 43 H        8.1370     6.7120    -0.3020 H     1 <1>   0.1500 
 44 H        4.5950     9.7580     0.4780 H     1 <1>   0.1500 
 45 H        7.6050     2.8310     1.3110 H     1 <1>   0.1500 
 46 H        9.4690     4.5060     0.5380 H     1 <1>   0.1500 
@<TRIPOS>BOND
  1   1   2  2   
  2   1   3  2   
  3   1   4  am  
  4   1   5  1   
  5   4   6  1   
  6   4   7  1   
  7   5  25  1   
  8   5  26  1   
  9   5  27  1   
 10   6   8  1   
 11   6  28  1   
 12   6  29  1   
 13   7   9  1   
 14   7  30  1   
 15   7  31  1   
 16   8  10  1   
 17   8  32  1   
 18   8  33  1   
 19   9  11  1   
 20   9  34  1   
 21   9  35  1   
 22  10  11  1   
 23  10  12  1   
 24  10  36  1   
 25  11  37  1   
 26  11  38  1   
 27  12  13  1   
 28  12  39  1   
 29  12  40  1   
 30  13  14  ar  
 31  13  15  ar  
 32  14  16  1   
 33  14  17  ar  
 34  15  18  ar  
 35  15  41  1   
 36  16  19  1   
 37  16  20  1   
 38  17  21  ar  
 39  17  42  1   
 40  18  21  ar  
 41  18  22  1   
 42  19  23  2   
 43  20  24  2   
 44  20  43  1   
 45  21  44  1   
 46  23  24  1   
 47  23  45  1   
 48  24  46  1   
@<TRIPOS>SUBSTRUCTURE
  1 ****  10 GROUP 4 **** **** 0

# MOE 2024.06 (io_trps.svl 2023.06)
