@<TRIPOS>MOLECULE
NONAME
45 48 1 0 0 
SMALL
USER_CHARGES


@<TRIPOS>ATOM
  1 O        1.6890    -0.3200     1.4990 O.3   1 <1>  -0.0190 
  2 N        2.0080     0.8840     1.1220 N.2   1 <1>  -0.4100 
  3 C        1.2780    -1.0520     0.4980 C.2   1 <1>  -0.0400 
  4 C        1.8020     0.9270    -0.1460 C.2   1 <1>   0.1080 
  5 C        1.3290    -0.2960    -0.6110 C.2   1 <1>  -0.1500 
  6 C        0.8610    -2.4880     0.7530 C.3   1 <1>   0.2900 
  7 C        2.0440     2.1450    -1.0080 C.3   1 <1>  -0.0590 
  8 N        0.1150    -3.0580    -0.3900 N.3   1 <1>  -0.8100 
  9 C       -1.2210    -2.4620    -0.5610 C.3   1 <1>   0.1100 
 10 C       -0.1390    -4.4890    -0.2080 C.3   1 <1>   0.1100 
 11 C       -2.2040    -3.3140     0.2490 C.3   1 <1>   0.2000 
 12 C       -1.4450    -4.6020     0.5890 C.3   1 <1>  -0.0800 
 13 O       -2.5500    -2.6610     1.4220 O.3   1 <1>  -0.6800 
 14 C       -2.2580    -5.8610     0.2340 C.3   1 <1>  -0.0170 
 15 C       -1.5580    -7.2050     0.4810 C.ar  1 <1>  -0.1440 
 16 C       -1.9760    -8.3740    -0.2050 C.ar  1 <1>   0.0000 
 17 C       -0.5270    -7.3450     1.3680 C.ar  1 <1>  -0.1500 
 18 C       -1.2620    -9.5750     0.0350 C.ar  1 <1>   0.3100 
 19 C       -3.0640    -8.4300    -1.1090 C.ar  1 <1>  -0.1500 
 20 C        0.0990    -8.5850     1.5430 C.ar  1 <1>   0.1600 
 21 N       -0.2300    -9.6630     0.9090 N.ar  1 <1>  -0.6200 
 22 C       -1.6350   -10.7420    -0.6510 C.ar  1 <1>  -0.1500 
 23 C       -3.4060    -9.5860    -1.7570 C.ar  1 <1>  -0.1500 
 24 C       -2.6810   -10.7580    -1.5320 C.ar  1 <1>  -0.1500 
 25 H        1.0750    -0.5560    -1.6210 H     1 <1>   0.1500 
 26 H        0.2630    -2.5310     1.6460 H     1 <1>   0.0800 
 27 H        1.7540    -3.0650     0.9210 H     1 <1>   0.0800 
 28 H        2.7590     1.9120    -1.7760 H     1 <1>   0.0800 
 29 H        2.4280     2.9500    -0.4070 H     1 <1>   0.0800 
 30 H        1.1230     2.4590    -1.4630 H     1 <1>   0.0800 
 31 H       -1.2540    -1.4230    -0.2820 H     1 <1>   0.0800 
 32 H       -1.4830    -2.5400    -1.6020 H     1 <1>   0.0800 
 33 H       -0.2690    -4.9330    -1.1820 H     1 <1>   0.0800 
 34 H        0.6840    -4.9850     0.2780 H     1 <1>   0.0800 
 35 H       -3.1070    -3.4910    -0.3090 H     1 <1>   0.0800 
 36 H       -1.2120    -4.6110     1.6380 H     1 <1>   0.0800 
 37 H       -1.7540    -2.2960     1.8500 H     1 <1>   0.4000 
 38 H       -2.5060    -5.7850    -0.8090 H     1 <1>   0.0800 
 39 H       -3.1790    -5.8510     0.7910 H     1 <1>   0.0800 
 40 H       -0.1560    -6.5320     1.9590 H     1 <1>   0.1500 
 41 H       -3.6500    -7.5510    -1.2940 H     1 <1>   0.1500 
 42 H        0.9090    -8.6440     2.2500 H     1 <1>   0.1500 
 43 H       -1.0660   -11.6320    -0.4550 H     1 <1>   0.1500 
 44 H       -4.2350    -9.6100    -2.4450 H     1 <1>   0.1500 
 45 H       -2.9570   -11.6600    -2.0500 H     1 <1>   0.1500 
@<TRIPOS>BOND
  1   1   2  1   
  2   1   3  1   
  3   2   4  2   
  4   3   5  2   
  5   3   6  1   
  6   4   5  1   
  7   4   7  1   
  8   5  25  1   
  9   6   8  1   
 10   6  26  1   
 11   6  27  1   
 12   7  28  1   
 13   7  29  1   
 14   7  30  1   
 15   8   9  1   
 16   8  10  1   
 17   9  11  1   
 18   9  31  1   
 19   9  32  1   
 20  10  12  1   
 21  10  33  1   
 22  10  34  1   
 23  11  12  1   
 24  11  13  1   
 25  11  35  1   
 26  12  14  1   
 27  12  36  1   
 28  13  37  1   
 29  14  15  1   
 30  14  38  1   
 31  14  39  1   
 32  15  16  ar  
 33  15  17  ar  
 34  16  18  ar  
 35  16  19  ar  
 36  17  20  ar  
 37  17  40  1   
 38  18  21  ar  
 39  18  22  ar  
 40  19  23  ar  
 41  19  41  1   
 42  20  21  ar  
 43  20  42  1   
 44  22  24  ar  
 45  22  43  1   
 46  23  24  ar  
 47  23  44  1   
 48  24  45  1   
@<TRIPOS>SUBSTRUCTURE
  1 ****  10 GROUP 4 **** **** 0

# MOE 2024.06 (io_trps.svl 2023.06)
