@<TRIPOS>MOLECULE
NONAME
56 58 1 0 0 
SMALL
USER_CHARGES


@<TRIPOS>ATOM
  1 S       -0.1040     0.0780     0.8330 S.o2  1 <1>   1.3330 
  2 O        0.8520     0.4850     1.8390 O.2   1 <1>  -0.6500 
  3 O       -1.2250    -0.7610     1.1770 O.2   1 <1>  -0.6500 
  4 N        0.7570    -0.6600    -0.4290 N.am  1 <1>  -0.8490 
  5 C       -0.7080     1.5870     0.0680 C.3   1 <1>  -0.0550 
  6 C       -0.1090    -1.4030    -1.3560 C.3   1 <1>   0.1160 
  7 C        1.7930    -1.5700     0.0780 C.3   1 <1>   0.1160 
  8 C        0.4210     2.5110    -0.4480 C.3   1 <1>  -0.0800 
  9 C       -0.0440     3.7800    -1.1720 C.3   1 <1>   0.2000 
 10 C        1.3530     3.0180     0.6680 C.3   1 <1>   0.3430 
 11 O       -1.1310     4.3240    -0.4940 O.3   1 <1>  -0.6800 
 12 C        1.1400     4.7250    -0.9740 C.3   1 <1>   0.3430 
 13 N        1.5290     4.4820     0.4460 N.4   1 <1>  -0.9590 
 14 C        2.8260     5.0430     0.9150 C.3   1 <1>   0.4230 
 15 C        2.7320     6.5740     0.9450 C.3   1 <1>  -0.1600 
 16 C        4.0060     4.5500     0.0640 C.3   1 <1>  -0.1600 
 17 C        4.0600     7.2000     1.3750 C.3   1 <1>   0.1400 
 18 C        5.3050     5.2100     0.5220 C.3   1 <1>   0.1400 
 19 N        5.1230     6.6830     0.4790 N.am  1 <1>  -0.6600 
 20 C        5.6300     7.4230    -0.5700 C.2   1 <1>   0.5440 
 21 O        5.8660     6.8490    -1.6150 O.2   1 <1>  -0.5700 
 22 C        5.8440     8.8510    -0.4690 C.ar  1 <1>   0.0860 
 23 C        6.3630     9.4210     0.6920 C.ar  1 <1>   0.1600 
 24 C        5.5480     9.7150    -1.5150 C.ar  1 <1>  -0.1500 
 25 N        6.5640    10.7120     0.9030 N.ar  1 <1>  -0.6200 
 26 C        5.7610    11.0630    -1.3250 C.ar  1 <1>  -0.1500 
 27 C        6.2610    11.5050    -0.1120 C.ar  1 <1>   0.1600 
 28 H       -1.3520     1.3270    -0.7490 H     1 <1>   0.0800 
 29 H       -1.3020     2.1150     0.7900 H     1 <1>   0.0800 
 30 H        0.4730    -1.7950    -2.1740 H     1 <1>   0.0800 
 31 H       -0.8690    -0.7580    -1.7610 H     1 <1>   0.0800 
 32 H       -0.5900    -2.2250    -0.8490 H     1 <1>   0.0800 
 33 H        2.3290    -2.0210    -0.7390 H     1 <1>   0.0800 
 34 H        1.3480    -2.3480     0.6790 H     1 <1>   0.0800 
 35 H        2.5000    -1.0300     0.6850 H     1 <1>   0.0800 
 36 H        1.0300     1.9480    -1.1340 H     1 <1>   0.0800 
 37 H       -0.2990     3.6350    -2.2090 H     1 <1>   0.0800 
 38 H        2.2940     2.4960     0.6180 H     1 <1>   0.0800 
 39 H        0.9170     2.8450     1.6400 H     1 <1>   0.0800 
 40 H       -1.9820     3.9880    -0.8490 H     1 <1>   0.4000 
 41 H        0.8580     5.7500    -1.1500 H     1 <1>   0.0800 
 42 H        1.9410     4.4470    -1.6380 H     1 <1>   0.0800 
 43 H        0.7720     4.9280     0.9850 H     1 <1>   0.4500 
 44 H        2.9940     4.7120     1.9280 H     1 <1>   0.0800 
 45 H        2.4880     6.9580    -0.0300 H     1 <1>   0.0800 
 46 H        1.9670     6.8810     1.6350 H     1 <1>   0.0800 
 47 H        4.1190     3.4860     0.1510 H     1 <1>   0.0800 
 48 H        3.8710     4.7990    -0.9730 H     1 <1>   0.0800 
 49 H        4.2930     6.9400     2.3950 H     1 <1>   0.0800 
 50 H        3.9890     8.2730     1.3110 H     1 <1>   0.0800 
 51 H        6.1180     4.9150    -0.1230 H     1 <1>   0.0800 
 52 H        5.5540     4.9090     1.5260 H     1 <1>   0.0800 
 53 H        6.6260     8.7590     1.5000 H     1 <1>   0.1500 
 54 H        5.1660     9.3320    -2.4470 H     1 <1>   0.1500 
 55 H        5.5440    11.7680    -2.1070 H     1 <1>   0.1500 
 56 H        6.4210    12.5610     0.0290 H     1 <1>   0.1500 
@<TRIPOS>BOND
  1   1   2  2   
  2   1   3  2   
  3   1   4  am  
  4   1   5  1   
  5   4   6  1   
  6   4   7  1   
  7   5   8  1   
  8   5  28  1   
  9   5  29  1   
 10   6  30  1   
 11   6  31  1   
 12   6  32  1   
 13   7  33  1   
 14   7  34  1   
 15   7  35  1   
 16   8   9  1   
 17   8  10  1   
 18   8  36  1   
 19   9  11  1   
 20   9  12  1   
 21   9  37  1   
 22  10  13  1   
 23  10  38  1   
 24  10  39  1   
 25  11  40  1   
 26  12  13  1   
 27  12  41  1   
 28  12  42  1   
 29  13  14  1   
 30  13  43  1   
 31  14  15  1   
 32  14  16  1   
 33  14  44  1   
 34  15  17  1   
 35  15  45  1   
 36  15  46  1   
 37  16  18  1   
 38  16  47  1   
 39  16  48  1   
 40  17  19  1   
 41  17  49  1   
 42  17  50  1   
 43  18  19  1   
 44  18  51  1   
 45  18  52  1   
 46  19  20  am  
 47  20  21  2   
 48  20  22  1   
 49  22  23  ar  
 50  22  24  ar  
 51  23  25  ar  
 52  23  53  1   
 53  24  26  ar  
 54  24  54  1   
 55  25  27  ar  
 56  26  27  ar  
 57  26  55  1   
 58  27  56  1   
@<TRIPOS>SUBSTRUCTURE
  1 ****  14 GROUP 4 **** **** 0

# MOE 2024.06 (io_trps.svl 2023.06)
