@<TRIPOS>MOLECULE
NONAME
44 47 1 0 0 
SMALL
USER_CHARGES


@<TRIPOS>ATOM
  1 S        0.2470     0.5610     0.5930 S.3   1 <1>  -0.0800 
  2 C        1.3980    -0.7260     0.9640 C.ar  1 <1>   0.0400 
  3 C       -0.5210    -0.4080    -0.6630 C.2   1 <1>  -0.1400 
  4 C        1.1790    -1.8190     0.1380 C.ar  1 <1>   0.0000 
  5 C        2.3890    -0.6780     1.9250 C.ar  1 <1>  -0.1500 
  6 C        0.0690    -1.6150    -0.7630 C.2   1 <1>  -0.1810 
  7 C       -1.6780     0.2660    -1.3800 C.3   1 <1>  -0.0600 
  8 C        2.0310    -2.9150     0.2850 C.ar  1 <1>  -0.1500 
  9 C        3.2100    -1.7810     2.0630 C.ar  1 <1>  -0.1500 
 10 C       -0.3570    -2.7200    -1.7010 C.3   1 <1>   0.5240 
 11 C        3.0310    -2.8910     1.2430 C.ar  1 <1>  -0.1500 
 12 N       -0.9450    -3.8120    -0.8870 N.4   1 <1>  -0.9590 
 13 C       -1.2400    -5.0680    -1.6700 C.3   1 <1>   0.3430 
 14 C       -2.1120    -3.3930    -0.0370 C.3   1 <1>   0.3430 
 15 C       -1.9660    -6.1380    -0.8210 C.3   1 <1>   0.2510 
 16 C       -2.5220    -4.5240     0.9450 C.3   1 <1>   0.1100 
 17 N       -1.8550    -5.8130     0.6420 N.3   1 <1>  -0.8100 
 18 C       -1.4250    -7.5230    -1.1960 C.2   1 <1>   0.5690 
 19 C       -2.3600    -6.9350     1.4620 C.3   1 <1>   0.1100 
 20 O       -1.0910    -7.7390    -2.3340 O.2   1 <1>  -0.5700 
 21 N       -1.3290    -8.4810    -0.2430 N.am  1 <1>  -0.7300 
 22 C       -1.5610    -8.2350     1.2090 C.3   1 <1>   0.1400 
 23 H        2.5120     0.1950     2.5410 H     1 <1>   0.1500 
 24 H       -2.4450     0.5280    -0.6730 H     1 <1>   0.0800 
 25 H       -2.1010    -0.3760    -2.1300 H     1 <1>   0.0800 
 26 H       -1.3320     1.1670    -1.8550 H     1 <1>   0.0800 
 27 H        1.9340    -3.7810    -0.3410 H     1 <1>   0.1500 
 28 H        3.9940    -1.7800     2.8020 H     1 <1>   0.1500 
 29 H        0.5010    -3.0770    -2.2490 H     1 <1>   0.0800 
 30 H       -1.0840    -2.3480    -2.4030 H     1 <1>   0.0800 
 31 H        3.6870    -3.7370     1.3590 H     1 <1>   0.1500 
 32 H       -0.2400    -4.0890    -0.1870 H     1 <1>   0.4500 
 33 H       -0.3150    -5.4890    -2.0310 H     1 <1>   0.0800 
 34 H       -1.8460    -4.8440    -2.5320 H     1 <1>   0.0800 
 35 H       -2.9510    -3.1480    -0.6660 H     1 <1>   0.0800 
 36 H       -1.8620    -2.5130     0.5340 H     1 <1>   0.0800 
 37 H       -3.0060    -6.1370    -1.0960 H     1 <1>   0.0800 
 38 H       -3.5920    -4.6430     0.9140 H     1 <1>   0.0800 
 39 H       -2.2610    -4.2240     1.9460 H     1 <1>   0.0800 
 40 H       -3.3990    -7.1140     1.2390 H     1 <1>   0.0800 
 41 H       -2.2870    -6.6830     2.5070 H     1 <1>   0.0800 
 42 H       -0.9400    -9.3880    -0.5180 H     1 <1>   0.3700 
 43 H       -2.0930    -9.0690     1.6340 H     1 <1>   0.0800 
 44 H       -0.6080    -8.1630     1.7060 H     1 <1>   0.0800 
@<TRIPOS>BOND
  1   1   2  1   
  2   1   3  1   
  3   2   4  ar  
  4   2   5  ar  
  5   3   6  2   
  6   3   7  1   
  7   4   6  1   
  8   4   8  ar  
  9   5   9  ar  
 10   5  23  1   
 11   6  10  1   
 12   7  24  1   
 13   7  25  1   
 14   7  26  1   
 15   8  11  ar  
 16   8  27  1   
 17   9  11  ar  
 18   9  28  1   
 19  10  12  1   
 20  10  29  1   
 21  10  30  1   
 22  11  31  1   
 23  12  13  1   
 24  12  14  1   
 25  12  32  1   
 26  13  15  1   
 27  13  33  1   
 28  13  34  1   
 29  14  16  1   
 30  14  35  1   
 31  14  36  1   
 32  15  17  1   
 33  15  18  1   
 34  15  37  1   
 35  16  17  1   
 36  16  38  1   
 37  16  39  1   
 38  17  19  1   
 39  18  20  2   
 40  18  21  am  
 41  19  22  1   
 42  19  40  1   
 43  19  41  1   
 44  21  22  1   
 45  21  42  1   
 46  22  43  1   
 47  22  44  1   
@<TRIPOS>SUBSTRUCTURE
  1 ****  12 GROUP 4 **** **** 0

# MOE 2024.06 (io_trps.svl 2023.06)
