@<TRIPOS>MOLECULE
NONAME
57 59 1 0 0 
SMALL
USER_CHARGES


@<TRIPOS>ATOM
  1 O        0.0930     1.9470     2.1870 O.2   1 <1>  -0.5700 
  2 C        0.4760     0.8020     2.2520 C.2   1 <1>   0.5690 
  3 N        1.7460     0.4680     1.9170 N.am  1 <1>  -0.7300 
  4 C       -0.4880    -0.3050     2.6960 C.3   1 <1>   0.1710 
  5 C        2.6350     1.3270     1.1260 C.3   1 <1>   0.4000 
  6 N       -1.1510    -1.0500     1.5860 N.3   1 <1>  -0.8100 
  7 C        2.5600     0.8300    -0.3150 C.2   1 <1>   0.0060 
  8 C        4.0590     1.2570     1.7020 C.3   1 <1>  -0.1600 
  9 C       -2.1700    -1.9820     2.1200 C.3   1 <1>   0.1100 
 10 C       -0.1970    -1.7870     0.7160 C.3   1 <1>   0.1100 
 11 N        3.3160    -0.0820    -0.8250 N.2   1 <1>  -0.5650 
 12 N        1.6610     1.2700    -1.2130 N.pl3 1 <1>   0.3140 
 13 C        4.1690     1.8180     3.1300 C.3   1 <1>  -0.2400 
 14 C       -2.9060    -2.7480     1.0040 C.3   1 <1>   0.2090 
 15 C       -0.9040    -2.5590    -0.4130 C.3   1 <1>   0.2090 
 16 C        2.8450    -0.1600    -2.0740 C.2   1 <1>   0.3660 
 17 N        1.8600     0.6230    -2.3560 N.2   1 <1>  -0.7070 
 18 C        0.5850     2.2850    -1.0860 C.3   1 <1>   0.0960 
 19 N       -1.9390    -3.4810     0.1380 N.pl3 1 <1>  -0.8380 
 20 C       -0.8090     1.6450    -1.1450 C.3   1 <1>  -0.2400 
 21 C       -2.4930    -4.3890    -0.7560 C.ar  1 <1>   0.1000 
 22 C       -3.2440    -3.9740    -1.8510 C.ar  1 <1>  -0.1500 
 23 C       -2.3010    -5.7480    -0.5560 C.ar  1 <1>  -0.1500 
 24 C       -3.7930    -4.8930    -2.7300 C.ar  1 <1>  -0.1440 
 25 C       -2.8440    -6.6740    -1.4270 C.ar  1 <1>  -0.1500 
 26 C       -3.5890    -6.2470    -2.5140 C.ar  1 <1>  -0.1500 
 27 C       -4.6100    -4.4320    -3.9230 C.3   1 <1>  -0.0970 
 28 H        2.0220    -0.5130     1.8930 H     1 <1>   0.3700 
 29 H       -1.2480     0.1620     3.2970 H     1 <1>   0.0800 
 30 H        0.0450    -0.9960     3.3240 H     1 <1>   0.0800 
 31 H        2.3030     2.3500     1.1780 H     1 <1>   0.0800 
 32 H        4.7080     1.8240     1.0590 H     1 <1>   0.0800 
 33 H        4.4040     0.2380     1.6840 H     1 <1>   0.0800 
 34 H       -2.8960    -1.4280     2.6890 H     1 <1>   0.0800 
 35 H       -1.7040    -2.6980     2.7740 H     1 <1>   0.0800 
 36 H        0.3710    -2.4870     1.3040 H     1 <1>   0.0800 
 37 H        0.4860    -1.0970     0.2550 H     1 <1>   0.0800 
 38 H        3.8320     2.8400     3.1600 H     1 <1>   0.0800 
 39 H        5.1920     1.7840     3.4600 H     1 <1>   0.0800 
 40 H        3.5720     1.2400     3.8140 H     1 <1>   0.0800 
 41 H       -3.4700    -2.0520     0.4080 H     1 <1>   0.0800 
 42 H       -3.5920    -3.4520     1.4410 H     1 <1>   0.0800 
 43 H       -0.1800    -3.1290    -0.9680 H     1 <1>   0.0800 
 44 H       -1.3630    -1.8560    -1.0860 H     1 <1>   0.0800 
 45 H        3.2770    -0.8450    -2.7850 H     1 <1>   0.1500 
 46 H        0.6930     2.9820    -1.8970 H     1 <1>   0.0800 
 47 H        0.6970     2.8240    -0.1650 H     1 <1>   0.0800 
 48 H       -0.9410     1.1180    -2.0740 H     1 <1>   0.0800 
 49 H       -1.5620     2.4090    -1.0740 H     1 <1>   0.0800 
 50 H       -0.9450     0.9630    -0.3260 H     1 <1>   0.0800 
 51 H       -3.3910    -2.9220    -2.0050 H     1 <1>   0.1500 
 52 H       -1.7210    -6.0650     0.2900 H     1 <1>   0.1500 
 53 H       -2.6870    -7.7250    -1.2610 H     1 <1>   0.1500 
 54 H       -4.0080    -6.9710    -3.1890 H     1 <1>   0.1500 
 55 H       -4.8930    -3.4000    -3.8180 H     1 <1>   0.0800 
 56 H       -5.5050    -5.0230    -4.0080 H     1 <1>   0.0800 
 57 H       -4.0330    -4.5430    -4.8230 H     1 <1>   0.0800 
@<TRIPOS>BOND
  1   1   2  2   
  2   2   3  am  
  3   2   4  1   
  4   3   5  1   
  5   3  28  1   
  6   4   6  1   
  7   4  29  1   
  8   4  30  1   
  9   5   7  1   
 10   5   8  1   
 11   5  31  1   
 12   6   9  1   
 13   6  10  1   
 14   7  11  2   
 15   7  12  1   
 16   8  13  1   
 17   8  32  1   
 18   8  33  1   
 19   9  14  1   
 20   9  34  1   
 21   9  35  1   
 22  10  15  1   
 23  10  36  1   
 24  10  37  1   
 25  11  16  1   
 26  12  17  1   
 27  12  18  1   
 28  13  38  1   
 29  13  39  1   
 30  13  40  1   
 31  14  19  1   
 32  14  41  1   
 33  14  42  1   
 34  15  19  1   
 35  15  43  1   
 36  15  44  1   
 37  16  17  2   
 38  16  45  1   
 39  18  20  1   
 40  18  46  1   
 41  18  47  1   
 42  19  21  1   
 43  20  48  1   
 44  20  49  1   
 45  20  50  1   
 46  21  22  ar  
 47  21  23  ar  
 48  22  24  ar  
 49  22  51  1   
 50  23  25  ar  
 51  23  52  1   
 52  24  26  ar  
 53  24  27  1   
 54  25  26  ar  
 55  25  53  1   
 56  26  54  1   
 57  27  55  1   
 58  27  56  1   
 59  27  57  1   
@<TRIPOS>SUBSTRUCTURE
  1 ****  10 GROUP 4 **** **** 0

# MOE 2024.06 (io_trps.svl 2023.06)
