@<TRIPOS>MOLECULE
NONAME
54 56 1 0 0 
SMALL
USER_CHARGES


@<TRIPOS>ATOM
  1 O       -1.5350     0.7550    -1.9010 O.2   1 <1>  -0.5700 
  2 C       -2.4450     1.0860    -1.1750 C.2   1 <1>   0.5690 
  3 N       -3.7350     0.6730    -1.4250 N.am  1 <1>  -0.6600 
  4 C       -2.1170     1.9910     0.0240 C.3   1 <1>  -0.0190 
  5 C       -4.0090    -0.3940    -2.4310 C.3   1 <1>   0.1400 
  6 C       -4.9660     1.1770    -0.7530 C.3   1 <1>   0.1400 
  7 C       -2.2440     3.4800    -0.3510 C.3   1 <1>  -0.1600 
  8 C       -0.7230     1.7140     0.6460 C.3   1 <1>  -0.1600 
  9 C       -4.6980    -1.5770    -1.7450 C.3   1 <1>  -0.1600 
 10 C       -5.6570     0.0220    -0.0240 C.3   1 <1>  -0.1600 
 11 C       -2.1240     4.4040     0.8810 C.3   1 <1>   0.2000 
 12 C       -0.1990     2.8600     1.5370 C.3   1 <1>  -0.1600 
 13 C       -5.9640    -1.1310    -0.9940 C.3   1 <1>   0.0630 
 14 O       -1.4790     5.5900     0.4870 O.3   1 <1>  -0.5600 
 15 C       -1.3310     3.7560     2.0460 C.3   1 <1>   0.2000 
 16 C       -6.6920    -2.2980    -0.3100 C.ar  1 <1>  -0.1440 
 17 C       -2.2780     6.5080    -0.1930 C.3   1 <1>   0.0400 
 18 O       -0.7750     4.7500     2.8250 O.3   1 <1>  -0.6800 
 19 C       -6.1330    -3.0660     0.7170 C.ar  1 <1>   0.0820 
 20 C       -7.9760    -2.5990    -0.7460 C.ar  1 <1>  -0.1500 
 21 O       -4.8760    -2.7720     1.1430 O.3   1 <1>  -0.3630 
 22 C       -6.8690    -4.1080     1.2800 C.ar  1 <1>  -0.1500 
 23 C       -8.6990    -3.6350    -0.1830 C.ar  1 <1>  -0.1500 
 24 C       -4.1800    -3.5860     2.0590 C.3   1 <1>   0.0400 
 25 C       -8.1450    -4.3910     0.8310 C.ar  1 <1>  -0.1500 
 26 H       -2.8310     1.7720     0.7950 H     1 <1>   0.0800 
 27 H       -4.6400     0.0060    -3.2060 H     1 <1>   0.0800 
 28 H       -3.0960    -0.7330    -2.8910 H     1 <1>   0.0800 
 29 H       -4.7500     1.9680    -0.0610 H     1 <1>   0.0800 
 30 H       -5.6280     1.5760    -1.5030 H     1 <1>   0.0800 
 31 H       -3.1870     3.6560    -0.8350 H     1 <1>   0.0800 
 32 H       -1.4600     3.7110    -1.0530 H     1 <1>   0.0800 
 33 H       -0.7810     0.8060     1.2200 H     1 <1>   0.0800 
 34 H        0.0050     1.5490    -0.1310 H     1 <1>   0.0800 
 35 H       -4.9600    -2.3150    -2.4820 H     1 <1>   0.0800 
 36 H       -3.9960    -2.0290    -1.0690 H     1 <1>   0.0800 
 37 H       -5.0180    -0.3120     0.7720 H     1 <1>   0.0800 
 38 H       -6.5730     0.3710     0.4160 H     1 <1>   0.0800 
 39 H       -3.1030     4.6530     1.2530 H     1 <1>   0.0800 
 40 H        0.4760     3.4660     0.9560 H     1 <1>   0.0800 
 41 H        0.3480     2.4510     2.3680 H     1 <1>   0.0800 
 42 H       -6.6270    -0.7280    -1.7400 H     1 <1>   0.0800 
 43 H       -1.9890     3.1770     2.6710 H     1 <1>   0.0800 
 44 H       -1.6780     7.3720    -0.4160 H     1 <1>   0.0800 
 45 H       -3.1040     6.7950     0.4360 H     1 <1>   0.0800 
 46 H       -2.6310     6.0700    -1.1100 H     1 <1>   0.0800 
 47 H       -0.5650     5.4870     2.2060 H     1 <1>   0.4000 
 48 H       -8.4320    -2.0270    -1.5340 H     1 <1>   0.1500 
 49 H       -6.4680    -4.7110     2.0710 H     1 <1>   0.1500 
 50 H       -9.6930    -3.8520    -0.5340 H     1 <1>   0.1500 
 51 H       -3.1920    -3.1810     2.1810 H     1 <1>   0.0800 
 52 H       -4.1190    -4.5840     1.6620 H     1 <1>   0.0800 
 53 H       -4.6980    -3.5740     3.0010 H     1 <1>   0.0800 
 54 H       -8.7060    -5.1960     1.2710 H     1 <1>   0.1500 
@<TRIPOS>BOND
  1   1   2  2   
  2   2   3  am  
  3   2   4  1   
  4   3   5  1   
  5   3   6  1   
  6   4   7  1   
  7   4   8  1   
  8   4  26  1   
  9   5   9  1   
 10   5  27  1   
 11   5  28  1   
 12   6  10  1   
 13   6  29  1   
 14   6  30  1   
 15   7  11  1   
 16   7  31  1   
 17   7  32  1   
 18   8  12  1   
 19   8  33  1   
 20   8  34  1   
 21   9  13  1   
 22   9  35  1   
 23   9  36  1   
 24  10  13  1   
 25  10  37  1   
 26  10  38  1   
 27  11  14  1   
 28  11  15  1   
 29  11  39  1   
 30  12  15  1   
 31  12  40  1   
 32  12  41  1   
 33  13  16  1   
 34  13  42  1   
 35  14  17  1   
 36  15  18  1   
 37  15  43  1   
 38  16  19  ar  
 39  16  20  ar  
 40  17  44  1   
 41  17  45  1   
 42  17  46  1   
 43  18  47  1   
 44  19  21  1   
 45  19  22  ar  
 46  20  23  ar  
 47  20  48  1   
 48  21  24  1   
 49  22  25  ar  
 50  22  49  1   
 51  23  25  ar  
 52  23  50  1   
 53  24  51  1   
 54  24  52  1   
 55  24  53  1   
 56  25  54  1   
@<TRIPOS>SUBSTRUCTURE
  1 ****   6 GROUP 4 **** **** 0

# MOE 2024.06 (io_trps.svl 2023.06)
