@<TRIPOS>MOLECULE
NONAME
42 43 1 0 0 
SMALL
USER_CHARGES


@<TRIPOS>ATOM
  1 S        0.0790    -0.6180     0.8270 S.o2  1 <1>   1.4470 
  2 O        0.7050    -1.8180     1.3280 O.2   1 <1>  -0.6500 
  3 O       -0.9690     0.0110     1.5910 O.2   1 <1>  -0.6500 
  4 N       -0.6350    -0.9560    -0.6580 N.am  1 <1>  -0.9140 
  5 C        1.3670     0.5820     0.4210 C.ar  1 <1>  -0.0090 
  6 C       -1.2850    -2.2530    -0.8880 C.3   1 <1>   0.2760 
  7 C        1.0540     1.7700    -0.2260 C.ar  1 <1>   0.1900 
  8 C        2.7070     0.3630     0.7420 C.ar  1 <1>  -0.1500 
  9 C       -2.2860    -2.7000     0.1870 C.3   1 <1>  -0.0800 
 10 C       -0.3210    -3.4390    -1.0290 C.3   1 <1>   0.1200 
 11 F       -0.1870     2.0160    -0.5500 F     1 <1>  -0.1900 
 12 C        1.9960     2.7260    -0.5590 C.ar  1 <1>  -0.1500 
 13 C        3.6810     1.2970     0.4240 C.ar  1 <1>  -0.1500 
 14 C       -1.6260    -3.9670     0.7370 C.3   1 <1>   0.1200 
 15 C       -3.6520    -3.0260    -0.4510 C.3   1 <1>  -0.0550 
 16 O       -0.9240    -4.4880    -0.3400 O.3   1 <1>  -0.5600 
 17 C        3.3070     2.4620    -0.2210 C.ar  1 <1>   0.1900 
 18 S       -4.9800    -3.2630     0.7320 S.o2  1 <1>   1.3330 
 19 F        4.2230     3.3400    -0.5200 F     1 <1>  -0.1900 
 20 O       -4.7210    -4.4210     1.5560 O.2   1 <1>  -0.6500 
 21 O       -5.2390    -1.9840     1.3520 O.2   1 <1>  -0.6500 
 22 N       -6.2970    -3.6340    -0.2740 N.am  1 <1>  -0.8490 
 23 C       -6.3550    -5.0500    -0.6540 C.3   1 <1>   0.1160 
 24 C       -7.5750    -3.2250     0.3150 C.3   1 <1>   0.1160 
 25 H       -1.3590    -0.2390    -0.7190 H     1 <1>   0.4200 
 26 H       -1.7970    -2.1720    -1.8320 H     1 <1>   0.0800 
 27 H        2.9910    -0.5480     1.2450 H     1 <1>   0.1500 
 28 H       -2.4270    -1.9750     0.9680 H     1 <1>   0.0800 
 29 H        0.6390    -3.2550    -0.5850 H     1 <1>   0.0800 
 30 H       -0.1970    -3.7340    -2.0560 H     1 <1>   0.0800 
 31 H        1.7210     3.6360    -1.0600 H     1 <1>   0.1500 
 32 H        4.7150     1.1290     0.6700 H     1 <1>   0.1500 
 33 H       -2.3190    -4.7070     1.0960 H     1 <1>   0.0800 
 34 H       -0.9190    -3.7350     1.5170 H     1 <1>   0.0800 
 35 H       -3.5540    -3.9030    -1.0620 H     1 <1>   0.0800 
 36 H       -3.9360    -2.2140    -1.0930 H     1 <1>   0.0800 
 37 H       -7.1500    -5.2100    -1.3630 H     1 <1>   0.0800 
 38 H       -6.5300    -5.6660     0.2130 H     1 <1>   0.0800 
 39 H       -5.4280    -5.3530    -1.1090 H     1 <1>   0.0800 
 40 H       -8.3870    -3.4620    -0.3510 H     1 <1>   0.0800 
 41 H       -7.5800    -2.1610     0.4850 H     1 <1>   0.0800 
 42 H       -7.7310    -3.7260     1.2570 H     1 <1>   0.0800 
@<TRIPOS>BOND
  1   1   2  2   
  2   1   3  2   
  3   1   4  am  
  4   1   5  1   
  5   4   6  1   
  6   4  25  1   
  7   5   7  ar  
  8   5   8  ar  
  9   6   9  1   
 10   6  10  1   
 11   6  26  1   
 12   7  11  1   
 13   7  12  ar  
 14   8  13  ar  
 15   8  27  1   
 16   9  14  1   
 17   9  15  1   
 18   9  28  1   
 19  10  16  1   
 20  10  29  1   
 21  10  30  1   
 22  12  17  ar  
 23  12  31  1   
 24  13  17  ar  
 25  13  32  1   
 26  14  16  1   
 27  14  33  1   
 28  14  34  1   
 29  15  18  1   
 30  15  35  1   
 31  15  36  1   
 32  17  19  1   
 33  18  20  2   
 34  18  21  2   
 35  18  22  am  
 36  22  23  1   
 37  22  24  1   
 38  23  37  1   
 39  23  38  1   
 40  23  39  1   
 41  24  40  1   
 42  24  41  1   
 43  24  42  1   
@<TRIPOS>SUBSTRUCTURE
  1 ****   4 GROUP 4 **** **** 0

# MOE 2024.06 (io_trps.svl 2023.06)
