@<TRIPOS>MOLECULE
NONAME
53 56 1 0 0 
SMALL
USER_CHARGES


@<TRIPOS>ATOM
  1 O       -2.6710    -1.7150     1.2030 O.2   1 <1>  -0.5700 
  2 C       -1.9030    -2.2440     0.4370 C.2   1 <1>   0.5690 
  3 N       -2.1720    -2.2260    -0.8920 N.am  1 <1>  -0.7300 
  4 C       -0.6410    -2.9260     0.9740 C.3   1 <1>   0.2010 
  5 C       -1.3240    -2.6860    -2.0100 C.3   1 <1>   0.1400 
  6 N       -0.5410    -4.3590     0.5270 N.am  1 <1>  -0.6600 
  7 C       -1.0290    -4.1860    -1.9170 C.3   1 <1>  -0.1600 
  8 C       -1.0750    -5.3520     1.3140 C.2   1 <1>   0.5690 
  9 C        0.0000    -4.5600    -0.8410 C.3   1 <1>   0.1400 
 10 O       -1.2570    -5.1690     2.4970 O.2   1 <1>  -0.5700 
 11 C       -1.5410    -6.6870     0.7070 C.3   1 <1>   0.2610 
 12 O       -0.6740    -7.7540     1.0150 O.3   1 <1>  -0.5600 
 13 C       -2.9950    -6.9660     1.1500 C.3   1 <1>   0.3640 
 14 C       -1.0360    -8.9580     0.3870 C.3   1 <1>   0.1810 
 15 N       -3.4220    -8.3920     0.9530 N.am  1 <1>  -0.5090 
 16 C       -3.8730    -5.9830     0.3730 C.ar  1 <1>  -0.1430 
 17 C       -2.4910    -9.3560     0.6430 C.2   1 <1>   0.5690 
 18 C       -4.7070    -8.7630     1.6060 C.3   1 <1>   0.0490 
 19 C       -4.2210    -6.2030    -0.9540 C.ar  1 <1>  -0.1500 
 20 C       -4.2790    -4.8080     0.9890 C.ar  1 <1>  -0.1500 
 21 O       -2.7580   -10.5330     0.5610 O.2   1 <1>  -0.5700 
 22 C       -5.6330    -9.7110     0.9100 C.3   1 <1>  -0.2000 
 23 C       -6.0230    -8.2800     1.0770 C.3   1 <1>  -0.2000 
 24 C       -4.9430    -5.2530    -1.6540 C.ar  1 <1>  -0.1500 
 25 C       -5.0000    -3.8560     0.2910 C.ar  1 <1>  -0.1500 
 26 C       -5.3280    -4.0710    -1.0430 C.ar  1 <1>   0.0830 
 27 O       -6.0060    -3.1750    -1.8030 O.3   1 <1>  -0.3630 
 28 C       -6.5160    -1.9850    -1.2420 C.3   1 <1>   0.0400 
 29 H       -3.1020    -1.8850    -1.1440 H     1 <1>   0.3700 
 30 H       -0.6620    -2.8750     2.0480 H     1 <1>   0.0800 
 31 H        0.2210    -2.3790     0.6420 H     1 <1>   0.0800 
 32 H       -1.8470    -2.4870    -2.9310 H     1 <1>   0.0800 
 33 H       -0.4070    -2.1220    -2.0210 H     1 <1>   0.0800 
 34 H       -0.6250    -4.4920    -2.8650 H     1 <1>   0.0800 
 35 H       -1.9450    -4.7290    -1.7740 H     1 <1>   0.0800 
 36 H        0.8890    -3.9630    -0.9610 H     1 <1>   0.0800 
 37 H        0.2960    -5.5880    -0.9630 H     1 <1>   0.0800 
 38 H       -1.5430    -6.5920    -0.3610 H     1 <1>   0.0800 
 39 H       -3.0820    -6.7540     2.2020 H     1 <1>   0.0800 
 40 H       -0.8690    -8.8590    -0.6700 H     1 <1>   0.0800 
 41 H       -0.3880    -9.7270     0.7680 H     1 <1>   0.0800 
 42 H       -4.5990    -8.8700     2.6730 H     1 <1>   0.1000 
 43 H       -3.9310    -7.1140    -1.4480 H     1 <1>   0.1500 
 44 H       -4.0180    -4.6090     2.0160 H     1 <1>   0.1500 
 45 H       -5.3630   -10.0680    -0.0680 H     1 <1>   0.1000 
 46 H       -6.1380   -10.4570     1.4970 H     1 <1>   0.1000 
 47 H       -6.8040    -8.0450     1.7770 H     1 <1>   0.1000 
 48 H       -6.0840    -7.6840     0.1860 H     1 <1>   0.1000 
 49 H       -5.2130    -5.4200    -2.6810 H     1 <1>   0.1500 
 50 H       -5.2760    -2.9540     0.8040 H     1 <1>   0.1500 
 51 H       -7.0350    -1.4460    -2.0140 H     1 <1>   0.0800 
 52 H       -5.6990    -1.3940    -0.8690 H     1 <1>   0.0800 
 53 H       -7.1990    -2.2380    -0.4500 H     1 <1>   0.0800 
@<TRIPOS>BOND
  1   1   2  2   
  2   2   3  am  
  3   2   4  1   
  4   3   5  1   
  5   3  29  1   
  6   4   6  1   
  7   4  30  1   
  8   4  31  1   
  9   5   7  1   
 10   5  32  1   
 11   5  33  1   
 12   6   8  am  
 13   6   9  1   
 14   7   9  1   
 15   7  34  1   
 16   7  35  1   
 17   8  10  2   
 18   8  11  1   
 19   9  36  1   
 20   9  37  1   
 21  11  12  1   
 22  11  13  1   
 23  11  38  1   
 24  12  14  1   
 25  13  15  1   
 26  13  16  1   
 27  13  39  1   
 28  14  17  1   
 29  14  40  1   
 30  14  41  1   
 31  15  17  am  
 32  15  18  1   
 33  16  19  ar  
 34  16  20  ar  
 35  17  21  2   
 36  18  22  1   
 37  18  23  1   
 38  18  42  1   
 39  19  24  ar  
 40  19  43  1   
 41  20  25  ar  
 42  20  44  1   
 43  22  23  1   
 44  22  45  1   
 45  22  46  1   
 46  23  47  1   
 47  23  48  1   
 48  24  26  ar  
 49  24  49  1   
 50  25  26  ar  
 51  25  50  1   
 52  26  27  1   
 53  27  28  1   
 54  28  51  1   
 55  28  52  1   
 56  28  53  1   
@<TRIPOS>SUBSTRUCTURE
  1 ****  16 GROUP 4 **** **** 0

# MOE 2024.06 (io_trps.svl 2023.06)
