@<TRIPOS>MOLECULE
NONAME
38 39 1 0 0 
SMALL
USER_CHARGES


@<TRIPOS>ATOM
  1 CL       0.6510     1.5050    -0.1900 Cl    1 <1>  -0.1770 
  2 C        1.7030     0.2320     0.3940 C.ar  1 <1>   0.1770 
  3 C        1.2740    -1.0820     0.3150 C.ar  1 <1>   0.1770 
  4 C        2.9470     0.5480     0.9410 C.ar  1 <1>   0.0860 
  5 CL      -0.2820    -1.4730    -0.3800 Cl    1 <1>  -0.1770 
  6 C        2.0610    -2.1170     0.7860 C.ar  1 <1>  -0.1500 
  7 C        3.4370     1.9040     1.0310 C.2   1 <1>   0.5440 
  8 C        3.7230    -0.5100     1.4210 C.ar  1 <1>  -0.1500 
  9 C        3.2930    -1.8240     1.3450 C.ar  1 <1>  -0.1500 
 10 O        3.8100     2.3470     2.0990 O.2   1 <1>  -0.5700 
 11 N        3.5090     2.6990    -0.0700 N.am  1 <1>  -0.7300 
 12 C        3.8760     4.1280    -0.0620 C.3   1 <1>   0.4000 
 13 C        2.6000     4.9060    -0.3910 C.2   1 <1>   0.0060 
 14 C        5.0490     4.3900    -1.0430 C.3   1 <1>  -0.0800 
 15 N        2.2360     5.2720    -1.5840 N.2   1 <1>  -0.5650 
 16 N        1.7060     5.2490     0.5710 N.pl3 1 <1>   0.0480 
 17 C        6.2670     3.4900    -0.7590 C.3   1 <1>  -0.2400 
 18 C        5.5060     5.8590    -0.9910 C.3   1 <1>  -0.2400 
 19 C        1.0580     5.8890    -1.3900 C.2   1 <1>   0.0770 
 20 C        0.7190     5.8840    -0.0840 C.2   1 <1>  -0.3020 
 21 C        1.7380     4.9540     2.0170 C.3   1 <1>   0.0160 
 22 H        1.7110    -3.1320     0.7170 H     1 <1>   0.1500 
 23 H        4.6810    -0.2880     1.8630 H     1 <1>   0.1500 
 24 H        3.9160    -2.6190     1.7220 H     1 <1>   0.1500 
 25 H        3.0070     2.4440    -0.9230 H     1 <1>   0.3700 
 26 H        4.2120     4.4090     0.9200 H     1 <1>   0.0800 
 27 H        4.7010     4.1870    -2.0420 H     1 <1>   0.0800 
 28 H        6.6120     3.6300     0.2510 H     1 <1>   0.0800 
 29 H        7.0720     3.7240    -1.4330 H     1 <1>   0.0800 
 30 H        6.0160     2.4540    -0.8930 H     1 <1>   0.0800 
 31 H        5.8580     6.1140    -0.0080 H     1 <1>   0.0800 
 32 H        4.6940     6.5170    -1.2480 H     1 <1>   0.0800 
 33 H        6.3010     6.0280    -1.6960 H     1 <1>   0.0800 
 34 H        0.5050     6.3090    -2.2140 H     1 <1>   0.1500 
 35 H       -0.1530     6.2840     0.3980 H     1 <1>   0.1500 
 36 H        2.6930     5.2310     2.4230 H     1 <1>   0.0800 
 37 H        1.5780     3.9020     2.1670 H     1 <1>   0.0800 
 38 H        0.9650     5.5080     2.5160 H     1 <1>   0.0800 
@<TRIPOS>BOND
  1   1   2  1   
  2   2   3  ar  
  3   2   4  ar  
  4   3   5  1   
  5   3   6  ar  
  6   4   7  1   
  7   4   8  ar  
  8   6   9  ar  
  9   6  22  1   
 10   7  10  2   
 11   7  11  am  
 12   8   9  ar  
 13   8  23  1   
 14   9  24  1   
 15  11  12  1   
 16  11  25  1   
 17  12  13  1   
 18  12  14  1   
 19  12  26  1   
 20  13  15  2   
 21  13  16  1   
 22  14  17  1   
 23  14  18  1   
 24  14  27  1   
 25  15  19  1   
 26  16  20  1   
 27  16  21  1   
 28  17  28  1   
 29  17  29  1   
 30  17  30  1   
 31  18  31  1   
 32  18  32  1   
 33  18  33  1   
 34  19  20  2   
 35  19  34  1   
 36  20  35  1   
 37  21  36  1   
 38  21  37  1   
 39  21  38  1   
@<TRIPOS>SUBSTRUCTURE
  1 ****  11 GROUP 4 **** **** 0

# MOE 2024.06 (io_trps.svl 2023.06)
