@<TRIPOS>MOLECULE
NONAME
44 46 1 0 0 
SMALL
USER_CHARGES


@<TRIPOS>ATOM
  1 S        0.4780     0.1670    -1.3180 S.3   1 <1>  -0.0800 
  2 C       -0.8850     1.1500    -0.8570 C.2   1 <1>  -0.1400 
  3 C       -0.3750    -1.2420    -0.7350 C.2   1 <1>   0.2280 
  4 C       -1.8270     0.3510    -0.3240 C.2   1 <1>   0.0460 
  5 C       -0.7900     2.6430    -1.1200 C.3   1 <1>   0.0200 
  6 N       -1.5290    -0.9990    -0.2570 N.2   1 <1>  -0.5650 
  7 C       -3.1810     0.7570     0.2170 C.3   1 <1>  -0.0590 
  8 C        0.2070     3.3010    -0.1550 C.3   1 <1>  -0.0990 
  9 C        0.3540     4.8020    -0.3580 C.2   1 <1>   0.5690 
 10 O       -0.4160     5.3600    -1.1040 O.2   1 <1>  -0.5700 
 11 N        1.3480     5.4870     0.2910 N.am  1 <1>  -0.6600 
 12 C        2.3380     4.8890     1.2470 C.3   1 <1>   0.1400 
 13 C        1.5420     6.9460     0.0540 C.3   1 <1>   0.1400 
 14 C        3.7160     4.6680     0.5990 C.3   1 <1>   0.1400 
 15 C        2.4310     7.2020    -1.1710 C.3   1 <1>  -0.1600 
 16 N        4.2470     5.9220    -0.0240 N.am  1 <1>  -0.6600 
 17 C        3.6110     6.2330    -1.3360 C.3   1 <1>   0.1400 
 18 C        5.0310     6.8000     0.7140 C.2   1 <1>   0.7160 
 19 O        5.2170     6.5190     1.8880 O.2   1 <1>  -0.5700 
 20 C        5.6220     8.0370     0.2150 C.2   1 <1>   0.1410 
 21 N        5.6750     8.4390    -1.0780 N.2   1 <1>  -0.2270 
 22 C        6.2310     9.0000     0.9490 C.2   1 <1>  -0.3020 
 23 N        6.2690     9.5750    -1.1460 N.2   1 <1>  -0.4180 
 24 N        6.6200     9.9310     0.0880 N.pl3 1 <1>   0.3000 
 25 H        0.1260    -2.1890    -0.8210 H     1 <1>   0.1500 
 26 H       -1.7580     3.0960    -0.9970 H     1 <1>   0.0800 
 27 H       -0.4800     2.8080    -2.1380 H     1 <1>   0.0800 
 28 H       -3.3260     1.8180     0.1470 H     1 <1>   0.0800 
 29 H       -3.2600     0.4620     1.2470 H     1 <1>   0.0800 
 30 H       -3.9530     0.2620    -0.3440 H     1 <1>   0.0800 
 31 H        1.1680     2.8440    -0.2900 H     1 <1>   0.0800 
 32 H       -0.1190     3.1250     0.8530 H     1 <1>   0.0800 
 33 H        1.9760     3.9530     1.6300 H     1 <1>   0.0800 
 34 H        2.4560     5.5450     2.0920 H     1 <1>   0.0800 
 35 H        1.9950     7.3900     0.9230 H     1 <1>   0.0800 
 36 H        0.5860     7.4230    -0.0900 H     1 <1>   0.0800 
 37 H        3.6410     3.8970    -0.1480 H     1 <1>   0.0800 
 38 H        4.4020     4.3120     1.3480 H     1 <1>   0.0800 
 39 H        2.8020     8.2090    -1.1230 H     1 <1>   0.0800 
 40 H        1.8210     7.1410    -2.0540 H     1 <1>   0.0800 
 41 H        4.3320     6.6250    -2.0300 H     1 <1>   0.0800 
 42 H        3.2390     5.3210    -1.7700 H     1 <1>   0.0800 
 43 H        6.3940     9.0430     2.0100 H     1 <1>   0.1500 
 44 H        7.1180    10.8050     0.2900 H     1 <1>   0.2700 
@<TRIPOS>BOND
  1   1   2  1   
  2   1   3  1   
  3   2   4  2   
  4   2   5  1   
  5   3   6  2   
  6   3  25  1   
  7   4   6  1   
  8   4   7  1   
  9   5   8  1   
 10   5  26  1   
 11   5  27  1   
 12   7  28  1   
 13   7  29  1   
 14   7  30  1   
 15   8   9  1   
 16   8  31  1   
 17   8  32  1   
 18   9  10  2   
 19   9  11  am  
 20  11  12  1   
 21  11  13  1   
 22  12  14  1   
 23  12  33  1   
 24  12  34  1   
 25  13  15  1   
 26  13  35  1   
 27  13  36  1   
 28  14  16  1   
 29  14  37  1   
 30  14  38  1   
 31  15  17  1   
 32  15  39  1   
 33  15  40  1   
 34  16  17  1   
 35  16  18  am  
 36  17  41  1   
 37  17  42  1   
 38  18  19  2   
 39  18  20  1   
 40  20  21  1   
 41  20  22  2   
 42  21  23  2   
 43  22  24  1   
 44  22  43  1   
 45  23  24  1   
 46  24  44  1   
@<TRIPOS>SUBSTRUCTURE
  1 ****  11 GROUP 4 **** **** 0

# MOE 2024.06 (io_trps.svl 2023.06)
