@<TRIPOS>MOLECULE
NONAME
43 46 1 0 0 
SMALL
USER_CHARGES


@<TRIPOS>ATOM
  1 S       -0.1190     0.4640    -0.8530 S.3   1 <1>  -0.0800 
  2 C        0.9020    -0.8650    -0.3410 C.2   1 <1>  -0.0450 
  3 C        0.7200     1.5240     0.2480 C.2   1 <1>   0.1980 
  4 C        1.7600    -0.3710     0.5810 C.2   1 <1>   0.0460 
  5 C        0.7300    -2.1670    -0.9340 C.2   1 <1>   0.7150 
  6 N        1.6450     0.9620     0.9120 N.2   1 <1>  -0.5650 
  7 C        0.2770     2.9670     0.3040 C.3   1 <1>  -0.0600 
  8 C        2.8490    -1.1450     1.2950 C.3   1 <1>  -0.0590 
  9 O        1.7100    -2.7690    -1.3340 O.2   1 <1>  -0.5700 
 10 N       -0.5080    -2.7700    -1.0430 N.am  1 <1>  -0.6600 
 11 C       -1.6740    -2.4220    -0.1850 C.3   1 <1>   0.1400 
 12 C       -0.7360    -3.9410    -1.9350 C.3   1 <1>   0.1400 
 13 C       -2.0510    -3.6330     0.6700 C.3   1 <1>  -0.1600 
 14 C       -1.1040    -5.1610    -1.0910 C.3   1 <1>  -0.1600 
 15 C       -2.3100    -4.8790    -0.1890 C.3   1 <1>   0.4600 
 16 O       -3.4010    -4.6230    -1.0530 O.3   1 <1>  -0.5600 
 17 C       -2.6440    -6.0920     0.6710 C.2   1 <1>  -0.1400 
 18 C       -4.7040    -4.7810    -0.5410 C.3   1 <1>   0.1200 
 19 S       -1.4800    -6.8420     1.7530 S.3   1 <1>  -0.0800 
 20 C       -3.8200    -6.7310     0.7230 C.2   1 <1>  -0.1810 
 21 C       -4.9730    -6.2400    -0.1210 C.3   1 <1>   0.0210 
 22 C       -2.6650    -8.0460     2.2430 C.2   1 <1>  -0.1100 
 23 C       -3.8390    -7.8520     1.6120 C.2   1 <1>  -0.1500 
 24 H        0.3940     3.4210    -0.6630 H     1 <1>   0.0800 
 25 H        0.8770     3.5020     1.0170 H     1 <1>   0.0800 
 26 H       -0.7530     3.0210     0.6010 H     1 <1>   0.0800 
 27 H        2.8540    -2.1760     0.9930 H     1 <1>   0.0800 
 28 H        2.6920    -1.0940     2.3570 H     1 <1>   0.0800 
 29 H        3.8050    -0.7130     1.0640 H     1 <1>   0.0800 
 30 H       -2.5020    -2.1400    -0.8140 H     1 <1>   0.0800 
 31 H       -1.4450    -1.5960     0.4640 H     1 <1>   0.0800 
 32 H        0.1430    -4.1540    -2.5200 H     1 <1>   0.0800 
 33 H       -1.5380    -3.7120    -2.6170 H     1 <1>   0.0800 
 34 H       -2.9130    -3.4110     1.2680 H     1 <1>   0.0800 
 35 H       -1.2410    -3.8370     1.3470 H     1 <1>   0.0800 
 36 H       -0.2530    -5.4270    -0.4910 H     1 <1>   0.0800 
 37 H       -1.3270    -5.9960    -1.7290 H     1 <1>   0.0800 
 38 H       -5.3960    -4.4840    -1.3090 H     1 <1>   0.0800 
 39 H       -4.8220    -4.1230     0.3010 H     1 <1>   0.0800 
 40 H       -5.0750    -6.8590    -0.9940 H     1 <1>   0.0800 
 41 H       -5.8890    -6.2860     0.4390 H     1 <1>   0.0800 
 42 H       -2.3510    -8.7840     2.9600 H     1 <1>   0.1500 
 43 H       -4.7240    -8.4520     1.7360 H     1 <1>   0.1500 
@<TRIPOS>BOND
  1   1   2  1   
  2   1   3  1   
  3   2   4  2   
  4   2   5  1   
  5   3   6  2   
  6   3   7  1   
  7   4   6  1   
  8   4   8  1   
  9   5   9  2   
 10   5  10  am  
 11   7  24  1   
 12   7  25  1   
 13   7  26  1   
 14   8  27  1   
 15   8  28  1   
 16   8  29  1   
 17  10  11  1   
 18  10  12  1   
 19  11  13  1   
 20  11  30  1   
 21  11  31  1   
 22  12  14  1   
 23  12  32  1   
 24  12  33  1   
 25  13  15  1   
 26  13  34  1   
 27  13  35  1   
 28  14  15  1   
 29  14  36  1   
 30  14  37  1   
 31  15  16  1   
 32  15  17  1   
 33  16  18  1   
 34  17  19  1   
 35  17  20  2   
 36  18  21  1   
 37  18  38  1   
 38  18  39  1   
 39  19  22  1   
 40  20  21  1   
 41  20  23  1   
 42  21  40  1   
 43  21  41  1   
 44  22  23  2   
 45  22  42  1   
 46  23  43  1   
@<TRIPOS>SUBSTRUCTURE
  1 ****  11 GROUP 4 **** **** 0

# MOE 2024.06 (io_trps.svl 2023.06)
