@<TRIPOS>MOLECULE
NONAME
58 59 1 0 0 
SMALL
USER_CHARGES


@<TRIPOS>ATOM
  1 O        3.8280     0.1980     1.0750 O.2   1 <1>  -0.5700 
  2 C        3.0090    -0.4560     0.4530 C.2   1 <1>   0.5440 
  3 N        2.5010     0.1330    -0.6800 N.am  1 <1>  -0.6600 
  4 C        2.7330    -1.8420     0.7940 C.ar  1 <1>   0.0860 
  5 C        2.9440    -0.3780    -2.0120 C.3   1 <1>   0.1400 
  6 C        1.9810     1.5300    -0.6630 C.3   1 <1>   0.1400 
  7 C        1.4530    -2.4210     0.7550 C.ar  1 <1>  -0.1440 
  8 C        3.8000    -2.6610     1.1700 C.ar  1 <1>  -0.1500 
  9 C        4.4420    -0.0760    -2.2530 C.3   1 <1>   0.3430 
 10 C        3.0950     2.5900    -0.7310 C.3   1 <1>  -0.1600 
 11 C        1.2820    -3.7670     1.0410 C.ar  1 <1>  -0.1500 
 12 C        0.2110    -1.6030     0.4190 C.3   1 <1>  -0.0960 
 13 C        3.6240    -3.9990     1.4580 C.ar  1 <1>  -0.1500 
 14 N        4.9110     1.1040    -1.4550 N.4   1 <1>  -0.9590 
 15 C        4.1750     2.3520    -1.7880 C.3   1 <1>   0.3430 
 16 C        2.3650    -4.5670     1.3890 C.ar  1 <1>   0.0830 
 17 C        6.3880     1.2470    -1.4460 C.3   1 <1>   0.3430 
 18 O        2.2730    -5.8850     1.6750 O.3   1 <1>  -0.3630 
 19 C        6.8220     2.0550    -0.2220 C.3   1 <1>  -0.1600 
 20 C        1.0370    -6.5640     1.6770 C.3   1 <1>   0.0400 
 21 C        8.3510     2.1450    -0.1360 C.3   1 <1>  -0.1600 
 22 C        8.7870     2.9500     1.0950 C.3   1 <1>  -0.1600 
 23 C       10.3160     3.0480     1.1800 C.3   1 <1>  -0.1600 
 24 C       10.7490     3.8590     2.4020 C.3   1 <1>   0.1200 
 25 O       12.1270     3.9380     2.4040 O.3   1 <1>  -0.6800 
 26 H        2.3550     0.0790    -2.7880 H     1 <1>   0.0800 
 27 H        2.7790    -1.4410    -2.0680 H     1 <1>   0.0800 
 28 H        1.4150     1.6780     0.2430 H     1 <1>   0.0800 
 29 H        1.3020     1.6610    -1.4890 H     1 <1>   0.0800 
 30 H        4.7870    -2.2390     1.2410 H     1 <1>   0.1500 
 31 H        4.6180     0.0820    -3.3040 H     1 <1>   0.0800 
 32 H        5.0060    -0.9440    -1.9550 H     1 <1>   0.0800 
 33 H        3.5580     2.6800     0.2360 H     1 <1>   0.0800 
 34 H        2.6320     3.5400    -0.9310 H     1 <1>   0.0800 
 35 H        0.2970    -4.1900     0.9970 H     1 <1>   0.1500 
 36 H        0.2270    -0.6660     0.9470 H     1 <1>   0.0800 
 37 H       -0.6840    -2.1250     0.7060 H     1 <1>   0.0800 
 38 H        0.1660    -1.4120    -0.6370 H     1 <1>   0.0800 
 39 H        4.4580    -4.6150     1.7430 H     1 <1>   0.1500 
 40 H        4.6150     0.8820    -0.4750 H     1 <1>   0.4500 
 41 H        4.8540     3.1890    -1.7880 H     1 <1>   0.0800 
 42 H        3.7320     2.2790    -2.7680 H     1 <1>   0.0800 
 43 H        6.7230     1.7290    -2.3500 H     1 <1>   0.0800 
 44 H        6.8440     0.2710    -1.3910 H     1 <1>   0.0800 
 45 H        6.4500     1.5770     0.6690 H     1 <1>   0.0800 
 46 H        6.4190     3.0500    -0.2720 H     1 <1>   0.0800 
 47 H        1.2200    -7.5890     1.9430 H     1 <1>   0.0800 
 48 H        0.6070    -6.5120     0.6930 H     1 <1>   0.0800 
 49 H        0.3900    -6.1080     2.4060 H     1 <1>   0.0800 
 50 H        8.7380     2.6200    -1.0230 H     1 <1>   0.0800 
 51 H        8.7710     1.1540    -0.0760 H     1 <1>   0.0800 
 52 H        8.4110     2.4780     1.9870 H     1 <1>   0.0800 
 53 H        8.3720     3.9430     1.0430 H     1 <1>   0.0800 
 54 H       10.6920     3.5290     0.2930 H     1 <1>   0.0800 
 55 H       10.7340     2.0590     1.2430 H     1 <1>   0.0800 
 56 H       10.4320     3.3920     3.3190 H     1 <1>   0.0800 
 57 H       10.3610     4.8630     2.3580 H     1 <1>   0.0800 
 58 H       12.5220     3.0460     2.4450 H     1 <1>   0.4000 
@<TRIPOS>BOND
  1   1   2  2   
  2   2   3  am  
  3   2   4  1   
  4   3   5  1   
  5   3   6  1   
  6   4   7  ar  
  7   4   8  ar  
  8   5   9  1   
  9   5  26  1   
 10   5  27  1   
 11   6  10  1   
 12   6  28  1   
 13   6  29  1   
 14   7  11  ar  
 15   7  12  1   
 16   8  13  ar  
 17   8  30  1   
 18   9  14  1   
 19   9  31  1   
 20   9  32  1   
 21  10  15  1   
 22  10  33  1   
 23  10  34  1   
 24  11  16  ar  
 25  11  35  1   
 26  12  36  1   
 27  12  37  1   
 28  12  38  1   
 29  13  16  ar  
 30  13  39  1   
 31  14  15  1   
 32  14  17  1   
 33  14  40  1   
 34  15  41  1   
 35  15  42  1   
 36  16  18  1   
 37  17  19  1   
 38  17  43  1   
 39  17  44  1   
 40  18  20  1   
 41  19  21  1   
 42  19  45  1   
 43  19  46  1   
 44  20  47  1   
 45  20  48  1   
 46  20  49  1   
 47  21  22  1   
 48  21  50  1   
 49  21  51  1   
 50  22  23  1   
 51  22  52  1   
 52  22  53  1   
 53  23  24  1   
 54  23  54  1   
 55  23  55  1   
 56  24  25  1   
 57  24  56  1   
 58  24  57  1   
 59  25  58  1   
@<TRIPOS>SUBSTRUCTURE
  1 ****   1 GROUP 4 **** **** 0

# MOE 2024.06 (io_trps.svl 2023.06)
