@<TRIPOS>MOLECULE
NONAME
48 51 1 0 0 
SMALL
USER_CHARGES


@<TRIPOS>ATOM
  1 S       -0.1040    -0.9610     2.0540 S.3   1 <1>  -0.0800 
  2 C        0.6620    -1.0410     0.4610 C.2   1 <1>  -0.0450 
  3 C        1.3140    -0.2410     2.7840 C.2   1 <1>  -0.1100 
  4 C        1.9100    -0.5120     0.5580 C.2   1 <1>  -0.1810 
  5 C       -0.0830    -1.5790    -0.6520 C.2   1 <1>   0.7150 
  6 C        2.2770    -0.0730     1.8620 C.2   1 <1>  -0.1810 
  7 C        2.9160    -0.3470    -0.5680 C.3   1 <1>   0.0210 
  8 O       -0.1320    -0.9520    -1.6960 O.2   1 <1>  -0.5700 
  9 N       -0.7550    -2.7820    -0.5900 N.am  1 <1>  -0.6600 
 10 C        3.6720     0.4850     2.0590 C.3   1 <1>   0.0210 
 11 C        4.3480    -0.7130    -0.1270 C.3   1 <1>  -0.1600 
 12 C       -0.3310    -3.8770     0.3520 C.3   1 <1>   0.3640 
 13 C       -1.9800    -2.9890    -1.4170 C.3   1 <1>   0.1400 
 14 C        4.6710    -0.4510     1.3650 C.3   1 <1>  -0.1600 
 15 C        1.1840    -4.0850     0.2270 C.ar  1 <1>  -0.1430 
 16 C       -1.0340    -5.2560     0.1390 C.3   1 <1>   0.2000 
 17 C       -2.2330    -4.4660    -1.7120 C.3   1 <1>   0.1200 
 18 C        1.7710    -4.3270    -1.0080 C.ar  1 <1>  -0.1500 
 19 C        1.9920    -4.0380     1.3550 C.ar  1 <1>  -0.1500 
 20 O       -2.2730    -5.1660    -0.5120 O.3   1 <1>  -0.5600 
 21 C       -1.3010    -5.9990     1.4580 C.3   1 <1>   0.1200 
 22 C        3.1350    -4.5360    -1.1120 C.ar  1 <1>  -0.1500 
 23 C        3.3560    -4.2460     1.2540 C.ar  1 <1>  -0.1500 
 24 O       -0.1520    -6.1100     2.2360 O.3   1 <1>  -0.6800 
 25 C        3.9280    -4.5000     0.0200 C.ar  1 <1>  -0.1500 
 26 H        1.2770    -0.0220     3.8360 H     1 <1>   0.1500 
 27 H        2.6320    -0.9400    -1.4190 H     1 <1>   0.0800 
 28 H        2.8980     0.6850    -0.8710 H     1 <1>   0.0800 
 29 H        3.7280     1.4680     1.6250 H     1 <1>   0.0800 
 30 H        3.8980     0.5620     3.1080 H     1 <1>   0.0800 
 31 H        4.5050    -1.7580    -0.3240 H     1 <1>   0.0800 
 32 H        5.0400    -0.1680    -0.7440 H     1 <1>   0.0800 
 33 H       -0.5580    -3.5570     1.3530 H     1 <1>   0.0800 
 34 H       -2.8280    -2.5870    -0.8900 H     1 <1>   0.0800 
 35 H       -1.8930    -2.4600    -2.3500 H     1 <1>   0.0800 
 36 H        5.6680    -0.0580     1.4590 H     1 <1>   0.0800 
 37 H        4.6440    -1.3940     1.8830 H     1 <1>   0.0800 
 38 H       -0.4120    -5.8810    -0.4780 H     1 <1>   0.0800 
 39 H       -1.4640    -4.8760    -2.3430 H     1 <1>   0.0800 
 40 H       -3.1860    -4.5880    -2.1970 H     1 <1>   0.0800 
 41 H        1.1650    -4.3490    -1.8980 H     1 <1>   0.1500 
 42 H        1.5600    -3.8380     2.3220 H     1 <1>   0.1500 
 43 H       -1.6640    -6.9920     1.2580 H     1 <1>   0.0800 
 44 H       -2.0320    -5.4640     2.0390 H     1 <1>   0.0800 
 45 H        3.5780    -4.7240    -2.0740 H     1 <1>   0.1500 
 46 H        3.9700    -4.2070     2.1360 H     1 <1>   0.1500 
 47 H        0.5690    -6.5550     1.7450 H     1 <1>   0.4000 
 48 H        4.9890    -4.6640    -0.0580 H     1 <1>   0.1500 
@<TRIPOS>BOND
  1   1   2  1   
  2   1   3  1   
  3   2   4  2   
  4   2   5  1   
  5   3   6  2   
  6   3  26  1   
  7   4   6  1   
  8   4   7  1   
  9   5   8  2   
 10   5   9  am  
 11   6  10  1   
 12   7  11  1   
 13   7  27  1   
 14   7  28  1   
 15   9  12  1   
 16   9  13  1   
 17  10  14  1   
 18  10  29  1   
 19  10  30  1   
 20  11  14  1   
 21  11  31  1   
 22  11  32  1   
 23  12  15  1   
 24  12  16  1   
 25  12  33  1   
 26  13  17  1   
 27  13  34  1   
 28  13  35  1   
 29  14  36  1   
 30  14  37  1   
 31  15  18  ar  
 32  15  19  ar  
 33  16  20  1   
 34  16  21  1   
 35  16  38  1   
 36  17  20  1   
 37  17  39  1   
 38  17  40  1   
 39  18  22  ar  
 40  18  41  1   
 41  19  23  ar  
 42  19  42  1   
 43  21  24  1   
 44  21  43  1   
 45  21  44  1   
 46  22  25  ar  
 47  22  45  1   
 48  23  25  ar  
 49  23  46  1   
 50  24  47  1   
 51  25  48  1   
@<TRIPOS>SUBSTRUCTURE
  1 ****  15 GROUP 4 **** **** 0

# MOE 2024.06 (io_trps.svl 2023.06)
