@<TRIPOS>MOLECULE
NONAME
50 51 1 0 0 
SMALL
USER_CHARGES


@<TRIPOS>ATOM
  1 O        5.8750    -0.6110    -0.0860 O.co2 1 <1>  -0.9000 
  2 C        4.9520    -0.4000    -0.8810 C.2   1 <1>   0.9060 
  3 O        4.8740    -1.0130    -1.9580 O.co2 1 <1>  -0.9000 
  4 C        3.8890     0.6760    -0.5880 C.3   1 <1>  -0.1060 
  5 C        4.0690     1.6720    -1.7650 C.3   1 <1>   0.2000 
  6 C        4.1520     1.4120     0.7670 C.3   1 <1>  -0.1600 
  7 C        2.4950    -0.0310    -0.5080 C.3   1 <1>  -0.1600 
  8 O        3.4310     1.1980    -2.8990 O.3   1 <1>  -0.6800 
  9 C        3.6440     3.1110    -1.4430 C.3   1 <1>   0.1400 
 10 C        5.0690     2.6280     0.6140 C.3   1 <1>   0.1400 
 11 C        1.2450     0.8700    -0.5150 C.3   1 <1>  -0.1600 
 12 N        4.4000     3.6510    -0.2590 N.am  1 <1>  -0.6600 
 13 C       -0.0270     0.0370    -0.3290 C.3   1 <1>  -0.2400 
 14 C        4.4800     5.0070    -0.0650 C.2   1 <1>   0.5690 
 15 O        3.9230     5.7830    -0.8080 O.2   1 <1>  -0.5700 
 16 C        5.2510     5.6110     1.1050 C.3   1 <1>   0.0440 
 17 C        6.7450     5.2920     1.1320 C.ar  1 <1>  -0.1430 
 18 C        7.4710     5.1560    -0.0410 C.ar  1 <1>  -0.1500 
 19 C        7.3940     5.1340     2.3440 C.ar  1 <1>  -0.1500 
 20 C        8.8240     4.8550    -0.0150 C.ar  1 <1>  -0.1430 
 21 C        8.7450     4.8390     2.3800 C.ar  1 <1>  -0.1500 
 22 C        9.4680     4.6960     1.2070 C.ar  1 <1>  -0.1430 
 23 C        9.5670     4.6970    -1.3340 C.3   1 <1>  -0.0970 
 24 C       10.9510     4.3630     1.2870 C.3   1 <1>  -0.0970 
 25 H        5.1150     1.7180    -2.0200 H     1 <1>   0.0800 
 26 H        4.5820     0.7310     1.4790 H     1 <1>   0.0800 
 27 H        3.2380     1.7620     1.2050 H     1 <1>   0.0800 
 28 H        2.4070    -0.7110    -1.3390 H     1 <1>   0.0800 
 29 H        2.4860    -0.6390     0.3800 H     1 <1>   0.0800 
 30 H        3.7490     0.2610    -2.9930 H     1 <1>   0.4000 
 31 H        2.5940     3.1460    -1.2260 H     1 <1>   0.0800 
 32 H        3.8400     3.7300    -2.3010 H     1 <1>   0.0800 
 33 H        6.0050     2.3260     0.1700 H     1 <1>   0.0800 
 34 H        5.2770     3.0320     1.5870 H     1 <1>   0.0800 
 35 H        1.2930     1.6070     0.2650 H     1 <1>   0.0800 
 36 H        1.1800     1.3840    -1.4580 H     1 <1>   0.0800 
 37 H       -0.0030    -0.4770     0.6160 H     1 <1>   0.0800 
 38 H       -0.1120    -0.6900    -1.1170 H     1 <1>   0.0800 
 39 H       -0.8920     0.6750    -0.3540 H     1 <1>   0.0800 
 40 H        5.1390     6.6790     1.0680 H     1 <1>   0.0800 
 41 H        4.7860     5.2750     2.0120 H     1 <1>   0.0800 
 42 H        6.9760     5.2800    -0.9890 H     1 <1>   0.1500 
 43 H        6.8540     5.2380     3.2680 H     1 <1>   0.1500 
 44 H        9.2290     4.7180     3.3320 H     1 <1>   0.1500 
 45 H        8.9080     4.8540    -2.1680 H     1 <1>   0.0800 
 46 H        9.9720     3.7040    -1.4080 H     1 <1>   0.0800 
 47 H       10.3670     5.4110    -1.3950 H     1 <1>   0.0800 
 48 H       11.2760     4.2890     2.3090 H     1 <1>   0.0800 
 49 H       11.5280     5.1310     0.8040 H     1 <1>   0.0800 
 50 H       11.1410     3.4220     0.8030 H     1 <1>   0.0800 
@<TRIPOS>BOND
  1   1   2  ar  
  2   2   3  ar  
  3   2   4  1   
  4   4   5  1   
  5   4   6  1   
  6   4   7  1   
  7   5   8  1   
  8   5   9  1   
  9   5  25  1   
 10   6  10  1   
 11   6  26  1   
 12   6  27  1   
 13   7  11  1   
 14   7  28  1   
 15   7  29  1   
 16   8  30  1   
 17   9  12  1   
 18   9  31  1   
 19   9  32  1   
 20  10  12  1   
 21  10  33  1   
 22  10  34  1   
 23  11  13  1   
 24  11  35  1   
 25  11  36  1   
 26  12  14  am  
 27  13  37  1   
 28  13  38  1   
 29  13  39  1   
 30  14  15  2   
 31  14  16  1   
 32  16  17  1   
 33  16  40  1   
 34  16  41  1   
 35  17  18  ar  
 36  17  19  ar  
 37  18  20  ar  
 38  18  42  1   
 39  19  21  ar  
 40  19  43  1   
 41  20  22  ar  
 42  20  23  1   
 43  21  22  ar  
 44  21  44  1   
 45  22  24  1   
 46  23  45  1   
 47  23  46  1   
 48  23  47  1   
 49  24  48  1   
 50  24  49  1   
 51  24  50  1   
@<TRIPOS>SUBSTRUCTURE
  1 ****  10 GROUP 4 **** **** 0

# MOE 2024.06 (io_trps.svl 2023.06)
