@<TRIPOS>MOLECULE
NONAME
56 59 1 0 0 
SMALL
USER_CHARGES


@<TRIPOS>ATOM
  1 O       -1.1700    -3.4600    -0.4120 O.2   1 <1>  -0.5700 
  2 C        0.0260    -3.5650    -0.2800 C.2   1 <1>   0.5690 
  3 N        0.6820    -4.7650    -0.2900 N.am  1 <1>  -0.6600 
  4 C        0.8570    -2.3130    -0.0820 C.3   1 <1>  -0.0990 
  5 C        2.1520    -4.8200    -0.0880 C.3   1 <1>   0.1400 
  6 C       -0.0240    -6.0650    -0.4450 C.3   1 <1>   0.0600 
  7 C        2.1230    -2.3610    -0.9560 C.3   1 <1>  -0.0800 
  8 C        2.8480    -3.7280    -0.9220 C.3   1 <1>  -0.0800 
  9 C        3.1640    -1.2990    -0.5740 C.3   1 <1>  -0.1600 
 10 C        4.2740    -3.4360    -0.4390 C.3   1 <1>  -0.1600 
 11 C        4.5060    -1.9770    -0.8220 C.3   1 <1>   0.2200 
 12 N        5.6370    -1.3290    -0.0930 N.am  1 <1>  -0.6600 
 13 C        6.6400    -0.7050    -0.8080 C.2   1 <1>   0.5440 
 14 C        5.7080    -1.4720     1.3910 C.3   1 <1>   0.0600 
 15 O        6.4120    -0.3230    -1.9420 O.2   1 <1>  -0.5700 
 16 C        7.9590    -0.4800    -0.2520 C.ar  1 <1>   0.0860 
 17 C        8.8340    -1.5410     0.0420 C.ar  1 <1>   0.0000 
 18 C        8.3860     0.8260    -0.0190 C.ar  1 <1>  -0.1500 
 19 C        8.4630    -2.9250    -0.1820 C.ar  1 <1>   0.0000 
 20 C       10.1000    -1.2460     0.5450 C.ar  1 <1>  -0.1500 
 21 C        9.6390     1.0980     0.4940 C.ar  1 <1>  -0.1500 
 22 C        8.3680    -3.8660     0.8510 C.ar  1 <1>  -0.1440 
 23 C        8.1880    -3.3490    -1.4810 C.ar  1 <1>  -0.1500 
 24 C       10.5010     0.0550     0.7760 C.ar  1 <1>  -0.1500 
 25 C        8.0090    -5.1750     0.5690 C.ar  1 <1>  -0.1500 
 26 C        8.6580    -3.4990     2.3020 C.3   1 <1>  -0.0970 
 27 C        7.8280    -4.6530    -1.7560 C.ar  1 <1>  -0.1500 
 28 C        7.7380    -5.5710    -0.7280 C.ar  1 <1>  -0.1500 
 29 H        0.2700    -1.4480    -0.3320 H     1 <1>   0.0800 
 30 H        1.1170    -2.2550     0.9580 H     1 <1>   0.0800 
 31 H        2.3510    -4.6720     0.9600 H     1 <1>   0.0800 
 32 H        2.5320    -5.7870    -0.3700 H     1 <1>   0.0800 
 33 H        0.3430    -6.5750    -1.3180 H     1 <1>   0.0800 
 34 H       -1.0830    -5.9080    -0.5570 H     1 <1>   0.0800 
 35 H        0.1430    -6.6760     0.4240 H     1 <1>   0.0800 
 36 H        1.8220    -2.1870    -1.9770 H     1 <1>   0.0800 
 37 H        2.9120    -4.0850    -1.9360 H     1 <1>   0.0800 
 38 H        3.0640    -1.0390     0.4630 H     1 <1>   0.0800 
 39 H        3.0660    -0.4130    -1.1760 H     1 <1>   0.0800 
 40 H        4.9970    -4.0800    -0.9080 H     1 <1>   0.0800 
 41 H        4.3210    -3.5590     0.6260 H     1 <1>   0.0800 
 42 H        4.6960    -1.9520    -1.8830 H     1 <1>   0.0800 
 43 H        4.7440    -1.3010     1.8320 H     1 <1>   0.0800 
 44 H        6.3980    -0.7600     1.8070 H     1 <1>   0.0800 
 45 H        6.0390    -2.4640     1.6430 H     1 <1>   0.0800 
 46 H        7.7180     1.6360    -0.2550 H     1 <1>   0.1500 
 47 H       10.7790    -2.0540     0.7520 H     1 <1>   0.1500 
 48 H        9.9460     2.1150     0.6660 H     1 <1>   0.1500 
 49 H        8.2560    -2.6390    -2.2880 H     1 <1>   0.1500 
 50 H       11.4830     0.2580     1.1680 H     1 <1>   0.1500 
 51 H        7.9410    -5.9000     1.3610 H     1 <1>   0.1500 
 52 H        8.1410    -4.1630     2.9720 H     1 <1>   0.0800 
 53 H        8.3410    -2.4960     2.5180 H     1 <1>   0.0800 
 54 H        9.7130    -3.5770     2.4920 H     1 <1>   0.0800 
 55 H        7.6210    -4.9520    -2.7690 H     1 <1>   0.1500 
 56 H        7.4620    -6.5900    -0.9360 H     1 <1>   0.1500 
@<TRIPOS>BOND
  1   1   2  2   
  2   2   3  am  
  3   2   4  1   
  4   3   5  1   
  5   3   6  1   
  6   4   7  1   
  7   4  29  1   
  8   4  30  1   
  9   5   8  1   
 10   5  31  1   
 11   5  32  1   
 12   6  33  1   
 13   6  34  1   
 14   6  35  1   
 15   7   8  1   
 16   7   9  1   
 17   7  36  1   
 18   8  10  1   
 19   8  37  1   
 20   9  11  1   
 21   9  38  1   
 22   9  39  1   
 23  10  11  1   
 24  10  40  1   
 25  10  41  1   
 26  11  12  1   
 27  11  42  1   
 28  12  13  am  
 29  12  14  1   
 30  13  15  2   
 31  13  16  1   
 32  14  43  1   
 33  14  44  1   
 34  14  45  1   
 35  16  17  ar  
 36  16  18  ar  
 37  17  19  1   
 38  17  20  ar  
 39  18  21  ar  
 40  18  46  1   
 41  19  22  ar  
 42  19  23  ar  
 43  20  24  ar  
 44  20  47  1   
 45  21  24  ar  
 46  21  48  1   
 47  22  25  ar  
 48  22  26  1   
 49  23  27  ar  
 50  23  49  1   
 51  24  50  1   
 52  25  28  ar  
 53  25  51  1   
 54  26  52  1   
 55  26  53  1   
 56  26  54  1   
 57  27  28  ar  
 58  27  55  1   
 59  28  56  1   
@<TRIPOS>SUBSTRUCTURE
  1 ****  12 GROUP 4 **** **** 0

# MOE 2024.06 (io_trps.svl 2023.06)
