@<TRIPOS>MOLECULE
NONAME
30 30 1 0 0 
SMALL
USER_CHARGES


@<TRIPOS>ATOM
  1 O        0.0320     0.1700    -0.2630 O.3   1 <1>  -0.5600 
  2 C        1.2570    -0.4310     0.0160 C.3   1 <1>   0.4800 
  3 C       -0.2450     1.3520     0.4070 C.3   1 <1>   0.1200 
  4 O        2.2510     0.3980    -0.5020 O.3   1 <1>  -0.5600 
  5 C        1.2710    -1.7910    -0.6870 C.3   1 <1>  -0.0650 
  6 C       -1.7060     1.6940     0.1470 C.3   1 <1>  -0.2400 
  7 C        3.0130     1.0710     0.4450 C.3   1 <1>   0.1200 
  8 C        2.4530    -2.7250    -0.3730 C.3   1 <1>   0.0530 
  9 C        4.0200     1.9320    -0.3070 C.3   1 <1>  -0.2400 
 10 O        2.2100    -3.9710    -0.8960 O.3   1 <1>  -0.5480 
 11 C        3.8960    -2.3520    -0.3500 C.3   1 <1>  -0.2000 
 12 C        3.1930    -2.7350     0.9230 C.3   1 <1>  -0.2000 
 13 H        1.3630    -0.5430     1.0820 H     1 <1>   0.0800 
 14 H        0.3960     2.1260     0.0180 H     1 <1>   0.0800 
 15 H       -0.0690     1.2120     1.4600 H     1 <1>   0.0800 
 16 H        1.2230    -1.6190    -1.7460 H     1 <1>   0.0800 
 17 H        0.3740    -2.3000    -0.3860 H     1 <1>   0.0800 
 18 H       -1.8710     1.8190    -0.9090 H     1 <1>   0.0800 
 19 H       -1.9610     2.6120     0.6450 H     1 <1>   0.0800 
 20 H       -2.3410     0.9110     0.5190 H     1 <1>   0.0800 
 21 H        3.5200     0.3500     1.0640 H     1 <1>   0.0800 
 22 H        2.3710     1.6850     1.0520 H     1 <1>   0.0800 
 23 H        4.6530     1.3120    -0.9160 H     1 <1>   0.0800 
 24 H        4.6340     2.4720     0.3910 H     1 <1>   0.0800 
 25 H        3.5040     2.6390    -0.9310 H     1 <1>   0.0800 
 26 H        2.3580    -3.9550    -1.8600 H     1 <1>   0.4000 
 27 H        4.1800    -1.3270    -0.4990 H     1 <1>   0.1000 
 28 H        4.6170    -3.0360    -0.7620 H     1 <1>   0.1000 
 29 H        3.4010    -3.6910     1.3730 H     1 <1>   0.1000 
 30 H        3.0390    -1.9650     1.6540 H     1 <1>   0.1000 
@<TRIPOS>BOND
  1   1   2  1   
  2   1   3  1   
  3   2   4  1   
  4   2   5  1   
  5   2  13  1   
  6   3   6  1   
  7   3  14  1   
  8   3  15  1   
  9   4   7  1   
 10   5   8  1   
 11   5  16  1   
 12   5  17  1   
 13   6  18  1   
 14   6  19  1   
 15   6  20  1   
 16   7   9  1   
 17   7  21  1   
 18   7  22  1   
 19   8  10  1   
 20   8  11  1   
 21   8  12  1   
 22   9  23  1   
 23   9  24  1   
 24   9  25  1   
 25  10  26  1   
 26  11  12  1   
 27  11  27  1   
 28  11  28  1   
 29  12  29  1   
 30  12  30  1   
@<TRIPOS>SUBSTRUCTURE
  1 ****   2 GROUP 4 **** **** 0

# MOE 2024.06 (io_trps.svl 2023.06)
