@<TRIPOS>MOLECULE
NONAME
45 47 1 0 0 
SMALL
USER_CHARGES


@<TRIPOS>ATOM
  1 F       -0.5520    -0.2610    -0.4900 F     1 <1>  -0.1900 
  2 C       -1.7070    -0.8870    -0.5960 C.ar  1 <1>   0.1900 
  3 C       -2.8680    -0.3940    -0.0050 C.ar  1 <1>   0.4100 
  4 C       -1.7600    -2.0580    -1.2960 C.ar  1 <1>   0.1600 
  5 N       -3.9940    -1.0730    -0.1270 N.ar  1 <1>  -0.6200 
  6 N       -2.9310     0.7920     0.7250 N.pl3 1 <1>  -0.8380 
  7 N       -2.8840    -2.7350    -1.4250 N.ar  1 <1>  -0.6200 
  8 C       -3.9500    -2.2010    -0.8300 C.ar  1 <1>   0.7200 
  9 C       -2.2740     2.0350     0.2360 C.3   1 <1>   0.1290 
 10 C       -3.9650     0.9900     1.7770 C.3   1 <1>   0.1290 
 11 N       -5.1320    -2.8970    -0.9630 N.pl3 1 <1>  -0.8380 
 12 C       -5.1020    -4.3680    -1.3120 C.3   1 <1>   0.2700 
 13 C       -6.4150    -2.3650    -0.4180 C.3   1 <1>   0.2090 
 14 C       -6.4090    -5.1480    -1.0990 C.2   1 <1>   0.5690 
 15 C       -7.6220    -2.9890    -1.1280 C.3   1 <1>   0.1400 
 16 O       -6.3290    -6.3520    -1.0000 O.2   1 <1>  -0.5700 
 17 N       -7.6170    -4.4760    -1.0280 N.am  1 <1>  -0.4770 
 18 C       -8.8590    -5.1000    -0.8090 C.ar  1 <1>   0.1170 
 19 C       -9.0330    -5.9790     0.2530 C.ar  1 <1>  -0.1500 
 20 C       -9.9440    -4.8350    -1.6410 C.ar  1 <1>  -0.1500 
 21 C      -10.2650    -6.5780     0.4890 C.ar  1 <1>   0.0820 
 22 C      -11.1750    -5.4220    -1.4100 C.ar  1 <1>  -0.1500 
 23 O      -10.4950    -7.4500     1.5020 O.3   1 <1>  -0.3630 
 24 C      -11.3340    -6.2900    -0.3440 C.ar  1 <1>  -0.1500 
 25 C       -9.4260    -7.9720     2.2610 C.3   1 <1>   0.0400 
 26 H       -0.8700    -2.4490    -1.7550 H     1 <1>   0.1500 
 27 H       -1.9140     1.9020    -0.7690 H     1 <1>   0.0800 
 28 H       -1.4440     2.2800     0.8760 H     1 <1>   0.0800 
 29 H       -2.9760     2.8500     0.2400 H     1 <1>   0.0800 
 30 H       -4.2290     0.0440     2.2200 H     1 <1>   0.0800 
 31 H       -4.8450     1.4300     1.3430 H     1 <1>   0.0800 
 32 H       -3.5850     1.6350     2.5500 H     1 <1>   0.0800 
 33 H       -4.3390    -4.8480    -0.7250 H     1 <1>   0.0800 
 34 H       -4.8250    -4.4680    -2.3450 H     1 <1>   0.0800 
 35 H       -6.4550    -1.2970    -0.5520 H     1 <1>   0.0800 
 36 H       -6.4670    -2.5710     0.6370 H     1 <1>   0.0800 
 37 H       -7.6110    -2.7030    -2.1650 H     1 <1>   0.0800 
 38 H       -8.5220    -2.6030    -0.6810 H     1 <1>   0.0800 
 39 H       -8.1890    -6.1810     0.8830 H     1 <1>   0.1500 
 40 H       -9.8220    -4.1710    -2.4770 H     1 <1>   0.1500 
 41 H      -12.0080    -5.2100    -2.0570 H     1 <1>   0.1500 
 42 H      -12.2850    -6.7540    -0.1540 H     1 <1>   0.1500 
 43 H       -9.8240    -8.7060     2.9380 H     1 <1>   0.0800 
 44 H       -8.9690    -7.1720     2.8160 H     1 <1>   0.0800 
 45 H       -8.7180    -8.4320     1.5950 H     1 <1>   0.0800 
@<TRIPOS>BOND
  1   1   2  1   
  2   2   3  ar  
  3   2   4  ar  
  4   3   5  ar  
  5   3   6  1   
  6   4   7  ar  
  7   4  26  1   
  8   5   8  ar  
  9   6   9  1   
 10   6  10  1   
 11   7   8  ar  
 12   8  11  1   
 13   9  27  1   
 14   9  28  1   
 15   9  29  1   
 16  10  30  1   
 17  10  31  1   
 18  10  32  1   
 19  11  12  1   
 20  11  13  1   
 21  12  14  1   
 22  12  33  1   
 23  12  34  1   
 24  13  15  1   
 25  13  35  1   
 26  13  36  1   
 27  14  16  2   
 28  14  17  am  
 29  15  17  1   
 30  15  37  1   
 31  15  38  1   
 32  17  18  1   
 33  18  19  ar  
 34  18  20  ar  
 35  19  21  ar  
 36  19  39  1   
 37  20  22  ar  
 38  20  40  1   
 39  21  23  1   
 40  21  24  ar  
 41  22  24  ar  
 42  22  41  1   
 43  23  25  1   
 44  24  42  1   
 45  25  43  1   
 46  25  44  1   
 47  25  45  1   
@<TRIPOS>SUBSTRUCTURE
  1 ****  13 GROUP 4 **** **** 0

# MOE 2024.06 (io_trps.svl 2023.06)
