@<TRIPOS>MOLECULE
NONAME
49 51 1 0 0 
SMALL
USER_CHARGES


@<TRIPOS>ATOM
  1 O       -1.3520     0.1940     0.5810 O.2   1 <1>  -0.5700 
  2 C       -1.9890     0.9670    -0.1170 C.2   1 <1>   0.6160 
  3 N       -3.0580     0.4440    -0.8130 N.am  1 <1>  -0.6600 
  4 C       -1.6320     2.3820    -0.1560 C.2   1 <1>   0.1140 
  5 C       -3.0710    -1.0120    -1.1150 C.3   1 <1>   0.1400 
  6 C       -4.4160     1.0330    -0.6640 C.3   1 <1>   0.1400 
  7 N       -0.8430     2.8950     0.8680 N.pl3 1 <1>  -0.6000 
  8 C       -2.0080     3.2490    -1.1450 C.2   1 <1>  -0.1360 
  9 C       -3.7580    -1.7610     0.0500 C.3   1 <1>   0.4230 
 10 C       -5.1370     0.3070     0.4820 C.3   1 <1>  -0.1600 
 11 C       -0.4560     4.2080     0.9310 C.2   1 <1>  -0.0380 
 12 C       -1.6410     4.6150    -1.1270 C.2   1 <1>   0.5410 
 13 N       -3.6470    -3.2780    -0.0360 N.4   1 <1>  -0.9590 
 14 C       -5.2050    -1.2400     0.3070 C.3   1 <1>   0.0000 
 15 C       -0.8450     5.0660    -0.0460 C.2   1 <1>  -0.1360 
 16 C        0.4020     4.6140     2.1120 C.3   1 <1>  -0.1020 
 17 O       -2.0030     5.3800    -2.0150 O.2   1 <1>  -0.5700 
 18 C       -4.6280    -4.0110     0.8290 C.3   1 <1>   0.3430 
 19 C       -3.6540    -3.8550    -1.4200 C.3   1 <1>   0.2630 
 20 C       -5.7480    -1.8680     1.6260 C.3   1 <1>  -0.1600 
 21 C       -6.1280    -1.6070    -0.8900 C.3   1 <1>   0.1200 
 22 C       -5.0320    -3.1690     2.0370 C.3   1 <1>  -0.1600 
 23 O       -7.3690    -1.0030    -0.7870 O.3   1 <1>  -0.6800 
 24 H       -3.5830    -1.1680    -2.0470 H     1 <1>   0.0800 
 25 H       -2.0570    -1.3580    -1.2220 H     1 <1>   0.0800 
 26 H       -4.3510     2.0830    -0.4330 H     1 <1>   0.0800 
 27 H       -4.9650     0.9300    -1.5860 H     1 <1>   0.0800 
 28 H       -0.5150     2.2210     1.5760 H     1 <1>   0.4000 
 29 H       -2.5950     2.9320    -1.9840 H     1 <1>   0.1500 
 30 H       -3.1980    -1.4730     0.9250 H     1 <1>   0.0800 
 31 H       -4.6100     0.5470     1.3900 H     1 <1>   0.0800 
 32 H       -6.1250     0.7210     0.5860 H     1 <1>   0.0800 
 33 H       -2.7180    -3.4800     0.3640 H     1 <1>   0.4500 
 34 H       -0.5730     6.1040    -0.0500 H     1 <1>   0.1500 
 35 H        1.3170     4.0500     2.1130 H     1 <1>   0.0800 
 36 H       -0.1250     4.4280     3.0310 H     1 <1>   0.0800 
 37 H        0.6450     5.6600     2.0630 H     1 <1>   0.0800 
 38 H       -5.5160    -4.2390     0.2610 H     1 <1>   0.0800 
 39 H       -4.1990    -4.9440     1.1600 H     1 <1>   0.0800 
 40 H       -4.5880    -3.6450    -1.9140 H     1 <1>   0.0800 
 41 H       -3.5210    -4.9240    -1.3790 H     1 <1>   0.0800 
 42 H       -2.8510    -3.4390    -2.0080 H     1 <1>   0.0800 
 43 H       -5.6470    -1.1760     2.4450 H     1 <1>   0.0800 
 44 H       -6.8020    -2.0650     1.5350 H     1 <1>   0.0800 
 45 H       -6.2930    -2.6680    -0.9520 H     1 <1>   0.0800 
 46 H       -5.7100    -1.2740    -1.8230 H     1 <1>   0.0800 
 47 H       -5.6850    -3.7450     2.6700 H     1 <1>   0.0800 
 48 H       -4.1530    -2.9420     2.6180 H     1 <1>   0.0800 
 49 H       -7.8730    -1.3160    -0.0100 H     1 <1>   0.4000 
@<TRIPOS>BOND
  1   1   2  2   
  2   2   3  am  
  3   2   4  1   
  4   3   5  1   
  5   3   6  1   
  6   4   7  1   
  7   4   8  2   
  8   5   9  1   
  9   5  24  1   
 10   5  25  1   
 11   6  10  1   
 12   6  26  1   
 13   6  27  1   
 14   7  11  1   
 15   7  28  1   
 16   8  12  1   
 17   8  29  1   
 18   9  13  1   
 19   9  14  1   
 20   9  30  1   
 21  10  14  1   
 22  10  31  1   
 23  10  32  1   
 24  11  15  2   
 25  11  16  1   
 26  12  15  1   
 27  12  17  2   
 28  13  18  1   
 29  13  19  1   
 30  13  33  1   
 31  14  20  1   
 32  14  21  1   
 33  15  34  1   
 34  16  35  1   
 35  16  36  1   
 36  16  37  1   
 37  18  22  1   
 38  18  38  1   
 39  18  39  1   
 40  19  40  1   
 41  19  41  1   
 42  19  42  1   
 43  20  22  1   
 44  20  43  1   
 45  20  44  1   
 46  21  23  1   
 47  21  45  1   
 48  21  46  1   
 49  22  47  1   
 50  22  48  1   
 51  23  49  1   
@<TRIPOS>SUBSTRUCTURE
  1 ****   3 GROUP 4 **** **** 0

# MOE 2024.06 (io_trps.svl 2023.06)
