@<TRIPOS>MOLECULE
NONAME
44 46 1 0 0 
SMALL
USER_CHARGES


@<TRIPOS>ATOM
  1 O        0.1280     0.1710    -0.3820 O.2   1 <1>  -0.5700 
  2 C        1.1830    -0.3020    -0.0400 C.2   1 <1>   0.5690 
  3 N        2.0440     0.3910     0.7400 N.am  1 <1>  -0.7300 
  4 C        1.5150    -1.7200    -0.4900 C.3   1 <1>  -0.0190 
  5 C        1.8680     1.7980     1.1570 C.3   1 <1>   0.3210 
  6 C        0.5970    -2.6820     0.2820 C.3   1 <1>   0.0960 
  7 C        3.0100    -2.0900    -0.3450 C.3   1 <1>  -0.2400 
  8 C        3.2090     2.5120     1.1020 C.2   1 <1>   0.1080 
  9 N        0.7110    -4.0670    -0.2110 N.pl3 1 <1>   0.3140 
 10 N        4.3000     2.0380     1.5970 N.2   1 <1>  -0.4100 
 11 C        3.4360     3.7500     0.5170 C.2   1 <1>  -0.1500 
 12 N        1.3820    -5.0110     0.4330 N.2   1 <1>  -0.7070 
 13 C        0.1960    -4.5950    -1.3250 C.2   1 <1>   0.0360 
 14 O        5.2160     2.9280     1.3510 O.3   1 <1>  -0.0190 
 15 C        4.7550     3.9770     0.7060 C.2   1 <1>   0.0870 
 16 C        1.2260    -6.0370    -0.3370 C.2   1 <1>   0.3660 
 17 N        0.5000    -5.8370    -1.4440 N.2   1 <1>  -0.5650 
 18 C        5.6160     5.0790     0.3410 C.ar  1 <1>   0.0530 
 19 C        5.1180     6.1850    -0.3440 C.ar  1 <1>  -0.1500 
 20 C        6.9750     5.0800     0.6590 C.ar  1 <1>  -0.1500 
 21 C        5.9270     7.2490    -0.7000 C.ar  1 <1>   0.0820 
 22 C        7.7960     6.1370     0.3090 C.ar  1 <1>  -0.1500 
 23 O        5.3320     8.2710    -1.3640 O.3   1 <1>  -0.3620 
 24 C        7.2790     7.2240    -0.3700 C.ar  1 <1>  -0.1500 
 25 C        6.0640     9.4050    -1.7720 C.3   1 <1>   0.0400 
 26 H        2.9680     0.0150     0.9730 H     1 <1>   0.3700 
 27 H        1.2580    -1.7710    -1.5330 H     1 <1>   0.0800 
 28 H        1.4920     1.8230     2.1650 H     1 <1>   0.0800 
 29 H        1.1600     2.2890     0.5120 H     1 <1>   0.0800 
 30 H       -0.4280    -2.3750     0.1790 H     1 <1>   0.0800 
 31 H        0.8480    -2.6730     1.3270 H     1 <1>   0.0800 
 32 H        3.2980    -2.1290     0.6910 H     1 <1>   0.0800 
 33 H        3.6260    -1.3670    -0.8520 H     1 <1>   0.0800 
 34 H        3.2050    -3.0540    -0.7830 H     1 <1>   0.0800 
 35 H        2.7080     4.3700     0.0290 H     1 <1>   0.1500 
 36 H       -0.3960    -4.0320    -2.0230 H     1 <1>   0.1500 
 37 H        1.6460    -7.0070    -0.1220 H     1 <1>   0.1500 
 38 H        4.0800     6.2290    -0.6110 H     1 <1>   0.1500 
 39 H        7.3960     4.2430     1.1880 H     1 <1>   0.1500 
 40 H        8.8410     6.1120     0.5670 H     1 <1>   0.1500 
 41 H        7.9350     8.0320    -0.6310 H     1 <1>   0.1500 
 42 H        5.3890    10.0750    -2.2740 H     1 <1>   0.0800 
 43 H        6.8400     9.0940    -2.4490 H     1 <1>   0.0800 
 44 H        6.4770     9.8860    -0.9030 H     1 <1>   0.0800 
@<TRIPOS>BOND
  1   1   2  2   
  2   2   3  am  
  3   2   4  1   
  4   3   5  1   
  5   3  26  1   
  6   4   6  1   
  7   4   7  1   
  8   4  27  1   
  9   5   8  1   
 10   5  28  1   
 11   5  29  1   
 12   6   9  1   
 13   6  30  1   
 14   6  31  1   
 15   7  32  1   
 16   7  33  1   
 17   7  34  1   
 18   8  10  2   
 19   8  11  1   
 20   9  12  1   
 21   9  13  1   
 22  10  14  1   
 23  11  15  2   
 24  11  35  1   
 25  12  16  2   
 26  13  17  2   
 27  13  36  1   
 28  14  15  1   
 29  15  18  1   
 30  16  17  1   
 31  16  37  1   
 32  18  19  ar  
 33  18  20  ar  
 34  19  21  ar  
 35  19  38  1   
 36  20  22  ar  
 37  20  39  1   
 38  21  23  1   
 39  21  24  ar  
 40  22  24  ar  
 41  22  40  1   
 42  23  25  1   
 43  24  41  1   
 44  25  42  1   
 45  25  43  1   
 46  25  44  1   
@<TRIPOS>SUBSTRUCTURE
  1 ****   8 GROUP 4 **** **** 0

# MOE 2024.06 (io_trps.svl 2023.06)
