@<TRIPOS>MOLECULE
NONAME
56 60 1 0 0 
SMALL
USER_CHARGES


@<TRIPOS>ATOM
  1 O        1.0820    -4.9040     2.4590 O.2   1 <1>  -0.5700 
  2 C        0.7190    -4.4280     1.3890 C.2   1 <1>   0.5650 
  3 N       -0.6480    -4.3940     1.0180 N.pl3 1 <1>   0.5610 
  4 C        1.6610    -3.8860     0.4480 C.2   1 <1>  -0.1240 
  5 N       -1.7800    -4.8100     1.6330 N.2   1 <1>  -0.7070 
  6 C       -1.0200    -3.9120    -0.1920 C.2   1 <1>   0.2700 
  7 C        1.2490    -3.3970    -0.7570 C.2   1 <1>  -0.0380 
  8 C        3.1390    -3.8890     0.8440 C.3   1 <1>  -0.0220 
  9 C       -2.6910    -4.5770     0.7520 C.2   1 <1>   0.3350 
 10 N       -2.2850    -4.0040    -0.3930 N.2   1 <1>  -0.5650 
 11 N       -0.0890    -3.4010    -1.0780 N.pl3 1 <1>  -0.5840 
 12 C        2.1910    -2.8230    -1.8060 C.3   1 <1>  -0.0220 
 13 C        3.9930    -2.9760    -0.0460 C.3   1 <1>  -0.1600 
 14 C       -4.1450    -4.9490     0.9510 C.3   1 <1>   0.0820 
 15 C        3.6550    -3.1840    -1.5250 C.3   1 <1>  -0.1600 
 16 C       -4.2720    -6.4500     1.1180 C.2   1 <1>   0.5690 
 17 O       -4.7670    -6.8560     2.1440 O.2   1 <1>  -0.5700 
 18 N       -3.8430    -7.3140     0.1450 N.am  1 <1>  -0.6600 
 19 C       -3.5580    -8.7460     0.4610 C.3   1 <1>   0.3640 
 20 C       -3.5570    -6.9270    -1.2700 C.3   1 <1>   0.1400 
 21 C       -2.0270    -8.9240     0.5220 C.ar  1 <1>  -0.1430 
 22 C       -4.3240    -9.6550    -0.5470 C.3   1 <1>   0.2000 
 23 C       -3.5150    -8.1340    -2.2270 C.3   1 <1>   0.1200 
 24 C       -1.2970    -9.7740    -0.3050 C.ar  1 <1>  -0.1500 
 25 C       -1.3330    -8.1800     1.4690 C.ar  1 <1>  -0.1500 
 26 O       -4.4330    -9.1240    -1.8570 O.3   1 <1>  -0.5600 
 27 C       -5.7580    -9.9090    -0.0640 C.3   1 <1>   0.1200 
 28 C        0.0800    -9.8610    -0.1940 C.ar  1 <1>  -0.1500 
 29 C        0.0430    -8.2610     1.5800 C.ar  1 <1>  -0.1500 
 30 O       -5.7550   -10.8030     1.0030 O.3   1 <1>  -0.6800 
 31 C        0.7530    -9.1030     0.7460 C.ar  1 <1>  -0.1500 
 32 H        3.2460    -3.5690     1.8670 H     1 <1>   0.0800 
 33 H        3.5060    -4.8990     0.7800 H     1 <1>   0.0800 
 34 H       -0.4470    -3.0320    -1.9660 H     1 <1>   0.4000 
 35 H        1.9230    -3.1920    -2.7800 H     1 <1>   0.0800 
 36 H        2.0820    -1.7520    -1.8140 H     1 <1>   0.0800 
 37 H        3.8100    -1.9480     0.2190 H     1 <1>   0.0800 
 38 H        5.0350    -3.1810     0.1260 H     1 <1>   0.0800 
 39 H       -4.7350    -4.6240     0.1170 H     1 <1>   0.0800 
 40 H       -4.5070    -4.4610     1.8360 H     1 <1>   0.0800 
 41 H        3.8230    -4.2160    -1.7850 H     1 <1>   0.0800 
 42 H        4.3000    -2.5790    -2.1390 H     1 <1>   0.0800 
 43 H       -3.9210    -8.9810     1.4480 H     1 <1>   0.0800 
 44 H       -4.3140    -6.2420    -1.6110 H     1 <1>   0.0800 
 45 H       -2.6070    -6.4270    -1.3200 H     1 <1>   0.0800 
 46 H       -3.8390   -10.6080    -0.6310 H     1 <1>   0.0800 
 47 H       -2.5320    -8.5650    -2.2490 H     1 <1>   0.0800 
 48 H       -3.7560    -7.8170    -3.2260 H     1 <1>   0.0800 
 49 H       -1.7760   -10.3790    -1.0520 H     1 <1>   0.1500 
 50 H       -1.8660    -7.5210     2.1340 H     1 <1>   0.1500 
 51 H       -6.3550   -10.3340    -0.8520 H     1 <1>   0.0800 
 52 H       -6.2060    -8.9890     0.2730 H     1 <1>   0.0800 
 53 H        0.6310   -10.5210    -0.8410 H     1 <1>   0.1500 
 54 H        0.5540    -7.6660     2.3190 H     1 <1>   0.1500 
 55 H       -5.5840   -11.7140     0.6950 H     1 <1>   0.4000 
 56 H        1.8240    -9.1690     0.8330 H     1 <1>   0.1500 
@<TRIPOS>BOND
  1   1   2  2   
  2   2   3  1   
  3   2   4  1   
  4   3   5  1   
  5   3   6  1   
  6   4   7  2   
  7   4   8  1   
  8   5   9  2   
  9   6  10  2   
 10   6  11  1   
 11   7  11  1   
 12   7  12  1   
 13   8  13  1   
 14   8  32  1   
 15   8  33  1   
 16   9  10  1   
 17   9  14  1   
 18  11  34  1   
 19  12  15  1   
 20  12  35  1   
 21  12  36  1   
 22  13  15  1   
 23  13  37  1   
 24  13  38  1   
 25  14  16  1   
 26  14  39  1   
 27  14  40  1   
 28  15  41  1   
 29  15  42  1   
 30  16  17  2   
 31  16  18  am  
 32  18  19  1   
 33  18  20  1   
 34  19  21  1   
 35  19  22  1   
 36  19  43  1   
 37  20  23  1   
 38  20  44  1   
 39  20  45  1   
 40  21  24  ar  
 41  21  25  ar  
 42  22  26  1   
 43  22  27  1   
 44  22  46  1   
 45  23  26  1   
 46  23  47  1   
 47  23  48  1   
 48  24  28  ar  
 49  24  49  1   
 50  25  29  ar  
 51  25  50  1   
 52  27  30  1   
 53  27  51  1   
 54  27  52  1   
 55  28  31  ar  
 56  28  53  1   
 57  29  31  ar  
 58  29  54  1   
 59  30  55  1   
 60  31  56  1   
@<TRIPOS>SUBSTRUCTURE
  1 ****   5 GROUP 4 **** **** 0

# MOE 2024.06 (io_trps.svl 2023.06)
