@<TRIPOS>MOLECULE
NONAME
58 60 1 0 0 
SMALL
USER_CHARGES


@<TRIPOS>ATOM
  1 S        0.8150     0.1830     0.2660 S.o2  1 <1>   1.3330 
  2 O       -0.1800    -0.3140     1.1850 O.2   1 <1>  -0.6500 
  3 O        2.1320     0.5330     0.7510 O.2   1 <1>  -0.6500 
  4 N        0.9580    -0.8740    -1.0500 N.am  1 <1>  -0.8490 
  5 C        0.1690     1.6810    -0.4790 C.3   1 <1>  -0.0550 
  6 C        2.0870    -1.8010    -0.9050 C.3   1 <1>   0.1160 
  7 C       -0.2680    -1.6340    -1.3230 C.3   1 <1>   0.1160 
  8 C       -0.2280     2.7530     0.5610 C.3   1 <1>  -0.0800 
  9 C       -0.7090     4.0380    -0.1190 C.3   1 <1>   0.2000 
 10 C        0.9600     3.1970     1.4400 C.3   1 <1>   0.3430 
 11 O       -1.6200     4.6520     0.7320 O.3   1 <1>  -0.6800 
 12 C        0.5450     4.9100    -0.1570 C.3   1 <1>   0.3430 
 13 N        1.1770     4.6460     1.1650 N.4   1 <1>  -0.9590 
 14 C        2.5730     5.1320     1.3670 C.3   1 <1>   0.4230 
 15 C        2.5760     6.6640     1.3690 C.3   1 <1>  -0.1600 
 16 C        3.5460     4.5510     0.3300 C.3   1 <1>  -0.1600 
 17 C        3.9950     7.1880     1.5720 C.3   1 <1>   0.2090 
 18 C        4.9450     5.1160     0.5550 C.3   1 <1>   0.2090 
 19 N        4.8480     6.5910     0.5250 N.pl3 1 <1>  -0.8380 
 20 C        6.0180     7.2830     0.2290 C.ar  1 <1>   0.1000 
 21 C        6.0970     8.0350    -0.9350 C.ar  1 <1>  -0.1500 
 22 C        7.1170     7.2450     1.0780 C.ar  1 <1>  -0.1500 
 23 C        7.2470     8.7380    -1.2560 C.ar  1 <1>  -0.1440 
 24 C        8.2690     7.9430     0.7670 C.ar  1 <1>  -0.1500 
 25 C        8.3340     8.6890    -0.3980 C.ar  1 <1>  -0.1500 
 26 C        7.3280     9.5580    -2.5300 C.3   1 <1>  -0.0970 
 27 H        0.9040     2.0740    -1.1550 H     1 <1>   0.0800 
 28 H       -0.6990     1.4270    -1.0560 H     1 <1>   0.0800 
 29 H        2.1590    -2.4410    -1.7680 H     1 <1>   0.0800 
 30 H        1.9620    -2.4100    -0.0240 H     1 <1>   0.0800 
 31 H        3.0100    -1.2520    -0.8170 H     1 <1>   0.0800 
 32 H       -0.1470    -2.2240    -2.2170 H     1 <1>   0.0800 
 33 H       -1.0990    -0.9660    -1.4690 H     1 <1>   0.0800 
 34 H       -0.4960    -2.2920    -0.5000 H     1 <1>   0.0800 
 35 H       -1.0020     2.3360     1.1850 H     1 <1>   0.0800 
 36 H       -1.1640     3.9010    -1.0860 H     1 <1>   0.0800 
 37 H        1.8470     2.6440     1.1890 H     1 <1>   0.0800 
 38 H        0.7400     3.0400     2.4840 H     1 <1>   0.0800 
 39 H       -2.5010     4.2200     0.6920 H     1 <1>   0.4000 
 40 H        0.2950     5.9500    -0.2890 H     1 <1>   0.0800 
 41 H        1.1910     4.5850    -0.9540 H     1 <1>   0.0800 
 42 H        0.5660     5.1450     1.8300 H     1 <1>   0.4500 
 43 H        2.9070     4.8090     2.3410 H     1 <1>   0.0800 
 44 H        2.2160     7.0500     0.4330 H     1 <1>   0.0800 
 45 H        1.9550     7.0370     2.1630 H     1 <1>   0.0800 
 46 H        3.5980     3.4810     0.4100 H     1 <1>   0.0800 
 47 H        3.2510     4.8140    -0.6690 H     1 <1>   0.0800 
 48 H        4.3720     6.9200     2.5450 H     1 <1>   0.0800 
 49 H        4.0120     8.2620     1.4830 H     1 <1>   0.0800 
 50 H        5.6120     4.7840    -0.2250 H     1 <1>   0.0800 
 51 H        5.3420     4.7960     1.5040 H     1 <1>   0.0800 
 52 H        5.2430     8.0590    -1.5840 H     1 <1>   0.1500 
 53 H        7.0680     6.6700     1.9820 H     1 <1>   0.1500 
 54 H        9.1160     7.9080     1.4290 H     1 <1>   0.1500 
 55 H        9.2330     9.2300    -0.6350 H     1 <1>   0.1500 
 56 H        8.1750     9.2450    -3.1140 H     1 <1>   0.0800 
 57 H        7.4370    10.6000    -2.2870 H     1 <1>   0.0800 
 58 H        6.4390     9.4350    -3.1230 H     1 <1>   0.0800 
@<TRIPOS>BOND
  1   1   2  2   
  2   1   3  2   
  3   1   4  am  
  4   1   5  1   
  5   4   6  1   
  6   4   7  1   
  7   5   8  1   
  8   5  27  1   
  9   5  28  1   
 10   6  29  1   
 11   6  30  1   
 12   6  31  1   
 13   7  32  1   
 14   7  33  1   
 15   7  34  1   
 16   8   9  1   
 17   8  10  1   
 18   8  35  1   
 19   9  11  1   
 20   9  12  1   
 21   9  36  1   
 22  10  13  1   
 23  10  37  1   
 24  10  38  1   
 25  11  39  1   
 26  12  13  1   
 27  12  40  1   
 28  12  41  1   
 29  13  14  1   
 30  13  42  1   
 31  14  15  1   
 32  14  16  1   
 33  14  43  1   
 34  15  17  1   
 35  15  44  1   
 36  15  45  1   
 37  16  18  1   
 38  16  46  1   
 39  16  47  1   
 40  17  19  1   
 41  17  48  1   
 42  17  49  1   
 43  18  19  1   
 44  18  50  1   
 45  18  51  1   
 46  19  20  1   
 47  20  21  ar  
 48  20  22  ar  
 49  21  23  ar  
 50  21  52  1   
 51  22  24  ar  
 52  22  53  1   
 53  23  25  ar  
 54  23  26  1   
 55  24  25  ar  
 56  24  54  1   
 57  25  55  1   
 58  26  56  1   
 59  26  57  1   
 60  26  58  1   
@<TRIPOS>SUBSTRUCTURE
  1 ****  16 GROUP 4 **** **** 0

# MOE 2024.06 (io_trps.svl 2023.06)
