@<TRIPOS>MOLECULE
NONAME
51 54 1 0 0 
SMALL
USER_CHARGES


@<TRIPOS>ATOM
  1 S        0.2440     0.2550     0.4130 S.3   1 <1>  -0.0800 
  2 C        0.4990     1.6240    -0.6260 C.2   1 <1>   0.4620 
  3 C       -1.4070     0.2320    -0.1250 C.2   1 <1>   0.1980 
  4 N       -0.5750     1.9520    -1.2550 N.2   1 <1>  -0.3380 
  5 N        1.7410     2.2190    -0.6910 N.pl3 1 <1>  -0.8220 
  6 N       -1.6510     1.1600    -0.9680 N.2   1 <1>  -0.3380 
  7 C       -2.3170    -0.8530     0.4580 C.3   1 <1>   1.2000 
  8 C        1.9260     3.4750    -1.4870 C.3   1 <1>   0.2090 
  9 C        2.9300     1.7450     0.0850 C.3   1 <1>   0.2090 
 10 F       -2.4110    -0.7760     1.7830 F     1 <1>  -0.3400 
 11 F       -3.5640    -0.8040    -0.0010 F     1 <1>  -0.3400 
 12 F       -1.8760    -2.0790     0.1930 F     1 <1>  -0.3400 
 13 C        2.9710     4.4140    -0.8540 C.3   1 <1>   0.2090 
 14 C        4.2640     2.2580    -0.4990 C.3   1 <1>   0.2090 
 15 N        4.3130     3.7570    -0.6400 N.pl3 1 <1>  -0.8380 
 16 C        5.4410     4.5040    -0.5000 C.ar  1 <1>   0.4100 
 17 N        5.2920     5.7880    -0.2360 N.ar  1 <1>  -0.6200 
 18 C        6.7240     3.9350    -0.6360 C.ar  1 <1>  -0.1500 
 19 C        6.3750     6.5310    -0.0730 C.ar  1 <1>   0.7710 
 20 C        7.8210     4.7140    -0.4740 C.ar  1 <1>   0.2170 
 21 N        7.6110     6.0190    -0.1870 N.ar  1 <1>  -0.1790 
 22 N        6.2370     7.8480     0.2160 N.pl3 1 <1>  -0.8380 
 23 C        9.2500     4.2020    -0.6030 C.3   1 <1>  -0.0170 
 24 C        4.8920     8.4800     0.3350 C.3   1 <1>   0.2090 
 25 C        7.2960     8.8550     0.4990 C.3   1 <1>   0.2090 
 26 C       10.0320     4.3260     0.7120 C.3   1 <1>  -0.2400 
 27 C        5.1620     9.9720     0.4720 C.3   1 <1>  -0.1600 
 28 C        6.5570    10.0540     1.0770 C.3   1 <1>  -0.1600 
 29 H        0.9900     4.0010    -1.5640 H     1 <1>   0.0800 
 30 H        2.2410     3.2180    -2.4830 H     1 <1>   0.0800 
 31 H        2.9530     0.6700     0.0920 H     1 <1>   0.0800 
 32 H        2.8430     2.0850     1.1030 H     1 <1>   0.0800 
 33 H        2.5950     4.7590     0.0930 H     1 <1>   0.0800 
 34 H        3.0880     5.2720    -1.4930 H     1 <1>   0.0800 
 35 H        4.4060     1.8110    -1.4680 H     1 <1>   0.0800 
 36 H        5.0580     1.9260     0.1440 H     1 <1>   0.0800 
 37 H        6.8100     2.8940    -0.8780 H     1 <1>   0.1500 
 38 H        8.3700     6.6720    -0.0490 H     1 <1>   0.4570 
 39 H        9.7600     4.7450    -1.3810 H     1 <1>   0.0800 
 40 H        9.2340     3.1660    -0.8970 H     1 <1>   0.0800 
 41 H        4.3990     8.1060     1.2180 H     1 <1>   0.0800 
 42 H        4.2820     8.2720    -0.5300 H     1 <1>   0.0800 
 43 H        7.7780     9.1390    -0.4220 H     1 <1>   0.0800 
 44 H        8.0230     8.4860     1.2040 H     1 <1>   0.0800 
 45 H       10.1460     5.3530     1.0110 H     1 <1>   0.0800 
 46 H       11.0150     3.9040     0.5920 H     1 <1>   0.0800 
 47 H        9.5320     3.7870     1.5000 H     1 <1>   0.0800 
 48 H        4.4200    10.4560     1.0830 H     1 <1>   0.0800 
 49 H        5.1550    10.4210    -0.5060 H     1 <1>   0.0800 
 50 H        7.0500    10.9820     0.8420 H     1 <1>   0.0800 
 51 H        6.4980     9.9520     2.1470 H     1 <1>   0.0800 
@<TRIPOS>BOND
  1   1   2  1   
  2   1   3  1   
  3   2   4  2   
  4   2   5  1   
  5   3   6  2   
  6   3   7  1   
  7   4   6  1   
  8   5   8  1   
  9   5   9  1   
 10   7  10  1   
 11   7  11  1   
 12   7  12  1   
 13   8  13  1   
 14   8  29  1   
 15   8  30  1   
 16   9  14  1   
 17   9  31  1   
 18   9  32  1   
 19  13  15  1   
 20  13  33  1   
 21  13  34  1   
 22  14  15  1   
 23  14  35  1   
 24  14  36  1   
 25  15  16  1   
 26  16  17  ar  
 27  16  18  ar  
 28  17  19  ar  
 29  18  20  ar  
 30  18  37  1   
 31  19  21  ar  
 32  19  22  1   
 33  20  21  ar  
 34  20  23  1   
 35  21  38  1   
 36  22  24  1   
 37  22  25  1   
 38  23  26  1   
 39  23  39  1   
 40  23  40  1   
 41  24  27  1   
 42  24  41  1   
 43  24  42  1   
 44  25  28  1   
 45  25  43  1   
 46  25  44  1   
 47  26  45  1   
 48  26  46  1   
 49  26  47  1   
 50  27  28  1   
 51  27  48  1   
 52  27  49  1   
 53  28  50  1   
 54  28  51  1   
@<TRIPOS>SUBSTRUCTURE
  1 ****  13 GROUP 4 **** **** 0

# MOE 2024.06 (io_trps.svl 2023.06)
