@<TRIPOS>MOLECULE
NONAME
58 61 1 0 0 
SMALL
USER_CHARGES


@<TRIPOS>ATOM
  1 O       -1.4620     0.2370    -1.6030 O.2   1 <1>  -0.5700 
  2 C       -1.5500     0.5660    -0.4330 C.2   1 <1>   0.7160 
  3 N       -1.6010    -0.4080     0.5450 N.am  1 <1>  -0.6600 
  4 C       -1.5980     1.9510    -0.0980 C.2   1 <1>  -0.0860 
  5 C       -1.6510    -1.8660     0.2030 C.3   1 <1>   0.1400 
  6 C       -1.6170    -0.0590     1.9940 C.3   1 <1>   0.0600 
  7 C       -2.7610     2.6900     0.1250 C.2   1 <1>   0.3720 
  8 C       -0.6000     2.8410     0.1340 C.2   1 <1>   0.0870 
  9 C       -3.0820    -2.4610     0.2130 C.3   1 <1>   0.0000 
 10 N       -2.4780     3.8960     0.4770 N.2   1 <1>  -0.4100 
 11 N       -4.0640     2.1910    -0.0070 N.pl3 1 <1>  -0.8210 
 12 O       -1.1730     3.9690     0.4720 O.3   1 <1>  -0.0190 
 13 C        0.8360     2.7260     0.0950 C.ar  1 <1>   0.0530 
 14 C       -3.0280    -3.9320    -0.2400 C.3   1 <1>  -0.1600 
 15 C       -3.6610    -2.5610     1.6380 C.3   1 <1>  -0.1600 
 16 C       -3.9850    -1.6030    -0.7130 C.3   1 <1>   0.1200 
 17 C       -4.4910     1.9070    -1.4160 C.3   1 <1>   0.2090 
 18 C       -5.1410     2.9190     0.7400 C.3   1 <1>   0.2090 
 19 C        1.4820     1.8420    -0.7710 C.ar  1 <1>  -0.1500 
 20 C        1.6370     3.5020     0.9340 C.ar  1 <1>  -0.1500 
 21 C       -4.1510    -4.6750     0.4910 C.3   1 <1>  -0.1600 
 22 C       -4.5590    -3.8000     1.6790 C.3   1 <1>  -0.1600 
 23 O       -5.2420    -2.1610    -0.8860 O.3   1 <1>  -0.6800 
 24 C       -5.0650     3.1620    -2.1010 C.3   1 <1>   0.1200 
 25 C       -5.6960     4.1140    -0.0610 C.3   1 <1>   0.1200 
 26 C        2.8590     1.7280    -0.7890 C.ar  1 <1>  -0.1500 
 27 C        3.0150     3.3940     0.9190 C.ar  1 <1>  -0.1500 
 28 O       -6.1020     3.7160    -1.3400 O.3   1 <1>  -0.5600 
 29 C        3.6300     2.5040     0.0580 C.ar  1 <1>  -0.1500 
 30 H       -1.0240    -2.4080     0.8890 H     1 <1>   0.0800 
 31 H       -1.2290    -2.0120    -0.7780 H     1 <1>   0.0800 
 32 H       -0.9750     0.7830     2.1860 H     1 <1>   0.0800 
 33 H       -1.2680    -0.8880     2.5850 H     1 <1>   0.0800 
 34 H       -2.6200     0.1930     2.2930 H     1 <1>   0.0800 
 35 H       -2.0910    -4.3710     0.0570 H     1 <1>   0.0800 
 36 H       -3.1210    -4.0270    -1.3090 H     1 <1>   0.0800 
 37 H       -4.1960    -1.6710     1.9220 H     1 <1>   0.0800 
 38 H       -2.8600    -2.7130     2.3400 H     1 <1>   0.0800 
 39 H       -3.5410    -1.4930    -1.6870 H     1 <1>   0.0800 
 40 H       -4.1240    -0.6270    -0.2840 H     1 <1>   0.0800 
 41 H       -5.2430     1.1370    -1.4110 H     1 <1>   0.0800 
 42 H       -3.6590     1.5450    -1.9930 H     1 <1>   0.0800 
 43 H       -4.7570     3.2680     1.6830 H     1 <1>   0.0800 
 44 H       -5.9450     2.2350     0.9480 H     1 <1>   0.0800 
 45 H        0.9040     1.2380    -1.4470 H     1 <1>   0.1500 
 46 H        1.1730     4.1990     1.6090 H     1 <1>   0.1500 
 47 H       -3.8150    -5.6440     0.8190 H     1 <1>   0.0800 
 48 H       -4.9910    -4.8140    -0.1690 H     1 <1>   0.0800 
 49 H       -5.5940    -3.5170     1.5900 H     1 <1>   0.0800 
 50 H       -4.4330    -4.3280     2.6090 H     1 <1>   0.0800 
 51 H       -5.4780    -2.6520    -0.0740 H     1 <1>   0.4000 
 52 H       -5.4660     2.9060    -3.0650 H     1 <1>   0.0800 
 53 H       -4.2960     3.9040    -2.2300 H     1 <1>   0.0800 
 54 H       -4.9480     4.8820    -0.1600 H     1 <1>   0.0800 
 55 H       -6.5510     4.5290     0.4410 H     1 <1>   0.0800 
 56 H        3.3330     1.0370    -1.4650 H     1 <1>   0.1500 
 57 H        3.6110     4.0020     1.5780 H     1 <1>   0.1500 
 58 H        4.7030     2.4160     0.0450 H     1 <1>   0.1500 
@<TRIPOS>BOND
  1   1   2  2   
  2   2   3  am  
  3   2   4  1   
  4   3   5  1   
  5   3   6  1   
  6   4   7  1   
  7   4   8  2   
  8   5   9  1   
  9   5  30  1   
 10   5  31  1   
 11   6  32  1   
 12   6  33  1   
 13   6  34  1   
 14   7  10  2   
 15   7  11  1   
 16   8  12  1   
 17   8  13  1   
 18   9  14  1   
 19   9  15  1   
 20   9  16  1   
 21  10  12  1   
 22  11  17  1   
 23  11  18  1   
 24  13  19  ar  
 25  13  20  ar  
 26  14  21  1   
 27  14  35  1   
 28  14  36  1   
 29  15  22  1   
 30  15  37  1   
 31  15  38  1   
 32  16  23  1   
 33  16  39  1   
 34  16  40  1   
 35  17  24  1   
 36  17  41  1   
 37  17  42  1   
 38  18  25  1   
 39  18  43  1   
 40  18  44  1   
 41  19  26  ar  
 42  19  45  1   
 43  20  27  ar  
 44  20  46  1   
 45  21  22  1   
 46  21  47  1   
 47  21  48  1   
 48  22  49  1   
 49  22  50  1   
 50  23  51  1   
 51  24  28  1   
 52  24  52  1   
 53  24  53  1   
 54  25  28  1   
 55  25  54  1   
 56  25  55  1   
 57  26  29  ar  
 58  26  56  1   
 59  27  29  ar  
 60  27  57  1   
 61  29  58  1   
@<TRIPOS>SUBSTRUCTURE
  1 ****   2 GROUP 4 **** **** 0

# MOE 2024.06 (io_trps.svl 2023.06)
