@<TRIPOS>MOLECULE
NONAME
44 46 1 0 0 
SMALL
USER_CHARGES


@<TRIPOS>ATOM
  1 O        0.0430    -2.0440     2.0500 O.co2 1 <1>  -0.9000 
  2 C       -1.1200    -2.4810     1.9120 C.2   1 <1>   0.9790 
  3 O       -1.8790    -2.3930     2.8980 O.co2 1 <1>  -0.9000 
  4 C       -1.5440    -3.0380     0.6200 C.ar  1 <1>   0.1310 
  5 N       -2.6470    -3.8070     0.4810 N.ar  1 <1>  -0.6200 
  6 C       -0.7420    -2.7310    -0.4840 C.ar  1 <1>   0.1600 
  7 C       -2.8740    -4.2070    -0.7560 C.ar  1 <1>   0.4100 
  8 N       -0.9520    -3.1250    -1.7360 N.ar  1 <1>  -0.6200 
  9 N       -3.9930    -4.9980    -0.9520 N.pl3 1 <1>  -0.8380 
 10 C       -2.0380    -3.8650    -1.8250 C.ar  1 <1>   0.1600 
 11 C       -3.8770    -6.3780    -0.3880 C.3   1 <1>   0.2090 
 12 C       -5.2830    -4.3790    -0.5170 C.3   1 <1>   0.2090 
 13 C       -5.1260    -7.2240    -0.7080 C.3   1 <1>   0.3440 
 14 C       -6.4900    -5.2950    -0.8340 C.3   1 <1>   0.2000 
 15 O       -6.2910    -6.5690    -0.2750 O.3   1 <1>  -0.5600 
 16 C       -5.0480    -8.5920    -0.0380 C.ar  1 <1>  -0.1430 
 17 C       -7.8330    -4.7430    -0.3000 C.3   1 <1>  -0.0800 
 18 C       -5.2930    -8.7300     1.3210 C.ar  1 <1>  -0.1500 
 19 C       -4.7170    -9.7160    -0.7810 C.ar  1 <1>  -0.1500 
 20 C       -8.9990    -5.7020    -0.5970 C.3   1 <1>  -0.2400 
 21 C       -8.1720    -3.3620    -0.8880 C.3   1 <1>  -0.2400 
 22 C       -5.2050    -9.9700     1.9290 C.ar  1 <1>  -0.1500 
 23 C       -4.6290   -10.9580    -0.1750 C.ar  1 <1>  -0.1500 
 24 C       -4.8720   -11.0850     1.1810 C.ar  1 <1>  -0.1500 
 25 H        0.1290    -2.1190    -0.3170 H     1 <1>   0.1500 
 26 H       -2.3100    -4.2390    -2.7920 H     1 <1>   0.1500 
 27 H       -3.0070    -6.8590    -0.7960 H     1 <1>   0.0800 
 28 H       -3.7520    -6.3200     0.6800 H     1 <1>   0.0800 
 29 H       -5.2530    -4.1840     0.5420 H     1 <1>   0.0800 
 30 H       -5.3950    -3.4360    -1.0220 H     1 <1>   0.0800 
 31 H       -5.2020    -7.3510    -1.7740 H     1 <1>   0.0800 
 32 H       -6.5630    -5.4140    -1.9010 H     1 <1>   0.0800 
 33 H       -7.7460    -4.6370     0.7690 H     1 <1>   0.0800 
 34 H       -5.5570    -7.8650     1.9070 H     1 <1>   0.1500 
 35 H       -4.5260    -9.6340    -1.8370 H     1 <1>   0.1500 
 36 H       -9.1020    -5.8570    -1.6560 H     1 <1>   0.0800 
 37 H       -9.9220    -5.3060    -0.2120 H     1 <1>   0.0800 
 38 H       -8.8290    -6.6560    -0.1290 H     1 <1>   0.0800 
 39 H       -8.1990    -3.4050    -1.9630 H     1 <1>   0.0800 
 40 H       -7.4510    -2.6250    -0.5860 H     1 <1>   0.0800 
 41 H       -9.1350    -3.0360    -0.5370 H     1 <1>   0.0800 
 42 H       -5.3980   -10.0650     2.9840 H     1 <1>   0.1500 
 43 H       -4.3720   -11.8250    -0.7570 H     1 <1>   0.1500 
 44 H       -4.8030   -12.0490     1.6540 H     1 <1>   0.1500 
@<TRIPOS>BOND
  1   1   2  ar  
  2   2   3  ar  
  3   2   4  1   
  4   4   5  ar  
  5   4   6  ar  
  6   5   7  ar  
  7   6   8  ar  
  8   6  25  1   
  9   7   9  1   
 10   7  10  ar  
 11   8  10  ar  
 12   9  11  1   
 13   9  12  1   
 14  10  26  1   
 15  11  13  1   
 16  11  27  1   
 17  11  28  1   
 18  12  14  1   
 19  12  29  1   
 20  12  30  1   
 21  13  15  1   
 22  13  16  1   
 23  13  31  1   
 24  14  15  1   
 25  14  17  1   
 26  14  32  1   
 27  16  18  ar  
 28  16  19  ar  
 29  17  20  1   
 30  17  21  1   
 31  17  33  1   
 32  18  22  ar  
 33  18  34  1   
 34  19  23  ar  
 35  19  35  1   
 36  20  36  1   
 37  20  37  1   
 38  20  38  1   
 39  21  39  1   
 40  21  40  1   
 41  21  41  1   
 42  22  24  ar  
 43  22  42  1   
 44  23  24  ar  
 45  23  43  1   
 46  24  44  1   
@<TRIPOS>SUBSTRUCTURE
  1 ****  11 GROUP 4 **** **** 0

# MOE 2024.06 (io_trps.svl 2023.06)
