@<TRIPOS>MOLECULE
NONAME
50 53 1 0 0 
SMALL
USER_CHARGES


@<TRIPOS>ATOM
  1 S        0.7300    -1.0720     1.3140 S.o2  1 <1>   1.5000 
  2 O        1.4860    -2.2840     1.5440 O.2   1 <1>  -0.6500 
  3 O       -0.3250    -0.7400     2.2460 O.2   1 <1>  -0.6500 
  4 N        0.0310    -1.2140    -0.2300 N.am  1 <1>  -0.8490 
  5 C        1.9100     0.3140     1.1540 C.2   1 <1>   0.0780 
  6 C       -0.9700    -0.1680    -0.5500 C.3   1 <1>   0.1960 
  7 C       -0.5510    -2.5440    -0.4910 C.3   1 <1>   0.1960 
  8 O        1.4960     1.5390     0.8550 O.3   1 <1>  -0.2800 
  9 C        3.2570     0.3330     1.2900 C.2   1 <1>  -0.1500 
 10 C       -2.3840    -0.4360     0.0280 C.3   1 <1>   0.2950 
 11 C       -1.9360    -2.7330     0.1750 C.3   1 <1>   0.2000 
 12 C        2.5360     2.3580     0.7890 C.2   1 <1>   0.1400 
 13 C        3.6620     1.6480     1.0570 C.2   1 <1>  -0.1500 
 14 O       -2.8020    -1.7350    -0.2790 O.3   1 <1>  -0.5600 
 15 C       -3.4170     0.5280    -0.5660 C.3   1 <1>  -0.1950 
 16 C       -2.5940    -4.0750    -0.1690 C.3   1 <1>  -0.1600 
 17 C        2.3460     3.7460     0.4700 C.2   1 <1>   0.1400 
 18 C       -3.6190     1.8920     0.0180 C.3   1 <1>  -0.2000 
 19 C       -4.6880     0.8440     0.1570 C.3   1 <1>  -0.2000 
 20 C       -1.8370    -5.2810     0.4120 C.3   1 <1>  -0.1600 
 21 O        1.1510     4.2320     0.2110 O.3   1 <1>  -0.0190 
 22 C        3.2080     4.7800     0.3600 C.2   1 <1>  -0.1500 
 23 C       -2.5880    -6.5870     0.1290 C.3   1 <1>  -0.1600 
 24 N        1.1720     5.5060    -0.0600 N.2   1 <1>  -0.4100 
 25 C        2.4050     5.8600     0.0240 C.2   1 <1>   0.1390 
 26 C       -1.8350    -7.7900     0.7040 C.3   1 <1>  -0.2400 
 27 H       -0.6320     0.7940    -0.2110 H     1 <1>   0.0800 
 28 H       -1.0600    -0.1070    -1.6210 H     1 <1>   0.0800 
 29 H       -0.6700    -2.6670    -1.5540 H     1 <1>   0.0800 
 30 H        0.1260    -3.3130    -0.1620 H     1 <1>   0.0800 
 31 H        3.9040    -0.4940     1.5290 H     1 <1>   0.1500 
 32 H       -2.3870    -0.3290     1.0980 H     1 <1>   0.0800 
 33 H       -1.8530    -2.6470     1.2450 H     1 <1>   0.0800 
 34 H        4.6770     2.0030     1.0880 H     1 <1>   0.1500 
 35 H       -3.4740     0.4450    -1.6380 H     1 <1>   0.1000 
 36 H       -3.5920    -4.0690     0.2350 H     1 <1>   0.0800 
 37 H       -2.6660    -4.1730    -1.2380 H     1 <1>   0.0800 
 38 H       -3.0710     2.1790     0.8990 H     1 <1>   0.1000 
 39 H       -3.7920     2.7210    -0.6470 H     1 <1>   0.1000 
 40 H       -5.5930     0.9390    -0.4190 H     1 <1>   0.1000 
 41 H       -4.8580     0.3930     1.1190 H     1 <1>   0.1000 
 42 H       -0.8540    -5.3450    -0.0200 H     1 <1>   0.0800 
 43 H       -1.7280    -5.1570     1.4760 H     1 <1>   0.0800 
 44 H        4.2730     4.7920     0.4950 H     1 <1>   0.1500 
 45 H       -3.5700    -6.5430     0.5690 H     1 <1>   0.0800 
 46 H       -2.7040    -6.7170    -0.9330 H     1 <1>   0.0800 
 47 H        2.7540     6.8640    -0.1460 H     1 <1>   0.1500 
 48 H       -1.7270    -7.6920     1.7700 H     1 <1>   0.0800 
 49 H       -0.8570    -7.8700     0.2620 H     1 <1>   0.0800 
 50 H       -2.3780    -8.6960     0.4980 H     1 <1>   0.0800 
@<TRIPOS>BOND
  1   1   2  2   
  2   1   3  2   
  3   1   4  am  
  4   1   5  1   
  5   4   6  1   
  6   4   7  1   
  7   5   8  1   
  8   5   9  2   
  9   6  10  1   
 10   6  27  1   
 11   6  28  1   
 12   7  11  1   
 13   7  29  1   
 14   7  30  1   
 15   8  12  1   
 16   9  13  1   
 17   9  31  1   
 18  10  14  1   
 19  10  15  1   
 20  10  32  1   
 21  11  14  1   
 22  11  16  1   
 23  11  33  1   
 24  12  13  2   
 25  12  17  1   
 26  13  34  1   
 27  15  18  1   
 28  15  19  1   
 29  15  35  1   
 30  16  20  1   
 31  16  36  1   
 32  16  37  1   
 33  17  21  1   
 34  17  22  2   
 35  18  19  1   
 36  18  38  1   
 37  18  39  1   
 38  19  40  1   
 39  19  41  1   
 40  20  23  1   
 41  20  42  1   
 42  20  43  1   
 43  21  24  1   
 44  22  25  1   
 45  22  44  1   
 46  23  26  1   
 47  23  45  1   
 48  23  46  1   
 49  24  25  2   
 50  25  47  1   
 51  26  48  1   
 52  26  49  1   
 53  26  50  1   
@<TRIPOS>SUBSTRUCTURE
  1 ****   6 GROUP 4 **** **** 0

# MOE 2024.06 (io_trps.svl 2023.06)
