@<TRIPOS>MOLECULE
NONAME
46 48 1 0 0 
SMALL
USER_CHARGES


@<TRIPOS>ATOM
  1 F       -1.3820    -0.9340     2.7050 F     1 <1>  -0.1900 
  2 C       -1.8680    -1.3390     1.5610 C.ar  1 <1>   0.1900 
  3 C       -2.0200    -0.4470     0.5130 C.ar  1 <1>   0.1900 
  4 C       -2.2260    -2.6640     1.4220 C.ar  1 <1>  -0.1500 
  5 F       -1.6830     0.8070     0.6510 F     1 <1>  -0.1900 
  6 C       -2.5320    -0.8730    -0.6980 C.ar  1 <1>  -0.1500 
  7 C       -2.7570    -3.1240     0.2140 C.ar  1 <1>   0.0860 
  8 C       -2.8910    -2.2050    -0.8370 C.ar  1 <1>  -0.1500 
  9 C       -3.1500    -4.5140     0.0600 C.2   1 <1>   0.5440 
 10 O       -2.5460    -5.3940     0.6460 O.2   1 <1>  -0.5700 
 11 N       -4.2320    -4.8920    -0.7050 N.am  1 <1>  -0.6600 
 12 C       -4.3610    -6.3150    -1.1150 C.3   1 <1>   0.1400 
 13 C       -5.5380    -4.1930    -0.5700 C.3   1 <1>   0.1400 
 14 C       -5.1540    -7.0720    -0.0260 C.3   1 <1>   0.4230 
 15 C       -6.3580    -4.9200     0.5060 C.3   1 <1>  -0.1600 
 16 N       -5.1750    -8.5830    -0.2120 N.4   1 <1>  -0.9590 
 17 C       -6.5570    -6.4390     0.2210 C.3   1 <1>   0.0000 
 18 C       -6.2480    -9.2790     0.5700 C.3   1 <1>   0.3430 
 19 C       -5.1820    -9.0610    -1.6330 C.3   1 <1>   0.2630 
 20 C       -7.2070    -7.1000     1.4730 C.3   1 <1>  -0.1600 
 21 C       -7.4630    -6.6390    -1.0280 C.3   1 <1>   0.1200 
 22 C       -6.6220    -8.4830     1.8190 C.3   1 <1>  -0.1600 
 23 O       -8.6310    -5.9030    -0.9370 O.3   1 <1>  -0.6800 
 24 H       -2.0930    -3.3420     2.2480 H     1 <1>   0.1500 
 25 H       -2.6410    -0.1750    -1.5110 H     1 <1>   0.1500 
 26 H       -3.2820    -2.5440    -1.7820 H     1 <1>   0.1500 
 27 H       -4.8500    -6.3590    -2.0700 H     1 <1>   0.0800 
 28 H       -3.3790    -6.7450    -1.2160 H     1 <1>   0.0800 
 29 H       -5.3930    -3.1670    -0.2770 H     1 <1>   0.0800 
 30 H       -6.0570    -4.1970    -1.5140 H     1 <1>   0.0800 
 31 H       -4.6020    -6.8940     0.8840 H     1 <1>   0.0800 
 32 H       -5.8410    -4.7900     1.4420 H     1 <1>   0.0800 
 33 H       -7.3070    -4.4230     0.6120 H     1 <1>   0.0800 
 34 H       -4.2810    -8.8930     0.2000 H     1 <1>   0.4500 
 35 H       -7.1300    -9.3900    -0.0400 H     1 <1>   0.0800 
 36 H       -5.9140   -10.2650     0.8520 H     1 <1>   0.0800 
 37 H       -6.0730    -8.7280    -2.1400 H     1 <1>   0.0800 
 38 H       -5.1530   -10.1390    -1.6640 H     1 <1>   0.0800 
 39 H       -4.3210    -8.6870    -2.1630 H     1 <1>   0.0800 
 40 H       -7.0810    -6.4740     2.3410 H     1 <1>   0.0800 
 41 H       -8.2690    -7.1970     1.3300 H     1 <1>   0.0800 
 42 H       -7.7410    -7.6700    -1.1530 H     1 <1>   0.0800 
 43 H       -6.9720    -6.3090    -1.9260 H     1 <1>   0.0800 
 44 H       -7.3470    -9.0380     2.3900 H     1 <1>   0.0800 
 45 H       -5.7500    -8.3730     2.4410 H     1 <1>   0.0800 
 46 H       -9.1940    -6.1890    -0.1900 H     1 <1>   0.4000 
@<TRIPOS>BOND
  1   1   2  1   
  2   2   3  ar  
  3   2   4  ar  
  4   3   5  1   
  5   3   6  ar  
  6   4   7  ar  
  7   4  24  1   
  8   6   8  ar  
  9   6  25  1   
 10   7   8  ar  
 11   7   9  1   
 12   8  26  1   
 13   9  10  2   
 14   9  11  am  
 15  11  12  1   
 16  11  13  1   
 17  12  14  1   
 18  12  27  1   
 19  12  28  1   
 20  13  15  1   
 21  13  29  1   
 22  13  30  1   
 23  14  16  1   
 24  14  17  1   
 25  14  31  1   
 26  15  17  1   
 27  15  32  1   
 28  15  33  1   
 29  16  18  1   
 30  16  19  1   
 31  16  34  1   
 32  17  20  1   
 33  17  21  1   
 34  18  22  1   
 35  18  35  1   
 36  18  36  1   
 37  19  37  1   
 38  19  38  1   
 39  19  39  1   
 40  20  22  1   
 41  20  40  1   
 42  20  41  1   
 43  21  23  1   
 44  21  42  1   
 45  21  43  1   
 46  22  44  1   
 47  22  45  1   
 48  23  46  1   
@<TRIPOS>SUBSTRUCTURE
  1 ****  11 GROUP 4 **** **** 0

# MOE 2024.06 (io_trps.svl 2023.06)
