@<TRIPOS>MOLECULE
NONAME
60 63 1 0 0 
SMALL
USER_CHARGES


@<TRIPOS>ATOM
  1 O       -0.1760     0.7730     0.9140 O.3   1 <1>  -0.5600 
  2 C        0.2030     1.1800    -0.3540 C.3   1 <1>   0.1200 
  3 C       -1.5710     0.8090     0.9940 C.3   1 <1>   0.1200 
  4 C       -0.6930     2.3950    -0.5810 C.3   1 <1>   0.4230 
  5 C       -2.0200     1.8400    -0.0620 C.3   1 <1>  -0.0800 
  6 N       -0.2620     3.4820     0.3510 N.4   1 <1>  -0.9060 
  7 C       -2.8540     1.1910    -1.1860 C.3   1 <1>  -0.0170 
  8 C        0.6430     4.5410    -0.1670 C.3   1 <1>   0.4230 
  9 C       -4.1730     0.6650    -0.6450 C.ar  1 <1>  -0.1430 
 10 C        2.0330     3.9900    -0.5030 C.3   1 <1>  -0.1600 
 11 C        0.7520     5.6320     0.9000 C.3   1 <1>  -0.1600 
 12 C       -5.2370     1.5030    -0.3740 C.ar  1 <1>  -0.1500 
 13 C       -4.3800    -0.6790    -0.3990 C.ar  1 <1>  -0.1500 
 14 C        3.0030     5.1090    -0.8940 C.3   1 <1>   0.3430 
 15 C        1.7300     6.7330     0.4850 C.3   1 <1>   0.3430 
 16 C       -6.4150     0.9750     0.1280 C.ar  1 <1>   0.1600 
 17 C       -5.5980    -1.1040     0.1050 C.ar  1 <1>   0.1600 
 18 N        3.0650     6.1390     0.1810 N.4   1 <1>  -0.9590 
 19 N       -6.6170    -0.3070     0.3790 N.ar  1 <1>  -0.6200 
 20 C        4.0620     7.1960    -0.2080 C.3   1 <1>   0.3430 
 21 C        4.4490     8.0990     0.9660 C.3   1 <1>  -0.0170 
 22 C        5.5290     9.0500     0.4930 C.ar  1 <1>  -0.1430 
 23 C        6.8660     8.6980     0.6010 C.ar  1 <1>  -0.1500 
 24 C        5.1890    10.2730    -0.0650 C.ar  1 <1>  -0.1500 
 25 C        7.8520     9.5570     0.1490 C.ar  1 <1>  -0.1500 
 26 C        6.1760    11.1320    -0.5170 C.ar  1 <1>  -0.1500 
 27 C        7.5080    10.7740    -0.4120 C.ar  1 <1>  -0.1500 
 28 H        1.2570     1.3880    -0.3640 H     1 <1>   0.0800 
 29 H       -0.0120     0.3840    -1.0480 H     1 <1>   0.0800 
 30 H       -1.9450    -0.1810     0.7940 H     1 <1>   0.0800 
 31 H       -1.8500     1.0970     1.9940 H     1 <1>   0.0800 
 32 H       -0.7420     2.7230    -1.6070 H     1 <1>   0.0800 
 33 H       -2.6240     2.6040     0.3950 H     1 <1>   0.0800 
 34 H       -1.1120     3.9140     0.7280 H     1 <1>   0.4500 
 35 H        0.1570     2.9740     1.1490 H     1 <1>   0.4500 
 36 H       -2.3130     0.3840    -1.6490 H     1 <1>   0.0800 
 37 H       -3.0680     1.9170    -1.9520 H     1 <1>   0.0800 
 38 H        0.2110     4.9720    -1.0580 H     1 <1>   0.0800 
 39 H        2.4430     3.4530     0.3350 H     1 <1>   0.0800 
 40 H        1.9680     3.3180    -1.3400 H     1 <1>   0.0800 
 41 H       -0.2120     6.0860     1.0550 H     1 <1>   0.0800 
 42 H        1.0800     5.2170     1.8370 H     1 <1>   0.0800 
 43 H       -5.1720     2.5610    -0.5480 H     1 <1>   0.1500 
 44 H       -3.6140    -1.4070    -0.5930 H     1 <1>   0.1500 
 45 H        2.6790     5.5670    -1.8160 H     1 <1>   0.0800 
 46 H        3.9850     4.6910    -1.0600 H     1 <1>   0.0800 
 47 H        1.8170     7.4520     1.2850 H     1 <1>   0.0800 
 48 H        1.3540     7.2490    -0.3860 H     1 <1>   0.0800 
 49 H       -7.2360     1.6410     0.3340 H     1 <1>   0.1500 
 50 H       -5.7430    -2.1550     0.2920 H     1 <1>   0.1500 
 51 H        3.4380     5.6960     1.0360 H     1 <1>   0.4500 
 52 H        4.9630     6.7270    -0.5720 H     1 <1>   0.0800 
 53 H        3.6690     7.8050    -1.0070 H     1 <1>   0.0800 
 54 H        3.6070     8.6710     1.3110 H     1 <1>   0.0800 
 55 H        4.8290     7.5120     1.7840 H     1 <1>   0.0800 
 56 H        7.1590     7.7600     1.0390 H     1 <1>   0.1500 
 57 H        4.1610    10.5770    -0.1530 H     1 <1>   0.1500 
 58 H        8.8900     9.2830     0.2350 H     1 <1>   0.1500 
 59 H        5.9100    12.0820    -0.9490 H     1 <1>   0.1500 
 60 H        8.2750    11.4420    -0.7630 H     1 <1>   0.1500 
@<TRIPOS>BOND
  1   1   2  1   
  2   1   3  1   
  3   2   4  1   
  4   2  28  1   
  5   2  29  1   
  6   3   5  1   
  7   3  30  1   
  8   3  31  1   
  9   4   5  1   
 10   4   6  1   
 11   4  32  1   
 12   5   7  1   
 13   5  33  1   
 14   6   8  1   
 15   6  34  1   
 16   6  35  1   
 17   7   9  1   
 18   7  36  1   
 19   7  37  1   
 20   8  10  1   
 21   8  11  1   
 22   8  38  1   
 23   9  12  ar  
 24   9  13  ar  
 25  10  14  1   
 26  10  39  1   
 27  10  40  1   
 28  11  15  1   
 29  11  41  1   
 30  11  42  1   
 31  12  16  ar  
 32  12  43  1   
 33  13  17  ar  
 34  13  44  1   
 35  14  18  1   
 36  14  45  1   
 37  14  46  1   
 38  15  18  1   
 39  15  47  1   
 40  15  48  1   
 41  16  19  ar  
 42  16  49  1   
 43  17  19  ar  
 44  17  50  1   
 45  18  20  1   
 46  18  51  1   
 47  20  21  1   
 48  20  52  1   
 49  20  53  1   
 50  21  22  1   
 51  21  54  1   
 52  21  55  1   
 53  22  23  ar  
 54  22  24  ar  
 55  23  25  ar  
 56  23  56  1   
 57  24  26  ar  
 58  24  57  1   
 59  25  27  ar  
 60  25  58  1   
 61  26  27  ar  
 62  26  59  1   
 63  27  60  1   
@<TRIPOS>SUBSTRUCTURE
  1 ****   8 GROUP 4 **** **** 0

# MOE 2024.06 (io_trps.svl 2023.06)
