@<TRIPOS>MOLECULE
NONAME
57 60 1 0 0 
SMALL
USER_CHARGES


@<TRIPOS>ATOM
  1 O        5.2530     1.7550    -0.0750 O.2   1 <1>  -0.5700 
  2 C        4.6340     0.7220    -0.0970 C.2   1 <1>   0.5690 
  3 N        3.4190     0.6310     0.4810 N.am  1 <1>  -0.7300 
  4 C        5.2350    -0.4980    -0.7450 C.3   1 <1>  -0.0990 
  5 C        2.4620    -0.4930     0.3640 C.3   1 <1>   0.1400 
  6 C        4.1930    -1.4550    -1.3520 C.3   1 <1>  -0.0800 
  7 C        3.0310    -1.7180    -0.3820 C.3   1 <1>  -0.0800 
  8 C        4.8190    -2.8450    -1.5900 C.3   1 <1>  -0.1600 
  9 C        3.5570    -2.8440     0.5130 C.3   1 <1>  -0.1600 
 10 C        4.2710    -3.7590    -0.4810 C.3   1 <1>   0.2200 
 11 N        5.2540    -4.6920     0.1510 N.am  1 <1>  -0.6600 
 12 C        6.5990    -4.4350     0.3430 C.2   1 <1>   0.5440 
 13 C        4.7900    -6.1070     0.1840 C.3   1 <1>   0.0600 
 14 O        7.4060    -5.2800     0.0050 O.2   1 <1>  -0.5700 
 15 C        7.0730    -3.2100     0.9520 C.ar  1 <1>   0.0860 
 16 C        7.9620    -2.3700     0.2870 C.ar  1 <1>  -0.1500 
 17 C        6.6520    -2.8320     2.2270 C.ar  1 <1>  -0.1500 
 18 C        8.3520    -1.1600     0.8330 C.ar  1 <1>   0.0820 
 19 C        7.0660    -1.6430     2.7990 C.ar  1 <1>  -0.1500 
 20 O        9.1250    -0.3550     0.0700 O.3   1 <1>  -0.3630 
 21 C        7.9120    -0.8000     2.1020 C.ar  1 <1>  -0.1500 
 22 C        9.0050     1.0460     0.2090 C.3   1 <1>   0.1200 
 23 C        9.5000     1.7070    -1.0750 C.3   1 <1>  -0.0170 
 24 C        9.4150     3.2200    -0.9560 C.ar  1 <1>  -0.1440 
 25 C        8.1770     3.8460    -0.9460 C.ar  1 <1>  -0.1500 
 26 C       10.5650     3.9880    -0.8520 C.ar  1 <1>  -0.1500 
 27 C        8.0890     5.2220    -0.8340 C.ar  1 <1>  -0.1500 
 28 C       10.4780     5.3660    -0.7410 C.ar  1 <1>  -0.1500 
 29 C        9.2400     5.9840    -0.7320 C.ar  1 <1>  -0.1500 
 30 H        3.0780     1.4840     0.9280 H     1 <1>   0.3700 
 31 H        5.9450    -0.1950    -1.4920 H     1 <1>   0.0800 
 32 H        5.7640    -0.9960     0.0360 H     1 <1>   0.0800 
 33 H        2.1320    -0.7840     1.3470 H     1 <1>   0.0800 
 34 H        1.6030    -0.1330    -0.1760 H     1 <1>   0.0800 
 35 H        3.8220    -1.0310    -2.2710 H     1 <1>   0.0800 
 36 H        2.2170    -2.1380    -0.9510 H     1 <1>   0.0800 
 37 H        5.8920    -2.7990    -1.6070 H     1 <1>   0.0800 
 38 H        4.4920    -3.2260    -2.5410 H     1 <1>   0.0800 
 39 H        2.7610    -3.3590     1.0190 H     1 <1>   0.0800 
 40 H        4.2440    -2.4420     1.2320 H     1 <1>   0.0800 
 41 H        3.5050    -4.3570    -0.9470 H     1 <1>   0.0800 
 42 H        3.8250    -6.1680     0.6560 H     1 <1>   0.0800 
 43 H        5.4830    -6.7140     0.7420 H     1 <1>   0.0800 
 44 H        4.7260    -6.4910    -0.8190 H     1 <1>   0.0800 
 45 H        8.3320    -2.6540    -0.6820 H     1 <1>   0.1500 
 46 H        5.9880    -3.4840     2.7670 H     1 <1>   0.1500 
 47 H        6.7280    -1.3700     3.7840 H     1 <1>   0.1500 
 48 H        8.2220     0.1250     2.5520 H     1 <1>   0.1500 
 49 H        7.9700     1.2930     0.3740 H     1 <1>   0.0800 
 50 H        9.5960     1.3580     1.0510 H     1 <1>   0.0800 
 51 H       10.5150     1.4070    -1.2620 H     1 <1>   0.0800 
 52 H        8.8890     1.3840    -1.8990 H     1 <1>   0.0800 
 53 H        7.2720     3.2640    -1.0230 H     1 <1>   0.1500 
 54 H       11.5320     3.5190    -0.8570 H     1 <1>   0.1500 
 55 H        7.1240     5.6970    -0.8260 H     1 <1>   0.1500 
 56 H       11.3740     5.9560    -0.6610 H     1 <1>   0.1500 
 57 H        9.1710     7.0530    -0.6450 H     1 <1>   0.1500 
@<TRIPOS>BOND
  1   1   2  2   
  2   2   3  am  
  3   2   4  1   
  4   3   5  1   
  5   3  30  1   
  6   4   6  1   
  7   4  31  1   
  8   4  32  1   
  9   5   7  1   
 10   5  33  1   
 11   5  34  1   
 12   6   7  1   
 13   6   8  1   
 14   6  35  1   
 15   7   9  1   
 16   7  36  1   
 17   8  10  1   
 18   8  37  1   
 19   8  38  1   
 20   9  10  1   
 21   9  39  1   
 22   9  40  1   
 23  10  11  1   
 24  10  41  1   
 25  11  12  am  
 26  11  13  1   
 27  12  14  2   
 28  12  15  1   
 29  13  42  1   
 30  13  43  1   
 31  13  44  1   
 32  15  16  ar  
 33  15  17  ar  
 34  16  18  ar  
 35  16  45  1   
 36  17  19  ar  
 37  17  46  1   
 38  18  20  1   
 39  18  21  ar  
 40  19  21  ar  
 41  19  47  1   
 42  20  22  1   
 43  21  48  1   
 44  22  23  1   
 45  22  49  1   
 46  22  50  1   
 47  23  24  1   
 48  23  51  1   
 49  23  52  1   
 50  24  25  ar  
 51  24  26  ar  
 52  25  27  ar  
 53  25  53  1   
 54  26  28  ar  
 55  26  54  1   
 56  27  29  ar  
 57  27  55  1   
 58  28  29  ar  
 59  28  56  1   
 60  29  57  1   
@<TRIPOS>SUBSTRUCTURE
  1 ****   4 GROUP 4 **** **** 0

# MOE 2024.06 (io_trps.svl 2023.06)
