@<TRIPOS>MOLECULE
NONAME
43 45 1 0 0 
SMALL
USER_CHARGES


@<TRIPOS>ATOM
  1 O        1.4520    -0.6410    -1.0510 O.3   1 <1>  -0.3630 
  2 C        0.8280    -1.7610    -0.6230 C.ar  1 <1>   0.0830 
  3 C        1.6920     0.4770    -0.2220 C.3   1 <1>   0.2000 
  4 C        0.2720    -1.9420     0.6330 C.ar  1 <1>  -0.1500 
  5 C        0.7270    -2.8190    -1.5020 C.ar  1 <1>  -0.1500 
  6 C        1.9550     1.6780    -1.1280 C.3   1 <1>  -0.1600 
  7 C        2.9060     0.2030     0.6700 C.3   1 <1>  -0.1600 
  8 C       -0.3390    -3.1470     0.9300 C.ar  1 <1>   0.1600 
  9 C        0.0940    -3.9790    -1.1000 C.ar  1 <1>   0.1600 
 10 C        2.2790     2.9200    -0.2980 C.3   1 <1>   0.2090 
 11 C        3.2430     1.4370     1.5080 C.3   1 <1>   0.2090 
 12 N       -0.4420    -4.1700     0.0960 N.ar  1 <1>  -0.6200 
 13 N        3.4010     2.6310     0.6330 N.pl3 1 <1>  -0.8380 
 14 C        4.6810     3.1020     0.2790 C.ar  1 <1>   0.4100 
 15 N        5.6060     2.1580     0.1860 N.ar  1 <1>  -0.6200 
 16 C        4.9600     4.4950     0.0170 C.ar  1 <1>   0.4100 
 17 C        6.7840     2.6240    -0.1990 C.ar  1 <1>   0.1600 
 18 N        6.1520     4.9230    -0.3750 N.ar  1 <1>  -0.6200 
 19 N        3.9990     5.5130     0.1820 N.pl3 1 <1>  -0.8380 
 20 C        7.0450     3.9500    -0.4730 C.ar  1 <1>   0.1600 
 21 C        3.4580     5.7020     1.5530 C.3   1 <1>   0.1290 
 22 C        4.1250     6.7730    -0.6010 C.3   1 <1>   0.1290 
 23 H        0.8110     0.6690     0.3640 H     1 <1>   0.0800 
 24 H        0.3020    -1.1760     1.3820 H     1 <1>   0.1500 
 25 H        1.1400    -2.7320    -2.4890 H     1 <1>   0.1500 
 26 H        1.0900     1.8740    -1.7340 H     1 <1>   0.0800 
 27 H        2.7900     1.4720    -1.7750 H     1 <1>   0.0800 
 28 H        3.7580    -0.0380     0.0590 H     1 <1>   0.0800 
 29 H        2.7140    -0.6240     1.3260 H     1 <1>   0.0800 
 30 H       -0.7680    -3.2790     1.9090 H     1 <1>   0.1500 
 31 H        0.0240    -4.7960    -1.7980 H     1 <1>   0.1500 
 32 H        1.4190     3.2240     0.2730 H     1 <1>   0.0800 
 33 H        2.5400     3.7270    -0.9610 H     1 <1>   0.0800 
 34 H        4.1480     1.2640     2.0670 H     1 <1>   0.0800 
 35 H        2.4530     1.6280     2.2130 H     1 <1>   0.0800 
 36 H        7.5770     1.9050    -0.3020 H     1 <1>   0.1500 
 37 H        8.0340     4.2320    -0.7860 H     1 <1>   0.1500 
 38 H        3.6150     4.8180     2.1460 H     1 <1>   0.0800 
 39 H        2.4030     5.9000     1.5000 H     1 <1>   0.0800 
 40 H        3.9540     6.5280     2.0320 H     1 <1>   0.0800 
 41 H        4.4310     6.5480    -1.6080 H     1 <1>   0.0800 
 42 H        4.8630     7.4120    -0.1480 H     1 <1>   0.0800 
 43 H        3.1780     7.2830    -0.6320 H     1 <1>   0.0800 
@<TRIPOS>BOND
  1   1   2  1   
  2   1   3  1   
  3   2   4  ar  
  4   2   5  ar  
  5   3   6  1   
  6   3   7  1   
  7   3  23  1   
  8   4   8  ar  
  9   4  24  1   
 10   5   9  ar  
 11   5  25  1   
 12   6  10  1   
 13   6  26  1   
 14   6  27  1   
 15   7  11  1   
 16   7  28  1   
 17   7  29  1   
 18   8  12  ar  
 19   8  30  1   
 20   9  12  ar  
 21   9  31  1   
 22  10  13  1   
 23  10  32  1   
 24  10  33  1   
 25  11  13  1   
 26  11  34  1   
 27  11  35  1   
 28  13  14  1   
 29  14  15  ar  
 30  14  16  ar  
 31  15  17  ar  
 32  16  18  ar  
 33  16  19  1   
 34  17  20  ar  
 35  17  36  1   
 36  18  20  ar  
 37  19  21  1   
 38  19  22  1   
 39  20  37  1   
 40  21  38  1   
 41  21  39  1   
 42  21  40  1   
 43  22  41  1   
 44  22  42  1   
 45  22  43  1   
@<TRIPOS>SUBSTRUCTURE
  1 ****   7 GROUP 4 **** **** 0

# MOE 2024.06 (io_trps.svl 2023.06)
