@<TRIPOS>MOLECULE
NONAME
44 46 1 0 0 
SMALL
USER_CHARGES


@<TRIPOS>ATOM
  1 O        0.5050    -1.9630    -1.3580 O.3   1 <1>  -0.3630 
  2 C        0.1520    -3.0610    -0.6460 C.ar  1 <1>   0.0830 
  3 C        1.3230    -2.0560    -2.5030 C.3   1 <1>   0.0400 
  4 C       -0.6100    -2.8470     0.4890 C.ar  1 <1>  -0.1500 
  5 C        0.5110    -4.3600    -0.9940 C.ar  1 <1>  -0.1500 
  6 C       -1.0180    -3.9110     1.2740 C.ar  1 <1>  -0.1500 
  7 C        0.1030    -5.4250    -0.2090 C.ar  1 <1>  -0.1500 
  8 C       -0.6670    -5.2070     0.9260 C.ar  1 <1>  -0.1430 
  9 C       -1.1330    -6.3750     1.7720 C.3   1 <1>   0.4860 
 10 N       -2.1560    -7.1210     1.0010 N.4   1 <1>  -0.9590 
 11 C       -3.3610    -6.3200     0.6040 C.3   1 <1>   0.3430 
 12 C       -2.6500    -8.3710     1.6180 C.3   1 <1>   0.3430 
 13 C       -4.5610    -7.2750     0.7370 C.3   1 <1>   0.2000 
 14 C       -3.9340    -8.6680     0.8400 C.3   1 <1>  -0.0800 
 15 O       -5.2530    -7.0060     1.9120 O.3   1 <1>  -0.6800 
 16 C       -3.6930    -9.2510    -0.5810 C.3   1 <1>  -0.0170 
 17 C       -2.3530    -9.9500    -0.7700 C.ar  1 <1>   0.1670 
 18 N       -1.2970    -9.1610    -0.9370 N.ar  1 <1>  -0.6200 
 19 C       -2.2870   -11.3430    -0.7700 C.ar  1 <1>   0.1600 
 20 C       -0.1870    -9.8620    -1.1310 C.ar  1 <1>   0.1600 
 21 N       -1.1740   -12.0330    -0.9320 N.ar  1 <1>  -0.6200 
 22 C       -0.1270   -11.2510    -1.1260 C.ar  1 <1>   0.1600 
 23 H        1.4790    -1.0620    -2.8820 H     1 <1>   0.0800 
 24 H        0.8230    -2.6540    -3.2440 H     1 <1>   0.0800 
 25 H        2.2660    -2.4920    -2.2250 H     1 <1>   0.0800 
 26 H       -0.8770    -1.8380     0.7520 H     1 <1>   0.1500 
 27 H        1.1050    -4.5540    -1.8670 H     1 <1>   0.1500 
 28 H       -1.6060    -3.7080     2.1530 H     1 <1>   0.1500 
 29 H        0.3940    -6.4210    -0.4970 H     1 <1>   0.1500 
 30 H       -1.5490    -6.0150     2.6990 H     1 <1>   0.0800 
 31 H       -0.2940    -7.0150     1.9940 H     1 <1>   0.0800 
 32 H       -1.6960    -7.4310     0.1210 H     1 <1>   0.4500 
 33 H       -3.4980    -5.4600     1.2390 H     1 <1>   0.0800 
 34 H       -3.2530    -5.9910    -0.4170 H     1 <1>   0.0800 
 35 H       -1.9280    -9.1700     1.5370 H     1 <1>   0.0800 
 36 H       -2.8820    -8.2060     2.6570 H     1 <1>   0.0800 
 37 H       -5.2580    -7.1730    -0.0790 H     1 <1>   0.0800 
 38 H       -4.5610    -9.3470     1.3940 H     1 <1>   0.0800 
 39 H       -4.7080    -7.0820     2.7180 H     1 <1>   0.4000 
 40 H       -3.7430    -8.4730    -1.3240 H     1 <1>   0.0800 
 41 H       -4.4920    -9.9340    -0.8140 H     1 <1>   0.0800 
 42 H       -3.1890   -11.9140    -0.6300 H     1 <1>   0.1500 
 43 H        0.7250    -9.3180    -1.3050 H     1 <1>   0.1500 
 44 H        0.8220   -11.7320    -1.2890 H     1 <1>   0.1500 
@<TRIPOS>BOND
  1   1   2  1   
  2   1   3  1   
  3   2   4  ar  
  4   2   5  ar  
  5   3  23  1   
  6   3  24  1   
  7   3  25  1   
  8   4   6  ar  
  9   4  26  1   
 10   5   7  ar  
 11   5  27  1   
 12   6   8  ar  
 13   6  28  1   
 14   7   8  ar  
 15   7  29  1   
 16   8   9  1   
 17   9  10  1   
 18   9  30  1   
 19   9  31  1   
 20  10  11  1   
 21  10  12  1   
 22  10  32  1   
 23  11  13  1   
 24  11  33  1   
 25  11  34  1   
 26  12  14  1   
 27  12  35  1   
 28  12  36  1   
 29  13  14  1   
 30  13  15  1   
 31  13  37  1   
 32  14  16  1   
 33  14  38  1   
 34  15  39  1   
 35  16  17  1   
 36  16  40  1   
 37  16  41  1   
 38  17  18  ar  
 39  17  19  ar  
 40  18  20  ar  
 41  19  21  ar  
 42  19  42  1   
 43  20  22  ar  
 44  20  43  1   
 45  21  22  ar  
 46  22  44  1   
@<TRIPOS>SUBSTRUCTURE
  1 ****  10 GROUP 4 **** **** 0

# MOE 2024.06 (io_trps.svl 2023.06)
