@<TRIPOS>MOLECULE
NONAME
55 57 1 0 0 
SMALL
USER_CHARGES


@<TRIPOS>ATOM
  1 S        0.0680    -0.2850    -0.8270 S.3   1 <1>  -0.0800 
  2 C       -0.9750     0.9760    -0.2220 C.2   1 <1>  -0.1400 
  3 C       -0.4750    -1.3220     0.4710 C.2   1 <1>   0.1980 
  4 C       -1.6190     0.5150     0.8630 C.2   1 <1>   0.0460 
  5 C       -0.9980     2.2940    -0.9530 C.3   1 <1>   0.5230 
  6 N       -1.3200    -0.7760     1.2460 N.2   1 <1>  -0.5650 
  7 C        0.0950    -2.7200     0.5440 C.3   1 <1>  -0.0600 
  8 C       -2.6400     1.2290     1.7260 C.3   1 <1>  -0.0590 
  9 N        0.3260     2.9490    -0.7270 N.4   1 <1>  -0.9590 
 10 C        0.1700     4.3840    -0.3640 C.3   1 <1>   0.3430 
 11 C        1.2420     2.7200    -1.8820 C.3   1 <1>   0.3430 
 12 C        1.5390     4.9870    -0.0410 C.3   1 <1>  -0.1600 
 13 C        2.6210     3.3040    -1.5710 C.3   1 <1>  -0.1600 
 14 C        2.5160     4.7890    -1.2100 C.3   1 <1>   0.4230 
 15 N        3.8730     5.3530    -0.9340 N.4   1 <1>  -0.9590 
 16 C        4.5590     4.8370     0.3140 C.3   1 <1>   0.3430 
 17 C        3.8720     6.8650    -0.9230 C.3   1 <1>   0.3430 
 18 C        5.9620     5.4480     0.4970 C.3   1 <1>   0.1100 
 19 C        5.2850     7.4480    -0.7150 C.3   1 <1>   0.1100 
 20 N        5.9040     6.9200     0.5180 N.3   1 <1>  -0.8100 
 21 C        7.2520     7.4900     0.7520 C.3   1 <1>   0.1100 
 22 C        7.1890     8.9540     1.2060 C.3   1 <1>   0.1200 
 23 O        8.4760     9.4090     1.4440 O.3   1 <1>  -0.6800 
 24 H       -1.7910     2.9020    -0.5500 H     1 <1>   0.0800 
 25 H       -1.1840     2.1380    -2.0040 H     1 <1>   0.0800 
 26 H       -0.1480    -3.2610    -0.3520 H     1 <1>   0.0800 
 27 H       -0.3260    -3.2380     1.3870 H     1 <1>   0.0800 
 28 H        1.1620    -2.6780     0.6570 H     1 <1>   0.0800 
 29 H       -2.8360     2.2220     1.3710 H     1 <1>   0.0800 
 30 H       -2.2820     1.2820     2.7390 H     1 <1>   0.0800 
 31 H       -3.5600     0.6720     1.7240 H     1 <1>   0.0800 
 32 H        0.6980     2.4340     0.0880 H     1 <1>   0.4500 
 33 H       -0.4760     4.4790     0.4960 H     1 <1>   0.0800 
 34 H       -0.2820     4.9220    -1.1830 H     1 <1>   0.0800 
 35 H        0.8380     3.1870    -2.7670 H     1 <1>   0.0800 
 36 H        1.3370     1.6630    -2.0790 H     1 <1>   0.0800 
 37 H        1.9070     4.5250     0.8570 H     1 <1>   0.0800 
 38 H        1.4030     6.0360     0.1530 H     1 <1>   0.0800 
 39 H        3.2410     3.1850    -2.4420 H     1 <1>   0.0800 
 40 H        3.0560     2.7370    -0.7680 H     1 <1>   0.0800 
 41 H        2.1110     5.3030    -2.0690 H     1 <1>   0.0800 
 42 H        4.4920     5.0950    -1.7140 H     1 <1>   0.4500 
 43 H        4.6520     3.7650     0.2720 H     1 <1>   0.0800 
 44 H        3.9760     5.0890     1.1840 H     1 <1>   0.0800 
 45 H        3.2460     7.2260    -0.1230 H     1 <1>   0.0800 
 46 H        3.4750     7.2420    -1.8520 H     1 <1>   0.0800 
 47 H        6.6150     5.1130    -0.2920 H     1 <1>   0.0800 
 48 H        6.3680     5.0980     1.4310 H     1 <1>   0.0800 
 49 H        5.1980     8.5190    -0.6460 H     1 <1>   0.0800 
 50 H        5.9040     7.2240    -1.5670 H     1 <1>   0.0800 
 51 H        7.8450     7.4170    -0.1450 H     1 <1>   0.0800 
 52 H        7.7410     6.9280     1.5300 H     1 <1>   0.0800 
 53 H        6.6200     9.0550     2.1140 H     1 <1>   0.0800 
 54 H        6.7690     9.5800     0.4400 H     1 <1>   0.0800 
 55 H        8.8370     9.0300     2.2700 H     1 <1>   0.4000 
@<TRIPOS>BOND
  1   1   2  1   
  2   1   3  1   
  3   2   4  2   
  4   2   5  1   
  5   3   6  2   
  6   3   7  1   
  7   4   6  1   
  8   4   8  1   
  9   5   9  1   
 10   5  24  1   
 11   5  25  1   
 12   7  26  1   
 13   7  27  1   
 14   7  28  1   
 15   8  29  1   
 16   8  30  1   
 17   8  31  1   
 18   9  10  1   
 19   9  11  1   
 20   9  32  1   
 21  10  12  1   
 22  10  33  1   
 23  10  34  1   
 24  11  13  1   
 25  11  35  1   
 26  11  36  1   
 27  12  14  1   
 28  12  37  1   
 29  12  38  1   
 30  13  14  1   
 31  13  39  1   
 32  13  40  1   
 33  14  15  1   
 34  14  41  1   
 35  15  16  1   
 36  15  17  1   
 37  15  42  1   
 38  16  18  1   
 39  16  43  1   
 40  16  44  1   
 41  17  19  1   
 42  17  45  1   
 43  17  46  1   
 44  18  20  1   
 45  18  47  1   
 46  18  48  1   
 47  19  20  1   
 48  19  49  1   
 49  19  50  1   
 50  20  21  1   
 51  21  22  1   
 52  21  51  1   
 53  21  52  1   
 54  22  23  1   
 55  22  53  1   
 56  22  54  1   
 57  23  55  1   
@<TRIPOS>SUBSTRUCTURE
  1 ****  12 GROUP 4 **** **** 0

# MOE 2024.06 (io_trps.svl 2023.06)
