@<TRIPOS>MOLECULE
NONAME
50 52 1 0 0 
SMALL
USER_CHARGES


@<TRIPOS>ATOM
  1 O        0.0870     0.9710     0.0510 O.3   1 <1>  -0.3630 
  2 C        1.2260     1.5600     0.4700 C.ar  1 <1>   0.0820 
  3 C       -0.7090     0.1960     0.9210 C.3   1 <1>   0.0400 
  4 C        1.9470     2.2920    -0.4470 C.ar  1 <1>  -0.1500 
  5 C        1.7320     1.4860     1.7550 C.ar  1 <1>  -0.1500 
  6 C        3.1200     2.9130    -0.0560 C.ar  1 <1>   0.1670 
  7 C        2.9120     2.1430     2.0480 C.ar  1 <1>   0.1600 
  8 N        3.6170     2.8580     1.1790 N.ar  1 <1>  -0.6200 
  9 C        3.9080     3.7310    -1.0790 C.3   1 <1>   0.4870 
 10 N        4.6450     4.8290    -0.3690 N.4   1 <1>  -0.9590 
 11 C        4.0210     6.1730    -0.5120 C.3   1 <1>   0.4230 
 12 C        6.1090     4.7800    -0.6860 C.3   1 <1>   0.3430 
 13 C        4.7490     7.1800     0.3800 C.3   1 <1>  -0.2400 
 14 C        2.5490     6.1240    -0.0950 C.3   1 <1>  -0.2400 
 15 C        6.8010     3.5700    -0.0520 C.3   1 <1>   0.0210 
 16 C        8.2660     3.6280    -0.4170 C.2   1 <1>  -0.1810 
 17 C        9.1780     4.5900     0.0760 C.ar  1 <1>   0.0000 
 18 C        8.9410     2.8150    -1.2640 C.2   1 <1>  -0.3020 
 19 C       10.3990     4.3140    -0.5310 C.ar  1 <1>  -0.1520 
 20 C        9.0840     5.6580     0.9770 C.ar  1 <1>  -0.1500 
 21 N       10.2430     3.2190    -1.3410 N.pl3 1 <1>   0.0330 
 22 C       11.5260     5.0970    -0.2720 C.ar  1 <1>  -0.1500 
 23 C       10.1950     6.4290     1.2330 C.ar  1 <1>  -0.1500 
 24 C       11.4150     6.1500     0.6060 C.ar  1 <1>  -0.1500 
 25 H       -1.5550    -0.1670     0.3660 H     1 <1>   0.0800 
 26 H       -1.0460     0.8160     1.7340 H     1 <1>   0.0800 
 27 H       -0.1270    -0.6330     1.2830 H     1 <1>   0.0800 
 28 H        1.5760     2.3620    -1.4530 H     1 <1>   0.1500 
 29 H        1.2320     0.9330     2.5260 H     1 <1>   0.1500 
 30 H        3.2970     2.0760     3.0530 H     1 <1>   0.1500 
 31 H        3.2440     4.1360    -1.8230 H     1 <1>   0.0800 
 32 H        4.6050     3.0740    -1.5710 H     1 <1>   0.0800 
 33 H        4.5290     4.5490     0.6240 H     1 <1>   0.4500 
 34 H        4.0870     6.5000    -1.5380 H     1 <1>   0.0800 
 35 H        6.6020     5.6590    -0.3110 H     1 <1>   0.0800 
 36 H        6.2570     4.7570    -1.7530 H     1 <1>   0.0800 
 37 H        4.8040     6.8280     1.3950 H     1 <1>   0.0800 
 38 H        4.2150     8.1150     0.3830 H     1 <1>   0.0800 
 39 H        5.7350     7.3950     0.0140 H     1 <1>   0.0800 
 40 H        2.4430     5.7290     0.9000 H     1 <1>   0.0800 
 41 H        1.9590     5.5410    -0.7780 H     1 <1>   0.0800 
 42 H        2.1360     7.1170    -0.1020 H     1 <1>   0.0800 
 43 H        6.3880     2.6480    -0.4170 H     1 <1>   0.0800 
 44 H        6.7030     3.5970     1.0190 H     1 <1>   0.0800 
 45 H        8.5830     1.9680    -1.8240 H     1 <1>   0.1500 
 46 H        8.1530     5.8640     1.4680 H     1 <1>   0.1500 
 47 H       10.9900     2.7860    -1.8940 H     1 <1>   0.2700 
 48 H       12.4620     4.8740    -0.7530 H     1 <1>   0.1500 
 49 H       10.1410     7.2540     1.9220 H     1 <1>   0.1500 
 50 H       12.2690     6.7690     0.8230 H     1 <1>   0.1500 
@<TRIPOS>BOND
  1   1   2  1   
  2   1   3  1   
  3   2   4  ar  
  4   2   5  ar  
  5   3  25  1   
  6   3  26  1   
  7   3  27  1   
  8   4   6  ar  
  9   4  28  1   
 10   5   7  ar  
 11   5  29  1   
 12   6   8  ar  
 13   6   9  1   
 14   7   8  ar  
 15   7  30  1   
 16   9  10  1   
 17   9  31  1   
 18   9  32  1   
 19  10  11  1   
 20  10  12  1   
 21  10  33  1   
 22  11  13  1   
 23  11  14  1   
 24  11  34  1   
 25  12  15  1   
 26  12  35  1   
 27  12  36  1   
 28  13  37  1   
 29  13  38  1   
 30  13  39  1   
 31  14  40  1   
 32  14  41  1   
 33  14  42  1   
 34  15  16  1   
 35  15  43  1   
 36  15  44  1   
 37  16  17  1   
 38  16  18  2   
 39  17  19  ar  
 40  17  20  ar  
 41  18  21  1   
 42  18  45  1   
 43  19  21  1   
 44  19  22  ar  
 45  20  23  ar  
 46  20  46  1   
 47  21  47  1   
 48  22  24  ar  
 49  22  48  1   
 50  23  24  ar  
 51  23  49  1   
 52  24  50  1   
@<TRIPOS>SUBSTRUCTURE
  1 ****  15 GROUP 4 **** **** 0

# MOE 2024.06 (io_trps.svl 2023.06)
