@<TRIPOS>MOLECULE
NONAME
43 44 1 0 0 
SMALL
USER_CHARGES


@<TRIPOS>ATOM
  1 S        0.8490     0.4890     0.5950 S.3   1 <1>  -0.0800 
  2 C       -0.7530     1.1410     0.3790 C.2   1 <1>  -0.1400 
  3 C        0.2050    -1.1110     0.3070 C.2   1 <1>   0.2280 
  4 C       -1.5960     0.1270     0.1180 C.2   1 <1>   0.0460 
  5 C       -0.9160     2.6440     0.5180 C.3   1 <1>   0.0200 
  6 N       -1.0460    -1.1420     0.0790 N.2   1 <1>  -0.5650 
  7 C       -3.0850     0.2110    -0.1440 C.3   1 <1>  -0.0590 
  8 C       -0.3420     3.3660    -0.7050 C.3   1 <1>  -0.0990 
  9 C       -0.4650     4.8640    -0.5470 C.2   1 <1>   0.5690 
 10 O       -1.5370     5.3710    -0.7670 O.2   1 <1>  -0.5700 
 11 N        0.6460     5.5550    -0.1550 N.am  1 <1>  -0.4940 
 12 C        0.8820     6.9350     0.0620 C.2   1 <1>  -0.0880 
 13 N        0.0030     7.8930     0.4750 N.pl3 1 <1>   0.3140 
 14 C        2.0780     7.5570    -0.0800 C.2   1 <1>  -0.1810 
 15 N        0.6100     9.0930     0.6040 N.2   1 <1>  -0.7070 
 16 C       -1.4080     7.7590     0.8580 C.3   1 <1>   0.0160 
 17 C        1.8420     8.8850     0.2680 C.2   1 <1>   0.1080 
 18 C        3.3970     6.9490    -0.5280 C.3   1 <1>   0.0210 
 19 C        2.8680    10.0050     0.2740 C.3   1 <1>   0.0210 
 20 C        4.1830     6.4280     0.6770 C.3   1 <1>  -0.2400 
 21 C        2.9340    10.7010    -1.0900 C.3   1 <1>  -0.2400 
 22 H        0.8970    -1.9330     0.3430 H     1 <1>   0.1500 
 23 H       -0.4160     2.9720     1.4130 H     1 <1>   0.0800 
 24 H       -1.9580     2.8900     0.6170 H     1 <1>   0.0800 
 25 H       -3.4280     1.2280    -0.1210 H     1 <1>   0.0800 
 26 H       -3.6130    -0.3530     0.6030 H     1 <1>   0.0800 
 27 H       -3.3030    -0.2070    -1.1090 H     1 <1>   0.0800 
 28 H       -0.8870     3.0670    -1.5830 H     1 <1>   0.0800 
 29 H        0.6880     3.0960    -0.8470 H     1 <1>   0.0800 
 30 H        1.4930     4.9920    -0.0810 H     1 <1>   0.3700 
 31 H       -1.5490     6.8370     1.3880 H     1 <1>   0.0800 
 32 H       -2.0120     7.7700    -0.0300 H     1 <1>   0.0800 
 33 H       -1.6830     8.5840     1.4890 H     1 <1>   0.0800 
 34 H        3.9780     7.6860    -1.0520 H     1 <1>   0.0800 
 35 H        3.2060     6.1420    -1.2130 H     1 <1>   0.0800 
 36 H        3.8330     9.6130     0.5350 H     1 <1>   0.0800 
 37 H        2.5890    10.7210     1.0270 H     1 <1>   0.0800 
 38 H        4.3920     7.2330     1.3590 H     1 <1>   0.0800 
 39 H        5.1150     5.9980     0.3540 H     1 <1>   0.0800 
 40 H        3.6150     5.6780     1.1980 H     1 <1>   0.0800 
 41 H        3.2140     9.9990    -1.8540 H     1 <1>   0.0800 
 42 H        3.6520    11.5000    -1.0650 H     1 <1>   0.0800 
 43 H        1.9680    11.1070    -1.3340 H     1 <1>   0.0800 
@<TRIPOS>BOND
  1   1   2  1   
  2   1   3  1   
  3   2   4  2   
  4   2   5  1   
  5   3   6  2   
  6   3  22  1   
  7   4   6  1   
  8   4   7  1   
  9   5   8  1   
 10   5  23  1   
 11   5  24  1   
 12   7  25  1   
 13   7  26  1   
 14   7  27  1   
 15   8   9  1   
 16   8  28  1   
 17   8  29  1   
 18   9  10  2   
 19   9  11  am  
 20  11  12  1   
 21  11  30  1   
 22  12  13  1   
 23  12  14  2   
 24  13  15  1   
 25  13  16  1   
 26  14  17  1   
 27  14  18  1   
 28  15  17  2   
 29  16  31  1   
 30  16  32  1   
 31  16  33  1   
 32  17  19  1   
 33  18  20  1   
 34  18  34  1   
 35  18  35  1   
 36  19  21  1   
 37  19  36  1   
 38  19  37  1   
 39  20  38  1   
 40  20  39  1   
 41  20  40  1   
 42  21  41  1   
 43  21  42  1   
 44  21  43  1   
@<TRIPOS>SUBSTRUCTURE
  1 ****  11 GROUP 4 **** **** 0

# MOE 2024.06 (io_trps.svl 2023.06)
