@<TRIPOS>MOLECULE
NONAME
51 53 1 0 0 
SMALL
USER_CHARGES


@<TRIPOS>ATOM
  1 S       -1.6570     1.3230     0.2350 S.o2  1 <1>   1.0900 
  2 O       -2.7630     2.2530     0.2200 O.2   1 <1>  -0.6500 
  3 O       -0.7360     1.3210     1.3450 O.2   1 <1>  -0.6500 
  4 C       -2.3310    -0.3290     0.0730 C.3   1 <1>  -0.0550 
  5 C       -0.7100     1.5570    -1.2580 C.3   1 <1>  -0.1350 
  6 C       -3.3720    -0.4690    -1.0520 C.3   1 <1>  -0.0990 
  7 C       -4.0610    -1.8190    -0.9610 C.2   1 <1>   0.5690 
  8 O       -3.3320    -2.7810    -0.9640 O.2   1 <1>  -0.5700 
  9 N       -5.4230    -1.9440    -0.8390 N.am  1 <1>  -0.6600 
 10 C       -6.4510    -0.8700    -1.0360 C.3   1 <1>   0.1400 
 11 C       -6.0350    -3.2380    -0.4210 C.3   1 <1>   0.1400 
 12 C       -7.2090    -0.5930     0.2760 C.3   1 <1>   0.1430 
 13 C       -6.7980    -3.0370     0.8970 C.3   1 <1>  -0.1600 
 14 C       -8.2400     0.4870     0.0070 C.ar  1 <1>   0.1670 
 15 C       -7.8380    -1.9060     0.7930 C.3   1 <1>  -0.1600 
 16 C       -6.3010     0.0830     1.3400 C.3   1 <1>  -0.1600 
 17 N       -9.3650     0.3190    -0.6430 N.ar  1 <1>  -0.6200 
 18 C       -7.8450     1.6890     0.5110 C.ar  1 <1>  -0.1430 
 19 C       -6.5050     1.6010     1.1980 C.3   1 <1>  -0.0170 
 20 C      -10.1210     1.4140    -0.7690 C.ar  1 <1>   0.7200 
 21 C       -8.6810     2.7610     0.3270 C.ar  1 <1>   0.1600 
 22 N       -9.8210     2.6340    -0.3120 N.ar  1 <1>  -0.6200 
 23 N      -11.3220     1.2710    -1.4370 N.pl3 1 <1>  -0.8380 
 24 C      -11.9310    -0.0630    -1.6980 C.3   1 <1>   0.1290 
 25 C      -12.1100     2.4450    -1.9040 C.3   1 <1>   0.1290 
 26 H       -2.8060    -0.5900     1.0000 H     1 <1>   0.0800 
 27 H       -1.5380    -1.0370    -0.0830 H     1 <1>   0.0800 
 28 H       -0.2370     2.5200    -1.2400 H     1 <1>   0.0800 
 29 H       -1.3430     1.5100    -2.1220 H     1 <1>   0.0800 
 30 H        0.0530     0.8080    -1.3410 H     1 <1>   0.0800 
 31 H       -2.8940    -0.3980    -2.0120 H     1 <1>   0.0800 
 32 H       -4.0700     0.3360    -0.9660 H     1 <1>   0.0800 
 33 H       -7.1600    -1.2100    -1.7730 H     1 <1>   0.0800 
 34 H       -6.0260     0.0370    -1.4180 H     1 <1>   0.0800 
 35 H       -5.2800    -3.9950    -0.2870 H     1 <1>   0.0800 
 36 H       -6.7080    -3.5740    -1.1900 H     1 <1>   0.0800 
 37 H       -6.0900    -2.8170     1.6770 H     1 <1>   0.0800 
 38 H       -7.2930    -3.9560     1.1590 H     1 <1>   0.0800 
 39 H       -8.6090    -2.2120     0.1060 H     1 <1>   0.0800 
 40 H       -8.3090    -1.7420     1.7470 H     1 <1>   0.0800 
 41 H       -5.2670    -0.1930     1.2490 H     1 <1>   0.0800 
 42 H       -6.6350    -0.2030     2.3220 H     1 <1>   0.0800 
 43 H       -5.7420     2.0340     0.5730 H     1 <1>   0.0800 
 44 H       -6.5110     2.0910     2.1560 H     1 <1>   0.0800 
 45 H       -8.4130     3.7320     0.7060 H     1 <1>   0.1500 
 46 H      -11.6120    -0.7760    -0.9570 H     1 <1>   0.0800 
 47 H      -11.6300    -0.4110    -2.6700 H     1 <1>   0.0800 
 48 H      -13.0030     0.0060    -1.6590 H     1 <1>   0.0800 
 49 H      -11.4590     3.2730    -2.1240 H     1 <1>   0.0800 
 50 H      -12.8030     2.7400    -1.1350 H     1 <1>   0.0800 
 51 H      -12.6530     2.1950    -2.7980 H     1 <1>   0.0800 
@<TRIPOS>BOND
  1   1   2  2   
  2   1   3  2   
  3   1   4  1   
  4   1   5  1   
  5   4   6  1   
  6   4  26  1   
  7   4  27  1   
  8   5  28  1   
  9   5  29  1   
 10   5  30  1   
 11   6   7  1   
 12   6  31  1   
 13   6  32  1   
 14   7   8  2   
 15   7   9  am  
 16   9  10  1   
 17   9  11  1   
 18  10  12  1   
 19  10  33  1   
 20  10  34  1   
 21  11  13  1   
 22  11  35  1   
 23  11  36  1   
 24  12  14  1   
 25  12  15  1   
 26  12  16  1   
 27  13  15  1   
 28  13  37  1   
 29  13  38  1   
 30  14  17  ar  
 31  14  18  ar  
 32  15  39  1   
 33  15  40  1   
 34  16  19  1   
 35  16  41  1   
 36  16  42  1   
 37  17  20  ar  
 38  18  19  1   
 39  18  21  ar  
 40  19  43  1   
 41  19  44  1   
 42  20  22  ar  
 43  20  23  1   
 44  21  22  ar  
 45  21  45  1   
 46  23  24  1   
 47  23  25  1   
 48  24  46  1   
 49  24  47  1   
 50  24  48  1   
 51  25  49  1   
 52  25  50  1   
 53  25  51  1   
@<TRIPOS>SUBSTRUCTURE
  1 ****  12 GROUP 4 **** **** 0

# MOE 2024.06 (io_trps.svl 2023.06)
