@<TRIPOS>MOLECULE
NONAME
45 47 1 0 0 
SMALL
USER_CHARGES


@<TRIPOS>ATOM
  1 CL      -4.0090    -2.3960     4.2210 Cl    1 <1>  -0.1240 
  2 C       -3.7330    -2.2400     2.5050 C.2   1 <1>   0.2640 
  3 O       -4.3330    -3.0870     1.6980 O.3   1 <1>  -0.2800 
  4 C       -2.9750    -1.3500     1.8350 C.2   1 <1>  -0.1500 
  5 C       -3.9720    -2.7600     0.4690 C.2   1 <1>  -0.0400 
  6 C       -3.1350    -1.6940     0.4840 C.2   1 <1>  -0.1500 
  7 C       -4.5310    -3.5740    -0.6860 C.3   1 <1>   0.5230 
  8 N       -6.0150    -3.6460    -0.5810 N.4   1 <1>  -0.9590 
  9 C       -6.6280    -4.5980    -1.5650 C.3   1 <1>   0.3430 
 10 C       -6.6840    -2.3170    -0.5270 C.3   1 <1>   0.3430 
 11 C       -8.1460    -4.7890    -1.3420 C.3   1 <1>   0.1400 
 12 C       -7.6730    -2.2980     0.6420 C.3   1 <1>  -0.1600 
 13 N       -8.5130    -4.6130     0.0930 N.am  1 <1>  -0.6600 
 14 C       -8.8860    -3.2330     0.5080 C.3   1 <1>   0.1400 
 15 C       -8.0290    -5.5170     1.0030 C.2   1 <1>   0.7160 
 16 O       -7.0360    -5.1810     1.6230 O.2   1 <1>  -0.5700 
 17 C       -8.5630    -6.8540     1.1050 C.2   1 <1>  -0.0860 
 18 C       -9.7420    -7.4020     0.6880 C.2   1 <1>  -0.0400 
 19 C       -7.8790    -7.9340     1.7030 C.2   1 <1>  -0.1500 
 20 O       -9.7880    -8.6810     0.9660 O.3   1 <1>  -0.2800 
 21 C      -10.9610    -6.8130     0.0050 C.3   1 <1>  -0.0600 
 22 C       -8.6760    -9.0120     1.5810 C.2   1 <1>  -0.0400 
 23 C       -8.4900   -10.4450     2.0250 C.3   1 <1>  -0.0600 
 24 H       -2.3760    -0.5490     2.2290 H     1 <1>   0.1500 
 25 H       -2.6600    -1.1800    -0.3360 H     1 <1>   0.1500 
 26 H       -4.1170    -4.5680    -0.6360 H     1 <1>   0.0800 
 27 H       -4.2420    -3.1260    -1.6220 H     1 <1>   0.0800 
 28 H       -6.1960    -4.0610     0.3620 H     1 <1>   0.4500 
 29 H       -6.1550    -5.5600    -1.4580 H     1 <1>   0.0800 
 30 H       -6.4560    -4.2600    -2.5730 H     1 <1>   0.0800 
 31 H       -7.1920    -2.1090    -1.4540 H     1 <1>   0.0800 
 32 H       -5.9510    -1.5430    -0.3630 H     1 <1>   0.0800 
 33 H       -8.4320    -5.7750    -1.6690 H     1 <1>   0.0800 
 34 H       -8.6910    -4.0820    -1.9430 H     1 <1>   0.0800 
 35 H       -8.0450    -1.2950     0.7470 H     1 <1>   0.0800 
 36 H       -7.1490    -2.5190     1.5560 H     1 <1>   0.0800 
 37 H       -9.5820    -2.8280    -0.2070 H     1 <1>   0.0800 
 38 H       -9.3960    -3.2810     1.4570 H     1 <1>   0.0800 
 39 H       -6.9090    -7.8670     2.1630 H     1 <1>   0.1500 
 40 H      -10.8850    -5.7470    -0.0880 H     1 <1>   0.0800 
 41 H      -11.8370    -7.0410     0.5860 H     1 <1>   0.0800 
 42 H      -11.0750    -7.2480    -0.9710 H     1 <1>   0.0800 
 43 H       -7.5410   -10.5640     2.5140 H     1 <1>   0.0800 
 44 H       -8.5320   -11.0980     1.1730 H     1 <1>   0.0800 
 45 H       -9.2730   -10.7150     2.7100 H     1 <1>   0.0800 
@<TRIPOS>BOND
  1   1   2  1   
  2   2   3  1   
  3   2   4  2   
  4   3   5  1   
  5   4   6  1   
  6   4  24  1   
  7   5   6  2   
  8   5   7  1   
  9   6  25  1   
 10   7   8  1   
 11   7  26  1   
 12   7  27  1   
 13   8   9  1   
 14   8  10  1   
 15   8  28  1   
 16   9  11  1   
 17   9  29  1   
 18   9  30  1   
 19  10  12  1   
 20  10  31  1   
 21  10  32  1   
 22  11  13  1   
 23  11  33  1   
 24  11  34  1   
 25  12  14  1   
 26  12  35  1   
 27  12  36  1   
 28  13  14  1   
 29  13  15  am  
 30  14  37  1   
 31  14  38  1   
 32  15  16  2   
 33  15  17  1   
 34  17  18  2   
 35  17  19  1   
 36  18  20  1   
 37  18  21  1   
 38  19  22  2   
 39  19  39  1   
 40  20  22  1   
 41  21  40  1   
 42  21  41  1   
 43  21  42  1   
 44  22  23  1   
 45  23  43  1   
 46  23  44  1   
 47  23  45  1   
@<TRIPOS>SUBSTRUCTURE
  1 ****  16 GROUP 4 **** **** 0

# MOE 2024.06 (io_trps.svl 2023.06)
