@<TRIPOS>MOLECULE
NONAME
37 38 1 0 0 
SMALL
USER_CHARGES


@<TRIPOS>ATOM
  1 O        0.1370     1.0340    -0.0190 O.co2 1 <1>  -0.9000 
  2 C        0.3340     2.2520     0.1880 C.2   1 <1>   0.9790 
  3 O       -0.6780     2.9710     0.3190 O.co2 1 <1>  -0.9000 
  4 C        1.7070     2.7690     0.2640 C.ar  1 <1>   0.1310 
  5 N        1.9560     4.0750     0.4990 N.ar  1 <1>  -0.3100 
  6 C        2.7720     1.8910     0.0920 C.ar  1 <1>  -0.1500 
  7 N        3.1820     4.5370     0.5670 N.ar  1 <1>  -0.3100 
  8 C        4.0530     2.3740     0.1620 C.ar  1 <1>  -0.1500 
  9 C        4.2320     3.7250     0.3970 C.ar  1 <1>   0.4100 
 10 N        5.5110     4.2700     0.4670 N.pl3 1 <1>  -0.8380 
 11 C        5.8130     5.4320     1.3670 C.3   1 <1>   0.2090 
 12 C        6.5890     3.8790    -0.4720 C.3   1 <1>   0.2090 
 13 C        6.2540     6.6970     0.5870 C.3   1 <1>   0.0610 
 14 C        7.0360     5.0980    -1.2820 C.3   1 <1>  -0.1600 
 15 C        6.7590     7.7260     1.6210 C.2   1 <1>   0.5690 
 16 C        7.4030     6.2900    -0.3810 C.3   1 <1>  -0.1600 
 17 C        5.0200     7.2720    -0.1700 C.3   1 <1>  -0.1600 
 18 O        6.3540     7.7110     2.7560 O.2   1 <1>  -0.5700 
 19 N        7.6700     8.6630     1.2810 N.am  1 <1>  -0.8000 
 20 C        5.2610     8.5370    -1.0110 C.3   1 <1>  -0.2400 
 21 H        2.5790     0.8480    -0.0890 H     1 <1>   0.1500 
 22 H        4.8940     1.7210     0.0480 H     1 <1>   0.1500 
 23 H        6.6020     5.1380     2.0370 H     1 <1>   0.0800 
 24 H        4.9550     5.6620     1.9770 H     1 <1>   0.0800 
 25 H        6.2430     3.1150    -1.1460 H     1 <1>   0.0800 
 26 H        7.4180     3.4870     0.0930 H     1 <1>   0.0800 
 27 H        6.2450     5.3720    -1.9580 H     1 <1>   0.0800 
 28 H        7.8870     4.8250    -1.8800 H     1 <1>   0.0800 
 29 H        8.2620     6.0130     0.2070 H     1 <1>   0.0800 
 30 H        7.6950     7.1190    -0.9980 H     1 <1>   0.0800 
 31 H        4.2550     7.4940     0.5550 H     1 <1>   0.0800 
 32 H        4.6070     6.5150    -0.8140 H     1 <1>   0.0800 
 33 H        7.9680     9.3410     1.9810 H     1 <1>   0.3700 
 34 H        8.0240     8.7850     0.3340 H     1 <1>   0.3700 
 35 H        5.6100     9.3480    -0.3990 H     1 <1>   0.0800 
 36 H        4.3340     8.8400    -1.4630 H     1 <1>   0.0800 
 37 H        5.9670     8.3530    -1.8000 H     1 <1>   0.0800 
@<TRIPOS>BOND
  1   1   2  ar  
  2   2   3  ar  
  3   2   4  1   
  4   4   5  ar  
  5   4   6  ar  
  6   5   7  ar  
  7   6   8  ar  
  8   6  21  1   
  9   7   9  ar  
 10   8   9  ar  
 11   8  22  1   
 12   9  10  1   
 13  10  11  1   
 14  10  12  1   
 15  11  13  1   
 16  11  23  1   
 17  11  24  1   
 18  12  14  1   
 19  12  25  1   
 20  12  26  1   
 21  13  15  1   
 22  13  16  1   
 23  13  17  1   
 24  14  16  1   
 25  14  27  1   
 26  14  28  1   
 27  15  18  2   
 28  15  19  am  
 29  16  29  1   
 30  16  30  1   
 31  17  20  1   
 32  17  31  1   
 33  17  32  1   
 34  19  33  1   
 35  19  34  1   
 36  20  35  1   
 37  20  36  1   
 38  20  37  1   
@<TRIPOS>SUBSTRUCTURE
  1 ****   9 GROUP 4 **** **** 0

# MOE 2024.06 (io_trps.svl 2023.06)
