@<TRIPOS>MOLECULE
NONAME
43 46 1 0 0 
SMALL
USER_CHARGES


@<TRIPOS>ATOM
  1 O       -0.0790     0.7280     1.0810 O.2   1 <1>  -0.5700 
  2 C       -0.0550     1.9340     0.9260 C.2   1 <1>   0.5440 
  3 N       -1.2050     2.6640     1.1520 N.am  1 <1>  -0.6600 
  4 C        1.1770     2.5610     0.4940 C.ar  1 <1>   0.0860 
  5 C       -1.4520     4.0220     0.5950 C.3   1 <1>   0.1400 
  6 C       -2.3990     2.0640     1.8130 C.3   1 <1>   0.1400 
  7 C        1.8370     2.1290    -0.6450 C.ar  1 <1>  -0.1500 
  8 C        1.7430     3.6270     1.2300 C.ar  1 <1>  -0.1500 
  9 C       -2.5850     3.9410    -0.4310 C.3   1 <1>  -0.1600 
 10 C       -3.5440     1.9730     0.8030 C.3   1 <1>  -0.1600 
 11 C        3.0140     2.7510    -1.0530 C.ar  1 <1>   0.2270 
 12 C        2.9070     4.2440     0.8380 C.ar  1 <1>  -0.1500 
 13 C       -3.8570     3.3350     0.1760 C.3   1 <1>   0.4180 
 14 N        3.8150     2.5160    -2.1230 N.2   1 <1>  -0.2270 
 15 C        3.5350     3.7870    -0.3240 C.ar  1 <1>  -0.1520 
 16 O       -4.3100     4.1580     1.2250 O.3   1 <1>  -0.5600 
 17 C       -4.9450     3.1740    -0.8830 C.2   1 <1>  -0.2880 
 18 N        4.7910     3.3440    -2.0870 N.2   1 <1>  -0.4180 
 19 N        4.6480     4.1240    -1.0050 N.pl3 1 <1>   0.3000 
 20 C       -5.0620     5.2880     0.8830 C.3   1 <1>   0.1200 
 21 C       -6.0950     3.8510    -0.8860 C.2   1 <1>  -0.2760 
 22 C       -6.3720     4.8800     0.1950 C.3   1 <1>  -0.0220 
 23 C       -7.2000     3.6680    -1.9110 C.3   1 <1>  -0.1020 
 24 H       -0.5710     4.4130     0.1180 H     1 <1>   0.0800 
 25 H       -1.7280     4.6870     1.3960 H     1 <1>   0.0800 
 26 H       -2.6910     2.6850     2.6430 H     1 <1>   0.0800 
 27 H       -2.1720     1.0840     2.1960 H     1 <1>   0.0800 
 28 H        1.4510     1.3100    -1.2250 H     1 <1>   0.1500 
 29 H        1.2340     3.9470     2.1230 H     1 <1>   0.1500 
 30 H       -2.2590     3.3260    -1.2500 H     1 <1>   0.0800 
 31 H       -2.7920     4.9150    -0.8310 H     1 <1>   0.0800 
 32 H       -4.4270     1.5950     1.2850 H     1 <1>   0.0800 
 33 H       -3.2660     1.2750     0.0360 H     1 <1>   0.0800 
 34 H        3.3300     5.0550     1.4060 H     1 <1>   0.1500 
 35 H       -4.6910     2.4430    -1.6290 H     1 <1>   0.1500 
 36 H        5.3150     4.8620    -0.7610 H     1 <1>   0.2700 
 37 H       -4.4740     5.9100     0.2320 H     1 <1>   0.0800 
 38 H       -5.2690     5.8320     1.7870 H     1 <1>   0.0800 
 39 H       -6.8220     5.7580    -0.2310 H     1 <1>   0.0800 
 40 H       -7.0520     4.4710     0.9210 H     1 <1>   0.0800 
 41 H       -7.3760     4.5890    -2.4380 H     1 <1>   0.0800 
 42 H       -8.1090     3.3640    -1.4240 H     1 <1>   0.0800 
 43 H       -6.9280     2.9130    -2.6270 H     1 <1>   0.0800 
@<TRIPOS>BOND
  1   1   2  2   
  2   2   3  am  
  3   2   4  1   
  4   3   5  1   
  5   3   6  1   
  6   4   7  ar  
  7   4   8  ar  
  8   5   9  1   
  9   5  24  1   
 10   5  25  1   
 11   6  10  1   
 12   6  26  1   
 13   6  27  1   
 14   7  11  ar  
 15   7  28  1   
 16   8  12  ar  
 17   8  29  1   
 18   9  13  1   
 19   9  30  1   
 20   9  31  1   
 21  10  13  1   
 22  10  32  1   
 23  10  33  1   
 24  11  14  1   
 25  11  15  ar  
 26  12  15  ar  
 27  12  34  1   
 28  13  16  1   
 29  13  17  1   
 30  14  18  2   
 31  15  19  1   
 32  16  20  1   
 33  17  21  2   
 34  17  35  1   
 35  18  19  1   
 36  19  36  1   
 37  20  22  1   
 38  20  37  1   
 39  20  38  1   
 40  21  22  1   
 41  21  23  1   
 42  22  39  1   
 43  22  40  1   
 44  23  41  1   
 45  23  42  1   
 46  23  43  1   
@<TRIPOS>SUBSTRUCTURE
  1 ****   5 GROUP 4 **** **** 0

# MOE 2024.06 (io_trps.svl 2023.06)
