@<TRIPOS>MOLECULE
NONAME
42 43 1 0 0 
SMALL
USER_CHARGES


@<TRIPOS>ATOM
  1 CL       0.6400     0.7150    -1.3250 Cl    1 <1>  -0.1770 
  2 C       -0.9090     1.4760    -1.0010 C.ar  1 <1>   0.1770 
  3 C       -1.0370     2.4620    -0.0100 C.ar  1 <1>   0.4100 
  4 C       -1.9930     1.0830    -1.7480 C.ar  1 <1>  -0.1500 
  5 N       -2.1980     3.0580     0.2570 N.ar  1 <1>  -0.6200 
  6 N        0.0460     2.8660     0.7600 N.pl3 1 <1>  -0.8380 
  7 C       -3.1910     1.7080    -1.4650 C.ar  1 <1>  -0.1500 
  8 C       -3.2340     2.6700    -0.4700 C.ar  1 <1>   0.1600 
  9 C        0.2460     4.3170     1.0210 C.3   1 <1>   0.2090 
 10 C        0.5160     1.9430     1.8260 C.3   1 <1>   0.1290 
 11 C        1.6710     4.7260     0.6290 C.3   1 <1>  -0.0800 
 12 C        1.9130     6.2300     0.8070 C.3   1 <1>   0.1400 
 13 C        2.0130     4.4290    -0.8400 C.3   1 <1>  -0.0990 
 14 N        2.7620     6.6180    -0.3430 N.am  1 <1>  -0.6600 
 15 C        2.8300     5.6170    -1.2620 C.2   1 <1>   0.5690 
 16 C        3.3570     7.9800    -0.4810 C.3   1 <1>   0.3000 
 17 O        3.4380     5.6230    -2.3050 O.2   1 <1>  -0.5700 
 18 C        4.8780     7.8530    -0.6080 C.3   1 <1>  -0.2400 
 19 C        2.7670     8.6600    -1.7200 C.3   1 <1>  -0.2400 
 20 C        3.0480     8.8560     0.7420 C.3   1 <1>  -0.2400 
 21 H       -1.9030     0.3310    -2.5110 H     1 <1>   0.1500 
 22 H       -4.0820     1.4530    -2.0100 H     1 <1>   0.1500 
 23 H       -4.1760     3.1490    -0.2590 H     1 <1>   0.1500 
 24 H        0.0650     4.5270     2.0610 H     1 <1>   0.0800 
 25 H       -0.4560     4.8910     0.4390 H     1 <1>   0.0800 
 26 H        0.1550     0.9460     1.6420 H     1 <1>   0.0800 
 27 H        0.1500     2.2700     2.7840 H     1 <1>   0.0800 
 28 H        1.5910     1.9220     1.8410 H     1 <1>   0.0800 
 29 H        2.3710     4.2080     1.2600 H     1 <1>   0.0800 
 30 H        2.4130     6.4200     1.7410 H     1 <1>   0.0800 
 31 H        0.9890     6.7820     0.7630 H     1 <1>   0.0800 
 32 H        1.1310     4.3830    -1.4520 H     1 <1>   0.0800 
 33 H        2.5720     3.5180    -0.9410 H     1 <1>   0.0800 
 34 H        5.1450     7.3230    -1.5040 H     1 <1>   0.0800 
 35 H        5.2790     7.3280     0.2390 H     1 <1>   0.0800 
 36 H        5.3320     8.8260    -0.6560 H     1 <1>   0.0800 
 37 H        3.0340     8.1270    -2.6140 H     1 <1>   0.0800 
 38 H        3.1440     9.6620    -1.8120 H     1 <1>   0.0800 
 39 H        1.6960     8.7030    -1.6470 H     1 <1>   0.0800 
 40 H        3.4720     8.4310     1.6330 H     1 <1>   0.0800 
 41 H        1.9880     8.9840     0.8650 H     1 <1>   0.0800 
 42 H        3.4800     9.8320     0.6110 H     1 <1>   0.0800 
@<TRIPOS>BOND
  1   1   2  1   
  2   2   3  ar  
  3   2   4  ar  
  4   3   5  ar  
  5   3   6  1   
  6   4   7  ar  
  7   4  21  1   
  8   5   8  ar  
  9   6   9  1   
 10   6  10  1   
 11   7   8  ar  
 12   7  22  1   
 13   8  23  1   
 14   9  11  1   
 15   9  24  1   
 16   9  25  1   
 17  10  26  1   
 18  10  27  1   
 19  10  28  1   
 20  11  12  1   
 21  11  13  1   
 22  11  29  1   
 23  12  14  1   
 24  12  30  1   
 25  12  31  1   
 26  13  15  1   
 27  13  32  1   
 28  13  33  1   
 29  14  15  am  
 30  14  16  1   
 31  15  17  2   
 32  16  18  1   
 33  16  19  1   
 34  16  20  1   
 35  18  34  1   
 36  18  35  1   
 37  18  36  1   
 38  19  37  1   
 39  19  38  1   
 40  19  39  1   
 41  20  40  1   
 42  20  41  1   
 43  20  42  1   
@<TRIPOS>SUBSTRUCTURE
  1 ****  13 GROUP 4 **** **** 0

# MOE 2024.06 (io_trps.svl 2023.06)
