@<TRIPOS>MOLECULE
NONAME
53 56 1 0 0 
SMALL
USER_CHARGES


@<TRIPOS>ATOM
  1 O        0.8050    -0.5820     1.8620 O.2   1 <1>  -0.5700 
  2 C        1.5380     0.2510     1.3550 C.2   1 <1>   0.5440 
  3 N        1.0240     1.5030     1.0680 N.am  1 <1>  -0.6600 
  4 C        2.9040    -0.0980     1.0640 C.ar  1 <1>   0.0860 
  5 C       -0.3860     1.8680     1.3940 C.3   1 <1>   0.1400 
  6 C        1.7940     2.5860     0.3890 C.3   1 <1>   0.1400 
  7 C        3.2280    -1.0490     0.0760 C.ar  1 <1>   0.4100 
  8 C        3.9450     0.4920     1.7670 C.ar  1 <1>  -0.1500 
  9 C       -1.1220     2.2990     0.1220 C.3   1 <1>  -0.1600 
 10 C        1.0670     3.0420    -0.8810 C.3   1 <1>  -0.1600 
 11 N        4.4760    -1.3980    -0.2250 N.ar  1 <1>  -0.6200 
 12 N        2.2810    -1.7330    -0.6560 N.pl3 1 <1>  -0.8380 
 13 C        5.2340     0.1260     1.4510 C.ar  1 <1>  -0.1500 
 14 C       -0.3880     3.4380    -0.5970 C.3   1 <1>  -0.1600 
 15 C        5.4380    -0.8120     0.4560 C.ar  1 <1>   0.1600 
 16 C        1.2530    -1.0750    -1.5070 C.3   1 <1>   0.2090 
 17 C        1.7560    -3.0060    -0.1160 C.3   1 <1>   0.2090 
 18 C       -0.0370    -1.8700    -1.2820 C.3   1 <1>   0.2000 
 19 C        0.4490    -3.2640    -0.8710 C.3   1 <1>  -0.0800 
 20 O       -0.7740    -1.2950    -0.2540 O.3   1 <1>  -0.6800 
 21 C       -0.5670    -4.1040    -0.0760 C.3   1 <1>   0.0200 
 22 C       -0.1100    -5.5370     0.1470 C.2   1 <1>  -0.0400 
 23 O       -0.8320    -6.3170     0.9070 O.3   1 <1>  -0.0190 
 24 C        0.9400    -6.2520    -0.2890 C.2   1 <1>  -0.1500 
 25 N       -0.3220    -7.5110     1.0050 N.2   1 <1>  -0.4100 
 26 C        0.7480    -7.5010     0.2950 C.2   1 <1>   0.1080 
 27 C        1.6670    -8.6890     0.1250 C.3   1 <1>  -0.0590 
 28 H       -0.9080     1.0400     1.8420 H     1 <1>   0.0800 
 29 H       -0.3810     2.6770     2.1040 H     1 <1>   0.0800 
 30 H        1.8910     3.4180     1.0660 H     1 <1>   0.0800 
 31 H        2.7820     2.2560     0.1230 H     1 <1>   0.0800 
 32 H        3.7410     1.2130     2.5390 H     1 <1>   0.1500 
 33 H       -1.2090     1.4490    -0.5320 H     1 <1>   0.0800 
 34 H       -2.1170     2.6140     0.3790 H     1 <1>   0.0800 
 35 H        1.5900     3.8800    -1.3070 H     1 <1>   0.0800 
 36 H        1.0900     2.2460    -1.6040 H     1 <1>   0.0800 
 37 H        6.0730     0.5570     1.9670 H     1 <1>   0.1500 
 38 H       -0.4050     4.3190     0.0220 H     1 <1>   0.0800 
 39 H       -0.8910     3.6700    -1.5200 H     1 <1>   0.0800 
 40 H        6.4480    -1.0960     0.2120 H     1 <1>   0.1500 
 41 H        1.1270    -0.0350    -1.2720 H     1 <1>   0.0800 
 42 H        1.5590    -1.1690    -2.5340 H     1 <1>   0.0800 
 43 H        2.4700    -3.7960    -0.2710 H     1 <1>   0.0800 
 44 H        1.5720    -2.8990     0.9410 H     1 <1>   0.0800 
 45 H       -0.6590    -1.8910    -2.1600 H     1 <1>   0.0800 
 46 H        0.7000    -3.7910    -1.7740 H     1 <1>   0.0800 
 47 H       -0.1850    -1.1120     0.5270 H     1 <1>   0.4000 
 48 H       -1.5040    -4.1240    -0.6040 H     1 <1>   0.0800 
 49 H       -0.7450    -3.6490     0.8840 H     1 <1>   0.0800 
 50 H        1.7540    -5.9770    -0.9330 H     1 <1>   0.1500 
 51 H        1.7480    -8.9410    -0.9160 H     1 <1>   0.0800 
 52 H        1.2760    -9.5350     0.6590 H     1 <1>   0.0800 
 53 H        2.6420    -8.4540     0.5100 H     1 <1>   0.0800 
@<TRIPOS>BOND
  1   1   2  2   
  2   2   3  am  
  3   2   4  1   
  4   3   5  1   
  5   3   6  1   
  6   4   7  ar  
  7   4   8  ar  
  8   5   9  1   
  9   5  28  1   
 10   5  29  1   
 11   6  10  1   
 12   6  30  1   
 13   6  31  1   
 14   7  11  ar  
 15   7  12  1   
 16   8  13  ar  
 17   8  32  1   
 18   9  14  1   
 19   9  33  1   
 20   9  34  1   
 21  10  14  1   
 22  10  35  1   
 23  10  36  1   
 24  11  15  ar  
 25  12  16  1   
 26  12  17  1   
 27  13  15  ar  
 28  13  37  1   
 29  14  38  1   
 30  14  39  1   
 31  15  40  1   
 32  16  18  1   
 33  16  41  1   
 34  16  42  1   
 35  17  19  1   
 36  17  43  1   
 37  17  44  1   
 38  18  19  1   
 39  18  20  1   
 40  18  45  1   
 41  19  21  1   
 42  19  46  1   
 43  20  47  1   
 44  21  22  1   
 45  21  48  1   
 46  21  49  1   
 47  22  23  1   
 48  22  24  2   
 49  23  25  1   
 50  24  26  1   
 51  24  50  1   
 52  25  26  2   
 53  26  27  1   
 54  27  51  1   
 55  27  52  1   
 56  27  53  1   
@<TRIPOS>SUBSTRUCTURE
  1 ****  12 GROUP 4 **** **** 0

# MOE 2024.06 (io_trps.svl 2023.06)
