@<TRIPOS>MOLECULE
NONAME
39 40 1 0 0 
SMALL
USER_CHARGES


@<TRIPOS>ATOM
  1 S        0.5010     0.0530    -1.1860 S.o2  1 <1>   1.3330 
  2 O        1.7820    -0.6090    -1.2920 O.2   1 <1>  -0.6500 
  3 O       -0.2930     0.2620    -2.3760 O.2   1 <1>  -0.6500 
  4 N       -0.4600    -0.8450    -0.1090 N.am  1 <1>  -0.8490 
  5 C        0.7120     1.6270    -0.3390 C.3   1 <1>  -0.0550 
  6 C       -0.2350    -2.2880    -0.2350 C.3   1 <1>   0.1160 
  7 C       -1.8950    -0.5580    -0.2270 C.3   1 <1>   0.1160 
  8 C        1.7930     1.7040     0.7630 C.3   1 <1>  -0.0800 
  9 C        3.2220     1.6000     0.2220 C.3   1 <1>   0.2200 
 10 C        1.7400     0.6430     1.8660 C.3   1 <1>   0.1200 
 11 N        3.9220     2.8870     0.4320 N.am  1 <1>  -0.7300 
 12 C        3.8400     0.4910     1.0720 C.3   1 <1>   0.1200 
 13 O        3.0650     0.4390     2.2280 O.3   1 <1>  -0.5600 
 14 C        3.8520     3.9720    -0.3980 C.2   1 <1>   0.5440 
 15 O        3.1480     3.8800    -1.3890 O.2   1 <1>  -0.5700 
 16 C        4.5770     5.2030    -0.0930 C.ar  1 <1>   0.3960 
 17 N        5.3020     5.2900     1.0380 N.ar  1 <1>  -0.6200 
 18 C        4.5010     6.2770    -0.9880 C.ar  1 <1>   0.1600 
 19 C        5.9000     6.4580     1.1850 C.ar  1 <1>   0.1600 
 20 N        5.1000     7.4490    -0.8390 N.ar  1 <1>  -0.6200 
 21 C        5.8030     7.5050     0.2780 C.ar  1 <1>   0.1600 
 22 H        0.9580     2.3680    -1.0750 H     1 <1>   0.0800 
 23 H       -0.2280     1.9170     0.0850 H     1 <1>   0.0800 
 24 H       -0.8510    -2.8260     0.4640 H     1 <1>   0.0800 
 25 H        0.7950    -2.5220    -0.0220 H     1 <1>   0.0800 
 26 H       -0.4620    -2.6160    -1.2360 H     1 <1>   0.0800 
 27 H       -2.4400    -1.0800     0.5410 H     1 <1>   0.0800 
 28 H       -2.2630    -0.8690    -1.1910 H     1 <1>   0.0800 
 29 H       -2.0760     0.4970    -0.1140 H     1 <1>   0.0800 
 30 H        1.6750     2.6570     1.2490 H     1 <1>   0.0800 
 31 H        3.2640     1.3380    -0.8220 H     1 <1>   0.0800 
 32 H        1.3580    -0.3010     1.5240 H     1 <1>   0.0800 
 33 H        1.1860     0.9700     2.7290 H     1 <1>   0.0800 
 34 H        4.4180     2.9900     1.3240 H     1 <1>   0.3700 
 35 H        4.8670     0.6780     1.3300 H     1 <1>   0.0800 
 36 H        3.7500    -0.4590     0.5730 H     1 <1>   0.0800 
 37 H        3.9080     6.1510    -1.8770 H     1 <1>   0.1500 
 38 H        6.4980     6.5990     2.0690 H     1 <1>   0.1500 
 39 H        6.3270     8.4220     0.4850 H     1 <1>   0.1500 
@<TRIPOS>BOND
  1   1   2  2   
  2   1   3  2   
  3   1   4  am  
  4   1   5  1   
  5   4   6  1   
  6   4   7  1   
  7   5   8  1   
  8   5  22  1   
  9   5  23  1   
 10   6  24  1   
 11   6  25  1   
 12   6  26  1   
 13   7  27  1   
 14   7  28  1   
 15   7  29  1   
 16   8   9  1   
 17   8  10  1   
 18   8  30  1   
 19   9  11  1   
 20   9  12  1   
 21   9  31  1   
 22  10  13  1   
 23  10  32  1   
 24  10  33  1   
 25  11  14  am  
 26  11  34  1   
 27  12  13  1   
 28  12  35  1   
 29  12  36  1   
 30  14  15  2   
 31  14  16  1   
 32  16  17  ar  
 33  16  18  ar  
 34  17  19  ar  
 35  18  20  ar  
 36  18  37  1   
 37  19  21  ar  
 38  19  38  1   
 39  20  21  ar  
 40  21  39  1   
@<TRIPOS>SUBSTRUCTURE
  1 ****   9 GROUP 4 **** **** 0

# MOE 2024.06 (io_trps.svl 2023.06)
