@<TRIPOS>MOLECULE
NONAME
58 60 1 0 0 
SMALL
USER_CHARGES


@<TRIPOS>ATOM
  1 S       -2.2970     0.5630     0.0350 S.3   1 <1>  -0.4600 
  2 C       -3.1010    -0.1780    -1.4330 C.3   1 <1>   0.1310 
  3 C       -2.6190    -0.6550     1.3410 C.3   1 <1>  -0.0100 
  4 C       -4.5500    -0.5740    -1.1570 C.2   1 <1>   0.5690 
  5 O       -4.8060    -1.7560    -1.1890 O.2   1 <1>  -0.5700 
  6 N       -5.5200     0.3640    -0.8920 N.am  1 <1>  -0.6600 
  7 C       -6.9110    -0.0690    -0.5600 C.3   1 <1>   0.1400 
  8 C       -5.2490     1.8330    -0.8240 C.3   1 <1>   0.1400 
  9 C       -7.5450     0.9110     0.4280 C.3   1 <1>  -0.1600 
 10 C       -6.5190     2.6080    -1.1750 C.3   1 <1>  -0.1600 
 11 C       -7.6510     2.3510    -0.1450 C.3   1 <1>   0.2800 
 12 O       -7.3670     3.2240     0.9210 O.3   1 <1>  -0.5600 
 13 C       -9.0930     2.6520    -0.6920 C.3   1 <1>   0.2000 
 14 C       -8.4060     3.4700     1.8230 C.3   1 <1>   0.1200 
 15 O       -9.2610     2.3160    -2.0430 O.3   1 <1>  -0.6800 
 16 C       -9.5990     4.0920    -0.3700 C.3   1 <1>   0.3000 
 17 C       -9.4790     4.3380     1.1480 C.3   1 <1>  -0.1600 
 18 N      -11.0110     4.3660    -0.7580 N.am  1 <1>  -0.7300 
 19 C       -8.7980     5.1680    -1.1230 C.3   1 <1>  -0.2400 
 20 C      -12.1560     3.6610    -0.9710 C.2   1 <1>   0.5690 
 21 O      -13.1500     4.2960    -1.2170 O.2   1 <1>  -0.5700 
 22 C      -12.3080     2.1470    -0.9360 C.3   1 <1>   0.1570 
 23 N      -12.0850     1.5810     0.4120 N.pl3 1 <1>   0.0480 
 24 C      -11.5090     0.3920     0.7270 C.2   1 <1>   0.0060 
 25 C      -12.3460     2.1550     1.6020 C.2   1 <1>  -0.3020 
 26 N      -11.3630     0.2050     1.9970 N.2   1 <1>  -0.5650 
 27 C      -11.0700    -0.6320    -0.3030 C.3   1 <1>  -0.0600 
 28 C      -11.8980     1.3070     2.5510 C.2   1 <1>   0.0770 
 29 H       -3.0440     0.5380    -2.2300 H     1 <1>   0.0800 
 30 H       -2.5270    -1.0470    -1.6950 H     1 <1>   0.0800 
 31 H       -2.0960    -0.3350     2.2240 H     1 <1>   0.0800 
 32 H       -2.2570    -1.6100     1.0040 H     1 <1>   0.0800 
 33 H       -3.6800    -0.6860     1.5150 H     1 <1>   0.0800 
 34 H       -7.4940    -0.1130    -1.4650 H     1 <1>   0.0800 
 35 H       -6.8940    -1.0530    -0.1230 H     1 <1>   0.0800 
 36 H       -4.9270     2.0910     0.1720 H     1 <1>   0.0800 
 37 H       -4.4680     2.1030    -1.5130 H     1 <1>   0.0800 
 38 H       -6.9280     0.9140     1.3100 H     1 <1>   0.0800 
 39 H       -8.5050     0.5320     0.7220 H     1 <1>   0.0800 
 40 H       -6.8040     2.2960    -2.1610 H     1 <1>   0.0800 
 41 H       -6.2850     3.6530    -1.2220 H     1 <1>   0.0800 
 42 H       -9.7330     1.9930    -0.1560 H     1 <1>   0.0800 
 43 H       -8.8170     2.5280     2.1490 H     1 <1>   0.0800 
 44 H       -7.9920     3.9760     2.6780 H     1 <1>   0.0800 
 45 H       -8.8110     2.9760    -2.6060 H     1 <1>   0.4000 
 46 H      -10.4110     4.1240     1.6370 H     1 <1>   0.0800 
 47 H       -9.2550     5.3710     1.3440 H     1 <1>   0.0800 
 48 H      -11.1780     5.3700    -0.8400 H     1 <1>   0.3700 
 49 H       -7.7820     5.1990    -0.7790 H     1 <1>   0.0800 
 50 H       -9.2150     6.1440    -0.9490 H     1 <1>   0.0800 
 51 H       -8.7990     4.9800    -2.1810 H     1 <1>   0.0800 
 52 H      -11.6330     1.7040    -1.6380 H     1 <1>   0.0800 
 53 H      -13.3070     1.8970    -1.2380 H     1 <1>   0.0800 
 54 H      -12.8250     3.1120     1.7090 H     1 <1>   0.1500 
 55 H      -10.6290    -1.4790     0.1920 H     1 <1>   0.0800 
 56 H      -10.3430    -0.2120    -0.9740 H     1 <1>   0.0800 
 57 H      -11.9190    -0.9730    -0.8670 H     1 <1>   0.0800 
 58 H      -11.9370     1.4310     3.6210 H     1 <1>   0.1500 
@<TRIPOS>BOND
  1   1   2  1   
  2   1   3  1   
  3   2   4  1   
  4   2  29  1   
  5   2  30  1   
  6   3  31  1   
  7   3  32  1   
  8   3  33  1   
  9   4   5  2   
 10   4   6  am  
 11   6   7  1   
 12   6   8  1   
 13   7   9  1   
 14   7  34  1   
 15   7  35  1   
 16   8  10  1   
 17   8  36  1   
 18   8  37  1   
 19   9  11  1   
 20   9  38  1   
 21   9  39  1   
 22  10  11  1   
 23  10  40  1   
 24  10  41  1   
 25  11  12  1   
 26  11  13  1   
 27  12  14  1   
 28  13  15  1   
 29  13  16  1   
 30  13  42  1   
 31  14  17  1   
 32  14  43  1   
 33  14  44  1   
 34  15  45  1   
 35  16  17  1   
 36  16  18  1   
 37  16  19  1   
 38  17  46  1   
 39  17  47  1   
 40  18  20  am  
 41  18  48  1   
 42  19  49  1   
 43  19  50  1   
 44  19  51  1   
 45  20  21  2   
 46  20  22  1   
 47  22  23  1   
 48  22  52  1   
 49  22  53  1   
 50  23  24  1   
 51  23  25  1   
 52  24  26  2   
 53  24  27  1   
 54  25  28  2   
 55  25  54  1   
 56  26  28  1   
 57  27  55  1   
 58  27  56  1   
 59  27  57  1   
 60  28  58  1   
@<TRIPOS>SUBSTRUCTURE
  1 ****  11 GROUP 4 **** **** 0

# MOE 2024.06 (io_trps.svl 2023.06)
