@<TRIPOS>MOLECULE
NONAME
50 51 1 0 0 
SMALL
USER_CHARGES


@<TRIPOS>ATOM
  1 S        0.5660     0.1820    -1.4510 S.o2  1 <1>   1.3330 
  2 O        0.9010    -1.2140    -1.6240 O.2   1 <1>  -0.6500 
  3 O       -0.2040     0.8670    -2.4640 O.2   1 <1>  -0.6500 
  4 N       -0.2810     0.3370     0.0150 N.am  1 <1>  -0.8490 
  5 C        2.0900     1.0840    -1.1580 C.3   1 <1>  -0.0550 
  6 C       -1.0150     1.6020     0.1300 C.3   1 <1>   0.1160 
  7 C       -1.1940    -0.7870     0.2460 C.3   1 <1>   0.1160 
  8 C        3.0360     0.4150    -0.1370 C.3   1 <1>  -0.0800 
  9 C        4.4050     1.0670    -0.0130 C.3   1 <1>   0.2200 
 10 C        2.5350     0.4010     1.3130 C.3   1 <1>   0.1200 
 11 N        4.2850     2.5430     0.0170 N.am  1 <1>  -0.7300 
 12 C        4.8170     0.5840     1.3700 C.3   1 <1>   0.1200 
 13 O        3.6480     0.6430     2.1270 O.3   1 <1>  -0.5600 
 14 C        4.5520     3.3660    -1.0240 C.2   1 <1>   0.5690 
 15 O        4.8600     2.9390    -2.1080 O.2   1 <1>  -0.5700 
 16 C        4.4480     4.8590    -0.8150 C.3   1 <1>  -0.0990 
 17 C        5.8090     5.4590    -0.4490 C.3   1 <1>  -0.0170 
 18 C        5.6720     6.9480    -0.1820 C.ar  1 <1>  -0.1440 
 19 C        5.4960     7.4180     1.1100 C.ar  1 <1>  -0.1500 
 20 C        5.7180     7.8520    -1.2310 C.ar  1 <1>  -0.1500 
 21 C        5.3660     8.7760     1.3480 C.ar  1 <1>  -0.1500 
 22 C        5.5870     9.2090    -0.9920 C.ar  1 <1>  -0.1500 
 23 C        5.4090     9.6790     0.2990 C.ar  1 <1>  -0.1440 
 24 C        5.2690    11.1670     0.5610 C.3   1 <1>  -0.0970 
 25 H        2.6150     1.1650    -2.0900 H     1 <1>   0.0800 
 26 H        1.8540     2.0790    -0.8390 H     1 <1>   0.0800 
 27 H       -1.4550     1.6860     1.1090 H     1 <1>   0.0800 
 28 H       -1.7960     1.6530    -0.6110 H     1 <1>   0.0800 
 29 H       -0.3480     2.4340    -0.0150 H     1 <1>   0.0800 
 30 H       -1.7070    -0.6650     1.1840 H     1 <1>   0.0800 
 31 H       -0.6410    -1.7110     0.2830 H     1 <1>   0.0800 
 32 H       -1.9180    -0.8500    -0.5500 H     1 <1>   0.0800 
 33 H        3.1880    -0.6080    -0.4370 H     1 <1>   0.0800 
 34 H        5.0910     0.7530    -0.7830 H     1 <1>   0.0800 
 35 H        2.1060    -0.5500     1.5780 H     1 <1>   0.0800 
 36 H        1.8220     1.1850     1.5000 H     1 <1>   0.0800 
 37 H        4.0000     2.9150     0.9270 H     1 <1>   0.3700 
 38 H        5.5770     1.1970     1.8200 H     1 <1>   0.0800 
 39 H        5.1410    -0.4420     1.3380 H     1 <1>   0.0800 
 40 H        4.0890     5.3100    -1.7220 H     1 <1>   0.0800 
 41 H        3.7370     5.0660    -0.0370 H     1 <1>   0.0800 
 42 H        6.5030     5.2960    -1.2560 H     1 <1>   0.0800 
 43 H        6.2030     4.9670     0.4240 H     1 <1>   0.0800 
 44 H        5.4610     6.7330     1.9380 H     1 <1>   0.1500 
 45 H        5.8550     7.5030    -2.2400 H     1 <1>   0.1500 
 46 H        5.2330     9.1260     2.3560 H     1 <1>   0.1500 
 47 H        5.6270     9.8980    -1.8170 H     1 <1>   0.1500 
 48 H        4.6530    11.3410     1.4250 H     1 <1>   0.0800 
 49 H        4.8150    11.6560    -0.2820 H     1 <1>   0.0800 
 50 H        6.2390    11.5990     0.7330 H     1 <1>   0.0800 
@<TRIPOS>BOND
  1   1   2  2   
  2   1   3  2   
  3   1   4  am  
  4   1   5  1   
  5   4   6  1   
  6   4   7  1   
  7   5   8  1   
  8   5  25  1   
  9   5  26  1   
 10   6  27  1   
 11   6  28  1   
 12   6  29  1   
 13   7  30  1   
 14   7  31  1   
 15   7  32  1   
 16   8   9  1   
 17   8  10  1   
 18   8  33  1   
 19   9  11  1   
 20   9  12  1   
 21   9  34  1   
 22  10  13  1   
 23  10  35  1   
 24  10  36  1   
 25  11  14  am  
 26  11  37  1   
 27  12  13  1   
 28  12  38  1   
 29  12  39  1   
 30  14  15  2   
 31  14  16  1   
 32  16  17  1   
 33  16  40  1   
 34  16  41  1   
 35  17  18  1   
 36  17  42  1   
 37  17  43  1   
 38  18  19  ar  
 39  18  20  ar  
 40  19  21  ar  
 41  19  44  1   
 42  20  22  ar  
 43  20  45  1   
 44  21  23  ar  
 45  21  46  1   
 46  22  23  ar  
 47  22  47  1   
 48  23  24  1   
 49  24  48  1   
 50  24  49  1   
 51  24  50  1   
@<TRIPOS>SUBSTRUCTURE
  1 ****  11 GROUP 4 **** **** 0

# MOE 2024.06 (io_trps.svl 2023.06)
