@<TRIPOS>MOLECULE
NONAME
50 54 1 0 0 
SMALL
USER_CHARGES


@<TRIPOS>ATOM
  1 O       -1.0170     4.5960     2.5200 O.2   1 <1>  -0.5700 
  2 C       -0.6660     4.2380     1.4050 C.2   1 <1>   0.7160 
  3 N       -1.6540     3.8070     0.5290 N.am  1 <1>  -0.6600 
  4 C        0.7540     4.2950     1.0170 C.2   1 <1>   0.4300 
  5 C       -3.1090     3.9830     0.8550 C.3   1 <1>   0.1400 
  6 C       -1.3270     3.2210    -0.8060 C.3   1 <1>   0.1400 
  7 N        1.1900     4.8370    -0.1090 N.2   1 <1>  -0.7070 
  8 N        1.7300     3.7810     1.8020 N.2   1 <1>  -0.5650 
  9 C       -3.9260     4.3520    -0.3980 C.3   1 <1>   0.1430 
 10 C       -2.5050     2.4130    -1.3600 C.3   1 <1>  -0.1600 
 11 N        2.4960     4.6810    -0.0220 N.pl3 1 <1>   0.6010 
 12 C        2.8020     4.0350     1.1350 C.2   1 <1>   0.3120 
 13 C       -5.3610     4.5980     0.0360 C.ar  1 <1>   0.1660 
 14 C       -3.8050     3.2350    -1.4710 C.3   1 <1>  -0.1600 
 15 C       -3.5080     5.7500    -0.9430 C.3   1 <1>  -0.1600 
 16 C        3.4970     5.0520    -0.8950 C.2   1 <1>  -0.1810 
 17 N        4.0890     3.7130     1.5010 N.2   1 <1>  -0.5760 
 18 N       -6.2200     3.6700     0.3780 N.ar  1 <1>  -0.6200 
 19 C       -5.6590     5.9270     0.0610 C.ar  1 <1>  -0.1430 
 20 C       -4.4850     6.7770    -0.3470 C.3   1 <1>  -0.0170 
 21 C        4.7750     4.7440    -0.5470 C.2   1 <1>  -0.1360 
 22 C        5.0220     4.0630     0.6790 C.2   1 <1>   0.3760 
 23 C       -7.4250     4.1130     0.7410 C.ar  1 <1>   0.7200 
 24 C       -6.9230     6.2900     0.4480 C.ar  1 <1>   0.1600 
 25 N       -7.8160     5.3910     0.7870 N.ar  1 <1>  -0.6200 
 26 N       -8.3560     3.1590     1.1050 N.pl3 1 <1>  -0.8380 
 27 C       -9.8020     3.4820     1.2450 C.3   1 <1>   0.1290 
 28 C       -7.9740     1.7510     1.4040 C.3   1 <1>   0.1290 
 29 H       -3.2360     4.7520     1.5980 H     1 <1>   0.0800 
 30 H       -3.4880     3.0650     1.2700 H     1 <1>   0.0800 
 31 H       -0.4670     2.5790    -0.7180 H     1 <1>   0.0800 
 32 H       -1.0850     4.0180    -1.4890 H     1 <1>   0.0800 
 33 H       -2.6700     1.5750    -0.7040 H     1 <1>   0.0800 
 34 H       -2.2480     2.0140    -2.3250 H     1 <1>   0.0800 
 35 H       -3.8840     3.6560    -2.4570 H     1 <1>   0.0800 
 36 H       -4.6270     2.5480    -1.3700 H     1 <1>   0.0800 
 37 H       -3.6190     5.7780    -2.0120 H     1 <1>   0.0800 
 38 H       -2.4890     6.0040    -0.7080 H     1 <1>   0.0800 
 39 H        3.1960     5.5610    -1.7910 H     1 <1>   0.1500 
 40 H       -4.7630     7.5260    -1.0680 H     1 <1>   0.0800 
 41 H       -4.0580     7.2450     0.5240 H     1 <1>   0.0800 
 42 H        5.6180     4.9950    -1.1660 H     1 <1>   0.1500 
 43 H        6.0450     3.8340     0.9240 H     1 <1>   0.0600 
 44 H       -7.2060     7.3280     0.4820 H     1 <1>   0.1500 
 45 H      -10.0760     4.2810     0.5770 H     1 <1>   0.0800 
 46 H      -10.0060     3.7860     2.2560 H     1 <1>   0.0800 
 47 H      -10.4000     2.6200     1.0040 H     1 <1>   0.0800 
 48 H       -6.9610     1.7030     1.7660 H     1 <1>   0.0800 
 49 H       -8.0540     1.1600     0.5080 H     1 <1>   0.0800 
 50 H       -8.6210     1.3440     2.1590 H     1 <1>   0.0800 
@<TRIPOS>BOND
  1   1   2  2   
  2   2   3  am  
  3   2   4  1   
  4   3   5  1   
  5   3   6  1   
  6   4   7  2   
  7   4   8  1   
  8   5   9  1   
  9   5  29  1   
 10   5  30  1   
 11   6  10  1   
 12   6  31  1   
 13   6  32  1   
 14   7  11  1   
 15   8  12  2   
 16   9  13  1   
 17   9  14  1   
 18   9  15  1   
 19  10  14  1   
 20  10  33  1   
 21  10  34  1   
 22  11  12  1   
 23  11  16  1   
 24  12  17  1   
 25  13  18  ar  
 26  13  19  ar  
 27  14  35  1   
 28  14  36  1   
 29  15  20  1   
 30  15  37  1   
 31  15  38  1   
 32  16  21  2   
 33  16  39  1   
 34  17  22  2   
 35  18  23  ar  
 36  19  20  1   
 37  19  24  ar  
 38  20  40  1   
 39  20  41  1   
 40  21  22  1   
 41  21  42  1   
 42  22  43  1   
 43  23  25  ar  
 44  23  26  1   
 45  24  25  ar  
 46  24  44  1   
 47  26  27  1   
 48  26  28  1   
 49  27  45  1   
 50  27  46  1   
 51  27  47  1   
 52  28  48  1   
 53  28  49  1   
 54  28  50  1   
@<TRIPOS>SUBSTRUCTURE
  1 ****   3 GROUP 4 **** **** 0

# MOE 2024.06 (io_trps.svl 2023.06)
