@<TRIPOS>MOLECULE
NONAME
56 58 1 0 0 
SMALL
USER_CHARGES


@<TRIPOS>ATOM
  1 O       -4.7320    -1.4860     0.8940 O.3   1 <1>  -0.5600 
  2 C       -3.6570    -1.0850     0.0840 C.3   1 <1>   0.3800 
  3 C       -4.9000    -0.7180     2.0500 C.3   1 <1>   0.1200 
  4 C       -3.6850    -1.9130    -1.1950 C.2   1 <1>  -0.0400 
  5 C       -2.3440    -1.2680     0.8610 C.3   1 <1>  -0.1600 
  6 C       -3.6700    -0.8680     2.9530 C.3   1 <1>  -0.1600 
  7 O       -3.5150    -3.2190    -1.1290 O.3   1 <1>  -0.2800 
  8 C       -3.8770    -1.5350    -2.4780 C.2   1 <1>  -0.1500 
  9 C       -2.3830    -0.5160     2.1970 C.3   1 <1>  -0.1600 
 10 C       -3.6080    -3.7090    -2.3510 C.2   1 <1>  -0.0400 
 11 C       -3.8280    -2.7130    -3.2360 C.2   1 <1>  -0.1500 
 12 C       -3.4750    -5.2100    -2.5430 C.3   1 <1>   0.2900 
 13 N       -4.4070    -5.8750    -1.6160 N.3   1 <1>  -0.8100 
 14 C       -3.8540    -6.9100    -0.7370 C.3   1 <1>   0.2900 
 15 C       -5.8160    -6.0180    -2.0370 C.3   1 <1>   0.1100 
 16 C       -3.9510    -6.3700     0.6720 C.2   1 <1>  -0.3320 
 17 C       -6.7700    -5.6100    -0.8970 C.3   1 <1>   0.3430 
 18 N       -3.3790    -5.2040     1.0270 N.pl3 1 <1>   0.0330 
 19 C       -4.5570    -6.8470     1.7830 C.2   1 <1>   0.0460 
 20 N       -6.3250    -4.3130    -0.3210 N.4   1 <1>  -0.9590 
 21 C       -3.6850    -5.0390     2.3270 C.2   1 <1>   0.0360 
 22 N       -4.4040    -5.9970     2.8150 N.2   1 <1>  -0.5650 
 23 C       -5.3290    -8.1310     1.9870 C.3   1 <1>  -0.0590 
 24 C       -6.6580    -4.1750     1.1240 C.3   1 <1>   0.2630 
 25 C       -6.7480    -3.1210    -1.1030 C.3   1 <1>   0.2630 
 26 H       -3.7980    -0.0470    -0.1650 H     1 <1>   0.0800 
 27 H       -5.7810    -1.0680     2.5570 H     1 <1>   0.0800 
 28 H       -5.0480     0.3110     1.7640 H     1 <1>   0.0800 
 29 H       -1.5240    -0.9090     0.2640 H     1 <1>   0.0800 
 30 H       -2.1840    -2.3150     1.0410 H     1 <1>   0.0800 
 31 H       -3.6210    -1.8810     3.3100 H     1 <1>   0.0800 
 32 H       -3.7740    -0.2270     3.8100 H     1 <1>   0.0800 
 33 H       -4.0400    -0.5480    -2.8760 H     1 <1>   0.1500 
 34 H       -2.3600     0.5450     2.0100 H     1 <1>   0.0800 
 35 H       -1.5220    -0.7680     2.7920 H     1 <1>   0.0800 
 36 H       -3.9470    -2.7690    -4.3050 H     1 <1>   0.1500 
 37 H       -2.4590    -5.4880    -2.3220 H     1 <1>   0.0800 
 38 H       -3.6900    -5.4880    -3.5610 H     1 <1>   0.0800 
 39 H       -2.8230    -7.1130    -0.9740 H     1 <1>   0.0800 
 40 H       -4.4070    -7.8280    -0.8370 H     1 <1>   0.0800 
 41 H       -6.0130    -7.0320    -2.3400 H     1 <1>   0.0800 
 42 H       -6.0080    -5.3810    -2.8840 H     1 <1>   0.0800 
 43 H       -6.7230    -6.3710    -0.1360 H     1 <1>   0.0800 
 44 H       -7.7850    -5.5430    -1.2510 H     1 <1>   0.0800 
 45 H       -2.8670    -4.5560     0.4150 H     1 <1>   0.2700 
 46 H       -5.2840    -4.3730    -0.3990 H     1 <1>   0.4500 
 47 H       -3.3570    -4.1800     2.8860 H     1 <1>   0.1500 
 48 H       -5.3680    -8.7070     1.0820 H     1 <1>   0.0800 
 49 H       -6.3290    -7.9060     2.3080 H     1 <1>   0.0800 
 50 H       -4.8480    -8.7160     2.7490 H     1 <1>   0.0800 
 51 H       -7.7210    -4.0680     1.2570 H     1 <1>   0.0800 
 52 H       -6.1640    -3.3090     1.5340 H     1 <1>   0.0800 
 53 H       -6.3260    -5.0420     1.6690 H     1 <1>   0.0800 
 54 H       -7.8210    -3.0390    -1.1160 H     1 <1>   0.0800 
 55 H       -6.3840    -3.1940    -2.1140 H     1 <1>   0.0800 
 56 H       -6.3350    -2.2280    -0.6610 H     1 <1>   0.0800 
@<TRIPOS>BOND
  1   1   2  1   
  2   1   3  1   
  3   2   4  1   
  4   2   5  1   
  5   2  26  1   
  6   3   6  1   
  7   3  27  1   
  8   3  28  1   
  9   4   7  1   
 10   4   8  2   
 11   5   9  1   
 12   5  29  1   
 13   5  30  1   
 14   6   9  1   
 15   6  31  1   
 16   6  32  1   
 17   7  10  1   
 18   8  11  1   
 19   8  33  1   
 20   9  34  1   
 21   9  35  1   
 22  10  11  2   
 23  10  12  1   
 24  11  36  1   
 25  12  13  1   
 26  12  37  1   
 27  12  38  1   
 28  13  14  1   
 29  13  15  1   
 30  14  16  1   
 31  14  39  1   
 32  14  40  1   
 33  15  17  1   
 34  15  41  1   
 35  15  42  1   
 36  16  18  1   
 37  16  19  2   
 38  17  20  1   
 39  17  43  1   
 40  17  44  1   
 41  18  21  1   
 42  18  45  1   
 43  19  22  1   
 44  19  23  1   
 45  20  24  1   
 46  20  25  1   
 47  20  46  1   
 48  21  22  2   
 49  21  47  1   
 50  23  48  1   
 51  23  49  1   
 52  23  50  1   
 53  24  51  1   
 54  24  52  1   
 55  24  53  1   
 56  25  54  1   
 57  25  55  1   
 58  25  56  1   
@<TRIPOS>SUBSTRUCTURE
  1 ****   7 GROUP 4 **** **** 0

# MOE 2024.06 (io_trps.svl 2023.06)
