@<TRIPOS>MOLECULE
NONAME
31 31 1 0 0 
SMALL
USER_CHARGES


@<TRIPOS>ATOM
  1 O       -0.7730     0.7260     0.3350 O.2   1 <1>  -0.5700 
  2 C       -0.4960     1.8750     0.1790 C.2   1 <1>   0.4480 
  3 C       -0.6170     2.5510    -1.1760 C.3   1 <1>  -0.0990 
  4 C       -0.0070     2.7410     1.3280 C.3   1 <1>  -0.0990 
  5 C       -0.9180     4.0510    -1.0110 C.3   1 <1>  -0.1600 
  6 C        0.8920     3.8780     0.8120 C.3   1 <1>  -0.1600 
  7 C        0.1760     4.8260    -0.2050 C.3   1 <1>   0.1220 
  8 C       -0.5050     6.0210     0.4720 C.2   1 <1>   0.6590 
  9 C        1.2550     5.4110    -1.1290 C.2   1 <1>   0.4480 
 10 O       -0.4990     6.1800     1.6670 O.2   1 <1>  -0.5700 
 11 O       -1.1090     6.8860    -0.3360 O.3   1 <1>  -0.4300 
 12 O        1.4250     5.0030    -2.2390 O.2   1 <1>  -0.5700 
 13 C        2.1700     6.5000    -0.5930 C.3   1 <1>  -0.1790 
 14 C       -1.7440     8.0400     0.1600 C.3   1 <1>   0.1200 
 15 C       -2.3360     9.3140     0.7640 C.3   1 <1>  -0.2400 
 16 H       -1.4050     2.0770    -1.7330 H     1 <1>   0.0800 
 17 H        0.3010     2.4170    -1.7200 H     1 <1>   0.0800 
 18 H        0.5410     2.1240     2.0180 H     1 <1>   0.0800 
 19 H       -0.8560     3.1470     1.8480 H     1 <1>   0.0800 
 20 H       -1.8610     4.1310    -0.4940 H     1 <1>   0.0800 
 21 H       -1.0610     4.5020    -1.9780 H     1 <1>   0.0800 
 22 H        1.7360     3.4180     0.3260 H     1 <1>   0.0800 
 23 H        1.2850     4.4350     1.6460 H     1 <1>   0.0800 
 24 H        2.5340     6.2450     0.3840 H     1 <1>   0.0800 
 25 H        1.6470     7.4370    -0.5460 H     1 <1>   0.0800 
 26 H        3.0110     6.6160    -1.2530 H     1 <1>   0.0800 
 27 H       -2.6170     7.4850     0.4630 H     1 <1>   0.0800 
 28 H       -1.9130     8.4220    -0.8320 H     1 <1>   0.0800 
 29 H       -2.4040     9.2180     1.8340 H     1 <1>   0.0800 
 30 H       -3.3210     9.5040     0.3740 H     1 <1>   0.0800 
 31 H       -1.7100    10.1600     0.5410 H     1 <1>   0.0800 
@<TRIPOS>BOND
  1   1   2  2   
  2   2   3  1   
  3   2   4  1   
  4   3   5  1   
  5   3  16  1   
  6   3  17  1   
  7   4   6  1   
  8   4  18  1   
  9   4  19  1   
 10   5   7  1   
 11   5  20  1   
 12   5  21  1   
 13   6   7  1   
 14   6  22  1   
 15   6  23  1   
 16   7   8  1   
 17   7   9  1   
 18   8  10  2   
 19   8  11  1   
 20   9  12  2   
 21   9  13  1   
 22  11  14  1   
 23  13  24  1   
 24  13  25  1   
 25  13  26  1   
 26  14  15  1   
 27  14  27  1   
 28  14  28  1   
 29  15  29  1   
 30  15  30  1   
 31  15  31  1   
@<TRIPOS>SUBSTRUCTURE
  1 ****   7 GROUP 4 **** **** 0

# MOE 2024.06 (io_trps.svl 2023.06)
