@<TRIPOS>MOLECULE
NONAME
52 54 1 0 0 
SMALL
USER_CHARGES


@<TRIPOS>ATOM
  1 O       -0.2100     0.7910    -0.4030 O.2   1 <1>  -0.5700 
  2 C       -0.2890     1.9980    -0.4080 C.2   1 <1>   0.5690 
  3 N       -1.3880     2.6850     0.0460 N.am  1 <1>  -0.5090 
  4 C        0.9130     2.7720    -0.9450 C.3   1 <1>   0.1810 
  5 C       -1.4020     4.1880     0.0640 C.3   1 <1>   0.3640 
  6 C       -2.3770     2.0280     0.9450 C.3   1 <1>   0.0490 
  7 O        1.0090     4.0590    -0.3920 O.3   1 <1>  -0.5600 
  8 C       -2.6350     4.7190    -0.6640 C.ar  1 <1>  -0.1440 
  9 C       -0.1500     4.8420    -0.5820 C.3   1 <1>   0.2610 
 10 C       -3.0950     0.8040     0.4680 C.3   1 <1>  -0.2000 
 11 C       -3.8480     2.0790     0.6620 C.3   1 <1>  -0.2000 
 12 C       -3.4100     5.7100    -0.0760 C.ar  1 <1>   0.1600 
 13 C       -2.9990     4.2480    -1.9130 C.ar  1 <1>  -0.1500 
 14 C        0.0610     6.2840    -0.0830 C.2   1 <1>   0.5690 
 15 N       -4.4920     6.2460    -0.6180 N.ar  1 <1>  -0.6200 
 16 C       -4.1230     4.7980    -2.4900 C.ar  1 <1>  -0.1500 
 17 O       -0.4740     6.6200     0.9530 O.2   1 <1>  -0.5700 
 18 N        0.8150     7.1800    -0.8090 N.am  1 <1>  -0.6600 
 19 C       -4.8230     5.7780    -1.8100 C.ar  1 <1>   0.1600 
 20 C        0.9250     8.6020    -0.3810 C.3   1 <1>   0.1400 
 21 C        1.5980     6.8330    -2.0300 C.3   1 <1>   0.0600 
 22 C        2.1550     8.7790     0.5170 C.3   1 <1>  -0.1600 
 23 C        2.2820    10.2020     1.0900 C.3   1 <1>  -0.0800 
 24 C        2.5180    11.2490    -0.0080 C.3   1 <1>  -0.2400 
 25 C        3.4360    10.2530     2.0980 C.3   1 <1>  -0.2400 
 26 H        0.8450     2.8560    -2.0140 H     1 <1>   0.0800 
 27 H        1.8140     2.2430    -0.6950 H     1 <1>   0.0800 
 28 H       -1.4520     4.4790     1.0980 H     1 <1>   0.0800 
 29 H       -2.0570     2.0440     1.9740 H     1 <1>   0.1000 
 30 H       -0.3150     4.9010    -1.6420 H     1 <1>   0.0800 
 31 H       -2.9080     0.4560    -0.5330 H     1 <1>   0.1000 
 32 H       -3.2520    -0.0010     1.1630 H     1 <1>   0.1000 
 33 H       -4.5300     2.1420     1.4910 H     1 <1>   0.1000 
 34 H       -4.2350     2.5540    -0.2190 H     1 <1>   0.1000 
 35 H       -3.1250     6.0890     0.8930 H     1 <1>   0.1500 
 36 H       -2.4420     3.4760    -2.4150 H     1 <1>   0.1500 
 37 H       -4.4590     4.4700    -3.4570 H     1 <1>   0.1500 
 38 H       -5.7020     6.2000    -2.2690 H     1 <1>   0.1500 
 39 H        0.9960     9.2310    -1.2510 H     1 <1>   0.0800 
 40 H        0.0390     8.8880     0.1610 H     1 <1>   0.0800 
 41 H        2.5070     7.4090    -2.0610 H     1 <1>   0.0800 
 42 H        1.0160     7.0550    -2.9080 H     1 <1>   0.0800 
 43 H        1.8680     5.7930    -2.0330 H     1 <1>   0.0800 
 44 H        2.0660     8.0870     1.3370 H     1 <1>   0.0800 
 45 H        3.0450     8.5340    -0.0330 H     1 <1>   0.0800 
 46 H        1.3710    10.4480     1.6120 H     1 <1>   0.0800 
 47 H        3.3940    11.0050    -0.5830 H     1 <1>   0.0800 
 48 H        2.6590    12.2210     0.4310 H     1 <1>   0.0800 
 49 H        1.6740    11.3100    -0.6700 H     1 <1>   0.0800 
 50 H        4.3700    10.0150     1.6200 H     1 <1>   0.0800 
 51 H        3.2680     9.5480     2.8930 H     1 <1>   0.0800 
 52 H        3.5130    11.2340     2.5310 H     1 <1>   0.0800 
@<TRIPOS>BOND
  1   1   2  2   
  2   2   3  am  
  3   2   4  1   
  4   3   5  1   
  5   3   6  1   
  6   4   7  1   
  7   4  26  1   
  8   4  27  1   
  9   5   8  1   
 10   5   9  1   
 11   5  28  1   
 12   6  10  1   
 13   6  11  1   
 14   6  29  1   
 15   7   9  1   
 16   8  12  ar  
 17   8  13  ar  
 18   9  14  1   
 19   9  30  1   
 20  10  11  1   
 21  10  31  1   
 22  10  32  1   
 23  11  33  1   
 24  11  34  1   
 25  12  15  ar  
 26  12  35  1   
 27  13  16  ar  
 28  13  36  1   
 29  14  17  2   
 30  14  18  am  
 31  15  19  ar  
 32  16  19  ar  
 33  16  37  1   
 34  18  20  1   
 35  18  21  1   
 36  19  38  1   
 37  20  22  1   
 38  20  39  1   
 39  20  40  1   
 40  21  41  1   
 41  21  42  1   
 42  21  43  1   
 43  22  23  1   
 44  22  44  1   
 45  22  45  1   
 46  23  24  1   
 47  23  25  1   
 48  23  46  1   
 49  24  47  1   
 50  24  48  1   
 51  24  49  1   
 52  25  50  1   
 53  25  51  1   
 54  25  52  1   
@<TRIPOS>SUBSTRUCTURE
  1 ****   9 GROUP 4 **** **** 0

# MOE 2024.06 (io_trps.svl 2023.06)
