@<TRIPOS>MOLECULE
NONAME
48 51 1 0 0 
SMALL
USER_CHARGES


@<TRIPOS>ATOM
  1 F       -2.8000     1.0770    -0.5910 F     1 <1>  -0.3400 
  2 C       -3.2040    -0.0860    -0.0990 C.3   1 <1>   0.8800 
  3 F       -2.1440    -0.8830    -0.1310 F     1 <1>  -0.3400 
  4 O       -4.1870    -0.6050    -0.9650 O.3   1 <1>  -0.3630 
  5 C       -4.9330    -1.6820    -0.6310 C.ar  1 <1>   0.0830 
  6 C       -4.7990    -2.3910     0.5610 C.ar  1 <1>  -0.1500 
  7 C       -5.8820    -2.0930    -1.5530 C.ar  1 <1>  -0.1500 
  8 C       -5.6120    -3.4820     0.8100 C.ar  1 <1>  -0.1500 
  9 C       -6.6860    -3.1880    -1.2960 C.ar  1 <1>  -0.1500 
 10 C       -6.5780    -3.9070    -0.1040 C.ar  1 <1>   0.0860 
 11 C       -7.4070    -5.0660     0.1770 C.2   1 <1>   0.5440 
 12 O       -6.9000    -6.0390     0.7030 O.2   1 <1>  -0.5700 
 13 N       -8.7560    -5.1040    -0.1170 N.am  1 <1>  -0.6600 
 14 C       -9.6290    -3.8880    -0.1830 C.3   1 <1>   0.1400 
 15 C       -9.5030    -6.3930    -0.1840 C.3   1 <1>   0.1400 
 16 C      -10.6960    -3.9070     0.9300 C.3   1 <1>   0.1440 
 17 C      -10.5570    -6.4510     0.9270 C.3   1 <1>  -0.1600 
 18 C      -11.5910    -2.6940     0.7580 C.ar  1 <1>   0.1670 
 19 C      -11.4920    -5.2300     0.8810 C.3   1 <1>  -0.1600 
 20 C      -10.0650    -3.6630     2.3280 C.3   1 <1>  -0.1600 
 21 N      -12.4940    -2.5380    -0.1860 N.ar  1 <1>  -0.6200 
 22 C      -11.3420    -1.7460     1.7060 C.ar  1 <1>  -0.1430 
 23 C      -10.2460    -2.1690     2.6510 C.3   1 <1>  -0.0170 
 24 C      -13.1520    -1.3880    -0.1300 C.ar  1 <1>   0.4770 
 25 C      -12.0820    -0.5910     1.6680 C.ar  1 <1>   0.1600 
 26 N      -13.0010    -0.4020     0.7440 N.ar  1 <1>  -0.6200 
 27 C      -14.2070    -1.1750    -1.1890 C.3   1 <1>  -0.0970 
 28 H       -3.5500     0.0430     0.9100 H     1 <1>   0.0800 
 29 H       -4.0670    -2.1250     1.3000 H     1 <1>   0.1500 
 30 H       -5.9810    -1.5520    -2.4780 H     1 <1>   0.1500 
 31 H       -5.4990    -4.0350     1.7270 H     1 <1>   0.1500 
 32 H       -7.4060    -3.5020    -2.0320 H     1 <1>   0.1500 
 33 H      -10.1200    -3.8660    -1.1420 H     1 <1>   0.0800 
 34 H       -9.0450    -2.9910    -0.0900 H     1 <1>   0.0800 
 35 H       -8.8290    -7.2280    -0.0890 H     1 <1>   0.0800 
 36 H       -9.9830    -6.4660    -1.1440 H     1 <1>   0.0800 
 37 H      -10.0540    -6.5020     1.8770 H     1 <1>   0.0800 
 38 H      -11.1350    -7.3510     0.8180 H     1 <1>   0.0800 
 39 H      -12.0560    -5.2620    -0.0350 H     1 <1>   0.0800 
 40 H      -12.1960    -5.2700     1.6930 H     1 <1>   0.0800 
 41 H       -9.0310    -3.9570     2.3720 H     1 <1>   0.0800 
 42 H      -10.6030    -4.2290     3.0680 H     1 <1>   0.0800 
 43 H       -9.3460    -1.6210     2.4320 H     1 <1>   0.0800 
 44 H      -10.5260    -2.0190     3.6790 H     1 <1>   0.0800 
 45 H      -11.9240     0.1850     2.3970 H     1 <1>   0.1500 
 46 H      -14.0090    -1.7940    -2.0430 H     1 <1>   0.0800 
 47 H      -14.2120    -0.1460    -1.4970 H     1 <1>   0.0800 
 48 H      -15.1680    -1.4270    -0.7840 H     1 <1>   0.0800 
@<TRIPOS>BOND
  1   1   2  1   
  2   2   3  1   
  3   2   4  1   
  4   2  28  1   
  5   4   5  1   
  6   5   6  ar  
  7   5   7  ar  
  8   6   8  ar  
  9   6  29  1   
 10   7   9  ar  
 11   7  30  1   
 12   8  10  ar  
 13   8  31  1   
 14   9  10  ar  
 15   9  32  1   
 16  10  11  1   
 17  11  12  2   
 18  11  13  am  
 19  13  14  1   
 20  13  15  1   
 21  14  16  1   
 22  14  33  1   
 23  14  34  1   
 24  15  17  1   
 25  15  35  1   
 26  15  36  1   
 27  16  18  1   
 28  16  19  1   
 29  16  20  1   
 30  17  19  1   
 31  17  37  1   
 32  17  38  1   
 33  18  21  ar  
 34  18  22  ar  
 35  19  39  1   
 36  19  40  1   
 37  20  23  1   
 38  20  41  1   
 39  20  42  1   
 40  21  24  ar  
 41  22  23  1   
 42  22  25  ar  
 43  23  43  1   
 44  23  44  1   
 45  24  26  ar  
 46  24  27  1   
 47  25  26  ar  
 48  25  45  1   
 49  27  46  1   
 50  27  47  1   
 51  27  48  1   
@<TRIPOS>SUBSTRUCTURE
  1 ****  14 GROUP 4 **** **** 0

# MOE 2024.06 (io_trps.svl 2023.06)
