@<TRIPOS>MOLECULE
NONAME
44 45 1 0 0 
SMALL
USER_CHARGES


@<TRIPOS>ATOM
  1 CL       1.1350    -4.6870     1.8770 Cl    1 <1>  -0.1770 
  2 C       -0.2150    -3.9040     1.0980 C.ar  1 <1>   0.1770 
  3 C       -0.6860    -4.4010    -0.1020 C.ar  1 <1>  -0.1500 
  4 C       -0.7960    -2.8020     1.6970 C.ar  1 <1>  -0.1500 
  5 C       -1.7670    -3.7890    -0.7210 C.ar  1 <1>  -0.1440 
  6 C       -1.8690    -2.1860     1.0780 C.ar  1 <1>  -0.1500 
  7 C       -2.3500    -2.6780    -0.1250 C.ar  1 <1>  -0.1500 
  8 C       -2.3130    -4.3380    -2.0380 C.3   1 <1>   0.0450 
  9 C       -2.4950    -5.8510    -2.0340 C.2   1 <1>   0.5690 
 10 O       -1.8570    -6.4950    -2.8320 O.2   1 <1>  -0.5700 
 11 N       -3.3590    -6.4570    -1.1610 N.am  1 <1>  -0.6600 
 12 C       -4.1530    -5.7880    -0.0980 C.3   1 <1>   0.1400 
 13 C       -3.5070    -7.9300    -1.0820 C.3   1 <1>   0.1400 
 14 C       -4.9580    -6.9140     0.5470 C.3   1 <1>   0.2000 
 15 C       -4.1620    -8.1870     0.2780 C.3   1 <1>  -0.0800 
 16 O       -5.1080    -6.7250     1.9100 O.3   1 <1>  -0.6800 
 17 C       -5.0420    -9.4470     0.3340 C.3   1 <1>  -0.0550 
 18 S       -4.1190   -10.9650     0.1100 S.o2  1 <1>   1.3330 
 19 O       -3.1590   -11.0610     1.1860 O.2   1 <1>  -0.6500 
 20 O       -3.6710   -11.0450    -1.2620 O.2   1 <1>  -0.6500 
 21 N       -5.3020   -12.1610     0.3400 N.am  1 <1>  -0.8490 
 22 C       -4.7390   -13.4030     0.8810 C.3   1 <1>   0.1160 
 23 C       -6.0810   -12.4520    -0.8680 C.3   1 <1>   0.1160 
 24 H       -0.2080    -5.2610    -0.5390 H     1 <1>   0.1500 
 25 H       -0.4090    -2.4350     2.6310 H     1 <1>   0.1500 
 26 H       -2.3290    -1.3240     1.5310 H     1 <1>   0.1500 
 27 H       -3.1840    -2.1850    -0.5940 H     1 <1>   0.1500 
 28 H       -1.6300    -4.0780    -2.8260 H     1 <1>   0.0800 
 29 H       -3.2590    -3.8880    -2.2700 H     1 <1>   0.0800 
 30 H       -3.4860    -5.3440     0.6200 H     1 <1>   0.0800 
 31 H       -4.8030    -5.0420    -0.5200 H     1 <1>   0.0800 
 32 H       -4.1390    -8.2610    -1.8890 H     1 <1>   0.0800 
 33 H       -2.5490    -8.4180    -1.1610 H     1 <1>   0.0800 
 34 H       -5.9370    -6.9600     0.1010 H     1 <1>   0.0800 
 35 H       -3.3690    -8.2720     1.0020 H     1 <1>   0.0800 
 36 H       -4.2370    -6.7190     2.3540 H     1 <1>   0.4000 
 37 H       -5.8080    -9.3810    -0.4130 H     1 <1>   0.0800 
 38 H       -5.5230    -9.4810     1.2930 H     1 <1>   0.0800 
 39 H       -5.5170   -14.1320     1.0290 H     1 <1>   0.0800 
 40 H       -4.2730   -13.2120     1.8330 H     1 <1>   0.0800 
 41 H       -4.0000   -13.8030     0.2070 H     1 <1>   0.0800 
 42 H       -6.8710   -13.1470    -0.6400 H     1 <1>   0.0800 
 43 H       -5.4490   -12.8770    -1.6310 H     1 <1>   0.0800 
 44 H       -6.5250   -11.5490    -1.2510 H     1 <1>   0.0800 
@<TRIPOS>BOND
  1   1   2  1   
  2   2   3  ar  
  3   2   4  ar  
  4   3   5  ar  
  5   3  24  1   
  6   4   6  ar  
  7   4  25  1   
  8   5   7  ar  
  9   5   8  1   
 10   6   7  ar  
 11   6  26  1   
 12   7  27  1   
 13   8   9  1   
 14   8  28  1   
 15   8  29  1   
 16   9  10  2   
 17   9  11  am  
 18  11  12  1   
 19  11  13  1   
 20  12  14  1   
 21  12  30  1   
 22  12  31  1   
 23  13  15  1   
 24  13  32  1   
 25  13  33  1   
 26  14  15  1   
 27  14  16  1   
 28  14  34  1   
 29  15  17  1   
 30  15  35  1   
 31  16  36  1   
 32  17  18  1   
 33  17  37  1   
 34  17  38  1   
 35  18  19  2   
 36  18  20  2   
 37  18  21  am  
 38  21  22  1   
 39  21  23  1   
 40  22  39  1   
 41  22  40  1   
 42  22  41  1   
 43  23  42  1   
 44  23  43  1   
 45  23  44  1   
@<TRIPOS>SUBSTRUCTURE
  1 ****  11 GROUP 4 **** **** 0

# MOE 2024.06 (io_trps.svl 2023.06)
