@<TRIPOS>MOLECULE
NONAME
53 57 1 0 0 
SMALL
USER_CHARGES


@<TRIPOS>ATOM
  1 S       -1.9540     0.0840    -0.7450 S.3   1 <1>  -0.2820 
  2 C       -1.9380    -1.3620     0.2240 C.2   1 <1>   0.6510 
  3 C       -1.3070     1.0000     0.6200 C.2   1 <1>   0.5910 
  4 N       -2.3460    -2.5120    -0.2110 N.2   1 <1>  -0.6210 
  5 N       -1.4600    -1.0460     1.4660 N.am  1 <1>  -0.0580 
  6 N       -1.1120     0.3000     1.6600 N.2   1 <1>  -0.5120 
  7 C       -1.0530     2.4910     0.4320 C.3   1 <1>  -0.1000 
  8 C       -2.2830    -3.5420     0.6850 C.2   1 <1>   0.0330 
  9 C       -1.4010    -2.0760     2.3920 C.2   1 <1>   0.6160 
 10 C       -1.9600     3.3690    -0.3810 C.3   1 <1>  -0.2000 
 11 C       -0.5710     3.0710    -0.8650 C.3   1 <1>  -0.2000 
 12 C       -1.8170    -3.3580     1.9490 C.2   1 <1>  -0.1360 
 13 C       -2.7670    -4.9000     0.1700 C.3   1 <1>   0.4810 
 14 O       -1.0370    -1.9050     3.5440 O.2   1 <1>  -0.5700 
 15 N       -4.2520    -5.1080     0.3330 N.4   1 <1>  -0.9590 
 16 C       -5.0440    -3.9600    -0.2160 C.3   1 <1>   0.4230 
 17 C       -4.5950    -5.5140     1.7340 C.3   1 <1>   0.2630 
 18 C       -6.3570    -4.4350    -0.8230 C.3   1 <1>  -0.1600 
 19 C       -5.4950    -2.8930     0.7880 C.3   1 <1>  -0.1600 
 20 C       -7.1830    -3.1480    -0.9820 C.3   1 <1>  -0.0800 
 21 C       -6.6050    -2.1460     0.0450 C.3   1 <1>  -0.0800 
 22 C       -8.7040    -3.3760    -0.8800 C.3   1 <1>   0.1400 
 23 C       -7.6600    -1.5310     0.9850 C.3   1 <1>  -0.0990 
 24 N       -9.3890    -2.0750    -0.6830 N.am  1 <1>  -0.6600 
 25 C       -8.9050    -1.1580     0.2090 C.2   1 <1>   0.5690 
 26 C      -10.6280    -1.8430    -1.4720 C.3   1 <1>   0.0600 
 27 O       -9.4150    -0.0830     0.4060 O.2   1 <1>  -0.5700 
 28 H       -0.6470     2.9220     1.3310 H     1 <1>   0.1000 
 29 H       -2.7900     2.9360    -0.9120 H     1 <1>   0.1000 
 30 H       -2.1790     4.3590    -0.0200 H     1 <1>   0.1000 
 31 H        0.1660     3.8550    -0.8370 H     1 <1>   0.1000 
 32 H       -0.4560     2.4360    -1.7270 H     1 <1>   0.1000 
 33 H       -1.7420    -4.1460     2.6740 H     1 <1>   0.1500 
 34 H       -2.2360    -5.6830     0.6840 H     1 <1>   0.0800 
 35 H       -2.5090    -4.9640    -0.8750 H     1 <1>   0.0800 
 36 H       -4.4830    -5.9040    -0.2750 H     1 <1>   0.4500 
 37 H       -4.4810    -3.4730    -0.9980 H     1 <1>   0.0800 
 38 H       -4.3350    -4.7290     2.4260 H     1 <1>   0.0800 
 39 H       -4.0590    -6.4080     2.0100 H     1 <1>   0.0800 
 40 H       -5.6520    -5.7090     1.8180 H     1 <1>   0.0800 
 41 H       -6.2090    -4.9160    -1.7740 H     1 <1>   0.0800 
 42 H       -6.8570    -5.1050    -0.1450 H     1 <1>   0.0800 
 43 H       -5.9170    -3.3350     1.6710 H     1 <1>   0.0800 
 44 H       -4.7080    -2.2180     1.0660 H     1 <1>   0.0800 
 45 H       -6.9910    -2.7470    -1.9650 H     1 <1>   0.0800 
 46 H       -6.1600    -1.3380    -0.5140 H     1 <1>   0.0800 
 47 H       -8.9370    -4.0100    -0.0430 H     1 <1>   0.0800 
 48 H       -9.0630    -3.8510    -1.7770 H     1 <1>   0.0800 
 49 H       -7.2630    -0.6560     1.4670 H     1 <1>   0.0800 
 50 H       -7.9550    -2.2290     1.7460 H     1 <1>   0.0800 
 51 H      -11.3500    -2.6090    -1.2530 H     1 <1>   0.0800 
 52 H      -10.3990    -1.8570    -2.5230 H     1 <1>   0.0800 
 53 H      -11.0580    -0.8860    -1.2280 H     1 <1>   0.0800 
@<TRIPOS>BOND
  1   1   2  1   
  2   1   3  1   
  3   2   4  2   
  4   2   5  1   
  5   3   6  2   
  6   3   7  1   
  7   4   8  1   
  8   5   6  1   
  9   5   9  am  
 10   7  10  1   
 11   7  11  1   
 12   7  28  1   
 13   8  12  2   
 14   8  13  1   
 15   9  12  1   
 16   9  14  2   
 17  10  11  1   
 18  10  29  1   
 19  10  30  1   
 20  11  31  1   
 21  11  32  1   
 22  12  33  1   
 23  13  15  1   
 24  13  34  1   
 25  13  35  1   
 26  15  16  1   
 27  15  17  1   
 28  15  36  1   
 29  16  18  1   
 30  16  19  1   
 31  16  37  1   
 32  17  38  1   
 33  17  39  1   
 34  17  40  1   
 35  18  20  1   
 36  18  41  1   
 37  18  42  1   
 38  19  21  1   
 39  19  43  1   
 40  19  44  1   
 41  20  21  1   
 42  20  22  1   
 43  20  45  1   
 44  21  23  1   
 45  21  46  1   
 46  22  24  1   
 47  22  47  1   
 48  22  48  1   
 49  23  25  1   
 50  23  49  1   
 51  23  50  1   
 52  24  25  am  
 53  24  26  1   
 54  25  27  2   
 55  26  51  1   
 56  26  52  1   
 57  26  53  1   
@<TRIPOS>SUBSTRUCTURE
  1 ****  19 GROUP 4 **** **** 0

# MOE 2024.06 (io_trps.svl 2023.06)
