@<TRIPOS>MOLECULE
NONAME
50 51 1 0 0 
SMALL
USER_CHARGES


@<TRIPOS>ATOM
  1 F       -0.2180     1.0630    -0.9420 F     1 <1>  -0.1900 
  2 C       -1.4930     1.2330    -0.6980 C.ar  1 <1>   0.1900 
  3 C       -2.2190     2.2960    -1.2470 C.ar  1 <1>   0.0830 
  4 C       -2.0870     0.3060     0.1370 C.ar  1 <1>  -0.1500 
  5 O       -1.7480     3.2690    -2.0790 O.3   1 <1>  -0.3630 
  6 C       -3.5630     2.3890    -0.9260 C.ar  1 <1>  -0.1500 
  7 C       -3.4310     0.4290     0.4370 C.ar  1 <1>  -0.1500 
  8 C       -0.4150     3.3110    -2.5370 C.3   1 <1>   0.0400 
  9 C       -4.1980     1.4680    -0.0910 C.ar  1 <1>   0.0530 
 10 C       -5.5980     1.6120     0.2140 C.2   1 <1>   0.0870 
 11 O       -6.0540     2.7760     0.6000 O.3   1 <1>  -0.0190 
 12 C       -6.6600     0.7610     0.1800 C.2   1 <1>  -0.0860 
 13 N       -7.3380     2.7690     0.8380 N.2   1 <1>  -0.4100 
 14 C       -7.7280     1.5670     0.5980 C.2   1 <1>   0.3720 
 15 C       -6.7620    -0.6140    -0.2030 C.2   1 <1>   0.7160 
 16 N       -9.0600     1.1400     0.7530 N.pl3 1 <1>  -0.8210 
 17 O       -5.8110    -1.3740    -0.1580 O.2   1 <1>  -0.5700 
 18 N       -7.9640    -1.1140    -0.5860 N.am  1 <1>  -0.7300 
 19 C       -9.3120     0.3780     2.0120 C.3   1 <1>   0.1290 
 20 C      -10.0920     2.1920     0.5290 C.3   1 <1>   0.1290 
 21 C       -8.3210    -2.5560    -0.5490 C.3   1 <1>   0.2810 
 22 C       -8.3380    -3.0570     0.9140 C.2   1 <1>   0.5690 
 23 C       -9.6500    -2.7950    -1.3130 C.3   1 <1>  -0.0800 
 24 O       -9.3510    -3.0560     1.5700 O.2   1 <1>  -0.5700 
 25 N       -7.1800    -3.4430     1.4890 N.am  1 <1>  -0.8000 
 26 C       -9.9800    -4.2940    -1.4090 C.3   1 <1>  -0.2400 
 27 C       -9.6240    -2.2100    -2.7380 C.3   1 <1>  -0.2400 
 28 H       -1.5040    -0.5000     0.5450 H     1 <1>   0.1500 
 29 H       -4.1330     3.2020    -1.3380 H     1 <1>   0.1500 
 30 H       -3.8940    -0.2890     1.0910 H     1 <1>   0.1500 
 31 H       -0.3120     4.1600    -3.1880 H     1 <1>   0.0800 
 32 H       -0.2030     2.4080    -3.0810 H     1 <1>   0.0800 
 33 H        0.2430     3.4180    -1.6930 H     1 <1>   0.0800 
 34 H       -8.7520    -0.4760    -0.3960 H     1 <1>   0.3700 
 35 H      -10.1990    -0.2230     1.9060 H     1 <1>   0.0800 
 36 H       -9.4400     1.0570     2.8370 H     1 <1>   0.0800 
 37 H       -8.4850    -0.2750     2.2290 H     1 <1>   0.0800 
 38 H      -11.0660     1.7410     0.4460 H     1 <1>   0.0800 
 39 H       -9.8790     2.7240    -0.3830 H     1 <1>   0.0800 
 40 H      -10.0920     2.8920     1.3460 H     1 <1>   0.0800 
 41 H       -7.5470    -3.0980    -1.0640 H     1 <1>   0.0800 
 42 H      -10.4440    -2.3170    -0.7640 H     1 <1>   0.0800 
 43 H       -7.1650    -3.7330     2.4660 H     1 <1>   0.3700 
 44 H       -6.2750    -3.2290     1.0540 H     1 <1>   0.3700 
 45 H       -9.2060    -4.8230    -1.9370 H     1 <1>   0.0800 
 46 H      -10.9090    -4.4390    -1.9330 H     1 <1>   0.0800 
 47 H      -10.0880    -4.7270    -0.4300 H     1 <1>   0.0800 
 48 H       -8.8130    -2.6320    -3.3050 H     1 <1>   0.0800 
 49 H       -9.5060    -1.1420    -2.7150 H     1 <1>   0.0800 
 50 H      -10.5470    -2.4260    -3.2480 H     1 <1>   0.0800 
@<TRIPOS>BOND
  1   1   2  1   
  2   2   3  ar  
  3   2   4  ar  
  4   3   5  1   
  5   3   6  ar  
  6   4   7  ar  
  7   4  28  1   
  8   5   8  1   
  9   6   9  ar  
 10   6  29  1   
 11   7   9  ar  
 12   7  30  1   
 13   8  31  1   
 14   8  32  1   
 15   8  33  1   
 16   9  10  1   
 17  10  11  1   
 18  10  12  2   
 19  11  13  1   
 20  12  14  1   
 21  12  15  1   
 22  13  14  2   
 23  14  16  1   
 24  15  17  2   
 25  15  18  am  
 26  16  19  1   
 27  16  20  1   
 28  18  21  1   
 29  18  34  1   
 30  19  35  1   
 31  19  36  1   
 32  19  37  1   
 33  20  38  1   
 34  20  39  1   
 35  20  40  1   
 36  21  22  1   
 37  21  23  1   
 38  21  41  1   
 39  22  24  2   
 40  22  25  am  
 41  23  26  1   
 42  23  27  1   
 43  23  42  1   
 44  25  43  1   
 45  25  44  1   
 46  26  45  1   
 47  26  46  1   
 48  26  47  1   
 49  27  48  1   
 50  27  49  1   
 51  27  50  1   
@<TRIPOS>SUBSTRUCTURE
  1 ****  12 GROUP 4 **** **** 0

# MOE 2024.06 (io_trps.svl 2023.06)
