@<TRIPOS>MOLECULE
NONAME
44 47 1 0 0 
SMALL
USER_CHARGES


@<TRIPOS>ATOM
  1 O        3.9930    -0.1310     2.2200 O.3   1 <1>  -0.6800 
  2 C        2.9240    -0.3770     1.3610 C.3   1 <1>   0.2000 
  3 C        3.1450    -1.7370     0.7010 C.3   1 <1>  -0.0800 
  4 C        3.0120     0.5980     0.1840 C.3   1 <1>   0.3430 
  5 C        4.1350    -1.4360    -0.4400 C.3   1 <1>   0.3430 
  6 C        1.8190    -2.3330     0.1780 C.3   1 <1>  -0.0170 
  7 N        4.0610     0.0300    -0.7100 N.4   1 <1>  -0.9590 
  8 C        1.9920    -3.7510    -0.3510 C.ar  1 <1>   0.1670 
  9 C        5.3610     0.7160    -0.4740 C.3   1 <1>   0.5230 
 10 N        2.6530    -3.8760    -1.4910 N.ar  1 <1>  -0.6200 
 11 C        1.4650    -4.8320     0.3550 C.ar  1 <1>   0.1600 
 12 C        5.2930     2.0940    -1.1110 C.2   1 <1>   0.0070 
 13 C        2.7410    -5.1400    -1.8800 C.ar  1 <1>   0.1600 
 14 N        1.5630    -6.0930    -0.0270 N.ar  1 <1>  -0.6200 
 15 N        4.4750     2.4060    -2.0730 N.2   1 <1>  -0.5650 
 16 N        6.0930     3.1130    -0.7150 N.pl3 1 <1>   0.2940 
 17 C        2.2140    -6.2120    -1.1710 C.ar  1 <1>   0.1600 
 18 C        4.7620     3.6980    -2.3220 C.2   1 <1>   0.0770 
 19 C        5.7430     4.1410    -1.5050 C.2   1 <1>  -0.3020 
 20 C        7.1330     3.1210     0.3400 C.3   1 <1>  -0.0910 
 21 C        6.7670     2.7930     1.7600 C.3   1 <1>  -0.2000 
 22 C        7.1120     4.1980     1.3830 C.3   1 <1>  -0.2000 
 23 H        3.8830    -0.6130     3.0680 H     1 <1>   0.4000 
 24 H        2.0030    -0.2860     1.9130 H     1 <1>   0.0800 
 25 H        3.5770    -2.4390     1.3940 H     1 <1>   0.0800 
 26 H        3.2460     1.5980     0.5110 H     1 <1>   0.0800 
 27 H        2.0690     0.6120    -0.3370 H     1 <1>   0.0800 
 28 H        3.8980    -1.9920    -1.3300 H     1 <1>   0.0800 
 29 H        5.1310    -1.7030    -0.1250 H     1 <1>   0.0800 
 30 H        1.4130    -1.7240    -0.6120 H     1 <1>   0.0800 
 31 H        1.0960    -2.3470     0.9750 H     1 <1>   0.0800 
 32 H        3.8230     0.2600    -1.6900 H     1 <1>   0.4500 
 33 H        5.5540     0.7950     0.5830 H     1 <1>   0.0800 
 34 H        6.1610     0.1610    -0.9340 H     1 <1>   0.0800 
 35 H        0.9370    -4.6530     1.2750 H     1 <1>   0.1500 
 36 H        3.2540    -5.3400    -2.8040 H     1 <1>   0.1500 
 37 H        2.3370    -7.2060    -1.5650 H     1 <1>   0.1500 
 38 H        4.2440     4.2530    -3.0890 H     1 <1>   0.1500 
 39 H        6.2030     5.1100    -1.4430 H     1 <1>   0.1500 
 40 H        8.0930     2.8180    -0.0400 H     1 <1>   0.1000 
 41 H        5.7450     2.6000     2.0400 H     1 <1>   0.1000 
 42 H        7.4690     2.2640     2.3820 H     1 <1>   0.1000 
 43 H        8.0450     4.6010     1.7410 H     1 <1>   0.1000 
 44 H        6.3270     4.9360     1.3680 H     1 <1>   0.1000 
@<TRIPOS>BOND
  1   1   2  1   
  2   1  23  1   
  3   2   3  1   
  4   2   4  1   
  5   2  24  1   
  6   3   5  1   
  7   3   6  1   
  8   3  25  1   
  9   4   7  1   
 10   4  26  1   
 11   4  27  1   
 12   5   7  1   
 13   5  28  1   
 14   5  29  1   
 15   6   8  1   
 16   6  30  1   
 17   6  31  1   
 18   7   9  1   
 19   7  32  1   
 20   8  10  ar  
 21   8  11  ar  
 22   9  12  1   
 23   9  33  1   
 24   9  34  1   
 25  10  13  ar  
 26  11  14  ar  
 27  11  35  1   
 28  12  15  2   
 29  12  16  1   
 30  13  17  ar  
 31  13  36  1   
 32  14  17  ar  
 33  15  18  1   
 34  16  19  1   
 35  16  20  1   
 36  17  37  1   
 37  18  19  2   
 38  18  38  1   
 39  19  39  1   
 40  20  21  1   
 41  20  22  1   
 42  20  40  1   
 43  21  22  1   
 44  21  41  1   
 45  21  42  1   
 46  22  43  1   
 47  22  44  1   
@<TRIPOS>SUBSTRUCTURE
  1 ****   7 GROUP 4 **** **** 0

# MOE 2024.06 (io_trps.svl 2023.06)
