@<TRIPOS>MOLECULE
NONAME
44 45 1 0 0 
SMALL
USER_CHARGES


@<TRIPOS>ATOM
  1 CL       2.5140     1.9250    -1.7530 Cl    1 <1>  -0.1770 
  2 C        3.0440     0.5110    -0.8690 C.ar  1 <1>   0.1770 
  3 C        3.8110     0.6440     0.2890 C.ar  1 <1>   0.0830 
  4 C        2.6930    -0.7360    -1.3520 C.ar  1 <1>  -0.1500 
  5 O        4.1670     1.8560     0.7740 O.3   1 <1>  -0.3620 
  6 C        4.2490    -0.4900     0.9610 C.ar  1 <1>  -0.1500 
  7 C        3.1340    -1.8440    -0.6550 C.ar  1 <1>   0.1900 
  8 C        3.1510     2.6410     1.3940 C.3   1 <1>   0.2610 
  9 C        3.9070    -1.7480     0.4900 C.ar  1 <1>  -0.1500 
 10 F        2.8110    -3.0310    -1.0960 F     1 <1>  -0.1900 
 11 C        3.2370     4.1040     0.9300 C.2   1 <1>   0.5690 
 12 C        3.3240     2.4910     2.9100 C.3   1 <1>  -0.2400 
 13 O        2.3910     4.8860     1.2980 O.2   1 <1>  -0.5700 
 14 N        4.2550     4.4910     0.1120 N.am  1 <1>  -0.7300 
 15 C        4.4520     5.8440    -0.4410 C.3   1 <1>   0.1400 
 16 C        5.8430     6.3410    -0.0520 C.3   1 <1>  -0.1600 
 17 C        6.0830     7.7680    -0.5570 C.3   1 <1>   0.0210 
 18 C        7.4680     8.2450    -0.1580 C.2   1 <1>  -0.1810 
 19 C        7.8500     8.9620     0.9110 C.2   1 <1>  -0.0400 
 20 C        8.6670     8.0280    -0.8390 C.2   1 <1>   0.1080 
 21 O        9.1420     9.1360     0.8400 O.3   1 <1>  -0.0190 
 22 C        7.0890     9.5440     2.0840 C.3   1 <1>  -0.0600 
 23 N        9.6500     8.5730    -0.2170 N.2   1 <1>  -0.4100 
 24 C        8.8260     7.2630    -2.1350 C.3   1 <1>  -0.0590 
 25 H        2.1000    -0.8410    -2.2410 H     1 <1>   0.1500 
 26 H        4.8530    -0.3830     1.8450 H     1 <1>   0.1500 
 27 H        2.1890     2.2590     1.1020 H     1 <1>   0.0800 
 28 H        4.2320    -2.6400     0.9960 H     1 <1>   0.1500 
 29 H        4.2880     2.8620     3.2110 H     1 <1>   0.0800 
 30 H        3.2240     1.4610     3.1990 H     1 <1>   0.0800 
 31 H        2.5670     3.0620     3.4170 H     1 <1>   0.0800 
 32 H        4.9160     3.7690    -0.1870 H     1 <1>   0.3700 
 33 H        3.6990     6.5100    -0.0510 H     1 <1>   0.0800 
 34 H        4.3510     5.8060    -1.5130 H     1 <1>   0.0800 
 35 H        6.5890     5.6860    -0.4650 H     1 <1>   0.0800 
 36 H        5.9340     6.3320     1.0200 H     1 <1>   0.0800 
 37 H        5.3450     8.4270    -0.1350 H     1 <1>   0.0800 
 38 H        5.9840     7.8070    -1.6280 H     1 <1>   0.0800 
 39 H        6.0460     9.2990     2.0180 H     1 <1>   0.0800 
 40 H        7.1990    10.6130     2.0930 H     1 <1>   0.0800 
 41 H        7.4820     9.1460     3.0020 H     1 <1>   0.0800 
 42 H        8.4980     6.2490    -2.0050 H     1 <1>   0.0800 
 43 H        9.8600     7.2570    -2.4310 H     1 <1>   0.0800 
 44 H        8.2470     7.7310    -2.9090 H     1 <1>   0.0800 
@<TRIPOS>BOND
  1   1   2  1   
  2   2   3  ar  
  3   2   4  ar  
  4   3   5  1   
  5   3   6  ar  
  6   4   7  ar  
  7   4  25  1   
  8   5   8  1   
  9   6   9  ar  
 10   6  26  1   
 11   7   9  ar  
 12   7  10  1   
 13   8  11  1   
 14   8  12  1   
 15   8  27  1   
 16   9  28  1   
 17  11  13  2   
 18  11  14  am  
 19  12  29  1   
 20  12  30  1   
 21  12  31  1   
 22  14  15  1   
 23  14  32  1   
 24  15  16  1   
 25  15  33  1   
 26  15  34  1   
 27  16  17  1   
 28  16  35  1   
 29  16  36  1   
 30  17  18  1   
 31  17  37  1   
 32  17  38  1   
 33  18  19  2   
 34  18  20  1   
 35  19  21  1   
 36  19  22  1   
 37  20  23  2   
 38  20  24  1   
 39  21  23  1   
 40  22  39  1   
 41  22  40  1   
 42  22  41  1   
 43  24  42  1   
 44  24  43  1   
 45  24  44  1   
@<TRIPOS>SUBSTRUCTURE
  1 ****  14 GROUP 4 **** **** 0

# MOE 2024.06 (io_trps.svl 2023.06)
