@<TRIPOS>MOLECULE
NONAME
58 59 1 0 0 
SMALL
USER_CHARGES


@<TRIPOS>ATOM
  1 O       -0.6790     1.3900     0.8260 O.2   1 <1>  -0.5700 
  2 C       -0.8550     2.4090     0.2010 C.2   1 <1>   0.5690 
  3 N       -1.8170     3.3270     0.5180 N.am  1 <1>  -0.6600 
  4 C        0.0350     2.6980    -1.0040 C.3   1 <1>   0.1810 
  5 C       -2.0080     4.5180    -0.3810 C.3   1 <1>   0.3640 
  6 C       -2.5970     3.2250     1.7820 C.3   1 <1>   0.2200 
  7 O        0.3830     4.0580    -1.0450 O.3   1 <1>  -0.5600 
  8 C       -3.1210     4.2730    -1.4090 C.ar  1 <1>  -0.1440 
  9 C       -0.7160     4.9660    -1.1330 C.3   1 <1>   0.2610 
 10 C       -4.0960     3.4020     1.5400 C.3   1 <1>  -0.2400 
 11 C       -2.0720     4.2450     2.7910 C.3   1 <1>  -0.2400 
 12 C       -3.4730     3.0070    -1.8670 C.ar  1 <1>  -0.1500 
 13 C       -3.8000     5.3750    -1.9120 C.ar  1 <1>  -0.1500 
 14 C       -0.3060     6.3520    -0.6310 C.2   1 <1>   0.5690 
 15 C       -4.4770     2.8510    -2.8060 C.ar  1 <1>  -0.1500 
 16 C       -4.8040     5.2200    -2.8510 C.ar  1 <1>  -0.1500 
 17 O       -1.1000     7.2580    -0.7330 O.2   1 <1>  -0.5700 
 18 N        0.9290     6.4990    -0.0750 N.am  1 <1>  -0.7300 
 19 C       -5.1440     3.9570    -3.3000 C.ar  1 <1>  -0.1500 
 20 C        1.5650     7.6590     0.6070 C.3   1 <1>   0.2200 
 21 C        1.1680     7.6820     2.1110 C.3   1 <1>  -0.0800 
 22 C        1.3690     8.9930    -0.1700 C.3   1 <1>  -0.0800 
 23 C        1.5160     6.3570     2.8120 C.3   1 <1>  -0.2400 
 24 C       -0.3090     8.0230     2.3710 C.3   1 <1>  -0.2400 
 25 C        1.8740     8.8840    -1.6210 C.3   1 <1>  -0.2400 
 26 C        2.0950    10.1740     0.4990 C.3   1 <1>  -0.2400 
 27 H       -0.4730     2.4400    -1.9160 H     1 <1>   0.0800 
 28 H        0.9420     2.1270    -0.9280 H     1 <1>   0.0800 
 29 H       -2.3370     5.3380     0.2310 H     1 <1>   0.0800 
 30 H       -2.4510     2.2430     2.2010 H     1 <1>   0.0800 
 31 H       -0.9430     5.0730    -2.1780 H     1 <1>   0.0800 
 32 H       -4.3270     4.3920     1.1930 H     1 <1>   0.0800 
 33 H       -4.6310     3.2360     2.4570 H     1 <1>   0.0800 
 34 H       -4.4410     2.6810     0.8200 H     1 <1>   0.0800 
 35 H       -2.2520     5.2520     2.4640 H     1 <1>   0.0800 
 36 H       -1.0180     4.0990     2.9420 H     1 <1>   0.0800 
 37 H       -2.5660     4.1060     3.7350 H     1 <1>   0.0800 
 38 H       -2.9800     2.1270    -1.4960 H     1 <1>   0.1500 
 39 H       -3.5490     6.3690    -1.5770 H     1 <1>   0.1500 
 40 H       -4.7420     1.8660    -3.1510 H     1 <1>   0.1500 
 41 H       -5.3210     6.0840    -3.2320 H     1 <1>   0.1500 
 42 H        1.4880     5.6410    -0.0470 H     1 <1>   0.3700 
 43 H       -5.9250     3.8360    -4.0300 H     1 <1>   0.1500 
 44 H        2.6250     7.4690     0.5850 H     1 <1>   0.0800 
 45 H        1.7610     8.4400     2.5900 H     1 <1>   0.0800 
 46 H        0.3220     9.2360    -0.1970 H     1 <1>   0.0800 
 47 H        0.9190     5.5500     2.4290 H     1 <1>   0.0800 
 48 H        1.3350     6.4380     3.8690 H     1 <1>   0.0800 
 49 H        2.5540     6.1170     2.6660 H     1 <1>   0.0800 
 50 H       -0.9530     7.2730     1.9540 H     1 <1>   0.0800 
 51 H       -0.5650     8.9710     1.9350 H     1 <1>   0.0800 
 52 H       -0.4970     8.0810     3.4280 H     1 <1>   0.0800 
 53 H        2.9180     8.6250    -1.6420 H     1 <1>   0.0800 
 54 H        1.7400     9.8190    -2.1350 H     1 <1>   0.0800 
 55 H        1.3230     8.1350    -2.1600 H     1 <1>   0.0800 
 56 H        3.1410     9.9580     0.6220 H     1 <1>   0.0800 
 57 H        1.6670    10.3930     1.4600 H     1 <1>   0.0800 
 58 H        1.9970    11.0590    -0.1040 H     1 <1>   0.0800 
@<TRIPOS>BOND
  1   1   2  2   
  2   2   3  am  
  3   2   4  1   
  4   3   5  1   
  5   3   6  1   
  6   4   7  1   
  7   4  27  1   
  8   4  28  1   
  9   5   8  1   
 10   5   9  1   
 11   5  29  1   
 12   6  10  1   
 13   6  11  1   
 14   6  30  1   
 15   7   9  1   
 16   8  12  ar  
 17   8  13  ar  
 18   9  14  1   
 19   9  31  1   
 20  10  32  1   
 21  10  33  1   
 22  10  34  1   
 23  11  35  1   
 24  11  36  1   
 25  11  37  1   
 26  12  15  ar  
 27  12  38  1   
 28  13  16  ar  
 29  13  39  1   
 30  14  17  2   
 31  14  18  am  
 32  15  19  ar  
 33  15  40  1   
 34  16  19  ar  
 35  16  41  1   
 36  18  20  1   
 37  18  42  1   
 38  19  43  1   
 39  20  21  1   
 40  20  22  1   
 41  20  44  1   
 42  21  23  1   
 43  21  24  1   
 44  21  45  1   
 45  22  25  1   
 46  22  26  1   
 47  22  46  1   
 48  23  47  1   
 49  23  48  1   
 50  23  49  1   
 51  24  50  1   
 52  24  51  1   
 53  24  52  1   
 54  25  53  1   
 55  25  54  1   
 56  25  55  1   
 57  26  56  1   
 58  26  57  1   
 59  26  58  1   
@<TRIPOS>SUBSTRUCTURE
  1 ****   9 GROUP 4 **** **** 0

# MOE 2024.06 (io_trps.svl 2023.06)
