@<TRIPOS>MOLECULE
NONAME
45 47 1 0 0 
SMALL
USER_CHARGES


@<TRIPOS>ATOM
  1 O        0.0610     1.1500    -2.2640 O.2   1 <1>  -0.5700 
  2 C       -0.7930     1.4890    -1.4780 C.2   1 <1>   0.5690 
  3 N       -1.3160     0.6680    -0.5320 N.am  1 <1>  -0.4930 
  4 C       -1.3160     2.9240    -1.5410 C.3   1 <1>   0.1710 
  5 C       -1.0290    -0.6530    -0.2110 C.2   1 <1>   0.3520 
  6 N       -1.8520     3.4340    -0.2460 N.3   1 <1>  -0.6890 
  7 N       -1.6240    -1.2040     0.7980 N.2   1 <1>  -0.7070 
  8 C       -0.1490    -1.5240    -0.8480 C.2   1 <1>  -0.1500 
  9 C       -0.7910     3.6270     0.7950 C.3   1 <1>   0.2100 
 10 C       -2.0580     4.9150    -0.2780 C.3   1 <1>   0.2100 
 11 N       -1.1360    -2.4600     0.8360 N.pl3 1 <1>   0.3140 
 12 C       -0.2430    -2.6750    -0.1500 C.2   1 <1>  -0.3020 
 13 C       -0.6850     5.1190     0.4070 C.3   1 <1>   0.2580 
 14 C       -1.5740    -3.4190     1.8560 C.3   1 <1>   0.0160 
 15 O        0.3460     5.3850    -0.5360 O.3   1 <1>  -0.3400 
 16 C        1.5800     5.6460    -0.0410 C.ar  1 <1>   0.0830 
 17 C        1.8390     6.8410     0.6350 C.ar  1 <1>  -0.1430 
 18 C        2.5980     4.7100    -0.2320 C.ar  1 <1>  -0.1430 
 19 C        3.0950     7.0510     1.1790 C.ar  1 <1>  -0.1500 
 20 C        0.8060     7.9510     0.7810 C.3   1 <1>  -0.0970 
 21 C        3.8460     4.9450     0.3210 C.ar  1 <1>  -0.1500 
 22 C        2.3960     3.4370    -1.0430 C.3   1 <1>  -0.0970 
 23 C        4.0930     6.1050     1.0310 C.ar  1 <1>  -0.1500 
 24 H       -1.9910     1.0930     0.1020 H     1 <1>   0.3700 
 25 H       -2.1050     2.9510    -2.2710 H     1 <1>   0.0800 
 26 H       -0.5250     3.5540    -1.9030 H     1 <1>   0.0800 
 27 H        0.4550    -1.2930    -1.7060 H     1 <1>   0.1500 
 28 H        0.0940     3.0460     0.6220 H     1 <1>   0.0000 
 29 H       -1.2040     3.4880     1.7790 H     1 <1>   0.0000 
 30 H       -2.8810     5.1940     0.3570 H     1 <1>   0.0000 
 31 H       -2.1270     5.3160    -1.2740 H     1 <1>   0.0000 
 32 H        0.2650    -3.6100    -0.2980 H     1 <1>   0.1500 
 33 H       -0.6860     5.8090     1.2300 H     1 <1>   0.0000 
 34 H       -1.3530    -3.0180     2.8280 H     1 <1>   0.0800 
 35 H       -1.0610    -4.3520     1.7200 H     1 <1>   0.0800 
 36 H       -2.6340    -3.5660     1.7610 H     1 <1>   0.0800 
 37 H        3.3080     7.9580     1.7160 H     1 <1>   0.1500 
 38 H        0.1000     7.9260    -0.0300 H     1 <1>   0.0800 
 39 H        1.2880     8.9120     0.7660 H     1 <1>   0.0800 
 40 H        0.2800     7.8470     1.7120 H     1 <1>   0.0800 
 41 H        4.6360     4.2250     0.1980 H     1 <1>   0.1500 
 42 H        1.7410     3.6190    -1.8750 H     1 <1>   0.0800 
 43 H        1.9820     2.6600    -0.4290 H     1 <1>   0.0800 
 44 H        3.3320     3.0890    -1.4390 H     1 <1>   0.0800 
 45 H        5.0640     6.2760     1.4600 H     1 <1>   0.1500 
@<TRIPOS>BOND
  1   1   2  2   
  2   2   3  am  
  3   2   4  1   
  4   3   5  1   
  5   3  24  1   
  6   4   6  1   
  7   4  25  1   
  8   4  26  1   
  9   5   7  2   
 10   5   8  1   
 11   6   9  1   
 12   6  10  1   
 13   7  11  1   
 14   8  12  2   
 15   8  27  1   
 16   9  13  1   
 17   9  28  1   
 18   9  29  1   
 19  10  13  1   
 20  10  30  1   
 21  10  31  1   
 22  11  12  1   
 23  11  14  1   
 24  12  32  1   
 25  13  15  1   
 26  13  33  1   
 27  14  34  1   
 28  14  35  1   
 29  14  36  1   
 30  15  16  1   
 31  16  17  ar  
 32  16  18  ar  
 33  17  19  ar  
 34  17  20  1   
 35  18  21  ar  
 36  18  22  1   
 37  19  23  ar  
 38  19  37  1   
 39  20  38  1   
 40  20  39  1   
 41  20  40  1   
 42  21  23  ar  
 43  21  41  1   
 44  22  42  1   
 45  22  43  1   
 46  22  44  1   
 47  23  45  1   
@<TRIPOS>SUBSTRUCTURE
  1 ****   9 GROUP 4 **** **** 0

# MOE 2024.06 (io_trps.svl 2023.06)
