@<TRIPOS>MOLECULE
NONAME
54 55 1 0 0 
SMALL
USER_CHARGES


@<TRIPOS>ATOM
  1 O       -0.0380     0.4910     1.7160 O.2   1 <1>  -0.5700 
  2 C        0.8570    -0.0480     2.3210 C.2   1 <1>   0.5690 
  3 N        1.9000     0.6470     2.8450 N.am  1 <1>  -0.7300 
  4 C        0.8520    -1.5820     2.3470 C.3   1 <1>   0.4040 
  5 C        2.3230     1.9250     2.2640 C.3   1 <1>   0.3640 
  6 N        0.8620    -2.1680     0.9510 N.4   1 <1>  -0.9590 
  7 C        3.0620     1.5740     0.9750 C.ar  1 <1>  -0.1430 
  8 C        3.1790     2.6780     3.2770 C.3   1 <1>  -0.2400 
  9 C        0.6310    -3.6380     0.9640 C.3   1 <1>   0.3430 
 10 C        2.0970    -1.7590     0.1960 C.3   1 <1>   0.2630 
 11 C        2.4450     1.8180    -0.2430 C.ar  1 <1>  -0.1500 
 12 C        4.3160     0.9740     0.9810 C.ar  1 <1>  -0.1500 
 13 C        0.2320    -4.1290    -0.4290 C.3   1 <1>  -0.1600 
 14 C        3.0620     1.4650    -1.4300 C.ar  1 <1>  -0.1500 
 15 C        4.9320     0.6210    -0.2070 C.ar  1 <1>  -0.1500 
 16 C       -0.1090    -5.6300    -0.4460 C.3   1 <1>  -0.0800 
 17 C        4.3070     0.8600    -1.4180 C.ar  1 <1>  -0.1430 
 18 C       -0.4120    -6.0830    -1.8840 C.3   1 <1>  -0.1600 
 19 C       -1.3120    -5.9710     0.4540 C.3   1 <1>  -0.1600 
 20 C        4.9900     0.4850    -2.7220 C.3   1 <1>  -0.0970 
 21 C       -0.9080    -7.5330    -1.9210 C.3   1 <1>   0.1200 
 22 C       -1.7500    -7.4290     0.2660 C.3   1 <1>   0.1200 
 23 O       -2.0120    -7.6560    -1.0810 O.3   1 <1>  -0.5600 
 24 H        2.6400     0.1970     3.3830 H     1 <1>   0.3700 
 25 H       -0.0370    -1.8970     2.8660 H     1 <1>   0.0800 
 26 H        1.7090    -1.9270     2.8980 H     1 <1>   0.0800 
 27 H        1.4540     2.5210     2.0330 H     1 <1>   0.0800 
 28 H        0.0620    -1.7150     0.4740 H     1 <1>   0.4500 
 29 H        4.0220     2.0960     3.6000 H     1 <1>   0.0800 
 30 H        2.5830     2.9450     4.1310 H     1 <1>   0.0800 
 31 H        3.5440     3.5850     2.8280 H     1 <1>   0.0800 
 32 H       -0.1670    -3.8670     1.6520 H     1 <1>   0.0800 
 33 H        1.5200    -4.1530     1.2940 H     1 <1>   0.0800 
 34 H        2.9800    -2.1650     0.6620 H     1 <1>   0.0800 
 35 H        2.1860    -0.6850     0.1720 H     1 <1>   0.0800 
 36 H        2.0520    -2.1090    -0.8220 H     1 <1>   0.0800 
 37 H        1.4730     2.2830    -0.2750 H     1 <1>   0.1500 
 38 H        4.8280     0.7780     1.9060 H     1 <1>   0.1500 
 39 H        1.0420    -3.9630    -1.1160 H     1 <1>   0.0800 
 40 H       -0.6250    -3.5750    -0.7730 H     1 <1>   0.0800 
 41 H        2.5690     1.6710    -2.3650 H     1 <1>   0.1500 
 42 H        5.9090     0.1670    -0.1850 H     1 <1>   0.1500 
 43 H        0.7440    -6.1910    -0.0980 H     1 <1>   0.0800 
 44 H        0.4690    -5.9990    -2.4950 H     1 <1>   0.0800 
 45 H       -1.1750    -5.4600    -2.3200 H     1 <1>   0.0800 
 46 H       -2.1500    -5.3390     0.2120 H     1 <1>   0.0800 
 47 H       -1.0710    -5.8230     1.4910 H     1 <1>   0.0800 
 48 H        4.2620     0.2520    -3.4780 H     1 <1>   0.0800 
 49 H        5.6250    -0.3710    -2.5850 H     1 <1>   0.0800 
 50 H        5.5900     1.3090    -3.0650 H     1 <1>   0.0800 
 51 H       -0.1470    -8.2210    -1.5950 H     1 <1>   0.0800 
 52 H       -1.2210    -7.8020    -2.9150 H     1 <1>   0.0800 
 53 H       -2.6550    -7.6270     0.8130 H     1 <1>   0.0800 
 54 H       -0.9880    -8.1180     0.5900 H     1 <1>   0.0800 
@<TRIPOS>BOND
  1   1   2  2   
  2   2   3  am  
  3   2   4  1   
  4   3   5  1   
  5   3  24  1   
  6   4   6  1   
  7   4  25  1   
  8   4  26  1   
  9   5   7  1   
 10   5   8  1   
 11   5  27  1   
 12   6   9  1   
 13   6  10  1   
 14   6  28  1   
 15   7  11  ar  
 16   7  12  ar  
 17   8  29  1   
 18   8  30  1   
 19   8  31  1   
 20   9  13  1   
 21   9  32  1   
 22   9  33  1   
 23  10  34  1   
 24  10  35  1   
 25  10  36  1   
 26  11  14  ar  
 27  11  37  1   
 28  12  15  ar  
 29  12  38  1   
 30  13  16  1   
 31  13  39  1   
 32  13  40  1   
 33  14  17  ar  
 34  14  41  1   
 35  15  17  ar  
 36  15  42  1   
 37  16  18  1   
 38  16  19  1   
 39  16  43  1   
 40  17  20  1   
 41  18  21  1   
 42  18  44  1   
 43  18  45  1   
 44  19  22  1   
 45  19  46  1   
 46  19  47  1   
 47  20  48  1   
 48  20  49  1   
 49  20  50  1   
 50  21  23  1   
 51  21  51  1   
 52  21  52  1   
 53  22  23  1   
 54  22  53  1   
 55  22  54  1   
@<TRIPOS>SUBSTRUCTURE
  1 ****  10 GROUP 4 **** **** 0

# MOE 2024.06 (io_trps.svl 2023.06)
