@<TRIPOS>MOLECULE
NONAME
44 46 1 0 0 
SMALL
USER_CHARGES


@<TRIPOS>ATOM
  1 O        0.2090     0.0320     0.3200 O.2   1 <1>  -0.5700 
  2 C        1.1580    -0.6820     0.0540 C.2   1 <1>   0.7150 
  3 N        2.3200    -0.1300    -0.4300 N.am  1 <1>  -0.4940 
  4 C        1.1180    -2.1120     0.2470 C.2   1 <1>   0.0550 
  5 C        2.6100     1.2160    -0.7670 C.2   1 <1>  -0.0880 
  6 O        2.1930    -2.8390    -0.0400 O.3   1 <1>  -0.2800 
  7 C        0.1460    -2.9380     0.6940 C.2   1 <1>   0.0460 
  8 N        3.8490     1.7790    -0.8170 N.pl3 1 <1>   0.3140 
  9 C        1.7400     2.1990    -1.1000 C.2   1 <1>  -0.1500 
 10 C        1.7860    -4.0570     0.2540 C.2   1 <1>   0.2980 
 11 N        0.5920    -4.1880     0.6930 N.2   1 <1>  -0.5650 
 12 C       -1.2700    -2.6600     1.1590 C.3   1 <1>  -0.0590 
 13 N        3.7870     3.0820    -1.1780 N.2   1 <1>  -0.7070 
 14 C        5.1450     1.1630    -0.4240 C.3   1 <1>   0.1760 
 15 C        2.5220     3.3190    -1.3440 C.2   1 <1>   0.1390 
 16 C        2.7510    -5.2010     0.0500 C.3   1 <1>  -0.0600 
 17 C        5.6510     1.8140     0.8750 C.3   1 <1>  -0.1600 
 18 C        6.1750     1.3160    -1.5590 C.3   1 <1>  -0.1600 
 19 C        7.0550     1.3460     1.2400 C.3   1 <1>   0.3430 
 20 C        7.5660     0.8600    -1.1310 C.3   1 <1>   0.3430 
 21 N        7.9750     1.6010     0.0950 N.4   1 <1>  -0.9590 
 22 C        9.3910     1.2910     0.4630 C.3   1 <1>   0.2630 
 23 H        3.0170    -0.8430    -0.6420 H     1 <1>   0.3700 
 24 H        0.6680     2.1470    -1.1670 H     1 <1>   0.1500 
 25 H       -1.5070    -1.6150     1.1040 H     1 <1>   0.0800 
 26 H       -1.3830    -2.9860     2.1770 H     1 <1>   0.0800 
 27 H       -1.9630    -3.2040     0.5440 H     1 <1>   0.0800 
 28 H        4.9800     0.1170    -0.2450 H     1 <1>   0.0800 
 29 H        2.1300     4.2790    -1.6360 H     1 <1>   0.1500 
 30 H        3.0550    -5.2400    -0.9800 H     1 <1>   0.0800 
 31 H        2.2760    -6.1290     0.3090 H     1 <1>   0.0800 
 32 H        3.6140    -5.0630     0.6730 H     1 <1>   0.0800 
 33 H        4.9790     1.5710     1.6800 H     1 <1>   0.0800 
 34 H        5.6610     2.8860     0.7730 H     1 <1>   0.0800 
 35 H        6.2350     2.3440    -1.8730 H     1 <1>   0.0800 
 36 H        5.8590     0.7350    -2.4080 H     1 <1>   0.0800 
 37 H        7.0410     0.2930     1.4730 H     1 <1>   0.0800 
 38 H        7.3940     1.8810     2.1130 H     1 <1>   0.0800 
 39 H        8.2660     1.0520    -1.9300 H     1 <1>   0.0800 
 40 H        7.5600    -0.2010    -0.9350 H     1 <1>   0.0800 
 41 H        7.9140     2.6080    -0.1250 H     1 <1>   0.4500 
 42 H        9.5000     0.2460     0.7010 H     1 <1>   0.0800 
 43 H        9.6910     1.8730     1.3210 H     1 <1>   0.0800 
 44 H       10.0510     1.5290    -0.3560 H     1 <1>   0.0800 
@<TRIPOS>BOND
  1   1   2  2   
  2   2   3  am  
  3   2   4  1   
  4   3   5  1   
  5   3  23  1   
  6   4   6  1   
  7   4   7  2   
  8   5   8  1   
  9   5   9  2   
 10   6  10  1   
 11   7  11  1   
 12   7  12  1   
 13   8  13  1   
 14   8  14  1   
 15   9  15  1   
 16   9  24  1   
 17  10  11  2   
 18  10  16  1   
 19  12  25  1   
 20  12  26  1   
 21  12  27  1   
 22  13  15  2   
 23  14  17  1   
 24  14  18  1   
 25  14  28  1   
 26  15  29  1   
 27  16  30  1   
 28  16  31  1   
 29  16  32  1   
 30  17  19  1   
 31  17  33  1   
 32  17  34  1   
 33  18  20  1   
 34  18  35  1   
 35  18  36  1   
 36  19  21  1   
 37  19  37  1   
 38  19  38  1   
 39  20  21  1   
 40  20  39  1   
 41  20  40  1   
 42  21  22  1   
 43  21  41  1   
 44  22  42  1   
 45  22  43  1   
 46  22  44  1   
@<TRIPOS>SUBSTRUCTURE
  1 ****   3 GROUP 4 **** **** 0

# MOE 2024.06 (io_trps.svl 2023.06)
