@<TRIPOS>MOLECULE
NONAME
53 55 1 0 0 
SMALL
USER_CHARGES


@<TRIPOS>ATOM
  1 O       -0.9180     0.1970    -0.5920 O.2   1 <1>  -0.5700 
  2 C       -1.7940     1.0200    -0.6990 C.2   1 <1>   0.5690 
  3 N       -2.9900     0.6870    -1.2820 N.am  1 <1>  -0.6600 
  4 C       -1.5670     2.4130    -0.1440 C.3   1 <1>  -0.0990 
  5 C       -4.2930     1.3720    -1.0070 C.3   1 <1>   0.1400 
  6 C       -3.1400    -0.6040    -2.0150 C.3   1 <1>   0.1400 
  7 C       -0.0810     2.7560    -0.0400 C.3   1 <1>   0.1200 
  8 C       -5.3840     0.3790    -0.5140 C.3   1 <1>   0.4230 
  9 C       -3.9810    -1.6080    -1.2010 C.3   1 <1>   0.3430 
 10 O        0.0240     4.0750     0.4430 O.3   1 <1>  -0.3630 
 11 N       -4.8100    -0.9650    -0.1070 N.4   1 <1>  -0.9590 
 12 C       -6.5130     0.1840    -1.5500 C.3   1 <1>   0.1200 
 13 C        1.2360     4.6530     0.6420 C.ar  1 <1>   0.0820 
 14 C       -5.9180    -1.8400     0.4050 C.3   1 <1>   0.4230 
 15 O       -7.4980    -0.6640    -1.0300 O.3   1 <1>  -0.5600 
 16 C        2.4490     4.0110     0.4060 C.ar  1 <1>  -0.1500 
 17 C        1.2360     5.9590     1.1060 C.ar  1 <1>  -0.1500 
 18 C       -7.0640    -1.9400    -0.6350 C.3   1 <1>   0.1200 
 19 C       -5.3710    -3.2120     0.8320 C.3   1 <1>  -0.1600 
 20 C        3.6410     4.6770     0.6360 C.ar  1 <1>  -0.1500 
 21 C        2.4290     6.6230     1.3350 C.ar  1 <1>  -0.1500 
 22 C       -6.3800    -4.0080     1.6750 C.3   1 <1>  -0.1600 
 23 C        3.6320     5.9820     1.1000 C.ar  1 <1>  -0.1500 
 24 C       -5.7700    -5.3300     2.1490 C.3   1 <1>  -0.2400 
 25 H       -2.0340     3.1310    -0.7920 H     1 <1>   0.0800 
 26 H       -2.0050     2.4730     0.8340 H     1 <1>   0.0800 
 27 H       -4.1630     2.1250    -0.2500 H     1 <1>   0.0800 
 28 H       -4.6240     1.8770    -1.8980 H     1 <1>   0.0800 
 29 H       -3.6220    -0.4160    -2.9590 H     1 <1>   0.0800 
 30 H       -2.1790    -1.0380    -2.2370 H     1 <1>   0.0800 
 31 H        0.3920     2.7060    -1.0060 H     1 <1>   0.0800 
 32 H        0.4160     2.0970     0.6520 H     1 <1>   0.0800 
 33 H       -5.8490     0.8310     0.3470 H     1 <1>   0.0800 
 34 H       -3.3110    -2.3270    -0.7580 H     1 <1>   0.0800 
 35 H       -4.6180    -2.1460    -1.8830 H     1 <1>   0.0800 
 36 H       -4.1530    -0.7760     0.6620 H     1 <1>   0.4500 
 37 H       -6.1450    -0.2330    -2.4700 H     1 <1>   0.0800 
 38 H       -6.9860     1.1270    -1.7670 H     1 <1>   0.0800 
 39 H       -6.3340    -1.3750     1.2840 H     1 <1>   0.0800 
 40 H        2.4880     3.0000     0.0470 H     1 <1>   0.1500 
 41 H        0.2980     6.4510     1.2870 H     1 <1>   0.1500 
 42 H       -7.9130    -2.4430    -0.2060 H     1 <1>   0.0800 
 43 H       -6.7560    -2.4850    -1.5100 H     1 <1>   0.0800 
 44 H       -5.1110    -3.7980    -0.0320 H     1 <1>   0.0800 
 45 H       -4.4860    -3.0660     1.4260 H     1 <1>   0.0800 
 46 H        4.5780     4.1790     0.4530 H     1 <1>   0.1500 
 47 H        2.4190     7.6370     1.6960 H     1 <1>   0.1500 
 48 H       -6.6760    -3.4340     2.5380 H     1 <1>   0.0800 
 49 H       -7.2650    -4.2280     1.1010 H     1 <1>   0.0800 
 50 H        4.5610     6.4970     1.2770 H     1 <1>   0.1500 
 51 H       -4.9010    -5.1540     2.7580 H     1 <1>   0.0800 
 52 H       -5.4880    -5.9430     1.3110 H     1 <1>   0.0800 
 53 H       -6.4880    -5.8750     2.7370 H     1 <1>   0.0800 
@<TRIPOS>BOND
  1   1   2  2   
  2   2   3  am  
  3   2   4  1   
  4   3   5  1   
  5   3   6  1   
  6   4   7  1   
  7   4  25  1   
  8   4  26  1   
  9   5   8  1   
 10   5  27  1   
 11   5  28  1   
 12   6   9  1   
 13   6  29  1   
 14   6  30  1   
 15   7  10  1   
 16   7  31  1   
 17   7  32  1   
 18   8  11  1   
 19   8  12  1   
 20   8  33  1   
 21   9  11  1   
 22   9  34  1   
 23   9  35  1   
 24  10  13  1   
 25  11  14  1   
 26  11  36  1   
 27  12  15  1   
 28  12  37  1   
 29  12  38  1   
 30  13  16  ar  
 31  13  17  ar  
 32  14  18  1   
 33  14  19  1   
 34  14  39  1   
 35  15  18  1   
 36  16  20  ar  
 37  16  40  1   
 38  17  21  ar  
 39  17  41  1   
 40  18  42  1   
 41  18  43  1   
 42  19  22  1   
 43  19  44  1   
 44  19  45  1   
 45  20  23  ar  
 46  20  46  1   
 47  21  23  ar  
 48  21  47  1   
 49  22  24  1   
 50  22  48  1   
 51  22  49  1   
 52  23  50  1   
 53  24  51  1   
 54  24  52  1   
 55  24  53  1   
@<TRIPOS>SUBSTRUCTURE
  1 ****   2 GROUP 4 **** **** 0

# MOE 2024.06 (io_trps.svl 2023.06)
