@<TRIPOS>MOLECULE
NONAME
42 44 1 0 0 
SMALL
USER_CHARGES


@<TRIPOS>ATOM
  1 O        0.4530    -0.0890     0.1610 O.3   1 <1>  -0.6800 
  2 C        1.7620    -0.1560    -0.2990 C.3   1 <1>   0.2000 
  3 C        2.4420    -1.4270     0.2050 C.3   1 <1>  -0.0800 
  4 C        2.6070     0.9930     0.2460 C.3   1 <1>   0.2090 
  5 C        3.9260    -1.0590     0.3000 C.3   1 <1>   0.2090 
  6 C        2.1830    -2.6440    -0.6960 C.3   1 <1>   0.0210 
  7 N        3.9690     0.4190     0.3880 N.pl3 1 <1>  -0.8380 
  8 C        2.8790    -3.8770    -0.1590 C.2   1 <1>   0.1080 
  9 C        5.1220     1.1460     0.2120 C.ar  1 <1>   0.7200 
 10 N        2.4110    -4.5640     0.8350 N.2   1 <1>  -0.7070 
 11 C        4.0710    -4.4020    -0.6480 C.2   1 <1>  -0.1500 
 12 N        6.2570     0.4570     0.1050 N.ar  1 <1>  -0.6200 
 13 N        4.9980     2.4710     0.1640 N.ar  1 <1>  -0.6200 
 14 N        3.3030    -5.5570     1.0120 N.pl3 1 <1>   0.3000 
 15 C        4.3180    -5.4800     0.1250 C.2   1 <1>  -0.3320 
 16 C        7.3490     1.1590    -0.0530 C.ar  1 <1>   0.1670 
 17 C        6.1030     3.1520     0.0060 C.ar  1 <1>   0.1670 
 18 C        5.4800    -6.4540     0.0720 C.3   1 <1>  -0.0600 
 19 C        7.3240     2.5330    -0.1100 C.ar  1 <1>  -0.1500 
 20 C        8.6470     0.3900    -0.1700 C.3   1 <1>  -0.0970 
 21 C        5.9760     4.6600    -0.0450 C.3   1 <1>  -0.0970 
 22 H       -0.0080    -0.9340     0.0020 H     1 <1>   0.4000 
 23 H        1.7540    -0.1150    -1.3750 H     1 <1>   0.0800 
 24 H        2.1050    -1.6400     1.2050 H     1 <1>   0.0800 
 25 H        2.2540     1.2980     1.2160 H     1 <1>   0.0800 
 26 H        2.6000     1.8280    -0.4320 H     1 <1>   0.0800 
 27 H        4.4590    -1.3750    -0.5810 H     1 <1>   0.0800 
 28 H        4.3830    -1.5030     1.1680 H     1 <1>   0.0800 
 29 H        2.5280    -2.4470    -1.6950 H     1 <1>   0.0800 
 30 H        1.1280    -2.8450    -0.7400 H     1 <1>   0.0800 
 31 H        4.6510    -4.0110    -1.4650 H     1 <1>   0.1500 
 32 H        3.1910    -6.2680     1.7440 H     1 <1>   0.2700 
 33 H        6.1580    -6.1780    -0.7170 H     1 <1>   0.0800 
 34 H        5.1230    -7.4510    -0.1160 H     1 <1>   0.0800 
 35 H        6.0180    -6.4430     1.0040 H     1 <1>   0.0800 
 36 H        8.2250     3.1000    -0.2390 H     1 <1>   0.1500 
 37 H        9.4820     1.0540    -0.2890 H     1 <1>   0.0800 
 38 H        8.5980    -0.2670    -1.0180 H     1 <1>   0.0800 
 39 H        8.7930    -0.2000     0.7170 H     1 <1>   0.0800 
 40 H        6.9350     5.1250    -0.1770 H     1 <1>   0.0800 
 41 H        5.5390     5.0130     0.8710 H     1 <1>   0.0800 
 42 H        5.3370     4.9380    -0.8630 H     1 <1>   0.0800 
@<TRIPOS>BOND
  1   1   2  1   
  2   1  22  1   
  3   2   3  1   
  4   2   4  1   
  5   2  23  1   
  6   3   5  1   
  7   3   6  1   
  8   3  24  1   
  9   4   7  1   
 10   4  25  1   
 11   4  26  1   
 12   5   7  1   
 13   5  27  1   
 14   5  28  1   
 15   6   8  1   
 16   6  29  1   
 17   6  30  1   
 18   7   9  1   
 19   8  10  2   
 20   8  11  1   
 21   9  12  ar  
 22   9  13  ar  
 23  10  14  1   
 24  11  15  2   
 25  11  31  1   
 26  12  16  ar  
 27  13  17  ar  
 28  14  15  1   
 29  14  32  1   
 30  15  18  1   
 31  16  19  ar  
 32  16  20  1   
 33  17  19  ar  
 34  17  21  1   
 35  18  33  1   
 36  18  34  1   
 37  18  35  1   
 38  19  36  1   
 39  20  37  1   
 40  20  38  1   
 41  20  39  1   
 42  21  40  1   
 43  21  41  1   
 44  21  42  1   
@<TRIPOS>SUBSTRUCTURE
  1 ****   5 GROUP 4 **** **** 0

# MOE 2024.06 (io_trps.svl 2023.06)
