@<TRIPOS>MOLECULE
NONAME
44 46 1 0 0 
SMALL
USER_CHARGES


@<TRIPOS>ATOM
  1 S        1.0220     1.0410     0.5880 S.o2  1 <1>   1.4470 
  2 O       -0.1380     1.7780     1.0250 O.2   1 <1>  -0.6500 
  3 O        2.3050     1.2560     1.2230 O.2   1 <1>  -0.6500 
  4 N        1.1940     1.4840    -1.0200 N.am  1 <1>  -0.9140 
  5 C        0.6580    -0.7340     0.4960 C.ar  1 <1>  -0.0090 
  6 C        2.1730     2.5680    -1.2430 C.3   1 <1>   0.2570 
  7 C       -0.6070    -1.2270     0.8100 C.ar  1 <1>  -0.1500 
  8 C        1.6390    -1.6370     0.0940 C.ar  1 <1>  -0.1500 
  9 C        1.8290     3.9100    -0.5800 C.2   1 <1>   0.5690 
 10 C       -0.9020    -2.5800     0.7340 C.ar  1 <1>  -0.1440 
 11 C        1.3720    -2.9930     0.0090 C.ar  1 <1>  -0.1500 
 12 O        1.2590     4.7490    -1.2370 O.2   1 <1>  -0.5700 
 13 N        2.1710     4.1230     0.7130 N.am  1 <1>  -0.7300 
 14 C        0.1060    -3.4400     0.3300 C.ar  1 <1>   0.1900 
 15 C       -2.2910    -3.0970     1.0830 C.3   1 <1>  -0.0970 
 16 C        1.9600     5.3840     1.4570 C.3   1 <1>   0.3210 
 17 F       -0.1340    -4.7210     0.2450 F     1 <1>  -0.1900 
 18 C        3.2920     6.0840     1.6690 C.2   1 <1>   0.1080 
 19 N        3.9860     6.0420     2.7740 N.2   1 <1>  -0.7070 
 20 C        3.9330     6.8450     0.6990 C.2   1 <1>  -0.1810 
 21 N        5.0890     6.7840     2.5200 N.pl3 1 <1>   0.3000 
 22 C        5.0560     7.2680     1.2650 C.2   1 <1>  -0.3320 
 23 C        3.7830     7.3250    -0.7160 C.3   1 <1>   0.0210 
 24 C        5.9090     8.1200     0.3700 C.3   1 <1>   0.0200 
 25 C        5.1260     8.0610    -0.9660 C.3   1 <1>  -0.1600 
 26 H        0.2790     1.8750    -1.2490 H     1 <1>   0.4200 
 27 H        2.2470     2.7420    -2.3020 H     1 <1>   0.0800 
 28 H        3.1470     2.2540    -0.9080 H     1 <1>   0.0800 
 29 H       -1.3720    -0.5340     1.1210 H     1 <1>   0.1500 
 30 H        2.6230    -1.2720    -0.1530 H     1 <1>   0.1500 
 31 H        2.1280    -3.6930    -0.3000 H     1 <1>   0.1500 
 32 H        2.6460     3.3900     1.2550 H     1 <1>   0.3700 
 33 H       -2.9470    -2.2910     1.3600 H     1 <1>   0.0800 
 34 H       -2.2270    -3.7860     1.9070 H     1 <1>   0.0800 
 35 H       -2.7150    -3.6090     0.2380 H     1 <1>   0.0800 
 36 H        1.5140     5.1670     2.4110 H     1 <1>   0.0800 
 37 H        1.2990     6.0340     0.9110 H     1 <1>   0.0800 
 38 H        5.8300     6.9320     3.2150 H     1 <1>   0.2700 
 39 H        2.9470     7.9980    -0.7910 H     1 <1>   0.0800 
 40 H        3.6500     6.4970    -1.3900 H     1 <1>   0.0800 
 41 H        6.8980     7.7090     0.2640 H     1 <1>   0.0800 
 42 H        5.9600     9.1270     0.7470 H     1 <1>   0.0800 
 43 H        4.9490     9.0500    -1.3480 H     1 <1>   0.0800 
 44 H        5.7000     7.5090    -1.6890 H     1 <1>   0.0800 
@<TRIPOS>BOND
  1   1   2  2   
  2   1   3  2   
  3   1   4  am  
  4   1   5  1   
  5   4   6  1   
  6   4  26  1   
  7   5   7  ar  
  8   5   8  ar  
  9   6   9  1   
 10   6  27  1   
 11   6  28  1   
 12   7  10  ar  
 13   7  29  1   
 14   8  11  ar  
 15   8  30  1   
 16   9  12  2   
 17   9  13  am  
 18  10  14  ar  
 19  10  15  1   
 20  11  14  ar  
 21  11  31  1   
 22  13  16  1   
 23  13  32  1   
 24  14  17  1   
 25  15  33  1   
 26  15  34  1   
 27  15  35  1   
 28  16  18  1   
 29  16  36  1   
 30  16  37  1   
 31  18  19  2   
 32  18  20  1   
 33  19  21  1   
 34  20  22  2   
 35  20  23  1   
 36  21  22  1   
 37  21  38  1   
 38  22  24  1   
 39  23  25  1   
 40  23  39  1   
 41  23  40  1   
 42  24  25  1   
 43  24  41  1   
 44  24  42  1   
 45  25  43  1   
 46  25  44  1   
@<TRIPOS>SUBSTRUCTURE
  1 ****   3 GROUP 4 **** **** 0

# MOE 2024.06 (io_trps.svl 2023.06)
