@<TRIPOS>MOLECULE
NONAME
50 53 1 0 0 
SMALL
USER_CHARGES


@<TRIPOS>ATOM
  1 O       -2.3080    -0.5540    -2.5550 O.2   1 <1>  -0.5700 
  2 C       -2.3760    -0.9490    -1.4190 C.2   1 <1>   0.5690 
  3 N       -2.3300    -0.1040    -0.3470 N.am  1 <1>  -0.6600 
  4 C       -2.5720    -2.4290    -1.2150 C.3   1 <1>  -0.0190 
  5 C       -2.4980    -0.5670     1.0600 C.3   1 <1>   0.2200 
  6 C       -2.0590     1.3570    -0.5230 C.3   1 <1>   0.0600 
  7 C       -1.4350    -3.0620    -0.3850 C.3   1 <1>   0.1200 
  8 C       -4.0070    -2.6680    -0.7320 C.3   1 <1>   0.3430 
  9 C       -1.3680    -1.5480     1.4600 C.3   1 <1>   0.1200 
 10 C       -3.9320    -1.1200     1.2940 C.3   1 <1>   0.3430 
 11 O       -1.5820    -2.8550     0.9940 O.3   1 <1>  -0.5600 
 12 N       -4.1810    -2.5020     0.7480 N.4   1 <1>  -0.9590 
 13 C       -5.4370    -3.1150     1.2520 C.3   1 <1>   0.4860 
 14 C       -5.4040    -4.5990     0.9370 C.ar  1 <1>  -0.1440 
 15 C       -6.3200    -5.1500     0.0510 C.ar  1 <1>  -0.1500 
 16 C       -4.4450    -5.4130     1.5230 C.ar  1 <1>  -0.1500 
 17 C       -6.2750    -6.5020    -0.2580 C.ar  1 <1>  -0.1440 
 18 C       -4.3960    -6.7600     1.2150 C.ar  1 <1>  -0.1500 
 19 C       -5.3050    -7.3010     0.3260 C.ar  1 <1>  -0.1500 
 20 C       -7.2760    -7.1230    -1.2300 C.3   1 <1>   0.2390 
 21 N       -8.0470    -8.2150    -0.5960 N.pl3 1 <1>   0.3140 
 22 N       -8.1260    -9.4400    -1.1510 N.2   1 <1>  -0.7070 
 23 C       -8.7560    -8.1540     0.5500 C.2   1 <1>  -0.3020 
 24 C       -8.8780   -10.1250    -0.3450 C.2   1 <1>   0.1390 
 25 C       -9.3050    -9.3720     0.7410 C.2   1 <1>  -0.1500 
 26 H       -2.5060    -2.8680    -2.1940 H     1 <1>   0.0800 
 27 H       -2.3930     0.2980     1.6920 H     1 <1>   0.0800 
 28 H       -2.8880     1.9340    -0.1540 H     1 <1>   0.0800 
 29 H       -1.9140     1.6000    -1.5630 H     1 <1>   0.0800 
 30 H       -1.1670     1.6330     0.0120 H     1 <1>   0.0800 
 31 H       -0.4740    -2.6830    -0.6940 H     1 <1>   0.0800 
 32 H       -1.4340    -4.1290    -0.5380 H     1 <1>   0.0800 
 33 H       -4.2700    -3.6790    -1.0010 H     1 <1>   0.0800 
 34 H       -4.6750    -2.0070    -1.2600 H     1 <1>   0.0800 
 35 H       -1.3190    -1.6110     2.5330 H     1 <1>   0.0800 
 36 H       -0.4120    -1.1980     1.1060 H     1 <1>   0.0800 
 37 H       -4.6400    -0.4260     0.8720 H     1 <1>   0.0800 
 38 H       -4.0960    -1.1440     2.3580 H     1 <1>   0.0800 
 39 H       -3.4020    -3.0740     1.1330 H     1 <1>   0.4500 
 40 H       -5.5140    -2.9830     2.3190 H     1 <1>   0.0800 
 41 H       -6.2920    -2.6530     0.7850 H     1 <1>   0.0800 
 42 H       -7.0760    -4.5310    -0.4030 H     1 <1>   0.1500 
 43 H       -3.7270    -5.0200     2.2230 H     1 <1>   0.1500 
 44 H       -3.6520    -7.3940     1.6690 H     1 <1>   0.1500 
 45 H       -5.2600    -8.3540     0.0970 H     1 <1>   0.1500 
 46 H       -6.7530    -7.5300    -2.0760 H     1 <1>   0.0800 
 47 H       -7.9730    -6.3880    -1.5850 H     1 <1>   0.0800 
 48 H       -8.8260    -7.2690     1.1540 H     1 <1>   0.1500 
 49 H       -9.1360   -11.1580    -0.5090 H     1 <1>   0.1500 
 50 H       -9.9350    -9.7150     1.5430 H     1 <1>   0.1500 
@<TRIPOS>BOND
  1   1   2  2   
  2   2   3  am  
  3   2   4  1   
  4   3   5  1   
  5   3   6  1   
  6   4   7  1   
  7   4   8  1   
  8   4  26  1   
  9   5   9  1   
 10   5  10  1   
 11   5  27  1   
 12   6  28  1   
 13   6  29  1   
 14   6  30  1   
 15   7  11  1   
 16   7  31  1   
 17   7  32  1   
 18   8  12  1   
 19   8  33  1   
 20   8  34  1   
 21   9  11  1   
 22   9  35  1   
 23   9  36  1   
 24  10  12  1   
 25  10  37  1   
 26  10  38  1   
 27  12  13  1   
 28  12  39  1   
 29  13  14  1   
 30  13  40  1   
 31  13  41  1   
 32  14  15  ar  
 33  14  16  ar  
 34  15  17  ar  
 35  15  42  1   
 36  16  18  ar  
 37  16  43  1   
 38  17  19  ar  
 39  17  20  1   
 40  18  19  ar  
 41  18  44  1   
 42  19  45  1   
 43  20  21  1   
 44  20  46  1   
 45  20  47  1   
 46  21  22  1   
 47  21  23  1   
 48  22  24  2   
 49  23  25  2   
 50  23  48  1   
 51  24  25  1   
 52  24  49  1   
 53  25  50  1   
@<TRIPOS>SUBSTRUCTURE
  1 ****  14 GROUP 4 **** **** 0

# MOE 2024.06 (io_trps.svl 2023.06)
