@<TRIPOS>MOLECULE
NONAME
53 57 1 0 0 
SMALL
USER_CHARGES


@<TRIPOS>ATOM
  1 O        1.7500     0.2110    -0.2870 O.2   1 <1>  -0.5700 
  2 C        2.1820    -0.6250     0.4860 C.2   1 <1>   0.7150 
  3 N        3.0730    -0.1860     1.4500 N.am  1 <1>  -0.6600 
  4 C        1.8140    -2.0080     0.3040 C.2   1 <1>   0.0550 
  5 C        4.3850    -0.8560     1.6820 C.3   1 <1>   0.1400 
  6 C        2.9590     1.1950     1.9920 C.3   1 <1>   0.1400 
  7 O        2.2630    -2.9660     1.0830 O.3   1 <1>  -0.0190 
  8 C        1.0140    -2.6140    -0.6020 C.2   1 <1>  -0.1500 
  9 C        5.3040    -0.6800     0.4570 C.3   1 <1>   0.3430 
 10 C        4.0850     2.1030     1.4820 C.3   1 <1>  -0.1600 
 11 N        1.8370    -4.1420     0.7460 N.2   1 <1>  -0.4100 
 12 C        1.0670    -3.9590    -0.2680 C.2   1 <1>   0.2030 
 13 N        5.7180     0.7420     0.1750 N.4   1 <1>  -0.9590 
 14 C        4.5990     1.7400     0.0860 C.3   1 <1>   0.3430 
 15 C        0.3310    -5.0720    -0.9920 C.3   1 <1>  -0.0140 
 16 C        6.5500     0.7940    -1.0580 C.3   1 <1>   0.4860 
 17 C       -1.0990    -4.8990    -1.4130 C.3   1 <1>  -0.2000 
 18 C       -0.7570    -5.8220    -0.2860 C.3   1 <1>  -0.2000 
 19 C        7.2920     2.1140    -1.0770 C.ar  1 <1>  -0.1430 
 20 C        8.3690     2.3210    -0.2180 C.ar  1 <1>  -0.1500 
 21 C        6.8940     3.1240    -1.9520 C.ar  1 <1>  -0.1500 
 22 C        9.0150     3.5420    -0.2410 C.ar  1 <1>  -0.1430 
 23 C        7.5510     4.3440    -1.9640 C.ar  1 <1>  -0.1500 
 24 C        8.6080     4.5300    -1.0960 C.ar  1 <1>   0.0830 
 25 C       10.1850     4.0510     0.5500 C.3   1 <1>  -0.0170 
 26 O        9.3380     5.6500    -0.9910 O.3   1 <1>  -0.3620 
 27 C       10.3600     5.4710    -0.0210 C.3   1 <1>   0.1200 
 28 H        4.2370    -1.9050     1.8650 H     1 <1>   0.0800 
 29 H        4.8590    -0.4520     2.5600 H     1 <1>   0.0800 
 30 H        2.9690     1.1610     3.0690 H     1 <1>   0.0800 
 31 H        2.0080     1.6140     1.7000 H     1 <1>   0.0800 
 32 H        0.4530    -2.1750    -1.4060 H     1 <1>   0.1500 
 33 H        4.7920    -1.0820    -0.4030 H     1 <1>   0.0800 
 34 H        6.1870    -1.2780     0.6130 H     1 <1>   0.0800 
 35 H        4.8950     2.1280     2.1890 H     1 <1>   0.0800 
 36 H        3.6880     3.1020     1.4420 H     1 <1>   0.0800 
 37 H        6.3310     1.0720     0.9300 H     1 <1>   0.4500 
 38 H        4.9650     2.6450    -0.3710 H     1 <1>   0.0800 
 39 H        3.7940     1.3640    -0.5260 H     1 <1>   0.0800 
 40 H        0.9810    -5.6410    -1.6330 H     1 <1>   0.1000 
 41 H        5.9290     0.7010    -1.9350 H     1 <1>   0.0800 
 42 H        7.2680    -0.0100    -1.0600 H     1 <1>   0.0800 
 43 H       -1.4160    -5.3220    -2.3500 H     1 <1>   0.1000 
 44 H       -1.6110    -3.9810    -1.1800 H     1 <1>   0.1000 
 45 H       -1.0020    -5.5320     0.7220 H     1 <1>   0.1000 
 46 H       -0.8280    -6.8840    -0.4380 H     1 <1>   0.1000 
 47 H        8.7130     1.5570     0.4560 H     1 <1>   0.1500 
 48 H        6.0730     2.9760    -2.6340 H     1 <1>   0.1500 
 49 H        7.2630     5.1390    -2.6290 H     1 <1>   0.1500 
 50 H       11.0660     3.4590     0.3780 H     1 <1>   0.0800 
 51 H        9.9650     4.0870     1.6020 H     1 <1>   0.0800 
 52 H       11.3100     5.5850    -0.5120 H     1 <1>   0.0800 
 53 H       10.2390     6.2240     0.7380 H     1 <1>   0.0800 
@<TRIPOS>BOND
  1   1   2  2   
  2   2   3  am  
  3   2   4  1   
  4   3   5  1   
  5   3   6  1   
  6   4   7  1   
  7   4   8  2   
  8   5   9  1   
  9   5  28  1   
 10   5  29  1   
 11   6  10  1   
 12   6  30  1   
 13   6  31  1   
 14   7  11  1   
 15   8  12  1   
 16   8  32  1   
 17   9  13  1   
 18   9  33  1   
 19   9  34  1   
 20  10  14  1   
 21  10  35  1   
 22  10  36  1   
 23  11  12  2   
 24  12  15  1   
 25  13  14  1   
 26  13  16  1   
 27  13  37  1   
 28  14  38  1   
 29  14  39  1   
 30  15  17  1   
 31  15  18  1   
 32  15  40  1   
 33  16  19  1   
 34  16  41  1   
 35  16  42  1   
 36  17  18  1   
 37  17  43  1   
 38  17  44  1   
 39  18  45  1   
 40  18  46  1   
 41  19  20  ar  
 42  19  21  ar  
 43  20  22  ar  
 44  20  47  1   
 45  21  23  ar  
 46  21  48  1   
 47  22  24  ar  
 48  22  25  1   
 49  23  24  ar  
 50  23  49  1   
 51  24  26  1   
 52  25  27  1   
 53  25  50  1   
 54  25  51  1   
 55  26  27  1   
 56  27  52  1   
 57  27  53  1   
@<TRIPOS>SUBSTRUCTURE
  1 ****  13 GROUP 4 **** **** 0

# MOE 2024.06 (io_trps.svl 2023.06)
