@<TRIPOS>MOLECULE
NONAME
41 43 1 0 0 
SMALL
USER_CHARGES


@<TRIPOS>ATOM
  1 O       -0.7130    -0.8930    -1.2390 O.2   1 <1>  -0.5700 
  2 C       -1.6250    -1.2830    -0.5490 C.2   1 <1>   0.6900 
  3 N       -2.4350    -0.4090     0.1010 N.am  1 <1>  -0.4900 
  4 N       -1.8650    -2.6200    -0.4040 N.am  1 <1>  -0.5390 
  5 C       -3.4710    -0.8160     0.8860 C.2   1 <1>   0.6160 
  6 C       -2.9060    -3.1130     0.3730 C.2   1 <1>  -0.0290 
  7 O       -4.1510     0.0240     1.4360 O.2   1 <1>  -0.5700 
  8 C       -3.6960    -2.2180     1.0150 C.2   1 <1>  -0.1360 
  9 C       -3.0700    -4.6290     0.4510 C.3   1 <1>   0.2480 
 10 N       -4.4590    -5.0200     0.7400 N.3   1 <1>  -0.8100 
 11 C       -5.3880    -4.7220    -0.3620 C.3   1 <1>   0.1100 
 12 C       -4.5880    -6.4620     1.0180 C.3   1 <1>   0.1100 
 13 C       -6.5670    -5.6570    -0.1220 C.3   1 <1>   0.2000 
 14 C       -5.8930    -6.9410     0.3530 C.3   1 <1>  -0.0800 
 15 O       -7.2970    -5.1480     0.9340 O.3   1 <1>  -0.6800 
 16 C       -5.6240    -7.8900    -0.8280 C.3   1 <1>   0.0200 
 17 C       -4.8550    -9.1240    -0.3910 C.2   1 <1>  -0.3320 
 18 N       -5.3180   -10.0400     0.4870 N.pl3 1 <1>   0.3000 
 19 C       -3.6250    -9.5390    -0.7630 C.2   1 <1>  -0.1500 
 20 N       -4.4230   -11.0220     0.6990 N.2   1 <1>  -0.7070 
 21 C       -3.4150   -10.7170    -0.0540 C.2   1 <1>   0.1080 
 22 C       -2.1730   -11.5730    -0.1250 C.3   1 <1>  -0.0590 
 23 H       -2.2610     0.5830     0.0000 H     1 <1>   0.3700 
 24 H       -1.2160    -3.2220    -0.9130 H     1 <1>   0.3700 
 25 H       -4.5160    -2.5120     1.6420 H     1 <1>   0.1500 
 26 H       -2.4260    -5.0000     1.2310 H     1 <1>   0.0800 
 27 H       -2.7620    -5.0770    -0.4780 H     1 <1>   0.0800 
 28 H       -5.6940    -3.6900    -0.3620 H     1 <1>   0.0800 
 29 H       -4.9320    -4.9570    -1.3080 H     1 <1>   0.0800 
 30 H       -3.7400    -7.0060     0.6370 H     1 <1>   0.0800 
 31 H       -4.6360    -6.6120     2.0830 H     1 <1>   0.0800 
 32 H       -7.2180    -5.7760    -0.9710 H     1 <1>   0.0800 
 33 H       -6.5140    -7.4520     1.0680 H     1 <1>   0.0800 
 34 H       -6.6480    -4.8550     1.6090 H     1 <1>   0.4000 
 35 H       -5.0570    -7.3800    -1.5880 H     1 <1>   0.0800 
 36 H       -6.5580    -8.1940    -1.2680 H     1 <1>   0.0800 
 37 H       -6.2310   -10.0260     0.9580 H     1 <1>   0.2700 
 38 H       -2.9340    -9.0860    -1.4510 H     1 <1>   0.1500 
 39 H       -1.4460   -11.1300    -0.7800 H     1 <1>   0.0800 
 40 H       -2.4320   -12.5480    -0.4920 H     1 <1>   0.0800 
 41 H       -1.7500   -11.6710     0.8570 H     1 <1>   0.0800 
@<TRIPOS>BOND
  1   1   2  2   
  2   2   3  am  
  3   2   4  am  
  4   3   5  am  
  5   3  23  1   
  6   4   6  1   
  7   4  24  1   
  8   5   7  2   
  9   5   8  1   
 10   6   8  2   
 11   6   9  1   
 12   8  25  1   
 13   9  10  1   
 14   9  26  1   
 15   9  27  1   
 16  10  11  1   
 17  10  12  1   
 18  11  13  1   
 19  11  28  1   
 20  11  29  1   
 21  12  14  1   
 22  12  30  1   
 23  12  31  1   
 24  13  14  1   
 25  13  15  1   
 26  13  32  1   
 27  14  16  1   
 28  14  33  1   
 29  15  34  1   
 30  16  17  1   
 31  16  35  1   
 32  16  36  1   
 33  17  18  1   
 34  17  19  2   
 35  18  20  1   
 36  18  37  1   
 37  19  21  1   
 38  19  38  1   
 39  20  21  2   
 40  21  22  1   
 41  22  39  1   
 42  22  40  1   
 43  22  41  1   
@<TRIPOS>SUBSTRUCTURE
  1 ****  10 GROUP 4 **** **** 0

# MOE 2024.06 (io_trps.svl 2023.06)
