@<TRIPOS>MOLECULE
NONAME
45 48 1 0 0 
SMALL
USER_CHARGES


@<TRIPOS>ATOM
  1 CL      -0.1200     0.0790     0.2330 Cl    1 <1>  -0.1400 
  2 C       -0.7680    -1.5240    -0.0180 C.2   1 <1>   0.1400 
  3 C       -0.3900    -2.5590     0.7720 C.2   1 <1>  -0.1810 
  4 C       -1.6990    -1.7000    -1.0750 C.2   1 <1>  -0.1500 
  5 N       -0.9320    -3.8170     0.5340 N.pl3 1 <1>   0.3340 
  6 C       -2.2240    -2.9370    -1.2980 C.2   1 <1>  -0.1050 
  7 C       -0.8060    -5.0250     1.0830 C.2   1 <1>  -0.0150 
  8 C       -1.8420    -4.0350    -0.4790 C.2   1 <1>   0.1420 
  9 F       -0.0130    -5.2120     2.1080 F     1 <1>  -0.1370 
 10 C       -1.5890    -5.9410     0.4440 C.2   1 <1>   0.1410 
 11 N       -2.2500    -5.2820    -0.5560 N.2   1 <1>  -0.5650 
 12 C       -1.6960    -7.3630     0.7520 C.2   1 <1>   0.7160 
 13 O       -0.8030    -7.9180     1.3710 O.2   1 <1>  -0.5700 
 14 N       -2.7710    -8.1430     0.3690 N.am  1 <1>  -0.6600 
 15 C       -4.0020    -7.6750    -0.3150 C.3   1 <1>   0.1400 
 16 C       -2.8990    -9.5750     0.7140 C.3   1 <1>   0.1400 
 17 C       -4.9760    -8.8600    -0.2790 C.3   1 <1>   0.2000 
 18 C       -4.0590   -10.0810    -0.1460 C.3   1 <1>  -0.0800 
 19 O       -5.7870    -8.7820     0.8600 O.3   1 <1>  -0.5600 
 20 C       -4.7430   -11.3380     0.4220 C.3   1 <1>   0.0200 
 21 C       -6.9190    -7.9800     0.7300 C.3   1 <1>   0.0400 
 22 C       -3.8580   -12.5730     0.3760 C.2   1 <1>  -0.0400 
 23 O       -4.2970   -13.6790     0.9160 O.3   1 <1>  -0.0190 
 24 C       -2.6390   -12.8240    -0.1290 C.2   1 <1>  -0.1500 
 25 N       -3.4400   -14.6520     0.8030 N.2   1 <1>  -0.4100 
 26 C       -2.4300   -14.1650     0.1770 C.2   1 <1>   0.1080 
 27 C       -1.1870   -14.9510    -0.1730 C.3   1 <1>  -0.0590 
 28 H        0.3100    -2.4720     1.5810 H     1 <1>   0.1500 
 29 H       -1.9630    -0.8440    -1.6720 H     1 <1>   0.1500 
 30 H       -2.9320    -3.1290    -2.0840 H     1 <1>   0.1500 
 31 H       -4.4080    -6.8060     0.1720 H     1 <1>   0.0800 
 32 H       -3.7580    -7.4350    -1.3350 H     1 <1>   0.0800 
 33 H       -1.9820   -10.1020     0.5120 H     1 <1>   0.0800 
 34 H       -3.1370    -9.6580     1.7610 H     1 <1>   0.0800 
 35 H       -5.5980    -8.9160    -1.1560 H     1 <1>   0.0800 
 36 H       -3.6720   -10.3060    -1.1240 H     1 <1>   0.0800 
 37 H       -5.6370   -11.5420    -0.1410 H     1 <1>   0.0800 
 38 H       -5.0350   -11.1640     1.4430 H     1 <1>   0.0800 
 39 H       -7.4480    -7.9980     1.6670 H     1 <1>   0.0800 
 40 H       -7.5490    -8.3770    -0.0470 H     1 <1>   0.0800 
 41 H       -6.6250    -6.9710     0.5030 H     1 <1>   0.0800 
 42 H       -1.9550   -12.1830    -0.6510 H     1 <1>   0.1500 
 43 H       -1.0520   -14.9650    -1.2380 H     1 <1>   0.0800 
 44 H       -1.2810   -15.9620     0.1800 H     1 <1>   0.0800 
 45 H       -0.3280   -14.5000     0.2890 H     1 <1>   0.0800 
@<TRIPOS>BOND
  1   1   2  1   
  2   2   3  2   
  3   2   4  1   
  4   3   5  1   
  5   3  28  1   
  6   4   6  2   
  7   4  29  1   
  8   5   7  1   
  9   5   8  1   
 10   6   8  1   
 11   6  30  1   
 12   7   9  1   
 13   7  10  2   
 14   8  11  2   
 15  10  11  1   
 16  10  12  1   
 17  12  13  2   
 18  12  14  am  
 19  14  15  1   
 20  14  16  1   
 21  15  17  1   
 22  15  31  1   
 23  15  32  1   
 24  16  18  1   
 25  16  33  1   
 26  16  34  1   
 27  17  18  1   
 28  17  19  1   
 29  17  35  1   
 30  18  20  1   
 31  18  36  1   
 32  19  21  1   
 33  20  22  1   
 34  20  37  1   
 35  20  38  1   
 36  21  39  1   
 37  21  40  1   
 38  21  41  1   
 39  22  23  1   
 40  22  24  2   
 41  23  25  1   
 42  24  26  1   
 43  24  42  1   
 44  25  26  2   
 45  26  27  1   
 46  27  43  1   
 47  27  44  1   
 48  27  45  1   
@<TRIPOS>SUBSTRUCTURE
  1 ****  14 GROUP 4 **** **** 0

# MOE 2024.06 (io_trps.svl 2023.06)
