@<TRIPOS>MOLECULE
NONAME
59 61 1 0 0 
SMALL
USER_CHARGES


@<TRIPOS>ATOM
  1 O       -3.5370     1.7060    -3.6680 O.2   1 <1>  -0.5700 
  2 C       -3.2700     2.0270    -2.5250 C.2   1 <1>   0.5440 
  3 N       -3.4820     1.0660    -1.5430 N.am  1 <1>  -0.6600 
  4 C       -2.7180     3.3600    -2.2770 C.ar  1 <1>   0.3960 
  5 C       -3.4490    -0.3880    -1.8830 C.3   1 <1>   0.1400 
  6 C       -3.3500     1.3080    -0.0790 C.3   1 <1>   0.1400 
  7 N       -1.8070     3.5500    -1.3040 N.ar  1 <1>  -0.6200 
  8 C       -3.1440     4.4070    -3.1010 C.ar  1 <1>   0.1600 
  9 C       -2.1120    -0.9900    -1.4050 C.3   1 <1>   0.3430 
 10 C       -1.9990     0.7450     0.4020 C.3   1 <1>   0.3430 
 11 C       -1.3720     4.7980    -1.2290 C.ar  1 <1>   0.4100 
 12 N       -2.7290     5.6630    -3.0270 N.ar  1 <1>  -0.6200 
 13 N       -1.8450    -0.7210     0.0610 N.4   1 <1>  -0.9590 
 14 N       -0.4140     5.0620    -0.2680 N.pl3 1 <1>  -0.8380 
 15 C       -1.8360     5.8180    -2.0730 C.ar  1 <1>   0.1600 
 16 C       -0.4880    -1.2130     0.4460 C.3   1 <1>   0.2630 
 17 C        0.9660     5.4310    -0.6940 C.3   1 <1>   0.2090 
 18 C       -0.5100     4.4960     1.0990 C.3   1 <1>   0.2090 
 19 C        1.5460     6.4640     0.2810 C.3   1 <1>  -0.0190 
 20 C        0.0630     5.5040     2.1010 C.3   1 <1>  -0.1600 
 21 C        2.9710     6.8260    -0.1210 C.2   1 <1>   0.4480 
 22 C        1.4910     5.9370     1.7300 C.3   1 <1>  -0.1600 
 23 O        3.6820     6.0470    -0.6820 O.2   1 <1>  -0.5700 
 24 C        3.4700     8.2180     0.2350 C.3   1 <1>  -0.0990 
 25 C        3.4730     9.1830    -0.9660 C.3   1 <1>  -0.0800 
 26 C        4.0870    10.5270    -0.5560 C.3   1 <1>  -0.2400 
 27 C        2.0650     9.4120    -1.5320 C.3   1 <1>  -0.2400 
 28 H       -3.5440    -0.5390    -2.9460 H     1 <1>   0.0800 
 29 H       -4.2760    -0.8890    -1.4120 H     1 <1>   0.0800 
 30 H       -4.1560     0.8190     0.4390 H     1 <1>   0.0800 
 31 H       -3.4220     2.3570     0.1480 H     1 <1>   0.0800 
 32 H       -3.8680     4.1850    -3.8670 H     1 <1>   0.1500 
 33 H       -1.3240    -0.5580    -1.9990 H     1 <1>   0.0800 
 34 H       -2.1190    -2.0520    -1.5890 H     1 <1>   0.0800 
 35 H       -1.9160     0.8840     1.4670 H     1 <1>   0.0800 
 36 H       -1.2130     1.3140    -0.0690 H     1 <1>   0.0800 
 37 H       -2.5510    -1.2410     0.6010 H     1 <1>   0.4500 
 38 H       -1.4310     6.8020    -1.9250 H     1 <1>   0.1500 
 39 H        0.2720    -0.6840    -0.1080 H     1 <1>   0.0800 
 40 H       -0.3960    -2.2660     0.2350 H     1 <1>   0.0800 
 41 H       -0.3170    -1.0580     1.4990 H     1 <1>   0.0800 
 42 H        0.9540     5.8350    -1.6930 H     1 <1>   0.0800 
 43 H        1.5810     4.5470    -0.7010 H     1 <1>   0.0800 
 44 H        0.0490     3.5770     1.1410 H     1 <1>   0.0800 
 45 H       -1.5400     4.2900     1.3370 H     1 <1>   0.0800 
 46 H        0.9400     7.3480     0.2090 H     1 <1>   0.0800 
 47 H        0.0620     5.0680     3.0840 H     1 <1>   0.0800 
 48 H       -0.5820     6.3660     2.1270 H     1 <1>   0.0800 
 49 H        1.8240     6.6990     2.4130 H     1 <1>   0.0800 
 50 H        2.1550     5.0940     1.8250 H     1 <1>   0.0800 
 51 H        4.4770     8.1140     0.5980 H     1 <1>   0.0800 
 52 H        2.8790     8.6250     1.0350 H     1 <1>   0.0800 
 53 H        4.0870     8.7560    -1.7430 H     1 <1>   0.0800 
 54 H        3.5020    10.9950     0.2170 H     1 <1>   0.0800 
 55 H        4.1310    11.1910    -1.4010 H     1 <1>   0.0800 
 56 H        5.0900    10.3860    -0.1910 H     1 <1>   0.0800 
 57 H        1.4040     9.7930    -0.7730 H     1 <1>   0.0800 
 58 H        1.6580     8.4990    -1.9270 H     1 <1>   0.0800 
 59 H        2.1030    10.1260    -2.3370 H     1 <1>   0.0800 
@<TRIPOS>BOND
  1   1   2  2   
  2   2   3  am  
  3   2   4  1   
  4   3   5  1   
  5   3   6  1   
  6   4   7  ar  
  7   4   8  ar  
  8   5   9  1   
  9   5  28  1   
 10   5  29  1   
 11   6  10  1   
 12   6  30  1   
 13   6  31  1   
 14   7  11  ar  
 15   8  12  ar  
 16   8  32  1   
 17   9  13  1   
 18   9  33  1   
 19   9  34  1   
 20  10  13  1   
 21  10  35  1   
 22  10  36  1   
 23  11  14  1   
 24  11  15  ar  
 25  12  15  ar  
 26  13  16  1   
 27  13  37  1   
 28  14  17  1   
 29  14  18  1   
 30  15  38  1   
 31  16  39  1   
 32  16  40  1   
 33  16  41  1   
 34  17  19  1   
 35  17  42  1   
 36  17  43  1   
 37  18  20  1   
 38  18  44  1   
 39  18  45  1   
 40  19  21  1   
 41  19  22  1   
 42  19  46  1   
 43  20  22  1   
 44  20  47  1   
 45  20  48  1   
 46  21  23  2   
 47  21  24  1   
 48  22  49  1   
 49  22  50  1   
 50  24  25  1   
 51  24  51  1   
 52  24  52  1   
 53  25  26  1   
 54  25  27  1   
 55  25  53  1   
 56  26  54  1   
 57  26  55  1   
 58  26  56  1   
 59  27  57  1   
 60  27  58  1   
 61  27  59  1   
@<TRIPOS>SUBSTRUCTURE
  1 ****  14 GROUP 4 **** **** 0

# MOE 2024.06 (io_trps.svl 2023.06)
