@<TRIPOS>MOLECULE
NONAME
44 45 1 0 0 
SMALL
USER_CHARGES


@<TRIPOS>ATOM
  1 S       -0.1190    -0.2680     0.3210 S.o2  1 <1>   1.3330 
  2 O       -1.2390     0.6400     0.3690 O.2   1 <1>  -0.6500 
  3 O        0.6230    -0.5930     1.5130 O.2   1 <1>  -0.6500 
  4 N       -0.6460    -1.7560    -0.2300 N.am  1 <1>  -0.9140 
  5 C        0.9990     0.2480    -0.9620 C.3   1 <1>  -0.1350 
  6 C       -1.9830    -2.0980     0.2050 C.3   1 <1>   0.2760 
  7 C       -2.0320    -3.6050     0.4660 C.3   1 <1>  -0.1600 
  8 C       -2.9890    -1.7120    -0.8830 C.3   1 <1>  -0.1600 
  9 C       -3.4470    -4.0360     0.8550 C.3   1 <1>   0.1400 
 10 C       -4.4030    -2.1580    -0.5060 C.3   1 <1>   0.1400 
 11 N       -4.4000    -3.6170    -0.2080 N.am  1 <1>  -0.6600 
 12 C       -5.2480    -4.4950    -0.8530 C.2   1 <1>   0.7150 
 13 O       -6.1360    -4.0530    -1.5590 O.2   1 <1>  -0.5700 
 14 C       -5.0940    -5.9150    -0.6960 C.2   1 <1>  -0.2370 
 15 N       -5.9780    -6.7480    -0.0460 N.pl3 1 <1>   0.0480 
 16 C       -4.0470    -6.6800    -1.1450 C.2   1 <1>  -0.1500 
 17 C       -5.4620    -8.0040    -0.0960 C.2   1 <1>  -0.3020 
 18 C       -7.2710    -6.4400     0.6370 C.3   1 <1>   0.1760 
 19 C       -4.2800    -7.9960    -0.7650 C.2   1 <1>  -0.1500 
 20 C       -8.3950    -6.2290    -0.3820 C.3   1 <1>  -0.2400 
 21 C       -7.1540    -5.2590     1.6090 C.3   1 <1>  -0.2400 
 22 H       -0.0200    -2.3980     0.2530 H     1 <1>   0.4200 
 23 H        1.4390     1.1920    -0.7070 H     1 <1>   0.0800 
 24 H        0.4710     0.3530    -1.8890 H     1 <1>   0.0800 
 25 H        1.7810    -0.4750    -1.0880 H     1 <1>   0.0800 
 26 H       -2.2240    -1.5850     1.1240 H     1 <1>   0.0800 
 27 H       -1.3620    -3.8580     1.2680 H     1 <1>   0.0800 
 28 H       -1.7370    -4.1450    -0.4160 H     1 <1>   0.0800 
 29 H       -2.7180    -2.1740    -1.8150 H     1 <1>   0.0800 
 30 H       -2.9920    -0.6470    -1.0230 H     1 <1>   0.0800 
 31 H       -3.7320    -3.5660     1.7800 H     1 <1>   0.0800 
 32 H       -3.4720    -5.1010     1.0080 H     1 <1>   0.0800 
 33 H       -5.0750    -1.9340    -1.3180 H     1 <1>   0.0800 
 34 H       -4.7410    -1.6220     0.3640 H     1 <1>   0.0800 
 35 H       -3.1910    -6.3360    -1.6980 H     1 <1>   0.1500 
 36 H       -5.9590    -8.8510     0.3420 H     1 <1>   0.1500 
 37 H       -7.5240    -7.3080     1.2210 H     1 <1>   0.0800 
 38 H       -3.6340    -8.8320    -0.9740 H     1 <1>   0.1500 
 39 H       -8.2230    -5.3470    -0.9700 H     1 <1>   0.0800 
 40 H       -9.3360    -6.1170     0.1250 H     1 <1>   0.0800 
 41 H       -8.4620    -7.0780    -1.0390 H     1 <1>   0.0800 
 42 H       -7.0560    -4.3280     1.0810 H     1 <1>   0.0800 
 43 H       -6.3090    -5.3940     2.2590 H     1 <1>   0.0800 
 44 H       -8.0410    -5.2000     2.2120 H     1 <1>   0.0800 
@<TRIPOS>BOND
  1   1   2  2   
  2   1   3  2   
  3   1   4  am  
  4   1   5  1   
  5   4   6  1   
  6   4  22  1   
  7   5  23  1   
  8   5  24  1   
  9   5  25  1   
 10   6   7  1   
 11   6   8  1   
 12   6  26  1   
 13   7   9  1   
 14   7  27  1   
 15   7  28  1   
 16   8  10  1   
 17   8  29  1   
 18   8  30  1   
 19   9  11  1   
 20   9  31  1   
 21   9  32  1   
 22  10  11  1   
 23  10  33  1   
 24  10  34  1   
 25  11  12  am  
 26  12  13  2   
 27  12  14  1   
 28  14  15  1   
 29  14  16  2   
 30  15  17  1   
 31  15  18  1   
 32  16  19  1   
 33  16  35  1   
 34  17  19  2   
 35  17  36  1   
 36  18  20  1   
 37  18  21  1   
 38  18  37  1   
 39  19  38  1   
 40  20  39  1   
 41  20  40  1   
 42  20  41  1   
 43  21  42  1   
 44  21  43  1   
 45  21  44  1   
@<TRIPOS>SUBSTRUCTURE
  1 ****  11 GROUP 4 **** **** 0

# MOE 2024.06 (io_trps.svl 2023.06)
