@<TRIPOS>MOLECULE
NONAME
51 54 1 0 0 
SMALL
USER_CHARGES


@<TRIPOS>ATOM
  1 S       -0.1700    -0.3810     0.7900 S.3   1 <1>  -0.0800 
  2 C       -1.7800    -0.9800     0.4480 C.2   1 <1>  -0.1400 
  3 C       -0.7910     0.6020     2.1090 C.2   1 <1>  -0.1100 
  4 C       -2.6870    -0.4620     1.2890 C.2   1 <1>  -0.1810 
  5 C       -2.0450    -1.9580    -0.6700 C.3   1 <1>   0.0200 
  6 C       -2.1240     0.4490     2.2400 C.2   1 <1>  -0.1500 
  7 C       -4.1630    -0.8330     1.2200 C.3   1 <1>   0.3210 
  8 C       -3.5480    -1.9180    -0.9870 C.3   1 <1>   0.1400 
  9 N       -4.3680    -1.9830     0.2710 N.am  1 <1>  -0.6600 
 10 C       -5.1540    -3.0500     0.6420 C.2   1 <1>   0.5690 
 11 O       -5.7680    -3.0200     1.6870 O.2   1 <1>  -0.5700 
 12 C       -5.2850    -4.2940    -0.2630 C.3   1 <1>   0.2610 
 13 O       -4.0340    -4.9360    -0.4170 O.3   1 <1>  -0.5600 
 14 C       -6.3890    -5.2750     0.2270 C.3   1 <1>   0.3640 
 15 C       -4.0590    -6.0020    -1.3300 C.3   1 <1>   0.1810 
 16 N       -6.1900    -6.7110    -0.2080 N.am  1 <1>  -0.6600 
 17 C       -7.7360    -4.7450    -0.2680 C.ar  1 <1>  -0.1430 
 18 C       -5.1110    -7.0520    -0.9810 C.2   1 <1>   0.5690 
 19 C       -7.0580    -7.7920     0.3580 C.3   1 <1>   0.2200 
 20 C       -8.1160    -4.8810    -1.5980 C.ar  1 <1>  -0.1500 
 21 C       -8.5930    -4.0990     0.6120 C.ar  1 <1>  -0.1500 
 22 O       -4.9500    -8.1660    -1.4220 O.2   1 <1>  -0.5700 
 23 C       -8.3370    -7.9550    -0.4610 C.3   1 <1>  -0.2400 
 24 C       -7.3730    -7.5760     1.8400 C.3   1 <1>  -0.2400 
 25 C       -9.3300    -4.3840    -2.0380 C.ar  1 <1>  -0.1500 
 26 C       -9.8070    -3.6010     0.1730 C.ar  1 <1>  -0.1500 
 27 C      -10.1770    -3.7430    -1.1520 C.ar  1 <1>  -0.1500 
 28 H       -0.0820     1.1990     2.6540 H     1 <1>   0.1500 
 29 H       -1.4810    -1.6880    -1.5440 H     1 <1>   0.0800 
 30 H       -1.7580    -2.9480    -0.3640 H     1 <1>   0.0800 
 31 H       -2.7380     0.9400     2.9740 H     1 <1>   0.1500 
 32 H       -4.7330     0.0130     0.8810 H     1 <1>   0.0800 
 33 H       -4.4980    -1.0930     2.2090 H     1 <1>   0.0800 
 34 H       -3.7920    -2.7150    -1.6640 H     1 <1>   0.0800 
 35 H       -3.7710    -0.9890    -1.4850 H     1 <1>   0.0800 
 36 H       -5.5720    -3.9380    -1.2350 H     1 <1>   0.0800 
 37 H       -6.3790    -5.2640     1.3010 H     1 <1>   0.0800 
 38 H       -4.2480    -5.6120    -2.3130 H     1 <1>   0.0800 
 39 H       -3.0870    -6.4610    -1.3200 H     1 <1>   0.0800 
 40 H       -6.5200    -8.7240     0.2910 H     1 <1>   0.0800 
 41 H       -7.4720    -5.3870    -2.2970 H     1 <1>   0.1500 
 42 H       -8.3150    -3.9730     1.6450 H     1 <1>   0.1500 
 43 H       -9.0050    -7.1270    -0.3130 H     1 <1>   0.0800 
 44 H       -8.8470    -8.8500    -0.1560 H     1 <1>   0.0800 
 45 H       -8.0960    -8.0440    -1.5050 H     1 <1>   0.0800 
 46 H       -8.0230    -6.7320     1.9820 H     1 <1>   0.0800 
 47 H       -6.4640    -7.4380     2.3970 H     1 <1>   0.0800 
 48 H       -7.8740    -8.4450     2.2280 H     1 <1>   0.0800 
 49 H       -9.6180    -4.4980    -3.0690 H     1 <1>   0.1500 
 50 H      -10.4630    -3.1010     0.8650 H     1 <1>   0.1500 
 51 H      -11.1220    -3.3570    -1.4920 H     1 <1>   0.1500 
@<TRIPOS>BOND
  1   1   2  1   
  2   1   3  1   
  3   2   4  2   
  4   2   5  1   
  5   3   6  2   
  6   3  28  1   
  7   4   6  1   
  8   4   7  1   
  9   5   8  1   
 10   5  29  1   
 11   5  30  1   
 12   6  31  1   
 13   7   9  1   
 14   7  32  1   
 15   7  33  1   
 16   8   9  1   
 17   8  34  1   
 18   8  35  1   
 19   9  10  am  
 20  10  11  2   
 21  10  12  1   
 22  12  13  1   
 23  12  14  1   
 24  12  36  1   
 25  13  15  1   
 26  14  16  1   
 27  14  17  1   
 28  14  37  1   
 29  15  18  1   
 30  15  38  1   
 31  15  39  1   
 32  16  18  am  
 33  16  19  1   
 34  17  20  ar  
 35  17  21  ar  
 36  18  22  2   
 37  19  23  1   
 38  19  24  1   
 39  19  40  1   
 40  20  25  ar  
 41  20  41  1   
 42  21  26  ar  
 43  21  42  1   
 44  23  43  1   
 45  23  44  1   
 46  23  45  1   
 47  24  46  1   
 48  24  47  1   
 49  24  48  1   
 50  25  27  ar  
 51  25  49  1   
 52  26  27  ar  
 53  26  50  1   
 54  27  51  1   
@<TRIPOS>SUBSTRUCTURE
  1 ****  12 GROUP 4 **** **** 0

# MOE 2024.06 (io_trps.svl 2023.06)
