@<TRIPOS>MOLECULE
NONAME
43 44 1 0 0 
SMALL
USER_CHARGES


@<TRIPOS>ATOM
  1 F       -0.2510     0.8350    -0.9400 F     1 <1>  -0.3400 
  2 C        0.0560     2.1010    -1.2000 C.3   1 <1>   1.1640 
  3 F        0.4730     2.1350    -2.4580 F     1 <1>  -0.3400 
  4 F       -1.0880     2.7740    -1.1690 F     1 <1>  -0.3400 
  5 C        1.1040     2.6850    -0.2380 C.ar  1 <1>  -0.1440 
  6 C        1.2450     4.0640    -0.1110 C.ar  1 <1>  -0.1500 
  7 C        1.9340     1.8600     0.5140 C.ar  1 <1>  -0.1500 
  8 C        2.1870     4.6130     0.7440 C.ar  1 <1>  -0.1440 
  9 C        2.8730     2.4020     1.3740 C.ar  1 <1>  -0.1500 
 10 C        2.9980     3.7740     1.4900 C.ar  1 <1>  -0.1500 
 11 C        2.3320     6.1210     0.8560 C.3   1 <1>  -0.0160 
 12 C        3.1440     6.6470    -0.3280 C.3   1 <1>   0.2090 
 13 N        3.4310     8.0940    -0.1470 N.pl3 1 <1>  -0.8690 
 14 C        4.5640     8.8040    -0.1430 C.ar  1 <1>   0.7710 
 15 N        4.4360    10.0930     0.0690 N.ar  1 <1>  -0.6200 
 16 N        5.7500     8.2090    -0.3480 N.ar  1 <1>  -0.1790 
 17 C        5.5290    10.8330     0.0630 C.ar  1 <1>   0.4100 
 18 C        6.8980     8.9250    -0.3240 C.ar  1 <1>   0.2110 
 19 N        5.3490    12.1670     0.2340 N.pl3 1 <1>  -0.8380 
 20 C        6.8180    10.2620    -0.1090 C.ar  1 <1>  -0.1430 
 21 C        4.3520    12.6980     1.2090 C.3   1 <1>   0.1290 
 22 C        5.8170    13.1780    -0.7550 C.3   1 <1>   0.1290 
 23 C        8.0910    11.1030    -0.0200 C.3   1 <1>  -0.0970 
 24 H        0.6080     4.7160    -0.6870 H     1 <1>   0.1500 
 25 H        1.8570     0.7870     0.4400 H     1 <1>   0.1500 
 26 H        3.5040     1.7520     1.9560 H     1 <1>   0.1500 
 27 H        3.7300     4.1760     2.1700 H     1 <1>   0.1500 
 28 H        2.8260     6.3690     1.7790 H     1 <1>   0.0800 
 29 H        1.3570     6.5760     0.8640 H     1 <1>   0.0800 
 30 H        2.5810     6.5050    -1.2370 H     1 <1>   0.0800 
 31 H        4.0550     6.0810    -0.4070 H     1 <1>   0.0800 
 32 H        2.5940     8.6750    -0.0070 H     1 <1>   0.4000 
 33 H        5.7290     7.2090    -0.5090 H     1 <1>   0.4570 
 34 H        7.8350     8.4110    -0.4670 H     1 <1>   0.1500 
 35 H        4.1130    11.9500     1.9450 H     1 <1>   0.0800 
 36 H        3.4490    12.9770     0.6930 H     1 <1>   0.0800 
 37 H        4.7540    13.5600     1.7130 H     1 <1>   0.0800 
 38 H        6.2460    12.6940    -1.6150 H     1 <1>   0.0800 
 39 H        6.5530    13.8190    -0.3030 H     1 <1>   0.0800 
 40 H        4.9870    13.7770    -1.0880 H     1 <1>   0.0800 
 41 H        8.0290    11.7780     0.8160 H     1 <1>   0.0800 
 42 H        8.2270    11.6790    -0.9180 H     1 <1>   0.0800 
 43 H        8.9610    10.4850     0.1170 H     1 <1>   0.0800 
@<TRIPOS>BOND
  1   1   2  1   
  2   2   3  1   
  3   2   4  1   
  4   2   5  1   
  5   5   6  ar  
  6   5   7  ar  
  7   6   8  ar  
  8   6  24  1   
  9   7   9  ar  
 10   7  25  1   
 11   8  10  ar  
 12   8  11  1   
 13   9  10  ar  
 14   9  26  1   
 15  10  27  1   
 16  11  12  1   
 17  11  28  1   
 18  11  29  1   
 19  12  13  1   
 20  12  30  1   
 21  12  31  1   
 22  13  14  1   
 23  13  32  1   
 24  14  15  ar  
 25  14  16  ar  
 26  15  17  ar  
 27  16  18  ar  
 28  16  33  1   
 29  17  19  1   
 30  17  20  ar  
 31  18  20  ar  
 32  18  34  1   
 33  19  21  1   
 34  19  22  1   
 35  20  23  1   
 36  21  35  1   
 37  21  36  1   
 38  21  37  1   
 39  22  38  1   
 40  22  39  1   
 41  22  40  1   
 42  23  41  1   
 43  23  42  1   
 44  23  43  1   
@<TRIPOS>SUBSTRUCTURE
  1 ****  12 GROUP 4 **** **** 0

# MOE 2024.06 (io_trps.svl 2023.06)
