@<TRIPOS>MOLECULE
NONAME
47 49 1 0 0 
SMALL
USER_CHARGES


@<TRIPOS>ATOM
  1 O       -1.5500    -1.5390    -0.7890 O.co2 1 <1>  -0.9000 
  2 C       -0.7500    -2.4750    -0.6790 C.2   1 <1>   1.0330 
  3 O       -0.6010    -3.2570    -1.6380 O.co2 1 <1>  -0.9000 
  4 C       -0.0790    -2.7640     0.5380 C.2   1 <1>  -0.2330 
  5 C       -0.6430    -3.3960     1.6450 C.2   1 <1>   0.3720 
  6 C        1.2220    -2.5970     0.8810 C.2   1 <1>   0.0870 
  7 N        0.2430    -3.6060     2.5520 N.2   1 <1>  -0.4100 
  8 N       -1.9710    -3.8090     1.8160 N.pl3 1 <1>  -0.8210 
  9 O        1.3590    -3.1120     2.0810 O.3   1 <1>  -0.0190 
 10 C        2.3580    -2.0250     0.1950 C.ar  1 <1>   0.0530 
 11 C       -2.6280    -4.5910     0.7220 C.3   1 <1>   0.2090 
 12 C       -2.8170    -2.6540     2.2220 C.3   1 <1>   0.1290 
 13 C        2.2080    -1.1660    -0.8960 C.ar  1 <1>  -0.1500 
 14 C        3.6620    -2.3140     0.6020 C.ar  1 <1>  -0.1500 
 15 C       -2.1200    -6.0510     0.5980 C.3   1 <1>   0.0000 
 16 C        3.3010    -0.6340    -1.5530 C.ar  1 <1>  -0.1500 
 17 C        4.7600    -1.7840    -0.0500 C.ar  1 <1>  -0.1500 
 18 C       -0.6350    -6.1230     0.2340 C.3   1 <1>   0.3430 
 19 C       -2.7640    -6.7140    -0.6270 C.3   1 <1>  -0.1600 
 20 C       -2.4230    -6.8430     1.8840 C.3   1 <1>  -0.2400 
 21 C        4.5820    -0.9430    -1.1330 C.ar  1 <1>  -0.1500 
 22 N       -0.5840    -5.9250    -1.2370 N.4   1 <1>  -0.9590 
 23 C       -1.8780    -6.3420    -1.8170 C.3   1 <1>   0.3430 
 24 C        0.6290    -6.4600    -1.8990 C.3   1 <1>   0.2630 
 25 H       -2.5360    -4.0780    -0.2160 H     1 <1>   0.0800 
 26 H       -3.6830    -4.6330     0.9320 H     1 <1>   0.0800 
 27 H       -2.3080    -2.0740     2.9740 H     1 <1>   0.0800 
 28 H       -3.7480    -3.0030     2.6320 H     1 <1>   0.0800 
 29 H       -3.0130    -2.0200     1.3720 H     1 <1>   0.0800 
 30 H        1.2230    -0.9020    -1.2400 H     1 <1>   0.1500 
 31 H        3.8190    -2.9660     1.4430 H     1 <1>   0.1500 
 32 H        3.1520     0.0220    -2.3930 H     1 <1>   0.1500 
 33 H        5.7540    -2.0250     0.2850 H     1 <1>   0.1500 
 34 H       -0.2670    -7.1060     0.4730 H     1 <1>   0.0800 
 35 H       -0.0370    -5.4000     0.7570 H     1 <1>   0.0800 
 36 H       -3.7810    -6.4030    -0.7840 H     1 <1>   0.0800 
 37 H       -2.7520    -7.7850    -0.5250 H     1 <1>   0.0800 
 38 H       -1.9230    -6.3900     2.7230 H     1 <1>   0.0800 
 39 H       -2.0900    -7.8630     1.8030 H     1 <1>   0.0800 
 40 H       -3.4800    -6.8420     2.0850 H     1 <1>   0.0800 
 41 H        5.4330    -0.5290    -1.6440 H     1 <1>   0.1500 
 42 H       -0.5530    -4.8800    -1.3880 H     1 <1>   0.4500 
 43 H       -2.3050    -5.5110    -2.3580 H     1 <1>   0.0800 
 44 H       -1.7580    -7.1800    -2.4830 H     1 <1>   0.0800 
 45 H        0.6680    -7.5320    -1.8020 H     1 <1>   0.0800 
 46 H        1.5100    -6.0310    -1.4490 H     1 <1>   0.0800 
 47 H        0.6200    -6.1980    -2.9450 H     1 <1>   0.0800 
@<TRIPOS>BOND
  1   1   2  ar  
  2   2   3  ar  
  3   2   4  1   
  4   4   5  1   
  5   4   6  2   
  6   5   7  2   
  7   5   8  1   
  8   6   9  1   
  9   6  10  1   
 10   7   9  1   
 11   8  11  1   
 12   8  12  1   
 13  10  13  ar  
 14  10  14  ar  
 15  11  15  1   
 16  11  25  1   
 17  11  26  1   
 18  12  27  1   
 19  12  28  1   
 20  12  29  1   
 21  13  16  ar  
 22  13  30  1   
 23  14  17  ar  
 24  14  31  1   
 25  15  18  1   
 26  15  19  1   
 27  15  20  1   
 28  16  21  ar  
 29  16  32  1   
 30  17  21  ar  
 31  17  33  1   
 32  18  22  1   
 33  18  34  1   
 34  18  35  1   
 35  19  23  1   
 36  19  36  1   
 37  19  37  1   
 38  20  38  1   
 39  20  39  1   
 40  20  40  1   
 41  21  41  1   
 42  22  23  1   
 43  22  24  1   
 44  22  42  1   
 45  23  43  1   
 46  23  44  1   
 47  24  45  1   
 48  24  46  1   
 49  24  47  1   
@<TRIPOS>SUBSTRUCTURE
  1 ****   4 GROUP 4 **** **** 0

# MOE 2024.06 (io_trps.svl 2023.06)
