@<TRIPOS>MOLECULE
NONAME
42 44 1 0 0 
SMALL
USER_CHARGES


@<TRIPOS>ATOM
  1 F       -1.5760    -0.1280    -0.9570 F     1 <1>  -0.1900 
  2 C       -2.0110     1.0600    -0.6430 C.ar  1 <1>   0.1900 
  3 C       -2.8650     1.1950     0.4330 C.ar  1 <1>  -0.1500 
  4 C       -1.5940     2.1360    -1.4000 C.ar  1 <1>  -0.1500 
  5 C       -3.3300     2.4600     0.7770 C.ar  1 <1>  -0.1440 
  6 C       -2.0470     3.4030    -1.0650 C.ar  1 <1>  -0.1440 
  7 C       -2.9140     3.5520     0.0130 C.ar  1 <1>  -0.1500 
  8 C       -4.2880     2.6590     1.9650 C.3   1 <1>   1.1640 
  9 C       -1.5970     4.6120    -1.8660 C.3   1 <1>   0.4870 
 10 F       -4.2520     1.6620     2.8390 F     1 <1>  -0.3400 
 11 F       -4.0070     3.7640     2.6450 F     1 <1>  -0.3400 
 12 F       -5.5470     2.7720     1.5680 F     1 <1>  -0.3400 
 13 N       -0.6020     5.3640    -1.0600 N.4   1 <1>  -0.9590 
 14 C       -0.2440     6.7110    -1.6200 C.3   1 <1>   0.3430 
 15 C        0.6470     4.5830    -0.7400 C.3   1 <1>   0.3430 
 16 C        0.5730     7.5310    -0.5860 C.3   1 <1>   0.3430 
 17 C        1.7990     5.5020    -0.2650 C.3   1 <1>   0.1200 
 18 O        1.2910     6.6850     0.2880 O.3   1 <1>  -0.5600 
 19 C       -0.4060     8.3730     0.2260 C.ar  1 <1>  -0.1430 
 20 C       -0.8520     9.5800    -0.2960 C.ar  1 <1>  -0.1500 
 21 C       -0.8860     7.9580     1.4640 C.ar  1 <1>  -0.1500 
 22 C       -1.7730    10.3480     0.3950 C.ar  1 <1>  -0.1500 
 23 C       -1.8070     8.7260     2.1550 C.ar  1 <1>  -0.1500 
 24 C       -2.2530     9.9200     1.6190 C.ar  1 <1>  -0.1500 
 25 H       -3.1550     0.3140     0.9830 H     1 <1>   0.1500 
 26 H       -0.9320     1.9610    -2.2310 H     1 <1>   0.1500 
 27 H       -3.2820     4.5340     0.2700 H     1 <1>   0.1500 
 28 H       -2.4510     5.2360    -2.0770 H     1 <1>   0.0800 
 29 H       -1.1630     4.2980    -2.8010 H     1 <1>   0.0800 
 30 H       -1.0340     5.5640    -0.1450 H     1 <1>   0.4500 
 31 H       -1.1330     7.2640    -1.8750 H     1 <1>   0.0800 
 32 H        0.3410     6.5930    -2.5160 H     1 <1>   0.0800 
 33 H        0.9790     4.0340    -1.6060 H     1 <1>   0.0800 
 34 H        0.4300     3.8630     0.0330 H     1 <1>   0.0800 
 35 H        1.2770     8.1740    -1.0860 H     1 <1>   0.0800 
 36 H        2.4510     5.7580    -1.0820 H     1 <1>   0.0800 
 37 H        2.3840     5.0040     0.4890 H     1 <1>   0.0800 
 38 H       -0.4900     9.9420    -1.2430 H     1 <1>   0.1500 
 39 H       -0.5440     7.0410     1.9120 H     1 <1>   0.1500 
 40 H       -2.1150    11.2830    -0.0150 H     1 <1>   0.1500 
 41 H       -2.1720     8.4010     3.1140 H     1 <1>   0.1500 
 42 H       -2.9680    10.5190     2.1580 H     1 <1>   0.1500 
@<TRIPOS>BOND
  1   1   2  1   
  2   2   3  ar  
  3   2   4  ar  
  4   3   5  ar  
  5   3  25  1   
  6   4   6  ar  
  7   4  26  1   
  8   5   7  ar  
  9   5   8  1   
 10   6   7  ar  
 11   6   9  1   
 12   7  27  1   
 13   8  10  1   
 14   8  11  1   
 15   8  12  1   
 16   9  13  1   
 17   9  28  1   
 18   9  29  1   
 19  13  14  1   
 20  13  15  1   
 21  13  30  1   
 22  14  16  1   
 23  14  31  1   
 24  14  32  1   
 25  15  17  1   
 26  15  33  1   
 27  15  34  1   
 28  16  18  1   
 29  16  19  1   
 30  16  35  1   
 31  17  18  1   
 32  17  36  1   
 33  17  37  1   
 34  19  20  ar  
 35  19  21  ar  
 36  20  22  ar  
 37  20  38  1   
 38  21  23  ar  
 39  21  39  1   
 40  22  24  ar  
 41  22  40  1   
 42  23  24  ar  
 43  23  41  1   
 44  24  42  1   
@<TRIPOS>SUBSTRUCTURE
  1 ****  13 GROUP 4 **** **** 0

# MOE 2024.06 (io_trps.svl 2023.06)
