@<TRIPOS>MOLECULE
NONAME
55 59 1 0 0 
SMALL
USER_CHARGES


@<TRIPOS>ATOM
  1 O       -1.2220    -1.0260    -1.8880 O.2   1 <1>  -0.5700 
  2 C       -0.5620    -1.7660    -1.1760 C.2   1 <1>   0.5440 
  3 N       -0.1210    -1.2520     0.0310 N.am  1 <1>  -0.6600 
  4 C       -0.2620    -3.1170    -1.6580 C.ar  1 <1>   0.3960 
  5 C       -0.3710     0.1480     0.4420 C.3   1 <1>   0.1400 
  6 C        0.7800    -1.9280     0.9930 C.3   1 <1>   0.1400 
  7 N       -0.1290    -4.1530    -0.8090 N.ar  1 <1>  -0.6200 
  8 C       -0.1320    -3.2920    -3.0400 C.ar  1 <1>   0.1600 
  9 C        0.6970     0.4390     1.4890 C.3   1 <1>  -0.1600 
 10 C        0.9980    -0.9190     2.1150 C.3   1 <1>  -0.1600 
 11 C        0.1320    -5.2940    -1.4060 C.ar  1 <1>   0.4100 
 12 N        0.1420    -4.4360    -3.6550 N.ar  1 <1>  -0.6200 
 13 N        0.2360    -6.3490    -0.5410 N.pl3 1 <1>  -0.8690 
 14 C        0.2770    -5.4230    -2.7960 C.ar  1 <1>   0.1600 
 15 C       -0.6520    -7.5230    -0.7050 C.3   1 <1>   0.2890 
 16 C       -1.8410    -7.4530     0.2350 C.3   1 <1>  -0.0800 
 17 C        0.0170    -8.8330    -0.3020 C.3   1 <1>   0.1200 
 18 C       -2.1810    -8.9330     0.3960 C.3   1 <1>   0.1200 
 19 C       -2.9950    -6.5930    -0.3150 C.3   1 <1>  -0.0170 
 20 O       -0.9710    -9.6200     0.2990 O.3   1 <1>  -0.5600 
 21 C       -4.2660    -6.5370     0.5420 C.ar  1 <1>  -0.1440 
 22 C       -5.4810    -6.0710    -0.0200 C.ar  1 <1>   0.0000 
 23 C       -4.2960    -6.9070     1.8580 C.ar  1 <1>  -0.1500 
 24 C       -6.6380    -6.0800     0.7980 C.ar  1 <1>   0.3100 
 25 C       -5.6180    -5.5860    -1.3430 C.ar  1 <1>  -0.1500 
 26 C       -5.4920    -6.8620     2.5830 C.ar  1 <1>   0.1600 
 27 N       -6.6270    -6.4790     2.0940 N.ar  1 <1>  -0.6200 
 28 C       -7.8610    -5.6480     0.2590 C.ar  1 <1>  -0.1500 
 29 C       -6.8230    -5.1660    -1.8370 C.ar  1 <1>  -0.1500 
 30 C       -7.9620    -5.2010    -1.0300 C.ar  1 <1>  -0.1500 
 31 H       -0.2990     0.8210    -0.3960 H     1 <1>   0.0800 
 32 H       -1.3550     0.2140     0.8740 H     1 <1>   0.0800 
 33 H        0.3300    -2.8290     1.3730 H     1 <1>   0.0800 
 34 H        1.7110    -2.1620     0.5050 H     1 <1>   0.0800 
 35 H       -0.2610    -2.4290    -3.6710 H     1 <1>   0.1500 
 36 H        1.5750     0.8170     0.9940 H     1 <1>   0.0800 
 37 H        0.3620     1.1620     2.2110 H     1 <1>   0.0800 
 38 H        0.2930    -1.1190     2.9040 H     1 <1>   0.0800 
 39 H        1.9950    -0.9750     2.5150 H     1 <1>   0.0800 
 40 H        0.2410    -6.0120     0.4260 H     1 <1>   0.4000 
 41 H        0.5170    -6.3940    -3.1860 H     1 <1>   0.1500 
 42 H       -0.9850    -7.6100    -1.7260 H     1 <1>   0.0800 
 43 H       -1.5160    -7.0740     1.1880 H     1 <1>   0.0800 
 44 H        0.7900    -8.6670     0.4270 H     1 <1>   0.0800 
 45 H        0.4110    -9.3590    -1.1530 H     1 <1>   0.0800 
 46 H       -2.8170    -9.2770    -0.4020 H     1 <1>   0.0800 
 47 H       -2.6350    -9.1590     1.3440 H     1 <1>   0.0800 
 48 H       -3.2530    -6.9860    -1.2830 H     1 <1>   0.0800 
 49 H       -2.6450    -5.5850    -0.4560 H     1 <1>   0.0800 
 50 H       -3.4250    -7.2410     2.3870 H     1 <1>   0.1500 
 51 H       -4.7580    -5.5340    -1.9830 H     1 <1>   0.1500 
 52 H       -5.4670    -7.1700     3.6140 H     1 <1>   0.1500 
 53 H       -8.7210    -5.6790     0.9010 H     1 <1>   0.1500 
 54 H       -6.9100    -4.8020    -2.8470 H     1 <1>   0.1500 
 55 H       -8.9060    -4.8720    -1.4300 H     1 <1>   0.1500 
@<TRIPOS>BOND
  1   1   2  2   
  2   2   3  am  
  3   2   4  1   
  4   3   5  1   
  5   3   6  1   
  6   4   7  ar  
  7   4   8  ar  
  8   5   9  1   
  9   5  31  1   
 10   5  32  1   
 11   6  10  1   
 12   6  33  1   
 13   6  34  1   
 14   7  11  ar  
 15   8  12  ar  
 16   8  35  1   
 17   9  10  1   
 18   9  36  1   
 19   9  37  1   
 20  10  38  1   
 21  10  39  1   
 22  11  13  1   
 23  11  14  ar  
 24  12  14  ar  
 25  13  15  1   
 26  13  40  1   
 27  14  41  1   
 28  15  16  1   
 29  15  17  1   
 30  15  42  1   
 31  16  18  1   
 32  16  19  1   
 33  16  43  1   
 34  17  20  1   
 35  17  44  1   
 36  17  45  1   
 37  18  20  1   
 38  18  46  1   
 39  18  47  1   
 40  19  21  1   
 41  19  48  1   
 42  19  49  1   
 43  21  22  ar  
 44  21  23  ar  
 45  22  24  ar  
 46  22  25  ar  
 47  23  26  ar  
 48  23  50  1   
 49  24  27  ar  
 50  24  28  ar  
 51  25  29  ar  
 52  25  51  1   
 53  26  27  ar  
 54  26  52  1   
 55  28  30  ar  
 56  28  53  1   
 57  29  30  ar  
 58  29  54  1   
 59  30  55  1   
@<TRIPOS>SUBSTRUCTURE
  1 ****  19 GROUP 4 **** **** 0

# MOE 2024.06 (io_trps.svl 2023.06)
