@<TRIPOS>MOLECULE
NONAME
46 49 1 0 0 
SMALL
USER_CHARGES


@<TRIPOS>ATOM
  1 O        0.0990    -0.3610    -0.0140 O.3   1 <1>  -0.5600 
  2 C        0.3960    -1.7330     0.0120 C.3   1 <1>   0.1200 
  3 C        1.0630     0.4500    -0.6280 C.3   1 <1>   0.1200 
  4 C        1.7440    -1.9910     0.7210 C.3   1 <1>   0.5180 
  5 C        2.4420     0.2770     0.0500 C.3   1 <1>   0.4230 
  6 N        2.8390    -1.1790     0.1160 N.4   1 <1>  -0.9590 
  7 C        2.1270    -3.4760     0.7150 C.3   1 <1>  -0.1950 
  8 C        3.5330     1.1310    -0.6450 C.3   1 <1>   0.1100 
  9 C        3.3740    -1.6640    -1.2040 C.3   1 <1>   0.3430 
 10 C        1.7710    -4.3490     1.8780 C.3   1 <1>  -0.2000 
 11 C        3.2080    -4.0100     1.6060 C.3   1 <1>  -0.2000 
 12 N        4.7950     0.3670    -0.8120 N.3   1 <1>  -0.8100 
 13 C        4.5880    -0.8180    -1.6690 C.3   1 <1>   0.1100 
 14 C        5.9530     1.1920    -1.2040 C.3   1 <1>   0.2530 
 15 C        6.1710     2.3440    -0.2290 C.ar  1 <1>  -0.1440 
 16 C        6.3970     2.1360     1.1380 C.ar  1 <1>   0.4100 
 17 C        6.1360     3.6390    -0.7020 C.ar  1 <1>  -0.1500 
 18 N        6.5730     3.1010     2.0180 N.ar  1 <1>  -0.6200 
 19 N        6.4710     0.9030     1.7040 N.pl3 1 <1>  -0.9000 
 20 C        6.3240     4.6540     0.2140 C.ar  1 <1>  -0.1500 
 21 C        6.5340     4.3330     1.5410 C.ar  1 <1>   0.1600 
 22 H       -0.3980    -2.2280     0.5450 H     1 <1>   0.0800 
 23 H        0.4100    -2.1030    -0.9980 H     1 <1>   0.0800 
 24 H        1.1070     0.1980    -1.6730 H     1 <1>   0.0800 
 25 H        0.7330     1.4700    -0.5370 H     1 <1>   0.0800 
 26 H        1.6270    -1.6880     1.7490 H     1 <1>   0.0800 
 27 H        2.3450     0.6490     1.0570 H     1 <1>   0.0800 
 28 H        3.6540    -1.1850     0.7440 H     1 <1>   0.4500 
 29 H        2.0000    -3.9340    -0.2510 H     1 <1>   0.1000 
 30 H        3.6970     2.0020    -0.0340 H     1 <1>   0.0800 
 31 H        3.1920     1.4740    -1.6060 H     1 <1>   0.0800 
 32 H        3.6840    -2.6930    -1.1240 H     1 <1>   0.0800 
 33 H        2.6010    -1.6120    -1.9520 H     1 <1>   0.0800 
 34 H        1.3100    -3.9270     2.7560 H     1 <1>   0.1000 
 35 H        1.4440    -5.3600     1.6970 H     1 <1>   0.1000 
 36 H        3.8520    -4.7950     1.2440 H     1 <1>   0.1000 
 37 H        3.7090    -3.3640     2.3070 H     1 <1>   0.1000 
 38 H        4.4390    -0.5140    -2.6920 H     1 <1>   0.0800 
 39 H        5.4710    -1.4340    -1.6390 H     1 <1>   0.0800 
 40 H        6.8390     0.5810    -1.2170 H     1 <1>   0.0800 
 41 H        5.8010     1.5760    -2.1980 H     1 <1>   0.0800 
 42 H        5.9710     3.8680    -1.7410 H     1 <1>   0.1500 
 43 H        6.8780     0.9550     2.6400 H     1 <1>   0.4000 
 44 H        6.8790     0.1730     1.1250 H     1 <1>   0.4000 
 45 H        6.3090     5.6830    -0.0970 H     1 <1>   0.1500 
 46 H        6.6800     5.1310     2.2490 H     1 <1>   0.1500 
@<TRIPOS>BOND
  1   1   2  1   
  2   1   3  1   
  3   2   4  1   
  4   2  22  1   
  5   2  23  1   
  6   3   5  1   
  7   3  24  1   
  8   3  25  1   
  9   4   6  1   
 10   4   7  1   
 11   4  26  1   
 12   5   6  1   
 13   5   8  1   
 14   5  27  1   
 15   6   9  1   
 16   6  28  1   
 17   7  10  1   
 18   7  11  1   
 19   7  29  1   
 20   8  12  1   
 21   8  30  1   
 22   8  31  1   
 23   9  13  1   
 24   9  32  1   
 25   9  33  1   
 26  10  11  1   
 27  10  34  1   
 28  10  35  1   
 29  11  36  1   
 30  11  37  1   
 31  12  13  1   
 32  12  14  1   
 33  13  38  1   
 34  13  39  1   
 35  14  15  1   
 36  14  40  1   
 37  14  41  1   
 38  15  16  ar  
 39  15  17  ar  
 40  16  18  ar  
 41  16  19  1   
 42  17  20  ar  
 43  17  42  1   
 44  18  21  ar  
 45  19  43  1   
 46  19  44  1   
 47  20  21  ar  
 48  20  45  1   
 49  21  46  1   
@<TRIPOS>SUBSTRUCTURE
  1 ****   8 GROUP 4 **** **** 0

# MOE 2024.06 (io_trps.svl 2023.06)
