@<TRIPOS>MOLECULE
NONAME
43 45 1 0 0 
SMALL
USER_CHARGES


@<TRIPOS>ATOM
  1 O        0.1260    -0.5370     0.9050 O.3   1 <1>  -0.2800 
  2 C       -0.1720    -1.6410     0.2270 C.2   1 <1>   0.5620 
  3 C        1.3160    -0.1720     0.4720 C.ar  1 <1>   0.1400 
  4 N        0.7330    -2.0210    -0.6100 N.2   1 <1>  -0.5650 
  5 N       -1.3750    -2.2730     0.4620 N.pl3 1 <1>  -0.8220 
  6 C        1.7040    -1.0880    -0.4710 C.ar  1 <1>   0.2270 
  7 C        2.1070     0.9080     0.8340 C.ar  1 <1>  -0.1500 
  8 C       -1.7410    -3.5170    -0.2860 C.3   1 <1>   0.2090 
  9 C       -2.3460    -1.7770     1.4720 C.3   1 <1>   0.2090 
 10 C        2.9360    -0.9460    -1.1020 C.ar  1 <1>  -0.1500 
 11 C        3.3320     1.0480     0.2070 C.ar  1 <1>  -0.1500 
 12 C       -3.1710    -3.4230    -0.8520 C.3   1 <1>   0.2000 
 13 C       -3.7380    -1.6700     0.8400 C.3   1 <1>  -0.1600 
 14 C        3.7430     0.1240    -0.7580 C.ar  1 <1>  -0.1500 
 15 O       -3.5150    -4.6390    -1.4440 O.3   1 <1>  -0.6800 
 16 C       -4.2300    -3.0000     0.2080 C.3   1 <1>   0.0000 
 17 C       -4.3480    -4.1050     1.2960 C.3   1 <1>   0.1200 
 18 C       -5.6340    -2.7990    -0.4360 C.3   1 <1>  -0.1600 
 19 O       -5.2190    -3.7380     2.3130 O.3   1 <1>  -0.6800 
 20 C       -5.7190    -1.8270    -1.6280 C.3   1 <1>  -0.1600 
 21 C       -7.1620    -1.7040    -2.1240 C.3   1 <1>  -0.2400 
 22 H        1.7630     1.6030     1.5790 H     1 <1>   0.1500 
 23 H       -1.0630    -3.6710    -1.1070 H     1 <1>   0.0800 
 24 H       -1.6550    -4.3550     0.3800 H     1 <1>   0.0800 
 25 H       -2.3560    -2.4500     2.3120 H     1 <1>   0.0800 
 26 H       -2.0530    -0.8070     1.8370 H     1 <1>   0.0800 
 27 H        3.2320    -1.6690    -1.8400 H     1 <1>   0.1500 
 28 H        3.9760     1.8730     0.4590 H     1 <1>   0.1500 
 29 H       -3.1410    -2.6950    -1.6430 H     1 <1>   0.0800 
 30 H       -4.4360    -1.3220     1.5780 H     1 <1>   0.0800 
 31 H       -3.6770    -0.9060     0.0860 H     1 <1>   0.0800 
 32 H        4.7000     0.2490    -1.2350 H     1 <1>   0.1500 
 33 H       -3.6110    -5.3420    -0.7750 H     1 <1>   0.4000 
 34 H       -3.3980    -4.3240     1.7500 H     1 <1>   0.0800 
 35 H       -4.7350    -5.0140     0.8690 H     1 <1>   0.0800 
 36 H       -5.9970    -3.7570    -0.7680 H     1 <1>   0.0800 
 37 H       -6.3180    -2.4580     0.3220 H     1 <1>   0.0800 
 38 H       -4.9620    -2.8790     2.6990 H     1 <1>   0.4000 
 39 H       -5.3710    -0.8490    -1.3490 H     1 <1>   0.0800 
 40 H       -5.1120    -2.1830    -2.4420 H     1 <1>   0.0800 
 41 H       -7.7990    -1.3260    -1.3440 H     1 <1>   0.0800 
 42 H       -7.5330    -2.6630    -2.4410 H     1 <1>   0.0800 
 43 H       -7.2080    -1.0280    -2.9600 H     1 <1>   0.0800 
@<TRIPOS>BOND
  1   1   2  1   
  2   1   3  1   
  3   2   4  2   
  4   2   5  1   
  5   3   6  ar  
  6   3   7  ar  
  7   4   6  1   
  8   5   8  1   
  9   5   9  1   
 10   6  10  ar  
 11   7  11  ar  
 12   7  22  1   
 13   8  12  1   
 14   8  23  1   
 15   8  24  1   
 16   9  13  1   
 17   9  25  1   
 18   9  26  1   
 19  10  14  ar  
 20  10  27  1   
 21  11  14  ar  
 22  11  28  1   
 23  12  15  1   
 24  12  16  1   
 25  12  29  1   
 26  13  16  1   
 27  13  30  1   
 28  13  31  1   
 29  14  32  1   
 30  15  33  1   
 31  16  17  1   
 32  16  18  1   
 33  17  19  1   
 34  17  34  1   
 35  17  35  1   
 36  18  20  1   
 37  18  36  1   
 38  18  37  1   
 39  19  38  1   
 40  20  21  1   
 41  20  39  1   
 42  20  40  1   
 43  21  41  1   
 44  21  42  1   
 45  21  43  1   
@<TRIPOS>SUBSTRUCTURE
  1 ****   5 GROUP 4 **** **** 0

# MOE 2024.06 (io_trps.svl 2023.06)
