@<TRIPOS>MOLECULE
NONAME
58 60 1 0 0 
SMALL
USER_CHARGES


@<TRIPOS>ATOM
  1 O        0.0490     3.3210     2.6670 O.2   1 <1>  -0.5700 
  2 C        0.5720     3.5470     1.5990 C.2   1 <1>   0.5690 
  3 N       -0.1620     3.6220     0.4390 N.am  1 <1>  -0.6600 
  4 C        2.0850     3.7280     1.5990 C.3   1 <1>   0.0440 
  5 C       -1.5950     3.2070     0.4060 C.3   1 <1>   0.1400 
  6 C        0.3820     3.9030    -0.9180 C.3   1 <1>   0.1400 
  7 C        2.8020     2.6140     0.8430 C.ar  1 <1>  -0.1440 
  8 C       -1.7530     1.8990    -0.3930 C.3   1 <1>   0.0000 
  9 C        0.2850     2.6420    -1.7820 C.3   1 <1>  -0.1600 
 10 C        3.7020     2.9060    -0.1700 C.ar  1 <1>  -0.1500 
 11 C        2.5450     1.2890     1.1550 C.ar  1 <1>  -0.1500 
 12 C       -3.2310     1.4680    -0.4200 C.3   1 <1>   0.2000 
 13 C       -1.1500     2.0820    -1.8140 C.3   1 <1>  -0.1600 
 14 C       -1.1050     0.6970     0.3210 C.3   1 <1>  -0.1600 
 15 C        4.3230     1.8970    -0.8900 C.ar  1 <1>   0.0830 
 16 C        3.1560     0.2660     0.4500 C.ar  1 <1>   0.0830 
 17 O       -3.9600     2.1650    -1.3870 O.3   1 <1>  -0.5600 
 18 C       -3.2140    -0.0360    -0.6980 C.3   1 <1>  -0.1600 
 19 C       -1.8670    -0.5420    -0.1630 C.3   1 <1>  -0.1600 
 20 O        5.1800     2.3120    -1.8630 O.3   1 <1>  -0.3620 
 21 C        4.0280     0.5590    -0.6020 C.ar  1 <1>   0.0830 
 22 O        2.8510    -1.0050     0.8120 O.3   1 <1>  -0.3630 
 23 C       -5.3430     2.0490    -1.2780 C.3   1 <1>   0.0400 
 24 C        6.3950     1.6220    -2.0640 C.3   1 <1>   0.0400 
 25 O        4.5530    -0.4500    -1.3500 O.3   1 <1>  -0.3630 
 26 C        3.8950    -1.7590     1.3880 C.3   1 <1>   0.0400 
 27 C        3.6640    -1.0240    -2.2820 C.3   1 <1>   0.0400 
 28 H        2.3180     4.6890     1.1810 H     1 <1>   0.0800 
 29 H        2.4310     3.7300     2.6170 H     1 <1>   0.0800 
 30 H       -1.9740     3.0760     1.4050 H     1 <1>   0.0800 
 31 H       -2.1740     3.9840    -0.0630 H     1 <1>   0.0800 
 32 H       -0.2000     4.6900    -1.3670 H     1 <1>   0.0800 
 33 H        1.4010     4.2380    -0.8720 H     1 <1>   0.0800 
 34 H        0.5990     2.8770    -2.7830 H     1 <1>   0.0800 
 35 H        0.9680     1.9030    -1.4020 H     1 <1>   0.0800 
 36 H        3.9320     3.9250    -0.4210 H     1 <1>   0.1500 
 37 H        1.8590     1.0370     1.9460 H     1 <1>   0.1500 
 38 H       -3.6690     1.6530     0.5480 H     1 <1>   0.0800 
 39 H       -1.1620     1.1520    -2.3540 H     1 <1>   0.0800 
 40 H       -1.7580     2.7780    -2.3660 H     1 <1>   0.0800 
 41 H       -0.0510     0.6100     0.1330 H     1 <1>   0.0800 
 42 H       -1.2430     0.7970     1.3840 H     1 <1>   0.0800 
 43 H       -4.0340    -0.5270    -0.2050 H     1 <1>   0.0800 
 44 H       -3.2680    -0.2130    -1.7590 H     1 <1>   0.0800 
 45 H       -2.0000    -1.2430     0.6430 H     1 <1>   0.0800 
 46 H       -1.3200    -1.0240    -0.9550 H     1 <1>   0.0800 
 47 H       -5.7890     2.6460    -2.0540 H     1 <1>   0.0800 
 48 H       -5.6560     2.4140    -0.3150 H     1 <1>   0.0800 
 49 H       -5.6290     1.0200    -1.4060 H     1 <1>   0.0800 
 50 H        7.0870     2.2930    -2.5390 H     1 <1>   0.0800 
 51 H        6.2140     0.7760    -2.7020 H     1 <1>   0.0800 
 52 H        6.7830     1.3030    -1.1120 H     1 <1>   0.0800 
 53 H        3.4860    -2.6930     1.7280 H     1 <1>   0.0800 
 54 H        4.3020    -1.2090     2.2180 H     1 <1>   0.0800 
 55 H        4.6540    -1.9390     0.6490 H     1 <1>   0.0800 
 56 H        4.1950    -1.7760    -2.8360 H     1 <1>   0.0800 
 57 H        3.3130    -0.2530    -2.9450 H     1 <1>   0.0800 
 58 H        2.8380    -1.4670    -1.7540 H     1 <1>   0.0800 
@<TRIPOS>BOND
  1   1   2  2   
  2   2   3  am  
  3   2   4  1   
  4   3   5  1   
  5   3   6  1   
  6   4   7  1   
  7   4  28  1   
  8   4  29  1   
  9   5   8  1   
 10   5  30  1   
 11   5  31  1   
 12   6   9  1   
 13   6  32  1   
 14   6  33  1   
 15   7  10  ar  
 16   7  11  ar  
 17   8  12  1   
 18   8  13  1   
 19   8  14  1   
 20   9  13  1   
 21   9  34  1   
 22   9  35  1   
 23  10  15  ar  
 24  10  36  1   
 25  11  16  ar  
 26  11  37  1   
 27  12  17  1   
 28  12  18  1   
 29  12  38  1   
 30  13  39  1   
 31  13  40  1   
 32  14  19  1   
 33  14  41  1   
 34  14  42  1   
 35  15  20  1   
 36  15  21  ar  
 37  16  21  ar  
 38  16  22  1   
 39  17  23  1   
 40  18  19  1   
 41  18  43  1   
 42  18  44  1   
 43  19  45  1   
 44  19  46  1   
 45  20  24  1   
 46  21  25  1   
 47  22  26  1   
 48  23  47  1   
 49  23  48  1   
 50  23  49  1   
 51  24  50  1   
 52  24  51  1   
 53  24  52  1   
 54  25  27  1   
 55  26  53  1   
 56  26  54  1   
 57  26  55  1   
 58  27  56  1   
 59  27  57  1   
 60  27  58  1   
@<TRIPOS>SUBSTRUCTURE
  1 ****   9 GROUP 4 **** **** 0

# MOE 2024.06 (io_trps.svl 2023.06)
