@<TRIPOS>MOLECULE
NONAME
49 53 1 0 0 
SMALL
USER_CHARGES


@<TRIPOS>ATOM
  1 O       -0.2070     0.0400    -0.3700 O.2   1 <1>  -0.5700 
  2 C       -0.5650     1.0780     0.1540 C.2   1 <1>   0.6900 
  3 N       -1.8960     1.3120     0.3950 N.am  1 <1>  -0.6600 
  4 N        0.3450     2.0220     0.5330 N.am  1 <1>  -0.5470 
  5 C       -2.4750     2.6760     0.6040 C.3   1 <1>   0.1400 
  6 C       -2.9020     0.2240     0.1770 C.3   1 <1>   0.1400 
  7 C        1.7030     2.1860     0.2220 C.ar  1 <1>   0.1170 
  8 C       -3.3210     3.1070    -0.6150 C.3   1 <1>   0.1430 
  9 C       -4.2990     0.7800    -0.1530 C.3   1 <1>  -0.1600 
 10 C        2.4840     2.9700     1.0680 C.ar  1 <1>  -0.1500 
 11 C        2.2900     1.6140    -0.9130 C.ar  1 <1>  -0.1500 
 12 C       -4.1310     4.3190    -0.1870 C.ar  1 <1>   0.1670 
 13 C       -4.2070     1.9470    -1.1490 C.3   1 <1>  -0.1600 
 14 C       -2.4280     3.6960    -1.7400 C.3   1 <1>  -0.1600 
 15 C        3.8140     3.1560     0.7550 C.ar  1 <1>   0.0820 
 16 C        3.6320     1.8090    -1.2120 C.ar  1 <1>  -0.1500 
 17 N       -5.1870     4.2930     0.5970 N.ar  1 <1>  -0.6200 
 18 C       -3.6160     5.4740    -0.6960 C.ar  1 <1>  -0.1430 
 19 C       -2.3920     5.2210    -1.5390 C.3   1 <1>  -0.0170 
 20 O        4.7300     3.8660     1.4230 O.3   1 <1>  -0.3620 
 21 C        4.3750     2.5920    -0.3530 C.ar  1 <1>   0.0820 
 22 C       -5.7210     5.4830     0.8360 C.ar  1 <1>   0.4770 
 23 C       -4.2480     6.6510    -0.3800 C.ar  1 <1>   0.1600 
 24 C        5.9520     3.7400     0.6990 C.3   1 <1>   0.4000 
 25 O        5.6710     2.9210    -0.4340 O.3   1 <1>  -0.3630 
 26 N       -5.3130     6.6650     0.3940 N.ar  1 <1>  -0.6200 
 27 C       -6.9430     5.5030     1.7220 C.3   1 <1>  -0.0970 
 28 H       -0.0140     2.6340     1.2560 H     1 <1>   0.3700 
 29 H       -1.7130     3.4110     0.7860 H     1 <1>   0.0800 
 30 H       -3.1030     2.6450     1.4780 H     1 <1>   0.0800 
 31 H       -2.9510    -0.3950     1.0560 H     1 <1>   0.0800 
 32 H       -2.5790    -0.3950    -0.6440 H     1 <1>   0.0800 
 33 H       -4.7810     1.1100     0.7520 H     1 <1>   0.0800 
 34 H       -4.9030    -0.0080    -0.5670 H     1 <1>   0.0800 
 35 H        2.0760     3.4260     1.9490 H     1 <1>   0.1500 
 36 H        1.6940     1.0090    -1.5730 H     1 <1>   0.1500 
 37 H       -3.7850     1.5550    -2.0580 H     1 <1>   0.0800 
 38 H       -5.1930     2.3100    -1.3800 H     1 <1>   0.0800 
 39 H       -2.8810     3.5080    -2.6970 H     1 <1>   0.0800 
 40 H       -1.4410     3.2660    -1.7460 H     1 <1>   0.0800 
 41 H        4.0870     1.3690    -2.0800 H     1 <1>   0.1500 
 42 H       -2.4380     5.7450    -2.4780 H     1 <1>   0.0800 
 43 H       -1.5100     5.5140    -0.9970 H     1 <1>   0.0800 
 44 H       -3.8810     7.5880    -0.7610 H     1 <1>   0.1500 
 45 H        6.6890     3.2590     1.3180 H     1 <1>   0.0800 
 46 H        6.2790     4.7100     0.3710 H     1 <1>   0.0800 
 47 H       -7.2050     4.5070     2.0280 H     1 <1>   0.0800 
 48 H       -7.7660     5.9340     1.1840 H     1 <1>   0.0800 
 49 H       -6.7420     6.0960     2.5940 H     1 <1>   0.0800 
@<TRIPOS>BOND
  1   1   2  2   
  2   2   3  am  
  3   2   4  am  
  4   3   5  1   
  5   3   6  1   
  6   4   7  1   
  7   4  28  1   
  8   5   8  1   
  9   5  29  1   
 10   5  30  1   
 11   6   9  1   
 12   6  31  1   
 13   6  32  1   
 14   7  10  ar  
 15   7  11  ar  
 16   8  12  1   
 17   8  13  1   
 18   8  14  1   
 19   9  13  1   
 20   9  33  1   
 21   9  34  1   
 22  10  15  ar  
 23  10  35  1   
 24  11  16  ar  
 25  11  36  1   
 26  12  17  ar  
 27  12  18  ar  
 28  13  37  1   
 29  13  38  1   
 30  14  19  1   
 31  14  39  1   
 32  14  40  1   
 33  15  20  1   
 34  15  21  ar  
 35  16  21  ar  
 36  16  41  1   
 37  17  22  ar  
 38  18  19  1   
 39  18  23  ar  
 40  19  42  1   
 41  19  43  1   
 42  20  24  1   
 43  21  25  1   
 44  22  26  ar  
 45  22  27  1   
 46  23  26  ar  
 47  23  44  1   
 48  24  25  1   
 49  24  45  1   
 50  24  46  1   
 51  27  47  1   
 52  27  48  1   
 53  27  49  1   
@<TRIPOS>SUBSTRUCTURE
  1 ****   5 GROUP 4 **** **** 0

# MOE 2024.06 (io_trps.svl 2023.06)
