@<TRIPOS>MOLECULE
NONAME
28 28 1 0 0 
SMALL
USER_CHARGES


@<TRIPOS>ATOM
  1 O       -0.7270    -0.0770     0.9560 O.2   1 <1>  -0.5700 
  2 C       -1.4000    -0.8060     0.2560 C.2   1 <1>   0.6340 
  3 O       -2.1900    -0.2540    -0.6720 O.3   1 <1>  -0.4300 
  4 C       -1.3910    -2.2530     0.3720 C.ar  1 <1>   0.0860 
  5 C       -2.2600     1.1470    -0.8540 C.3   1 <1>   0.0400 
  6 C       -2.1760    -3.0700    -0.4440 C.ar  1 <1>  -0.1500 
  7 C       -0.5850    -2.8920     1.3170 C.ar  1 <1>  -0.1500 
  8 C       -2.1570    -4.4480    -0.3250 C.ar  1 <1>  -0.1500 
  9 C       -0.5620    -4.2690     1.4400 C.ar  1 <1>  -0.1500 
 10 C       -1.3490    -5.0580     0.6190 C.ar  1 <1>  -0.1440 
 11 C       -1.3200    -6.5720     0.7520 C.3   1 <1>  -0.0170 
 12 C       -0.1860    -7.1590    -0.0960 C.3   1 <1>  -0.1600 
 13 C       -0.1400    -8.6810     0.0220 C.3   1 <1>   0.1200 
 14 O        0.9300    -9.1410    -0.7190 O.3   1 <1>  -0.6800 
 15 H       -2.9550     1.3530    -1.6480 H     1 <1>   0.0800 
 16 H       -1.2810     1.5130    -1.1110 H     1 <1>   0.0800 
 17 H       -2.5970     1.6000     0.0620 H     1 <1>   0.0800 
 18 H       -2.8140    -2.6220    -1.1860 H     1 <1>   0.1500 
 19 H        0.0350    -2.2950     1.9640 H     1 <1>   0.1500 
 20 H       -2.7750    -5.0450    -0.9730 H     1 <1>   0.1500 
 21 H        0.0750    -4.7250     2.1790 H     1 <1>   0.1500 
 22 H       -2.2640    -6.9810     0.4350 H     1 <1>   0.0800 
 23 H       -1.1790    -6.8380     1.7850 H     1 <1>   0.0800 
 24 H        0.7500    -6.7490     0.2410 H     1 <1>   0.0800 
 25 H       -0.3360    -6.8780    -1.1240 H     1 <1>   0.0800 
 26 H       -1.0390    -9.1350    -0.3600 H     1 <1>   0.0800 
 27 H        0.0110    -8.9870     1.0440 H     1 <1>   0.0800 
 28 H        0.8390    -8.8830    -1.6560 H     1 <1>   0.4000 
@<TRIPOS>BOND
  1   1   2  2   
  2   2   3  1   
  3   2   4  1   
  4   3   5  1   
  5   4   6  ar  
  6   4   7  ar  
  7   5  15  1   
  8   5  16  1   
  9   5  17  1   
 10   6   8  ar  
 11   6  18  1   
 12   7   9  ar  
 13   7  19  1   
 14   8  10  ar  
 15   8  20  1   
 16   9  10  ar  
 17   9  21  1   
 18  10  11  1   
 19  11  12  1   
 20  11  22  1   
 21  11  23  1   
 22  12  13  1   
 23  12  24  1   
 24  12  25  1   
 25  13  14  1   
 26  13  26  1   
 27  13  27  1   
 28  14  28  1   
@<TRIPOS>SUBSTRUCTURE
  1 ****   8 GROUP 4 **** **** 0

# MOE 2024.06 (io_trps.svl 2023.06)
