@<TRIPOS>MOLECULE
NONAME
54 58 1 0 0 
SMALL
USER_CHARGES


@<TRIPOS>ATOM
  1 S        0.2870    -0.3590    -0.8250 S.3   1 <1>  -0.0800 
  2 C       -1.0120    -0.9540     0.2190 C.2   1 <1>   0.4620 
  3 C       -0.3800     1.2530    -0.7250 C.ar  1 <1>   0.0400 
  4 N       -1.8450    -0.0500     0.5860 N.2   1 <1>  -0.5650 
  5 N       -1.0750    -2.2890     0.5570 N.pl3 1 <1>  -0.8220 
  6 C       -1.5050     1.1940     0.0740 C.ar  1 <1>   0.2270 
  7 C        0.0850     2.4130    -1.3140 C.ar  1 <1>  -0.1500 
  8 C       -2.0150    -2.7070     1.6360 C.3   1 <1>   0.2090 
  9 C       -0.3950    -3.3740    -0.1950 C.3   1 <1>   0.2090 
 10 C       -2.2050     2.3730     0.2980 C.ar  1 <1>  -0.1500 
 11 C       -0.6280     3.5770    -1.0810 C.ar  1 <1>  -0.1500 
 12 C       -3.4600    -2.7450     1.1030 C.3   1 <1>   0.3430 
 13 C       -1.4210    -4.3700    -0.7490 C.3   1 <1>  -0.1600 
 14 C       -1.7670     3.5550    -0.2780 C.ar  1 <1>  -0.1500 
 15 N       -3.7150    -3.7770     0.0260 N.4   1 <1>  -0.9590 
 16 C       -2.7600    -3.7260    -1.1240 C.3   1 <1>   0.3430 
 17 C       -5.1370    -3.7170    -0.4490 C.3   1 <1>   0.3430 
 18 C       -6.1220    -4.2890     0.5960 C.3   1 <1>   0.2000 
 19 O       -5.4310    -5.2950     1.3270 O.3   1 <1>  -0.3630 
 20 C       -7.3310    -5.0070    -0.0460 C.3   1 <1>  -0.0170 
 21 C       -5.8540    -6.4980     0.9510 C.ar  1 <1>   0.3930 
 22 C       -6.9480    -6.4480     0.1440 C.ar  1 <1>  -0.1430 
 23 N       -5.2300    -7.5890     1.3050 N.ar  1 <1>  -0.6200 
 24 C       -7.4460    -7.6440    -0.3070 C.ar  1 <1>   0.1670 
 25 C       -5.7940    -8.6850     0.8200 C.ar  1 <1>   0.4770 
 26 N       -6.8590    -8.7740     0.0340 N.ar  1 <1>  -0.6200 
 27 C       -8.6650    -7.7450    -1.1990 C.3   1 <1>  -0.0970 
 28 C       -5.1510    -9.9970     1.2000 C.3   1 <1>  -0.0970 
 29 H        0.9680     2.4060    -1.9290 H     1 <1>   0.1500 
 30 H       -1.9600    -1.9900     2.4380 H     1 <1>   0.0800 
 31 H       -1.7330    -3.6640     2.0370 H     1 <1>   0.0800 
 32 H        0.3050    -3.8780     0.4510 H     1 <1>   0.0800 
 33 H        0.1630    -2.9640    -1.0180 H     1 <1>   0.0800 
 34 H       -3.0810     2.3520     0.9200 H     1 <1>   0.1500 
 35 H       -0.3020     4.5050    -1.5200 H     1 <1>   0.1500 
 36 H       -3.6920    -1.7630     0.7240 H     1 <1>   0.0800 
 37 H       -4.1150    -2.9360     1.9360 H     1 <1>   0.0800 
 38 H       -1.5690    -5.1770    -0.0530 H     1 <1>   0.0800 
 39 H       -0.9930    -4.8040    -1.6350 H     1 <1>   0.0800 
 40 H       -2.3100     4.4680    -0.1040 H     1 <1>   0.1500 
 41 H       -3.6180    -4.7050     0.4750 H     1 <1>   0.4500 
 42 H       -3.1770    -4.2780    -1.9500 H     1 <1>   0.0800 
 43 H       -2.6070    -2.7060    -1.4430 H     1 <1>   0.0800 
 44 H       -5.2280    -4.3090    -1.3440 H     1 <1>   0.0800 
 45 H       -5.4100    -2.7050    -0.7010 H     1 <1>   0.0800 
 46 H       -6.4410    -3.5270     1.2860 H     1 <1>   0.0800 
 47 H       -7.4660    -4.7530    -1.0830 H     1 <1>   0.0800 
 48 H       -8.2340    -4.7870     0.4980 H     1 <1>   0.0800 
 49 H       -9.0920    -6.7800    -1.3950 H     1 <1>   0.0800 
 50 H       -9.4060    -8.3610    -0.7220 H     1 <1>   0.0800 
 51 H       -8.3900    -8.2030    -2.1320 H     1 <1>   0.0800 
 52 H       -4.2430    -9.8310     1.7490 H     1 <1>   0.0800 
 53 H       -4.9280   -10.5590     0.3130 H     1 <1>   0.0800 
 54 H       -5.8310   -10.5610     1.8110 H     1 <1>   0.0800 
@<TRIPOS>BOND
  1   1   2  1   
  2   1   3  1   
  3   2   4  2   
  4   2   5  1   
  5   3   6  ar  
  6   3   7  ar  
  7   4   6  1   
  8   5   8  1   
  9   5   9  1   
 10   6  10  ar  
 11   7  11  ar  
 12   7  29  1   
 13   8  12  1   
 14   8  30  1   
 15   8  31  1   
 16   9  13  1   
 17   9  32  1   
 18   9  33  1   
 19  10  14  ar  
 20  10  34  1   
 21  11  14  ar  
 22  11  35  1   
 23  12  15  1   
 24  12  36  1   
 25  12  37  1   
 26  13  16  1   
 27  13  38  1   
 28  13  39  1   
 29  14  40  1   
 30  15  16  1   
 31  15  17  1   
 32  15  41  1   
 33  16  42  1   
 34  16  43  1   
 35  17  18  1   
 36  17  44  1   
 37  17  45  1   
 38  18  19  1   
 39  18  20  1   
 40  18  46  1   
 41  19  21  1   
 42  20  22  1   
 43  20  47  1   
 44  20  48  1   
 45  21  22  ar  
 46  21  23  ar  
 47  22  24  ar  
 48  23  25  ar  
 49  24  26  ar  
 50  24  27  1   
 51  25  26  ar  
 52  25  28  1   
 53  27  49  1   
 54  27  50  1   
 55  27  51  1   
 56  28  52  1   
 57  28  53  1   
 58  28  54  1   
@<TRIPOS>SUBSTRUCTURE
  1 ****  15 GROUP 4 **** **** 0

# MOE 2024.06 (io_trps.svl 2023.06)
