@<TRIPOS>MOLECULE
NONAME
63 67 1 0 0 
SMALL
USER_CHARGES


@<TRIPOS>ATOM
  1 O       -0.5220    -1.2150     2.7280 O.2   1 <1>  -0.5700 
  2 C       -0.3060    -2.0830     1.8940 C.2   1 <1>   0.4690 
  3 C        0.7310    -2.0000     0.8830 C.ar  1 <1>   0.0860 
  4 C       -1.1460    -3.2240     1.9240 C.2   1 <1>  -0.1360 
  5 C        0.8470    -3.0880    -0.0120 C.ar  1 <1>   0.1000 
  6 C        1.6280    -0.9210     0.7260 C.ar  1 <1>  -0.1440 
  7 C       -1.0150    -4.2410     1.0420 C.2   1 <1>  -0.0380 
  8 N       -0.0190    -4.1760     0.0950 N.pl3 1 <1>  -0.6000 
  9 C        1.8270    -3.0950    -1.0120 C.ar  1 <1>  -0.1430 
 10 C        2.5810    -0.9470    -0.2700 C.ar  1 <1>  -0.1500 
 11 C        1.6020     0.3110     1.6270 C.3   1 <1>  -0.0970 
 12 C       -1.9550    -5.4400     1.0430 C.3   1 <1>   0.4810 
 13 C        2.6820    -2.0250    -1.1330 C.ar  1 <1>  -0.1500 
 14 C        1.9790    -4.2650    -1.9790 C.3   1 <1>  -0.0970 
 15 N       -2.8390    -5.3040    -0.1440 N.4   1 <1>  -0.9590 
 16 C       -3.8790    -4.2410     0.0860 C.3   1 <1>   0.3430 
 17 C       -3.4650    -6.5950    -0.5440 C.3   1 <1>   0.3430 
 18 C       -4.7160    -3.9740    -1.1760 C.3   1 <1>   0.1430 
 19 C       -4.2530    -6.4010    -1.8430 C.3   1 <1>  -0.1600 
 20 C       -5.8190    -3.0140    -0.8100 C.ar  1 <1>   0.1670 
 21 C       -5.3130    -5.2920    -1.7160 C.3   1 <1>  -0.1600 
 22 C       -3.9320    -3.1930    -2.2660 C.3   1 <1>  -0.1600 
 23 N       -6.5940    -3.1480     0.2340 N.ar  1 <1>  -0.6200 
 24 C       -5.9030    -1.9760    -1.6860 C.ar  1 <1>  -0.1430 
 25 C       -4.8740    -2.0860    -2.7820 C.3   1 <1>  -0.0170 
 26 C       -7.5040    -2.1790     0.3860 C.ar  1 <1>   0.7200 
 27 C       -6.8640    -1.0270    -1.4480 C.ar  1 <1>   0.1600 
 28 N       -7.6660    -1.1200    -0.4140 N.ar  1 <1>  -0.6200 
 29 N       -8.3450    -2.2800     1.4740 N.pl3 1 <1>  -0.8380 
 30 C       -8.6660    -3.5830     2.1170 C.3   1 <1>   0.1290 
 31 C       -9.1470    -1.1190     1.9510 C.3   1 <1>   0.1290 
 32 H       -1.8980    -3.2150     2.6920 H     1 <1>   0.1500 
 33 H        0.2220    -4.9720    -0.5060 H     1 <1>   0.4000 
 34 H        3.2680    -0.1270    -0.3950 H     1 <1>   0.1500 
 35 H        1.7720     0.0250     2.6490 H     1 <1>   0.0800 
 36 H        0.6460     0.8000     1.5580 H     1 <1>   0.0800 
 37 H        2.3600     1.0210     1.3500 H     1 <1>   0.0800 
 38 H       -2.5410    -5.4590     1.9480 H     1 <1>   0.0800 
 39 H       -1.3740    -6.3460     0.9860 H     1 <1>   0.0800 
 40 H        3.4440    -2.0070    -1.8940 H     1 <1>   0.1500 
 41 H        1.0730    -4.4060    -2.5390 H     1 <1>   0.0800 
 42 H        2.2150    -5.1640    -1.4390 H     1 <1>   0.0800 
 43 H        2.7760    -4.0810    -2.6790 H     1 <1>   0.0800 
 44 H       -2.2380    -4.9690    -0.9080 H     1 <1>   0.4500 
 45 H       -3.4130    -3.3180     0.3930 H     1 <1>   0.0800 
 46 H       -4.5460    -4.5500     0.8750 H     1 <1>   0.0800 
 47 H       -4.1330    -6.9330     0.2330 H     1 <1>   0.0800 
 48 H       -2.7070    -7.3480    -0.6930 H     1 <1>   0.0800 
 49 H       -4.7440    -7.3260    -2.0930 H     1 <1>   0.0800 
 50 H       -3.5720    -6.1780    -2.6450 H     1 <1>   0.0800 
 51 H       -5.7890    -5.1200    -2.6670 H     1 <1>   0.0800 
 52 H       -6.0810    -5.6270    -1.0360 H     1 <1>   0.0800 
 53 H       -3.5970    -3.8180    -3.0740 H     1 <1>   0.0800 
 54 H       -3.0730    -2.7150    -1.8250 H     1 <1>   0.0800 
 55 H       -5.3540    -2.3860    -3.6980 H     1 <1>   0.0800 
 56 H       -4.3520    -1.1560    -2.9320 H     1 <1>   0.0800 
 57 H       -6.9780    -0.1840    -2.1080 H     1 <1>   0.1500 
 58 H       -8.3930    -4.4040     1.4780 H     1 <1>   0.0800 
 59 H       -9.7230    -3.6460     2.3110 H     1 <1>   0.0800 
 60 H       -8.1310    -3.6670     3.0460 H     1 <1>   0.0800 
 61 H       -8.6280    -0.1960     1.7540 H     1 <1>   0.0800 
 62 H       -9.3120    -1.1950     3.0110 H     1 <1>   0.0800 
 63 H      -10.0940    -1.1020     1.4420 H     1 <1>   0.0800 
@<TRIPOS>BOND
  1   1   2  2   
  2   2   3  1   
  3   2   4  1   
  4   3   5  ar  
  5   3   6  ar  
  6   4   7  2   
  7   4  32  1   
  8   5   8  1   
  9   5   9  ar  
 10   6  10  ar  
 11   6  11  1   
 12   7   8  1   
 13   7  12  1   
 14   8  33  1   
 15   9  13  ar  
 16   9  14  1   
 17  10  13  ar  
 18  10  34  1   
 19  11  35  1   
 20  11  36  1   
 21  11  37  1   
 22  12  15  1   
 23  12  38  1   
 24  12  39  1   
 25  13  40  1   
 26  14  41  1   
 27  14  42  1   
 28  14  43  1   
 29  15  16  1   
 30  15  17  1   
 31  15  44  1   
 32  16  18  1   
 33  16  45  1   
 34  16  46  1   
 35  17  19  1   
 36  17  47  1   
 37  17  48  1   
 38  18  20  1   
 39  18  21  1   
 40  18  22  1   
 41  19  21  1   
 42  19  49  1   
 43  19  50  1   
 44  20  23  ar  
 45  20  24  ar  
 46  21  51  1   
 47  21  52  1   
 48  22  25  1   
 49  22  53  1   
 50  22  54  1   
 51  23  26  ar  
 52  24  25  1   
 53  24  27  ar  
 54  25  55  1   
 55  25  56  1   
 56  26  28  ar  
 57  26  29  1   
 58  27  28  ar  
 59  27  57  1   
 60  29  30  1   
 61  29  31  1   
 62  30  58  1   
 63  30  59  1   
 64  30  60  1   
 65  31  61  1   
 66  31  62  1   
 67  31  63  1   
@<TRIPOS>SUBSTRUCTURE
  1 ****  16 GROUP 4 **** **** 0

# MOE 2024.06 (io_trps.svl 2023.06)
