@<TRIPOS>MOLECULE
NONAME
50 52 1 0 0 
SMALL
USER_CHARGES


@<TRIPOS>ATOM
  1 O        0.4470     0.2600     1.3330 O.2   1 <1>  -0.5700 
  2 C        0.4200    -0.9430     1.2140 C.2   1 <1>   0.5690 
  3 N       -0.6550    -1.6340     1.6550 N.am  1 <1>  -0.7300 
  4 C        1.6250    -1.6830     0.5720 C.3   1 <1>   0.2510 
  5 C       -0.7380    -3.1120     1.6280 C.3   1 <1>   0.1400 
  6 N        1.5680    -3.1800     0.6490 N.3   1 <1>  -0.8100 
  7 C        2.9280    -1.1940     1.2320 C.3   1 <1>  -0.0990 
  8 C        0.1800    -3.6880     0.5380 C.3   1 <1>   0.1100 
  9 C        2.4250    -3.8130    -0.3820 C.3   1 <1>   0.2530 
 10 C        3.5050    -0.0210     0.4720 C.2   1 <1>   0.5690 
 11 C        2.5220    -5.3230    -0.1710 C.ar  1 <1>  -0.1440 
 12 O        4.4290    -0.2320    -0.2720 O.2   1 <1>  -0.5700 
 13 N        2.9610     1.2130     0.6390 N.am  1 <1>  -0.4930 
 14 C        2.1740    -6.2510    -1.1530 C.ar  1 <1>  -0.1430 
 15 C        2.9820    -5.7770     1.0570 C.ar  1 <1>  -0.1500 
 16 C        3.3170     2.4710     0.1230 C.2   1 <1>   0.3520 
 17 C        2.2930    -7.6070    -0.8830 C.ar  1 <1>  -0.1500 
 18 C        1.6660    -5.8270    -2.5240 C.3   1 <1>  -0.0970 
 19 C        3.0980    -7.1300     1.3180 C.ar  1 <1>  -0.1500 
 20 N        2.5480     3.4710     0.3100 N.2   1 <1>  -0.4100 
 21 C        4.4370     2.9100    -0.6050 C.2   1 <1>   0.3520 
 22 C        2.7520    -8.0470     0.3450 C.ar  1 <1>  -0.1500 
 23 O        3.1620     4.4560    -0.2720 O.3   1 <1>   0.2420 
 24 N        4.2960     4.1600    -0.8300 N.2   1 <1>  -0.4100 
 25 N        5.5370     2.1450    -1.0320 N.am  1 <1>  -0.4930 
 26 C        6.7090     2.4680    -1.6310 C.2   1 <1>   0.5690 
 27 O        7.4920     1.5990    -1.9160 O.2   1 <1>  -0.5700 
 28 C        7.0820     3.8960    -1.9550 C.3   1 <1>  -0.1790 
 29 H       -1.3980    -1.1130     2.1250 H     1 <1>   0.3700 
 30 H        1.6310    -1.4060    -0.4690 H     1 <1>   0.0800 
 31 H       -1.7540    -3.4130     1.4340 H     1 <1>   0.0800 
 32 H       -0.4440    -3.5050     2.5860 H     1 <1>   0.0800 
 33 H        3.6680    -1.9700     1.2540 H     1 <1>   0.0800 
 34 H        2.7440    -0.9070     2.2510 H     1 <1>   0.0800 
 35 H       -0.2230    -3.4450    -0.4300 H     1 <1>   0.0800 
 36 H        0.1750    -4.7610     0.6360 H     1 <1>   0.0800 
 37 H        3.4230    -3.4140    -0.3330 H     1 <1>   0.0800 
 38 H        2.0390    -3.5790    -1.3570 H     1 <1>   0.0800 
 39 H        2.0580     1.2340     1.1340 H     1 <1>   0.3700 
 40 H        3.2480    -5.0660     1.8200 H     1 <1>   0.1500 
 41 H        2.0290    -8.3340    -1.6300 H     1 <1>   0.1500 
 42 H        0.7610    -5.2560    -2.4220 H     1 <1>   0.0800 
 43 H        1.4530    -6.6830    -3.1380 H     1 <1>   0.0800 
 44 H        2.4080    -5.2330    -3.0250 H     1 <1>   0.0800 
 45 H        3.4560    -7.4650     2.2750 H     1 <1>   0.1500 
 46 H        2.8410    -9.1010     0.5420 H     1 <1>   0.1500 
 47 H        5.4340     1.1330    -0.8760 H     1 <1>   0.3700 
 48 H        7.0660     4.4900    -1.0610 H     1 <1>   0.0800 
 49 H        6.3900     4.3000    -2.6690 H     1 <1>   0.0800 
 50 H        8.0710     3.9280    -2.3750 H     1 <1>   0.0800 
@<TRIPOS>BOND
  1   1   2  2   
  2   2   3  am  
  3   2   4  1   
  4   3   5  1   
  5   3  29  1   
  6   4   6  1   
  7   4   7  1   
  8   4  30  1   
  9   5   8  1   
 10   5  31  1   
 11   5  32  1   
 12   6   8  1   
 13   6   9  1   
 14   7  10  1   
 15   7  33  1   
 16   7  34  1   
 17   8  35  1   
 18   8  36  1   
 19   9  11  1   
 20   9  37  1   
 21   9  38  1   
 22  10  12  2   
 23  10  13  am  
 24  11  14  ar  
 25  11  15  ar  
 26  13  16  1   
 27  13  39  1   
 28  14  17  ar  
 29  14  18  1   
 30  15  19  ar  
 31  15  40  1   
 32  16  20  2   
 33  16  21  1   
 34  17  22  ar  
 35  17  41  1   
 36  18  42  1   
 37  18  43  1   
 38  18  44  1   
 39  19  22  ar  
 40  19  45  1   
 41  20  23  1   
 42  21  24  2   
 43  21  25  1   
 44  22  46  1   
 45  23  24  1   
 46  25  26  am  
 47  25  47  1   
 48  26  27  2   
 49  26  28  1   
 50  28  48  1   
 51  28  49  1   
 52  28  50  1   
@<TRIPOS>SUBSTRUCTURE
  1 ****   7 GROUP 4 **** **** 0

# MOE 2024.06 (io_trps.svl 2023.06)
