@<TRIPOS>MOLECULE
NONAME
40 42 1 0 0 
SMALL
USER_CHARGES


@<TRIPOS>ATOM
  1 O       -0.7250     0.3240    -0.3670 O.2   1 <1>  -0.5700 
  2 C       -1.8000     0.8200    -0.1270 C.2   1 <1>   0.5690 
  3 N       -2.9380     0.0570    -0.1120 N.am  1 <1>  -0.6600 
  4 C       -1.8800     2.3220     0.1480 C.3   1 <1>  -0.0190 
  5 C       -4.3250     0.5190     0.1460 C.3   1 <1>   0.1400 
  6 C       -2.9170    -1.4030    -0.3790 C.3   1 <1>   0.1400 
  7 C       -2.2400     3.1480    -1.1050 C.3   1 <1>  -0.0220 
  8 C       -0.6040     2.9690     0.7350 C.3   1 <1>  -0.0220 
  9 C       -5.2000    -0.7230    -0.0310 C.3   1 <1>   0.2000 
 10 C       -4.2640    -1.9180     0.1330 C.3   1 <1>  -0.0800 
 11 C       -1.4950     4.4400    -0.8760 C.2   1 <1>  -0.2880 
 12 C       -0.6170     4.3440     0.1150 C.2   1 <1>  -0.2880 
 13 O       -6.2060    -0.7730     0.9210 O.3   1 <1>  -0.6800 
 14 C       -4.7760    -3.1740    -0.5930 C.3   1 <1>  -0.0170 
 15 C       -3.8440    -4.3580    -0.3960 C.ar  1 <1>   0.1670 
 16 N       -2.8100    -4.4340    -1.2180 N.ar  1 <1>  -0.6200 
 17 C       -4.1070    -5.2780     0.6080 C.ar  1 <1>  -0.1500 
 18 C       -2.0030    -5.4670    -1.0310 C.ar  1 <1>   0.1600 
 19 C       -3.2590    -6.3490     0.7910 C.ar  1 <1>  -0.1500 
 20 C       -2.1780    -6.4360    -0.0580 C.ar  1 <1>  -0.1500 
 21 H       -2.6530     2.4950     0.8730 H     1 <1>   0.0800 
 22 H       -4.3950     0.8960     1.1510 H     1 <1>   0.0800 
 23 H       -4.6040     1.2800    -0.5610 H     1 <1>   0.0800 
 24 H       -2.8200    -1.5640    -1.4390 H     1 <1>   0.0800 
 25 H       -2.0930    -1.8790     0.1250 H     1 <1>   0.0800 
 26 H       -1.8770     2.6750    -2.0020 H     1 <1>   0.0800 
 27 H       -3.3000     3.3090    -1.1760 H     1 <1>   0.0800 
 28 H       -0.6530     3.0140     1.8090 H     1 <1>   0.0800 
 29 H        0.2930     2.4540     0.4350 H     1 <1>   0.0800 
 30 H       -5.6540    -0.7110    -1.0070 H     1 <1>   0.0800 
 31 H       -4.1390    -2.1380     1.1790 H     1 <1>   0.0800 
 32 H       -1.7110     5.2860    -1.5080 H     1 <1>   0.1500 
 33 H        0.0610     5.0920     0.4920 H     1 <1>   0.1500 
 34 H       -5.8240    -0.8490     1.8160 H     1 <1>   0.4000 
 35 H       -4.8710    -2.9770    -1.6470 H     1 <1>   0.0800 
 36 H       -5.7540    -3.4230    -0.2220 H     1 <1>   0.0800 
 37 H       -4.9660    -5.1600     1.2430 H     1 <1>   0.1500 
 38 H       -1.1550    -5.5440    -1.6900 H     1 <1>   0.1500 
 39 H       -3.4320    -7.0820     1.5610 H     1 <1>   0.1500 
 40 H       -1.4760    -7.2450     0.0290 H     1 <1>   0.1500 
@<TRIPOS>BOND
  1   1   2  2   
  2   2   3  am  
  3   2   4  1   
  4   3   5  1   
  5   3   6  1   
  6   4   7  1   
  7   4   8  1   
  8   4  21  1   
  9   5   9  1   
 10   5  22  1   
 11   5  23  1   
 12   6  10  1   
 13   6  24  1   
 14   6  25  1   
 15   7  11  1   
 16   7  26  1   
 17   7  27  1   
 18   8  12  1   
 19   8  28  1   
 20   8  29  1   
 21   9  10  1   
 22   9  13  1   
 23   9  30  1   
 24  10  14  1   
 25  10  31  1   
 26  11  12  2   
 27  11  32  1   
 28  12  33  1   
 29  13  34  1   
 30  14  15  1   
 31  14  35  1   
 32  14  36  1   
 33  15  16  ar  
 34  15  17  ar  
 35  16  18  ar  
 36  17  19  ar  
 37  17  37  1   
 38  18  20  ar  
 39  18  38  1   
 40  19  20  ar  
 41  19  39  1   
 42  20  40  1   
@<TRIPOS>SUBSTRUCTURE
  1 ****   6 GROUP 4 **** **** 0

# MOE 2024.06 (io_trps.svl 2023.06)
