@<TRIPOS>MOLECULE
NONAME
53 55 1 0 0 
SMALL
USER_CHARGES


@<TRIPOS>ATOM
  1 O       -0.1740     1.9600     2.6360 O.co2 1 <1>  -0.9000 
  2 C        0.6630     2.8170     2.3040 C.2   1 <1>   0.9060 
  3 O        1.2690     3.4790     3.1590 O.co2 1 <1>  -0.9000 
  4 C        0.9780     3.0790     0.8160 C.3   1 <1>  -0.1060 
  5 C       -0.2910     4.0660     0.6890 C.3   1 <1>   0.2000 
  6 C        1.3550     3.4100    -0.7030 C.3   1 <1>   0.1100 
  7 C        2.2030     2.0490     0.9370 C.3   1 <1>  -0.0170 
  8 O       -1.4450     3.8470     1.4480 O.3   1 <1>  -0.6800 
  9 C        0.1610     5.5080     0.8940 C.3   1 <1>  -0.1600 
 10 N        1.6950     4.8570    -0.9400 N.3   1 <1>  -0.8100 
 11 C        2.0570     0.7860     0.0740 C.ar  1 <1>  -0.1430 
 12 C        1.5440     5.6980     0.2700 C.3   1 <1>   0.1100 
 13 C        3.0380     4.9940    -1.5820 C.3   1 <1>   0.1710 
 14 C        3.0970     0.3690    -0.7440 C.ar  1 <1>  -0.1500 
 15 C        0.8870     0.0440     0.1080 C.ar  1 <1>  -0.1500 
 16 C        3.4680     6.4040    -2.0170 C.2   1 <1>   0.5690 
 17 C        2.9640    -0.7660    -1.5260 C.ar  1 <1>  -0.1500 
 18 C        0.7520    -1.0920    -0.6710 C.ar  1 <1>  -0.1500 
 19 O        3.4320     6.7090    -3.1860 O.2   1 <1>  -0.5700 
 20 N        3.9260     7.2740    -1.0800 N.am  1 <1>  -0.7300 
 21 C        1.7900    -1.4980    -1.4910 C.ar  1 <1>  -0.1500 
 22 C        4.1710     8.7050    -1.3150 C.3   1 <1>   0.2840 
 23 C        3.5870     9.4640    -0.1380 C.ar  1 <1>  -0.1430 
 24 C        4.4110    10.0170     0.8310 C.ar  1 <1>  -0.1500 
 25 C        2.2110     9.5960    -0.0180 C.ar  1 <1>  -0.1500 
 26 C        3.8650    10.6930     1.9080 C.ar  1 <1>  -0.1500 
 27 C        1.6640    10.2710     1.0600 C.ar  1 <1>  -0.1500 
 28 C        2.4910    10.8200     2.0240 C.ar  1 <1>  -0.1500 
 29 H       -0.7200     4.0490    -0.2990 H     1 <1>   0.0800 
 30 H        0.5510     3.1260    -1.3630 H     1 <1>   0.0800 
 31 H        2.1660     2.8460    -1.1260 H     1 <1>   0.0800 
 32 H        3.1170     2.5630     0.6940 H     1 <1>   0.0800 
 33 H        2.4410     1.6500     1.9160 H     1 <1>   0.0800 
 34 H       -1.2390     3.0980     2.0850 H     1 <1>   0.4000 
 35 H       -0.5430     6.1730     0.4310 H     1 <1>   0.0800 
 36 H        0.2190     5.7340     1.9450 H     1 <1>   0.0800 
 37 H        2.2940     5.4220     0.9940 H     1 <1>   0.0800 
 38 H        1.6640     6.7380     0.0260 H     1 <1>   0.0800 
 39 H        3.7850     4.6100    -0.9110 H     1 <1>   0.0800 
 40 H        3.0520     4.3820    -2.4660 H     1 <1>   0.0800 
 41 H        4.0150     0.9270    -0.7740 H     1 <1>   0.1500 
 42 H        0.0760     0.3480     0.7500 H     1 <1>   0.1500 
 43 H        3.7750    -1.0810    -2.1580 H     1 <1>   0.1500 
 44 H       -0.1630    -1.6560    -0.6320 H     1 <1>   0.1500 
 45 H        3.8550     7.0230    -0.0920 H     1 <1>   0.3700 
 46 H        1.6840    -2.3800    -2.0960 H     1 <1>   0.1500 
 47 H        5.2300     8.8800    -1.3950 H     1 <1>   0.0800 
 48 H        3.7000     9.0200    -2.2310 H     1 <1>   0.0800 
 49 H        5.4800     9.9230     0.7540 H     1 <1>   0.1500 
 50 H        1.5630     9.1670    -0.7630 H     1 <1>   0.1500 
 51 H        4.5080    11.1200     2.6580 H     1 <1>   0.1500 
 52 H        0.5960    10.3650     1.1480 H     1 <1>   0.1500 
 53 H        2.0670    11.3440     2.8620 H     1 <1>   0.1500 
@<TRIPOS>BOND
  1   1   2  ar  
  2   2   3  ar  
  3   2   4  1   
  4   4   5  1   
  5   4   6  1   
  6   4   7  1   
  7   5   8  1   
  8   5   9  1   
  9   5  29  1   
 10   6  10  1   
 11   6  30  1   
 12   6  31  1   
 13   7  11  1   
 14   7  32  1   
 15   7  33  1   
 16   8  34  1   
 17   9  12  1   
 18   9  35  1   
 19   9  36  1   
 20  10  12  1   
 21  10  13  1   
 22  11  14  ar  
 23  11  15  ar  
 24  12  37  1   
 25  12  38  1   
 26  13  16  1   
 27  13  39  1   
 28  13  40  1   
 29  14  17  ar  
 30  14  41  1   
 31  15  18  ar  
 32  15  42  1   
 33  16  19  2   
 34  16  20  am  
 35  17  21  ar  
 36  17  43  1   
 37  18  21  ar  
 38  18  44  1   
 39  20  22  1   
 40  20  45  1   
 41  21  46  1   
 42  22  23  1   
 43  22  47  1   
 44  22  48  1   
 45  23  24  ar  
 46  23  25  ar  
 47  24  26  ar  
 48  24  49  1   
 49  25  27  ar  
 50  25  50  1   
 51  26  28  ar  
 52  26  51  1   
 53  27  28  ar  
 54  27  52  1   
 55  28  53  1   
@<TRIPOS>SUBSTRUCTURE
  1 ****  12 GROUP 4 **** **** 0

# MOE 2024.06 (io_trps.svl 2023.06)
