@<TRIPOS>MOLECULE
NONAME
59 61 1 0 0 
SMALL
USER_CHARGES


@<TRIPOS>ATOM
  1 O        0.5740    -1.0210    -0.0460 O.3   1 <1>  -0.5600 
  2 C        0.0420    -2.2210     0.4630 C.3   1 <1>   0.2800 
  3 C       -0.1640     0.1550     0.1440 C.3   1 <1>   0.1200 
  4 C       -1.3930    -2.4290    -0.0670 C.3   1 <1>  -0.1600 
  5 C        0.1710    -2.2270     2.0000 C.3   1 <1>  -0.1600 
  6 C        0.9500    -3.3430    -0.0800 C.3   1 <1>  -0.1600 
  7 C       -1.5310     0.0280    -0.5280 C.3   1 <1>  -0.1600 
  8 C       -2.2880    -1.1890     0.0010 C.3   1 <1>   0.2800 
  9 C        1.6070    -1.9890     2.4830 C.3   1 <1>   0.3430 
 10 C        2.3040    -3.4680     0.6290 C.3   1 <1>   0.3430 
 11 O       -2.6150    -0.9580     1.3150 O.3   1 <1>  -0.6800 
 12 C       -3.6080    -1.4030    -0.7380 C.3   1 <1>  -0.2400 
 13 N        2.5860    -2.2270     1.3900 N.4   1 <1>  -0.9590 
 14 C        3.9980    -2.0750     1.8190 C.3   1 <1>   0.4810 
 15 C        4.9270    -2.1910     0.6180 C.2   1 <1>  -0.2760 
 16 C        5.5640    -3.3380     0.3070 C.2   1 <1>  -0.2760 
 17 C        5.1280    -0.8770    -0.1700 C.3   1 <1>   0.1380 
 18 C        6.5430    -3.4710    -0.8570 C.3   1 <1>  -0.0220 
 19 C        5.4320    -4.6700     1.0440 C.3   1 <1>  -0.1020 
 20 C        5.8290    -1.1560    -1.5180 C.3   1 <1>  -0.1600 
 21 C        3.8120    -0.1520    -0.5030 C.3   1 <1>  -0.2400 
 22 C        5.9930     0.0690     0.6790 C.3   1 <1>  -0.2400 
 23 C        7.0130    -2.1160    -1.3860 C.3   1 <1>  -0.1600 
 24 H        0.3900     0.9640    -0.2990 H     1 <1>   0.0800 
 25 H       -0.2680     0.3460     1.1980 H     1 <1>   0.0800 
 26 H       -1.8670    -3.2450     0.4490 H     1 <1>   0.0800 
 27 H       -1.3220    -2.7170    -1.1010 H     1 <1>   0.0800 
 28 H       -0.1590    -3.1810     2.3680 H     1 <1>   0.0800 
 29 H       -0.4710    -1.4990     2.4570 H     1 <1>   0.0800 
 30 H        1.1140    -3.1880    -1.1320 H     1 <1>   0.0800 
 31 H        0.4500    -4.2890     0.0170 H     1 <1>   0.0800 
 32 H       -1.3780    -0.0740    -1.5870 H     1 <1>   0.0800 
 33 H       -2.1050     0.9230    -0.3690 H     1 <1>   0.0800 
 34 H        1.8150    -2.6350     3.3210 H     1 <1>   0.0800 
 35 H        1.6960    -0.9670     2.8150 H     1 <1>   0.0800 
 36 H        3.0730    -3.6390    -0.1080 H     1 <1>   0.0800 
 37 H        2.2890    -4.3070     1.3050 H     1 <1>   0.0800 
 38 H       -3.3510    -0.3180     1.3570 H     1 <1>   0.4000 
 39 H       -3.4200    -1.6040    -1.7770 H     1 <1>   0.0800 
 40 H       -4.2290    -0.5270    -0.6760 H     1 <1>   0.0800 
 41 H       -4.1370    -2.2440    -0.3250 H     1 <1>   0.0800 
 42 H        2.3970    -1.4830     0.6950 H     1 <1>   0.4500 
 43 H        4.2370    -2.8380     2.5380 H     1 <1>   0.0800 
 44 H        4.1420    -1.1200     2.2950 H     1 <1>   0.0800 
 45 H        6.0670    -4.0180    -1.6520 H     1 <1>   0.0800 
 46 H        7.4120    -4.0280    -0.5510 H     1 <1>   0.0800 
 47 H        5.1210    -5.4380     0.3590 H     1 <1>   0.0800 
 48 H        4.7270    -4.6410     1.8510 H     1 <1>   0.0800 
 49 H        6.3860    -4.9540     1.4540 H     1 <1>   0.0800 
 50 H        6.1670    -0.2330    -1.9580 H     1 <1>   0.0800 
 51 H        5.1230    -1.5950    -2.2010 H     1 <1>   0.0800 
 52 H        3.1490    -0.8030    -1.0450 H     1 <1>   0.0800 
 53 H        4.0110     0.7030    -1.1250 H     1 <1>   0.0800 
 54 H        3.3180     0.2080     0.3810 H     1 <1>   0.0800 
 55 H        6.9020    -0.4190     0.9810 H     1 <1>   0.0800 
 56 H        5.4750     0.3850     1.5650 H     1 <1>   0.0800 
 57 H        6.2540     0.9480     0.1170 H     1 <1>   0.0800 
 58 H        7.4840    -2.2500    -2.3440 H     1 <1>   0.0800 
 59 H        7.7480    -1.7050    -0.7170 H     1 <1>   0.0800 
@<TRIPOS>BOND
  1   1   2  1   
  2   1   3  1   
  3   2   4  1   
  4   2   5  1   
  5   2   6  1   
  6   3   7  1   
  7   3  24  1   
  8   3  25  1   
  9   4   8  1   
 10   4  26  1   
 11   4  27  1   
 12   5   9  1   
 13   5  28  1   
 14   5  29  1   
 15   6  10  1   
 16   6  30  1   
 17   6  31  1   
 18   7   8  1   
 19   7  32  1   
 20   7  33  1   
 21   8  11  1   
 22   8  12  1   
 23   9  13  1   
 24   9  34  1   
 25   9  35  1   
 26  10  13  1   
 27  10  36  1   
 28  10  37  1   
 29  11  38  1   
 30  12  39  1   
 31  12  40  1   
 32  12  41  1   
 33  13  14  1   
 34  13  42  1   
 35  14  15  1   
 36  14  43  1   
 37  14  44  1   
 38  15  16  2   
 39  15  17  1   
 40  16  18  1   
 41  16  19  1   
 42  17  20  1   
 43  17  21  1   
 44  17  22  1   
 45  18  23  1   
 46  18  45  1   
 47  18  46  1   
 48  19  47  1   
 49  19  48  1   
 50  19  49  1   
 51  20  23  1   
 52  20  50  1   
 53  20  51  1   
 54  21  52  1   
 55  21  53  1   
 56  21  54  1   
 57  22  55  1   
 58  22  56  1   
 59  22  57  1   
 60  23  58  1   
 61  23  59  1   
@<TRIPOS>SUBSTRUCTURE
  1 ****  13 GROUP 4 **** **** 0

# MOE 2024.06 (io_trps.svl 2023.06)
