@<TRIPOS>MOLECULE
NONAME
45 46 1 0 0 
SMALL
USER_CHARGES


@<TRIPOS>ATOM
  1 S        0.1320     0.0760     0.8540 S.o2  1 <1>   1.3330 
  2 O       -0.4020     1.3320     1.3290 O.2   1 <1>  -0.6500 
  3 O        0.6530    -0.8860     1.7980 O.2   1 <1>  -0.6500 
  4 N       -1.0820    -0.6990    -0.0450 N.am  1 <1>  -0.8490 
  5 C        1.3550     0.4490    -0.4030 C.3   1 <1>  -0.0550 
  6 C       -0.8190    -2.1260    -0.2660 C.3   1 <1>   0.1160 
  7 C       -2.4090    -0.5280     0.5560 C.3   1 <1>   0.1160 
  8 C        2.6160     1.1440     0.1430 C.3   1 <1>  -0.0800 
  9 C        3.4700     1.7010    -1.0010 C.3   1 <1>   0.2200 
 10 C        3.5640     0.1440     0.8080 C.3   1 <1>   0.1200 
 11 N        3.7470     3.1560    -0.8490 N.am  1 <1>  -0.7300 
 12 C        4.7340     0.8340    -0.9830 C.3   1 <1>   0.1200 
 13 O        4.3990    -0.2790    -0.2180 O.3   1 <1>  -0.5600 
 14 C        4.3770     3.7870     0.1930 C.2   1 <1>   0.5440 
 15 O        4.7620     3.1210     1.1360 O.2   1 <1>  -0.5700 
 16 C        4.5710     5.2160     0.1540 C.ar  1 <1>   0.0860 
 17 C        5.8140     5.7940     0.4760 C.ar  1 <1>   0.4100 
 18 C        3.5380     6.0670    -0.2190 C.ar  1 <1>  -0.1500 
 19 N        6.0570     7.1030     0.4250 N.ar  1 <1>  -0.6200 
 20 N        6.8700     5.0010     0.8670 N.pl3 1 <1>  -0.8690 
 21 C        3.7910     7.4190    -0.2640 C.ar  1 <1>  -0.1500 
 22 C        5.0550     7.8770     0.0620 C.ar  1 <1>   0.1600 
 23 C        8.1400     5.5210     1.4310 C.3   1 <1>   0.1290 
 24 H        1.6430    -0.4520    -0.9080 H     1 <1>   0.0800 
 25 H        0.8920     1.0930    -1.1240 H     1 <1>   0.0800 
 26 H       -1.5690    -2.5440    -0.9140 H     1 <1>   0.0800 
 27 H       -0.8270    -2.6600     0.6710 H     1 <1>   0.0800 
 28 H        0.1430    -2.2600    -0.7290 H     1 <1>   0.0800 
 29 H       -3.1560    -1.0210    -0.0410 H     1 <1>   0.0800 
 30 H       -2.6580     0.5180     0.6100 H     1 <1>   0.0800 
 31 H       -2.4230    -0.9380     1.5530 H     1 <1>   0.0800 
 32 H        2.3330     1.9110     0.8420 H     1 <1>   0.0800 
 33 H        2.9750     1.5500    -1.9450 H     1 <1>   0.0800 
 34 H        3.0740    -0.7100     1.2400 H     1 <1>   0.0800 
 35 H        4.1720     0.6270     1.5550 H     1 <1>   0.0800 
 36 H        3.5370     3.7160    -1.6770 H     1 <1>   0.3700 
 37 H        5.5560     1.3320    -0.5000 H     1 <1>   0.0800 
 38 H        5.0190     0.5040    -1.9650 H     1 <1>   0.0800 
 39 H        2.5630     5.6790    -0.4580 H     1 <1>   0.1500 
 40 H        6.5910     4.0660     1.2060 H     1 <1>   0.4000 
 41 H        3.0230     8.1170    -0.5460 H     1 <1>   0.1500 
 42 H        5.2480     8.9360     0.0230 H     1 <1>   0.1500 
 43 H        8.5310     6.2990     0.7980 H     1 <1>   0.0800 
 44 H        8.8620     4.7270     1.4970 H     1 <1>   0.0800 
 45 H        7.9610     5.9260     2.4130 H     1 <1>   0.0800 
@<TRIPOS>BOND
  1   1   2  2   
  2   1   3  2   
  3   1   4  am  
  4   1   5  1   
  5   4   6  1   
  6   4   7  1   
  7   5   8  1   
  8   5  24  1   
  9   5  25  1   
 10   6  26  1   
 11   6  27  1   
 12   6  28  1   
 13   7  29  1   
 14   7  30  1   
 15   7  31  1   
 16   8   9  1   
 17   8  10  1   
 18   8  32  1   
 19   9  11  1   
 20   9  12  1   
 21   9  33  1   
 22  10  13  1   
 23  10  34  1   
 24  10  35  1   
 25  11  14  am  
 26  11  36  1   
 27  12  13  1   
 28  12  37  1   
 29  12  38  1   
 30  14  15  2   
 31  14  16  1   
 32  16  17  ar  
 33  16  18  ar  
 34  17  19  ar  
 35  17  20  1   
 36  18  21  ar  
 37  18  39  1   
 38  19  22  ar  
 39  20  23  1   
 40  20  40  1   
 41  21  22  ar  
 42  21  41  1   
 43  22  42  1   
 44  23  43  1   
 45  23  44  1   
 46  23  45  1   
@<TRIPOS>SUBSTRUCTURE
  1 ****  11 GROUP 4 **** **** 0

# MOE 2024.06 (io_trps.svl 2023.06)
