@<TRIPOS>MOLECULE
NONAME
34 35 1 0 0 
SMALL
USER_CHARGES


@<TRIPOS>ATOM
  1 O        0.5960    -0.4190    -1.2960 O.2   1 <1>  -0.5700 
  2 C        1.3290    -0.7290    -0.3890 C.2   1 <1>   0.5690 
  3 N        2.2430     0.1170     0.1610 N.am  1 <1>  -0.4930 
  4 C        1.2400    -2.1320     0.1780 C.3   1 <1>  -0.0990 
  5 C        2.5190     1.4640    -0.1840 C.2   1 <1>   0.0630 
  6 C        0.1750    -2.9780    -0.5360 C.3   1 <1>   0.0960 
  7 C        1.9370     2.2680    -1.1660 C.2   1 <1>   0.1390 
  8 C        3.4410     2.2570     0.3990 C.2   1 <1>  -0.3020 
  9 N        0.1250    -4.3300     0.0480 N.pl3 1 <1>   0.0480 
 10 N        2.4510     3.4610    -1.1940 N.2   1 <1>  -0.7070 
 11 N        3.3870     3.4590    -0.2210 N.pl3 1 <1>   0.3140 
 12 C        0.8220    -5.4130    -0.2970 C.2   1 <1>   0.0360 
 13 C       -0.6070    -4.7690     1.0730 C.2   1 <1>   0.0360 
 14 C        4.2330     4.6450     0.1000 C.3   1 <1>   0.1760 
 15 N        0.5440    -6.4210     0.4550 N.2   1 <1>  -0.3380 
 16 N       -0.3720    -6.0080     1.3330 N.2   1 <1>  -0.3380 
 17 C        3.3640     5.8230     0.5610 C.3   1 <1>  -0.2400 
 18 C        5.0930     5.0410    -1.1080 C.3   1 <1>  -0.2400 
 19 H        2.8140    -0.2430     0.9230 H     1 <1>   0.3700 
 20 H        0.9990    -2.0610     1.2230 H     1 <1>   0.0800 
 21 H        2.2000    -2.6030     0.0700 H     1 <1>   0.0800 
 22 H        0.4040    -3.0590    -1.5840 H     1 <1>   0.0800 
 23 H       -0.7940    -2.5190    -0.4360 H     1 <1>   0.0800 
 24 H        1.1520     1.9450    -1.8280 H     1 <1>   0.1500 
 25 H        4.1190     2.0470     1.2020 H     1 <1>   0.1500 
 26 H        1.5300    -5.4290    -1.1060 H     1 <1>   0.1500 
 27 H       -1.3040    -4.1520     1.6100 H     1 <1>   0.1500 
 28 H        4.8870     4.3670     0.9080 H     1 <1>   0.0800 
 29 H        2.7010     6.1280    -0.2300 H     1 <1>   0.0800 
 30 H        3.9820     6.6590     0.8320 H     1 <1>   0.0800 
 31 H        2.7780     5.5380     1.4170 H     1 <1>   0.0800 
 32 H        4.4660     5.3300    -1.9330 H     1 <1>   0.0800 
 33 H        5.7090     4.2130    -1.4120 H     1 <1>   0.0800 
 34 H        5.7320     5.8680    -0.8560 H     1 <1>   0.0800 
@<TRIPOS>BOND
  1   1   2  2   
  2   2   3  am  
  3   2   4  1   
  4   3   5  1   
  5   3  19  1   
  6   4   6  1   
  7   4  20  1   
  8   4  21  1   
  9   5   7  1   
 10   5   8  2   
 11   6   9  1   
 12   6  22  1   
 13   6  23  1   
 14   7  10  2   
 15   7  24  1   
 16   8  11  1   
 17   8  25  1   
 18   9  12  1   
 19   9  13  1   
 20  10  11  1   
 21  11  14  1   
 22  12  15  2   
 23  12  26  1   
 24  13  16  2   
 25  13  27  1   
 26  14  17  1   
 27  14  18  1   
 28  14  28  1   
 29  15  16  1   
 30  17  29  1   
 31  17  30  1   
 32  17  31  1   
 33  18  32  1   
 34  18  33  1   
 35  18  34  1   
@<TRIPOS>SUBSTRUCTURE
  1 ****   3 GROUP 4 **** **** 0

# MOE 2024.06 (io_trps.svl 2023.06)
