@<TRIPOS>MOLECULE
NONAME
50 52 1 0 0 
SMALL
USER_CHARGES


@<TRIPOS>ATOM
  1 S       -0.0010     0.3150     0.3020 S.o2  1 <1>   1.3330 
  2 O       -0.1240    -0.9070     1.0650 O.2   1 <1>  -0.6500 
  3 O       -0.7020     1.5020     0.7370 O.2   1 <1>  -0.6500 
  4 N       -0.4650    -0.0230    -1.2960 N.am  1 <1>  -0.8490 
  5 C        1.7350     0.7250     0.1390 C.3   1 <1>  -0.0550 
  6 C       -1.8830     0.2570    -1.5340 C.3   1 <1>   0.1160 
  7 C       -0.1460    -1.3900    -1.7200 C.3   1 <1>   0.1160 
  8 C        2.3710     1.2210     1.4490 C.3   1 <1>  -0.0800 
  9 C        3.8540     1.5270     1.2920 C.3   1 <1>   0.2200 
 10 C        2.3550     0.2130     2.5930 C.3   1 <1>   0.1200 
 11 N        4.0520     2.9770     1.0930 N.am  1 <1>  -0.7300 
 12 C        4.4830     1.0210     2.5920 C.3   1 <1>   0.1200 
 13 O        3.4330     0.5720     3.3920 O.3   1 <1>  -0.5600 
 14 C        4.2010     3.5980    -0.1120 C.2   1 <1>   0.7150 
 15 O        4.1970     2.9070    -1.1150 O.2   1 <1>  -0.5700 
 16 C        4.3440     5.0390    -0.1600 C.2   1 <1>   0.0550 
 17 O        4.3170     5.7210     0.9990 O.3   1 <1>  -0.2800 
 18 C        4.5120     5.9160    -1.1890 C.2   1 <1>  -0.1810 
 19 C        4.4630     7.0150     0.7280 C.ar  1 <1>   0.1400 
 20 C        4.5920     7.2050    -0.6330 C.ar  1 <1>   0.0000 
 21 C        4.6070     5.6660    -2.6860 C.3   1 <1>  -0.0590 
 22 C        4.4920     8.0710     1.6280 C.ar  1 <1>  -0.1500 
 23 C        4.7570     8.5020    -1.1240 C.ar  1 <1>  -0.1500 
 24 C        4.6560     9.3530     1.1400 C.ar  1 <1>  -0.1440 
 25 C        4.7880     9.5590    -0.2380 C.ar  1 <1>  -0.1500 
 26 C        4.6950    10.5460     2.0780 C.3   1 <1>  -0.0970 
 27 H        2.2700    -0.1330    -0.2150 H     1 <1>   0.0800 
 28 H        1.8370     1.4990    -0.5990 H     1 <1>   0.0800 
 29 H       -2.1380     0.0490    -2.5590 H     1 <1>   0.0800 
 30 H       -2.0910     1.2970    -1.3420 H     1 <1>   0.0800 
 31 H       -2.4980    -0.3430    -0.8850 H     1 <1>   0.0800 
 32 H       -0.3800    -1.5160    -2.7640 H     1 <1>   0.0800 
 33 H       -0.7120    -2.1050    -1.1450 H     1 <1>   0.0800 
 34 H        0.9030    -1.5870    -1.5820 H     1 <1>   0.0800 
 35 H        1.8470     2.0980     1.7890 H     1 <1>   0.0800 
 36 H        4.2830     0.9820     0.4670 H     1 <1>   0.0800 
 37 H        2.5160    -0.7940     2.2450 H     1 <1>   0.0800 
 38 H        1.4500     0.2600     3.1750 H     1 <1>   0.0800 
 39 H        3.9550     3.5750     1.9170 H     1 <1>   0.3700 
 40 H        5.0170     1.7900     3.1220 H     1 <1>   0.0800 
 41 H        5.1310     0.1850     2.4010 H     1 <1>   0.0800 
 42 H        3.8180     6.1910    -3.1930 H     1 <1>   0.0800 
 43 H        4.5220     4.6200    -2.9160 H     1 <1>   0.0800 
 44 H        5.5530     6.0190    -3.0540 H     1 <1>   0.0800 
 45 H        4.3870     7.8680     2.6780 H     1 <1>   0.1500 
 46 H        4.8590     8.6600    -2.1820 H     1 <1>   0.1500 
 47 H        4.9150    10.5610    -0.6090 H     1 <1>   0.1500 
 48 H        5.6350    11.0590     1.9780 H     1 <1>   0.0800 
 49 H        4.5820    10.2340     3.1010 H     1 <1>   0.0800 
 50 H        3.8980    11.2270     1.8370 H     1 <1>   0.0800 
@<TRIPOS>BOND
  1   1   2  2   
  2   1   3  2   
  3   1   4  am  
  4   1   5  1   
  5   4   6  1   
  6   4   7  1   
  7   5   8  1   
  8   5  27  1   
  9   5  28  1   
 10   6  29  1   
 11   6  30  1   
 12   6  31  1   
 13   7  32  1   
 14   7  33  1   
 15   7  34  1   
 16   8   9  1   
 17   8  10  1   
 18   8  35  1   
 19   9  11  1   
 20   9  12  1   
 21   9  36  1   
 22  10  13  1   
 23  10  37  1   
 24  10  38  1   
 25  11  14  am  
 26  11  39  1   
 27  12  13  1   
 28  12  40  1   
 29  12  41  1   
 30  14  15  2   
 31  14  16  1   
 32  16  17  1   
 33  16  18  2   
 34  17  19  1   
 35  18  20  1   
 36  18  21  1   
 37  19  20  ar  
 38  19  22  ar  
 39  20  23  ar  
 40  21  42  1   
 41  21  43  1   
 42  21  44  1   
 43  22  24  ar  
 44  22  45  1   
 45  23  25  ar  
 46  23  46  1   
 47  24  25  ar  
 48  24  26  1   
 49  25  47  1   
 50  26  48  1   
 51  26  49  1   
 52  26  50  1   
@<TRIPOS>SUBSTRUCTURE
  1 ****  14 GROUP 4 **** **** 0

# MOE 2024.06 (io_trps.svl 2023.06)
