@<TRIPOS>MOLECULE
NONAME
43 45 1 0 0 
SMALL
USER_CHARGES


@<TRIPOS>ATOM
  1 O        0.9060     0.3100     1.6450 O.3   1 <1>  -0.6800 
  2 C        1.3170    -0.0950     0.3810 C.3   1 <1>   0.2000 
  3 C        2.1380    -1.3750     0.5410 C.3   1 <1>  -0.0800 
  4 C        2.3430     0.9190    -0.1220 C.3   1 <1>   0.3430 
  5 C        3.5670    -0.8780     0.8370 C.3   1 <1>   0.3430 
  6 C        2.0760    -2.2440    -0.7340 C.3   1 <1>  -0.0170 
  7 N        3.5630     0.6080     0.6740 N.4   1 <1>  -0.9590 
  8 C        2.8760    -3.5320    -0.5980 C.ar  1 <1>   0.1670 
  9 C        4.8460     1.1390     0.1450 C.3   1 <1>   0.3430 
 10 N        4.1920    -3.4160    -0.6830 N.ar  1 <1>  -0.6200 
 11 C        2.2210    -4.7480    -0.4030 C.ar  1 <1>   0.1600 
 12 C        4.8530     2.6670     0.1900 C.3   1 <1>  -0.1600 
 13 C        4.8020    -4.5870    -0.5720 C.ar  1 <1>   0.1600 
 14 N        2.8310    -5.9130    -0.2790 N.ar  1 <1>  -0.6200 
 15 C        6.2100     3.2240    -0.2640 C.3   1 <1>   0.0960 
 16 C        4.1430    -5.7950    -0.3750 C.ar  1 <1>   0.1600 
 17 N        6.1790     4.6980    -0.2460 N.pl3 1 <1>   0.0480 
 18 C        6.6140     5.5280     0.7290 C.2   1 <1>   0.0360 
 19 C        5.6880     5.5140    -1.1950 C.2   1 <1>  -0.3020 
 20 N        6.4330     6.7810     0.4710 N.2   1 <1>  -0.5650 
 21 C        5.8510     6.7770    -0.7420 C.2   1 <1>   0.0770 
 22 H        0.1320    -0.2080     1.9570 H     1 <1>   0.4000 
 23 H        0.4550    -0.1830    -0.2600 H     1 <1>   0.0800 
 24 H        1.7760    -1.9660     1.3650 H     1 <1>   0.0800 
 25 H        2.0020     1.9300     0.0350 H     1 <1>   0.0800 
 26 H        2.5330     0.7560    -1.1700 H     1 <1>   0.0800 
 27 H        4.2670    -1.3160     0.1480 H     1 <1>   0.0800 
 28 H        3.8580    -1.1450     1.8410 H     1 <1>   0.0800 
 29 H        2.4540    -1.7000    -1.5820 H     1 <1>   0.0800 
 30 H        1.0500    -2.4920    -0.9460 H     1 <1>   0.0800 
 31 H        3.3710     0.9960     1.6130 H     1 <1>   0.4500 
 32 H        5.6610     0.7650     0.7450 H     1 <1>   0.0800 
 33 H        4.9930     0.7990    -0.8690 H     1 <1>   0.0800 
 34 H        1.1470    -4.7640    -0.3470 H     1 <1>   0.1500 
 35 H        4.6630     2.9980     1.1970 H     1 <1>   0.0800 
 36 H        4.0890     3.0550    -0.4610 H     1 <1>   0.0800 
 37 H        5.8760    -4.5970    -0.6390 H     1 <1>   0.1500 
 38 H        6.4380     2.9050    -1.2660 H     1 <1>   0.0800 
 39 H        6.9970     2.8910     0.3900 H     1 <1>   0.0800 
 40 H        4.7250    -6.6970    -0.2940 H     1 <1>   0.1500 
 41 H        7.0670     5.1650     1.6350 H     1 <1>   0.1500 
 42 H        5.2610     5.1740    -2.1200 H     1 <1>   0.1500 
 43 H        5.5780     7.6970    -1.2320 H     1 <1>   0.1500 
@<TRIPOS>BOND
  1   1   2  1   
  2   1  22  1   
  3   2   3  1   
  4   2   4  1   
  5   2  23  1   
  6   3   5  1   
  7   3   6  1   
  8   3  24  1   
  9   4   7  1   
 10   4  25  1   
 11   4  26  1   
 12   5   7  1   
 13   5  27  1   
 14   5  28  1   
 15   6   8  1   
 16   6  29  1   
 17   6  30  1   
 18   7   9  1   
 19   7  31  1   
 20   8  10  ar  
 21   8  11  ar  
 22   9  12  1   
 23   9  32  1   
 24   9  33  1   
 25  10  13  ar  
 26  11  14  ar  
 27  11  34  1   
 28  12  15  1   
 29  12  35  1   
 30  12  36  1   
 31  13  16  ar  
 32  13  37  1   
 33  14  16  ar  
 34  15  17  1   
 35  15  38  1   
 36  15  39  1   
 37  16  40  1   
 38  17  18  1   
 39  17  19  1   
 40  18  20  2   
 41  18  41  1   
 42  19  21  2   
 43  19  42  1   
 44  20  21  1   
 45  21  43  1   
@<TRIPOS>SUBSTRUCTURE
  1 ****   7 GROUP 4 **** **** 0

# MOE 2024.06 (io_trps.svl 2023.06)
