@<TRIPOS>MOLECULE
NONAME
39 40 1 0 0 
SMALL
USER_CHARGES


@<TRIPOS>ATOM
  1 O        0.2090     0.0310     0.7190 O.2   1 <1>  -0.5700 
  2 C        1.3230    -0.3910     0.5260 C.2   1 <1>   0.5690 
  3 N        2.3570     0.3770     0.0610 N.am  1 <1>  -0.4940 
  4 C        1.6080    -1.8490     0.8150 C.3   1 <1>  -0.0990 
  5 C        2.3730     1.7630    -0.2500 C.2   1 <1>  -0.0880 
  6 C        0.4650    -2.7410     0.3380 C.3   1 <1>   0.1200 
  7 N        3.4010     2.4310    -0.8480 N.pl3 1 <1>   0.3140 
  8 C        1.4110     2.6870    -0.0170 C.2   1 <1>  -0.1500 
  9 O        0.8560    -4.0630     0.5210 O.3   1 <1>  -0.5600 
 10 N        3.1100     3.7520    -0.9880 N.2   1 <1>  -0.7070 
 11 C        4.6850     1.8260    -1.3220 C.3   1 <1>   0.2710 
 12 C        1.9240     3.8850    -0.4910 C.2   1 <1>   0.1080 
 13 C       -0.1240    -4.9900     0.1810 C.3   1 <1>   0.0400 
 14 C        5.6710     1.7090    -0.1340 C.3   1 <1>  -0.1950 
 15 C        5.2470     2.5750    -2.5460 C.3   1 <1>  -0.2400 
 16 C        1.2100     5.2160    -0.4480 C.3   1 <1>  -0.0590 
 17 C        6.4850     2.8600     0.3690 C.3   1 <1>  -0.2000 
 18 C        7.1640     1.6820    -0.2740 C.3   1 <1>  -0.2000 
 19 H        3.2420    -0.1170    -0.0350 H     1 <1>   0.3700 
 20 H        1.7290    -1.9690     1.8760 H     1 <1>   0.0800 
 21 H        2.5130    -2.1490     0.3210 H     1 <1>   0.0800 
 22 H        0.2660    -2.5800    -0.7090 H     1 <1>   0.0800 
 23 H       -0.4270    -2.5530     0.9120 H     1 <1>   0.0800 
 24 H        0.4490     2.5430     0.4390 H     1 <1>   0.1500 
 25 H        4.4550     0.8300    -1.6520 H     1 <1>   0.0800 
 26 H        0.2730    -5.9750     0.3510 H     1 <1>   0.0800 
 27 H       -0.3790    -4.8760    -0.8580 H     1 <1>   0.0800 
 28 H       -0.9900    -4.8370     0.8030 H     1 <1>   0.0800 
 29 H        5.2670     1.0650     0.6270 H     1 <1>   0.1000 
 30 H        5.5340     3.5770    -2.2830 H     1 <1>   0.0800 
 31 H        4.4980     2.6250    -3.3160 H     1 <1>   0.0800 
 32 H        6.1020     2.0600    -2.9430 H     1 <1>   0.0800 
 33 H        0.2380     5.1060    -0.0050 H     1 <1>   0.0800 
 34 H        1.1040     5.5970    -1.4470 H     1 <1>   0.0800 
 35 H        1.7870     5.9120     0.1320 H     1 <1>   0.0800 
 36 H        6.5730     2.9990     1.4330 H     1 <1>   0.1000 
 37 H        6.4500     3.7990    -0.1580 H     1 <1>   0.1000 
 38 H        7.6420     1.8460    -1.2240 H     1 <1>   0.1000 
 39 H        7.7310     1.0170     0.3540 H     1 <1>   0.1000 
@<TRIPOS>BOND
  1   1   2  2   
  2   2   3  am  
  3   2   4  1   
  4   3   5  1   
  5   3  19  1   
  6   4   6  1   
  7   4  20  1   
  8   4  21  1   
  9   5   7  1   
 10   5   8  2   
 11   6   9  1   
 12   6  22  1   
 13   6  23  1   
 14   7  10  1   
 15   7  11  1   
 16   8  12  1   
 17   8  24  1   
 18   9  13  1   
 19  10  12  2   
 20  11  14  1   
 21  11  15  1   
 22  11  25  1   
 23  12  16  1   
 24  13  26  1   
 25  13  27  1   
 26  13  28  1   
 27  14  17  1   
 28  14  18  1   
 29  14  29  1   
 30  15  30  1   
 31  15  31  1   
 32  15  32  1   
 33  16  33  1   
 34  16  34  1   
 35  16  35  1   
 36  17  18  1   
 37  17  36  1   
 38  17  37  1   
 39  18  38  1   
 40  18  39  1   
@<TRIPOS>SUBSTRUCTURE
  1 ****   3 GROUP 4 **** **** 0

# MOE 2024.06 (io_trps.svl 2023.06)
