@<TRIPOS>MOLECULE
NONAME
54 57 1 0 0 
SMALL
USER_CHARGES


@<TRIPOS>ATOM
  1 CL       1.7300    -0.7930    -1.6000 Cl    1 <1>  -0.1770 
  2 C        0.9140    -2.3000    -1.2850 C.ar  1 <1>   0.1770 
  3 C        0.7830    -2.7460     0.0080 C.ar  1 <1>  -0.1500 
  4 C        0.4080    -3.0280    -2.3510 C.ar  1 <1>  -0.1500 
  5 C        0.1300    -3.9500     0.2600 C.ar  1 <1>   0.1000 
  6 C       -0.2410    -4.2200    -2.1050 C.ar  1 <1>  -0.1500 
  7 N       -0.0060    -4.4200     1.5590 N.pl3 1 <1>  -0.6000 
  8 C       -0.3970    -4.7080    -0.8000 C.ar  1 <1>   0.0860 
  9 C       -0.6240    -5.6030     1.8340 C.2   1 <1>  -0.0500 
 10 C       -1.0810    -5.9460    -0.5080 C.2   1 <1>   0.4690 
 11 C       -1.1760    -6.3780     0.8510 C.2   1 <1>   0.0290 
 12 O       -1.5880    -6.5870    -1.4200 O.2   1 <1>  -0.5700 
 13 C       -1.8200    -7.6200     1.1720 C.2   1 <1>   0.6160 
 14 O       -1.1440    -8.4900     1.6950 O.2   1 <1>  -0.5700 
 15 N       -3.1750    -7.8570     0.9970 N.am  1 <1>  -0.6600 
 16 C       -4.1130    -6.8180     0.4770 C.3   1 <1>   0.2200 
 17 C       -3.7040    -9.2320     1.2580 C.3   1 <1>   0.0600 
 18 C       -5.2190    -6.4540     1.4630 C.3   1 <1>  -0.1600 
 19 C       -4.8520    -7.2330    -0.7940 C.3   1 <1>  -0.1600 
 20 C       -6.3030    -5.8060     0.5890 C.3   1 <1>  -0.0800 
 21 C       -6.0620    -6.2900    -0.8470 C.3   1 <1>  -0.0800 
 22 C       -7.7500    -6.1830     0.9440 C.3   1 <1>  -0.1600 
 23 C       -7.3730    -6.9280    -1.3310 C.3   1 <1>  -0.1600 
 24 C       -8.4740    -6.4640    -0.3770 C.3   1 <1>   0.4230 
 25 N       -9.2050    -5.2740    -0.9270 N.4   1 <1>  -0.9590 
 26 C       -8.3890    -4.0260    -1.0740 C.3   1 <1>   0.2630 
 27 C      -10.4400    -4.9920    -0.1310 C.3   1 <1>   0.2630 
 28 H        1.1860    -2.1640     0.8160 H     1 <1>   0.1500 
 29 H        0.5270    -2.6540    -3.3530 H     1 <1>   0.1500 
 30 H       -0.6360    -4.7930    -2.9270 H     1 <1>   0.1500 
 31 H        0.4070    -3.8660     2.3210 H     1 <1>   0.4000 
 32 H       -0.6640    -5.9240     2.8640 H     1 <1>   0.1500 
 33 H       -3.5810    -5.9110     0.2560 H     1 <1>   0.0800 
 34 H       -4.7780    -9.2490     1.2760 H     1 <1>   0.0800 
 35 H       -3.3410    -9.5890     2.2060 H     1 <1>   0.0800 
 36 H       -3.3570    -9.8970     0.4860 H     1 <1>   0.0800 
 37 H       -5.5930    -7.3370     1.9450 H     1 <1>   0.0800 
 38 H       -4.8570    -5.7720     2.2120 H     1 <1>   0.0800 
 39 H       -4.2240    -7.1200    -1.6600 H     1 <1>   0.0800 
 40 H       -5.1710    -8.2560    -0.7250 H     1 <1>   0.0800 
 41 H       -6.1800    -4.7370     0.6180 H     1 <1>   0.0800 
 42 H       -5.8100    -5.4420    -1.4620 H     1 <1>   0.0800 
 43 H       -8.2270    -5.4310     1.5450 H     1 <1>   0.0800 
 44 H       -7.7520    -7.1010     1.5050 H     1 <1>   0.0800 
 45 H       -7.3050    -7.9980    -1.2430 H     1 <1>   0.0800 
 46 H       -7.5810    -6.6950    -2.3600 H     1 <1>   0.0800 
 47 H       -9.1810    -7.2670    -0.2370 H     1 <1>   0.0800 
 48 H       -9.5110    -5.5470    -1.8720 H     1 <1>   0.4500 
 49 H       -8.0330    -3.6950    -0.1120 H     1 <1>   0.0800 
 50 H       -8.9840    -3.2400    -1.5100 H     1 <1>   0.0800 
 51 H       -7.5410    -4.2050    -1.7140 H     1 <1>   0.0800 
 52 H      -10.1820    -4.6870     0.8700 H     1 <1>   0.0800 
 53 H      -11.0580    -5.8740    -0.0730 H     1 <1>   0.0800 
 54 H      -11.0110    -4.2040    -0.5930 H     1 <1>   0.0800 
@<TRIPOS>BOND
  1   1   2  1   
  2   2   3  ar  
  3   2   4  ar  
  4   3   5  ar  
  5   3  28  1   
  6   4   6  ar  
  7   4  29  1   
  8   5   7  1   
  9   5   8  ar  
 10   6   8  ar  
 11   6  30  1   
 12   7   9  1   
 13   7  31  1   
 14   8  10  1   
 15   9  11  2   
 16   9  32  1   
 17  10  11  1   
 18  10  12  2   
 19  11  13  1   
 20  13  14  2   
 21  13  15  am  
 22  15  16  1   
 23  15  17  1   
 24  16  18  1   
 25  16  19  1   
 26  16  33  1   
 27  17  34  1   
 28  17  35  1   
 29  17  36  1   
 30  18  20  1   
 31  18  37  1   
 32  18  38  1   
 33  19  21  1   
 34  19  39  1   
 35  19  40  1   
 36  20  21  1   
 37  20  22  1   
 38  20  41  1   
 39  21  23  1   
 40  21  42  1   
 41  22  24  1   
 42  22  43  1   
 43  22  44  1   
 44  23  24  1   
 45  23  45  1   
 46  23  46  1   
 47  24  25  1   
 48  24  47  1   
 49  25  26  1   
 50  25  27  1   
 51  25  48  1   
 52  26  49  1   
 53  26  50  1   
 54  26  51  1   
 55  27  52  1   
 56  27  53  1   
 57  27  54  1   
@<TRIPOS>SUBSTRUCTURE
  1 ****  16 GROUP 4 **** **** 0

# MOE 2024.06 (io_trps.svl 2023.06)
