@<TRIPOS>MOLECULE
NONAME
46 48 1 0 0 
SMALL
USER_CHARGES


@<TRIPOS>ATOM
  1 CL       2.9340     0.8450    -1.6190 Cl    1 <1>  -0.1770 
  2 C        1.5040     1.7020    -1.0860 C.ar  1 <1>   0.1770 
  3 C        1.4400     2.3130     0.1640 C.ar  1 <1>  -0.1440 
  4 C        0.4400     1.7480    -1.9680 C.ar  1 <1>  -0.1500 
  5 C        0.2700     2.9830     0.5010 C.ar  1 <1>  -0.1500 
  6 C        2.5850     2.2800     1.1780 C.3   1 <1>   0.3640 
  7 C       -0.7180     2.4170    -1.6130 C.ar  1 <1>  -0.1500 
  8 C       -0.7990     3.0340    -0.3780 C.ar  1 <1>  -0.1500 
  9 N        2.8420     0.8660     1.5460 N.am  1 <1>  -0.7300 
 10 C        3.8580     3.0330     0.6900 C.3   1 <1>   0.2610 
 11 C        4.0680     0.2990     1.5280 C.2   1 <1>   0.5690 
 12 O        5.0430     2.5240     1.2950 O.3   1 <1>  -0.5600 
 13 C        3.7260     4.5350     0.9750 C.2   1 <1>   0.5690 
 14 O        4.2180    -0.8550     1.8380 O.2   1 <1>  -0.5700 
 15 C        5.2630     1.1450     1.0890 C.3   1 <1>   0.1810 
 16 O        2.6900     5.1090     0.7340 O.2   1 <1>  -0.5700 
 17 N        4.7840     5.2030     1.4990 N.am  1 <1>  -0.7300 
 18 C        4.8530     6.6540     1.7500 C.3   1 <1>   0.3200 
 19 C        6.1950     7.1750     1.2840 C.2   1 <1>  -0.0400 
 20 O        7.2870     6.7930     1.8900 O.3   1 <1>  -0.0190 
 21 C        6.5430     8.0150     0.2970 C.2   1 <1>  -0.1500 
 22 N        8.3480     7.3310     1.3620 N.2   1 <1>  -0.4100 
 23 C        7.9310     8.0730     0.3980 C.2   1 <1>   0.1080 
 24 C        8.8360     8.8950    -0.5010 C.3   1 <1>   0.0210 
 25 C        9.0470     8.2020    -1.8540 C.3   1 <1>  -0.1600 
 26 C        9.9630     9.0200    -2.7710 C.3   1 <1>  -0.2400 
 27 H        0.5200     1.2650    -2.9250 H     1 <1>   0.1500 
 28 H        0.1810     3.4810     1.4520 H     1 <1>   0.1500 
 29 H        2.2540     2.7760     2.0740 H     1 <1>   0.0800 
 30 H       -1.5500     2.4580    -2.2950 H     1 <1>   0.1500 
 31 H       -1.6960     3.5610    -0.1000 H     1 <1>   0.1500 
 32 H        2.0400     0.2830     1.7870 H     1 <1>   0.3700 
 33 H        3.9680     2.9210    -0.3710 H     1 <1>   0.0800 
 34 H        5.4610     0.9800     0.0460 H     1 <1>   0.0800 
 35 H        6.1290     0.8620     1.6590 H     1 <1>   0.0800 
 36 H        5.6420     4.6750     1.6940 H     1 <1>   0.3700 
 37 H        4.0620     7.1580     1.2210 H     1 <1>   0.0800 
 38 H        4.7370     6.8420     2.8040 H     1 <1>   0.0800 
 39 H        5.9310     8.5310    -0.4190 H     1 <1>   0.1500 
 40 H        8.3970     9.8650    -0.6480 H     1 <1>   0.0800 
 41 H        9.7840     9.0280    -0.0100 H     1 <1>   0.0800 
 42 H        9.4830     7.2320    -1.6870 H     1 <1>   0.0800 
 43 H        8.0960     8.0590    -2.3360 H     1 <1>   0.0800 
 44 H       10.9300     9.1520    -2.3160 H     1 <1>   0.0800 
 45 H        9.5360     9.9880    -2.9680 H     1 <1>   0.0800 
 46 H       10.0960     8.5080    -3.7080 H     1 <1>   0.0800 
@<TRIPOS>BOND
  1   1   2  1   
  2   2   3  ar  
  3   2   4  ar  
  4   3   5  ar  
  5   3   6  1   
  6   4   7  ar  
  7   4  27  1   
  8   5   8  ar  
  9   5  28  1   
 10   6   9  1   
 11   6  10  1   
 12   6  29  1   
 13   7   8  ar  
 14   7  30  1   
 15   8  31  1   
 16   9  11  am  
 17   9  32  1   
 18  10  12  1   
 19  10  13  1   
 20  10  33  1   
 21  11  14  2   
 22  11  15  1   
 23  12  15  1   
 24  13  16  2   
 25  13  17  am  
 26  15  34  1   
 27  15  35  1   
 28  17  18  1   
 29  17  36  1   
 30  18  19  1   
 31  18  37  1   
 32  18  38  1   
 33  19  20  1   
 34  19  21  2   
 35  20  22  1   
 36  21  23  1   
 37  21  39  1   
 38  22  23  2   
 39  23  24  1   
 40  24  25  1   
 41  24  40  1   
 42  24  41  1   
 43  25  26  1   
 44  25  42  1   
 45  25  43  1   
 46  26  44  1   
 47  26  45  1   
 48  26  46  1   
@<TRIPOS>SUBSTRUCTURE
  1 ****  13 GROUP 4 **** **** 0

# MOE 2024.06 (io_trps.svl 2023.06)
