@<TRIPOS>MOLECULE
NONAME
44 46 1 0 0 
SMALL
USER_CHARGES


@<TRIPOS>ATOM
  1 O       -0.1470    -0.6770    -0.7290 O.2   1 <1>  -0.5700 
  2 C        0.5240    -1.6280    -0.4100 C.2   1 <1>   0.5690 
  3 N        0.0460    -2.9090    -0.3610 N.am  1 <1>  -0.6600 
  4 C        1.9770    -1.4110    -0.0380 C.3   1 <1>  -0.0990 
  5 C        0.9360    -4.0270     0.0390 C.3   1 <1>   0.1400 
  6 C       -1.3720    -3.2480    -0.6540 C.3   1 <1>   0.0600 
  7 C        2.8740    -2.4630    -0.7190 C.3   1 <1>  -0.0800 
  8 C        2.2950    -3.8930    -0.6760 C.3   1 <1>  -0.0800 
  9 C        4.2790    -2.5520    -0.1110 C.3   1 <1>  -0.1600 
 10 C        3.3890    -4.7660    -0.0490 C.3   1 <1>  -0.1600 
 11 C        4.6940    -4.0130    -0.3050 C.3   1 <1>   0.2200 
 12 N        5.8030    -4.4830     0.5860 N.am  1 <1>  -0.6600 
 13 C        6.4420    -3.6930     1.5200 C.2   1 <1>   0.7030 
 14 C        5.9620    -5.9660     0.6890 C.3   1 <1>   0.0600 
 15 O        6.4300    -4.0550     2.6810 O.2   1 <1>  -0.5700 
 16 C        7.1490    -2.4610     1.1910 C.2   1 <1>   0.2770 
 17 N        7.7730    -2.0720    -0.0030 N.pl3 1 <1>  -0.7640 
 18 C        7.3620    -1.4410     2.0610 C.2   1 <1>   0.2000 
 19 C        8.3120    -0.8740     0.1890 C.cat 1 <1>   0.6500 
 20 C        7.8800    -2.9060    -1.2330 C.3   1 <1>   0.2740 
 21 N        8.0760    -0.4630     1.4250 N.pl3 1 <1>  -0.7000 
 22 H        2.2770    -0.4210    -0.3300 H     1 <1>   0.0800 
 23 H        2.0480    -1.4830     1.0310 H     1 <1>   0.0800 
 24 H        1.0680    -3.9890     1.1070 H     1 <1>   0.0800 
 25 H        0.4840    -4.9710    -0.2130 H     1 <1>   0.0800 
 26 H       -1.8220    -3.7080     0.2070 H     1 <1>   0.0800 
 27 H       -1.4190    -3.9250    -1.4880 H     1 <1>   0.0800 
 28 H       -1.9290    -2.3600    -0.9010 H     1 <1>   0.0800 
 29 H        2.9650    -2.1890    -1.7580 H     1 <1>   0.0800 
 30 H        2.1530    -4.2170    -1.6940 H     1 <1>   0.0800 
 31 H        4.2160    -2.3270     0.9390 H     1 <1>   0.0800 
 32 H        4.9480    -1.8660    -0.5980 H     1 <1>   0.0800 
 33 H        3.3950    -5.7480    -0.4880 H     1 <1>   0.0800 
 34 H        3.2290    -4.8440     1.0130 H     1 <1>   0.0800 
 35 H        4.9790    -4.1640    -1.3330 H     1 <1>   0.0800 
 36 H        5.9360    -6.4150    -0.2890 H     1 <1>   0.0800 
 37 H        5.1730    -6.3800     1.2940 H     1 <1>   0.0800 
 38 H        6.9030    -6.2080     1.1550 H     1 <1>   0.0800 
 39 H        7.0440    -1.3810     3.0920 H     1 <1>   0.1500 
 40 H        8.8730    -0.3160    -0.5490 H     1 <1>   0.1500 
 41 H        8.1320    -3.9200    -0.9700 H     1 <1>   0.0800 
 42 H        8.6460    -2.5210    -1.8840 H     1 <1>   0.0800 
 43 H        6.9430    -2.9050    -1.7630 H     1 <1>   0.0800 
 44 H        8.3880     0.4210     1.8430 H     1 <1>   0.4500 
@<TRIPOS>BOND
  1   1   2  2   
  2   2   3  am  
  3   2   4  1   
  4   3   5  1   
  5   3   6  1   
  6   4   7  1   
  7   4  22  1   
  8   4  23  1   
  9   5   8  1   
 10   5  24  1   
 11   5  25  1   
 12   6  26  1   
 13   6  27  1   
 14   6  28  1   
 15   7   8  1   
 16   7   9  1   
 17   7  29  1   
 18   8  10  1   
 19   8  30  1   
 20   9  11  1   
 21   9  31  1   
 22   9  32  1   
 23  10  11  1   
 24  10  33  1   
 25  10  34  1   
 26  11  12  1   
 27  11  35  1   
 28  12  13  am  
 29  12  14  1   
 30  13  15  2   
 31  13  16  1   
 32  14  36  1   
 33  14  37  1   
 34  14  38  1   
 35  16  17  1   
 36  16  18  2   
 37  17  19  ar  
 38  17  20  1   
 39  18  21  1   
 40  18  39  1   
 41  19  21  ar  
 42  19  40  1   
 43  20  41  1   
 44  20  42  1   
 45  20  43  1   
 46  21  44  1   
@<TRIPOS>SUBSTRUCTURE
  1 ****   9 GROUP 4 **** **** 0

# MOE 2024.06 (io_trps.svl 2023.06)
