@<TRIPOS>MOLECULE
NONAME
58 61 1 0 0 
SMALL
USER_CHARGES


@<TRIPOS>ATOM
  1 O       -1.5650     1.9510    -2.4110 O.2   1 <1>  -0.5700 
  2 C       -2.2320     1.9040    -1.3970 C.2   1 <1>   0.5690 
  3 N       -3.3320     1.0740    -1.3130 N.am  1 <1>  -0.6600 
  4 C       -1.7870     2.8280    -0.2350 C.3   1 <1>   0.2610 
  5 C       -4.3450     1.0430    -0.2180 C.3   1 <1>   0.1400 
  6 C       -3.6510     0.1150    -2.4100 C.3   1 <1>   0.1400 
  7 O       -1.3690     4.0570    -0.7460 O.3   1 <1>  -0.6800 
  8 C       -0.6410     2.2520     0.6360 C.3   1 <1>  -0.0800 
  9 C       -4.4160    -0.3620     0.3870 C.3   1 <1>  -0.1600 
 10 C       -3.6810    -1.3060    -1.8440 C.3   1 <1>  -0.1600 
 11 C        0.6830     2.0380    -0.1320 C.3   1 <1>  -0.1600 
 12 C       -1.0580     0.9400     1.3280 C.3   1 <1>  -0.1600 
 13 C       -4.6750    -1.4460    -0.6780 C.3   1 <1>   0.4240 
 14 C        1.7900     1.5080     0.7900 C.3   1 <1>  -0.1600 
 15 C        0.0450     0.4100     2.2530 C.3   1 <1>  -0.1600 
 16 O       -5.9230    -1.1410    -1.2630 O.3   1 <1>  -0.5600 
 17 C       -4.6500    -2.8820    -0.0800 C.ar  1 <1>  -0.1430 
 18 C        1.3590     0.2120     1.4870 C.3   1 <1>  -0.1600 
 19 C       -7.0720    -1.6090    -0.6350 C.3   1 <1>   0.1200 
 20 C       -3.5000    -3.4250     0.5110 C.ar  1 <1>   0.0830 
 21 C       -5.8000    -3.6710    -0.1230 C.ar  1 <1>  -0.1430 
 22 C       -7.0770    -3.1270    -0.7280 C.3   1 <1>  -0.0170 
 23 O       -2.3730    -2.6680     0.5800 O.3   1 <1>  -0.3620 
 24 C       -3.5200    -4.7200     1.0240 C.ar  1 <1>  -0.1500 
 25 C       -5.8060    -4.9580     0.3860 C.ar  1 <1>  -0.1500 
 26 C       -1.1240    -3.1920     0.9750 C.3   1 <1>   0.0400 
 27 C       -4.6670    -5.4840     0.9590 C.ar  1 <1>  -0.1500 
 28 H       -2.6190     3.0520     0.3990 H     1 <1>   0.0800 
 29 H       -4.1190     1.7480     0.5570 H     1 <1>   0.0800 
 30 H       -5.3050     1.3060    -0.6300 H     1 <1>   0.0800 
 31 H       -4.6080     0.3670    -2.8340 H     1 <1>   0.0800 
 32 H       -2.9170     0.1680    -3.1960 H     1 <1>   0.0800 
 33 H       -0.9570     3.8740    -1.6190 H     1 <1>   0.4000 
 34 H       -0.4560     2.9750     1.4120 H     1 <1>   0.0800 
 35 H       -5.1810    -0.3990     1.1390 H     1 <1>   0.0800 
 36 H       -3.4910    -0.5520     0.8880 H     1 <1>   0.0800 
 37 H       -2.6850    -1.5500    -1.5340 H     1 <1>   0.0800 
 38 H       -3.9510    -2.0000    -2.6170 H     1 <1>   0.0800 
 39 H        0.5320     1.3350    -0.9330 H     1 <1>   0.0800 
 40 H        1.0110     2.9660    -0.5670 H     1 <1>   0.0800 
 41 H       -1.9510     1.1010     1.9060 H     1 <1>   0.0800 
 42 H       -1.2700     0.1910     0.5830 H     1 <1>   0.0800 
 43 H        2.6810     1.3280     0.2140 H     1 <1>   0.0800 
 44 H        2.0220     2.2530     1.5320 H     1 <1>   0.0800 
 45 H        0.2030     1.1080     3.0570 H     1 <1>   0.0800 
 46 H       -0.2660    -0.5260     2.6850 H     1 <1>   0.0800 
 47 H        2.1300    -0.1060     2.1670 H     1 <1>   0.0800 
 48 H        1.2300    -0.5590     0.7470 H     1 <1>   0.0800 
 49 H       -7.0800    -1.2810     0.3890 H     1 <1>   0.0800 
 50 H       -7.9220    -1.1960    -1.1490 H     1 <1>   0.0800 
 51 H       -7.9330    -3.5090    -0.2020 H     1 <1>   0.0800 
 52 H       -7.1490    -3.4250    -1.7580 H     1 <1>   0.0800 
 53 H       -2.6540    -5.1560     1.4820 H     1 <1>   0.1500 
 54 H       -6.6980    -5.5570     0.3400 H     1 <1>   0.1500 
 55 H       -0.3850    -2.4220     0.8490 H     1 <1>   0.0800 
 56 H       -0.8840    -4.0330     0.3480 H     1 <1>   0.0800 
 57 H       -1.1770    -3.4810     2.0090 H     1 <1>   0.0800 
 58 H       -4.6750    -6.4850     1.3550 H     1 <1>   0.1500 
@<TRIPOS>BOND
  1   1   2  2   
  2   2   3  am  
  3   2   4  1   
  4   3   5  1   
  5   3   6  1   
  6   4   7  1   
  7   4   8  1   
  8   4  28  1   
  9   5   9  1   
 10   5  29  1   
 11   5  30  1   
 12   6  10  1   
 13   6  31  1   
 14   6  32  1   
 15   7  33  1   
 16   8  11  1   
 17   8  12  1   
 18   8  34  1   
 19   9  13  1   
 20   9  35  1   
 21   9  36  1   
 22  10  13  1   
 23  10  37  1   
 24  10  38  1   
 25  11  14  1   
 26  11  39  1   
 27  11  40  1   
 28  12  15  1   
 29  12  41  1   
 30  12  42  1   
 31  13  16  1   
 32  13  17  1   
 33  14  18  1   
 34  14  43  1   
 35  14  44  1   
 36  15  18  1   
 37  15  45  1   
 38  15  46  1   
 39  16  19  1   
 40  17  20  ar  
 41  17  21  ar  
 42  18  47  1   
 43  18  48  1   
 44  19  22  1   
 45  19  49  1   
 46  19  50  1   
 47  20  23  1   
 48  20  24  ar  
 49  21  22  1   
 50  21  25  ar  
 51  22  51  1   
 52  22  52  1   
 53  23  26  1   
 54  24  27  ar  
 55  24  53  1   
 56  25  27  ar  
 57  25  54  1   
 58  26  55  1   
 59  26  56  1   
 60  26  57  1   
 61  27  58  1   
@<TRIPOS>SUBSTRUCTURE
  1 ****   9 GROUP 4 **** **** 0

# MOE 2024.06 (io_trps.svl 2023.06)
