@<TRIPOS>MOLECULE
NONAME
60 64 1 0 0 
SMALL
USER_CHARGES


@<TRIPOS>ATOM
  1 O        0.6230    -0.2790     3.5520 O.3   1 <1>  -0.6800 
  2 C        0.9930    -0.7150     2.2870 C.3   1 <1>   0.2000 
  3 C        1.5390    -2.1380     2.4400 C.3   1 <1>  -0.0800 
  4 C        2.1890     0.1430     1.8450 C.3   1 <1>   0.3430 
  5 C        2.9900    -1.8620     2.8600 C.3   1 <1>   0.3430 
  6 C        1.4050    -3.0170     1.1630 C.3   1 <1>  -0.0160 
  7 N        3.4150    -0.7020     2.0270 N.4   1 <1>  -0.9590 
  8 C        2.4750    -2.7210     0.1130 C.ar  1 <1>  -0.1430 
  9 C        4.6040     0.0530     2.5020 C.3   1 <1>   0.4860 
 10 C        2.3720    -1.6590    -0.8180 C.ar  1 <1>   0.0000 
 11 C        3.6280    -3.4520     0.1140 C.ar  1 <1>  -0.1500 
 12 C        4.9130     1.1230     1.4810 C.ar  1 <1>  -0.1430 
 13 C        3.5420    -1.3060    -1.5330 C.ar  1 <1>   0.3100 
 14 C        1.1970    -0.9110    -1.0630 C.ar  1 <1>  -0.1500 
 15 C        4.7000    -3.0730    -0.7000 C.ar  1 <1>   0.1600 
 16 C        4.5270     2.4290     1.6700 C.ar  1 <1>   0.1600 
 17 C        5.5660     0.8350     0.3050 C.ar  1 <1>   0.1600 
 18 N        4.6910    -2.0190    -1.4490 N.ar  1 <1>  -0.6200 
 19 C        3.5240    -0.1590    -2.3410 C.ar  1 <1>  -0.1500 
 20 C        1.2070     0.1900    -1.8750 C.ar  1 <1>  -0.1500 
 21 N        4.7180     3.3500     0.7630 N.ar  1 <1>  -0.6200 
 22 N        5.7760     1.7430    -0.6100 N.ar  1 <1>  -0.6200 
 23 C        2.3880     0.5850    -2.5060 C.ar  1 <1>  -0.1500 
 24 C        5.3280     2.9720    -0.3610 C.ar  1 <1>   0.7200 
 25 N        5.4960     3.9220    -1.3460 N.pl3 1 <1>  -0.8380 
 26 C        4.7330     5.2010    -1.3780 C.3   1 <1>   0.2090 
 27 C        6.3110     3.6840    -2.5710 C.3   1 <1>   0.2090 
 28 C        3.7910     5.1940    -2.5870 C.3   1 <1>  -0.1600 
 29 C        5.3850     3.6470    -3.7900 C.3   1 <1>  -0.1600 
 30 C        4.5430     4.9280    -3.9000 C.3   1 <1>  -0.1600 
 31 H       -0.2590    -0.6220     3.8090 H     1 <1>   0.4000 
 32 H        0.1430    -0.6230     1.6330 H     1 <1>   0.0800 
 33 H        1.0210    -2.6490     3.2340 H     1 <1>   0.0800 
 34 H        2.2310     1.0310     2.4540 H     1 <1>   0.0800 
 35 H        2.0950     0.4330     0.8110 H     1 <1>   0.0800 
 36 H        3.6230    -2.7200     2.7080 H     1 <1>   0.0800 
 37 H        3.0050    -1.5830     3.9020 H     1 <1>   0.0800 
 38 H        0.4170    -2.9350     0.7460 H     1 <1>   0.0800 
 39 H        1.5090    -4.0470     1.4600 H     1 <1>   0.0800 
 40 H        3.6390    -1.0770     1.0880 H     1 <1>   0.4500 
 41 H        4.4010     0.5020     3.4600 H     1 <1>   0.0800 
 42 H        5.4500    -0.6080     2.6020 H     1 <1>   0.0800 
 43 H        3.7600    -4.3140     0.7450 H     1 <1>   0.1500 
 44 H        0.2690    -1.2110    -0.6150 H     1 <1>   0.1500 
 45 H        5.5930    -3.6790    -0.6850 H     1 <1>   0.1500 
 46 H        4.0360     2.7340     2.5800 H     1 <1>   0.1500 
 47 H        5.9180    -0.1610     0.0930 H     1 <1>   0.1500 
 48 H        4.4400     0.1220    -2.8290 H     1 <1>   0.1500 
 49 H        0.3110     0.7640    -2.0490 H     1 <1>   0.1500 
 50 H        2.3920     1.4650    -3.1280 H     1 <1>   0.1500 
 51 H        4.1600     5.3460    -0.4790 H     1 <1>   0.0800 
 52 H        5.4280     6.0190    -1.4590 H     1 <1>   0.0800 
 53 H        7.0200     4.4870    -2.6770 H     1 <1>   0.0800 
 54 H        6.8690     2.7670    -2.5080 H     1 <1>   0.0800 
 55 H        3.0490     4.4300    -2.4340 H     1 <1>   0.0800 
 56 H        3.2830     6.1390    -2.6450 H     1 <1>   0.0800 
 57 H        5.9750     3.5230    -4.6800 H     1 <1>   0.0800 
 58 H        4.7390     2.7920    -3.7010 H     1 <1>   0.0800 
 59 H        5.1910     5.7610    -4.1130 H     1 <1>   0.0800 
 60 H        3.8420     4.8350    -4.7110 H     1 <1>   0.0800 
@<TRIPOS>BOND
  1   1   2  1   
  2   1  31  1   
  3   2   3  1   
  4   2   4  1   
  5   2  32  1   
  6   3   5  1   
  7   3   6  1   
  8   3  33  1   
  9   4   7  1   
 10   4  34  1   
 11   4  35  1   
 12   5   7  1   
 13   5  36  1   
 14   5  37  1   
 15   6   8  1   
 16   6  38  1   
 17   6  39  1   
 18   7   9  1   
 19   7  40  1   
 20   8  10  ar  
 21   8  11  ar  
 22   9  12  1   
 23   9  41  1   
 24   9  42  1   
 25  10  13  ar  
 26  10  14  ar  
 27  11  15  ar  
 28  11  43  1   
 29  12  16  ar  
 30  12  17  ar  
 31  13  18  ar  
 32  13  19  ar  
 33  14  20  ar  
 34  14  44  1   
 35  15  18  ar  
 36  15  45  1   
 37  16  21  ar  
 38  16  46  1   
 39  17  22  ar  
 40  17  47  1   
 41  19  23  ar  
 42  19  48  1   
 43  20  23  ar  
 44  20  49  1   
 45  21  24  ar  
 46  22  24  ar  
 47  23  50  1   
 48  24  25  1   
 49  25  26  1   
 50  25  27  1   
 51  26  28  1   
 52  26  51  1   
 53  26  52  1   
 54  27  29  1   
 55  27  53  1   
 56  27  54  1   
 57  28  30  1   
 58  28  55  1   
 59  28  56  1   
 60  29  30  1   
 61  29  57  1   
 62  29  58  1   
 63  30  59  1   
 64  30  60  1   
@<TRIPOS>SUBSTRUCTURE
  1 ****  17 GROUP 4 **** **** 0

# MOE 2024.06 (io_trps.svl 2023.06)
