@<TRIPOS>MOLECULE
NONAME
53 55 1 0 0 
SMALL
USER_CHARGES


@<TRIPOS>ATOM
  1 O       -0.2750    -0.7080    -1.4440 O.2   1 <1>  -0.5700 
  2 C       -1.0140     0.2320    -1.2550 C.2   1 <1>   0.5690 
  3 N       -2.2600     0.0610    -0.7120 N.am  1 <1>  -0.6600 
  4 C       -0.5380     1.6190    -1.6770 C.3   1 <1>   0.1810 
  5 C       -3.2280     1.1340    -0.3910 C.3   1 <1>   0.1400 
  6 C       -2.7540    -1.2480    -0.2380 C.3   1 <1>   0.1400 
  7 O       -0.3370     2.4540    -0.5450 O.3   1 <1>  -0.3620 
  8 C       -4.1140     0.5470     0.7130 C.3   1 <1>  -0.0800 
  9 C       -4.0970    -0.9710     0.4490 C.3   1 <1>  -0.0800 
 10 C       -0.5340     3.7890    -0.6430 C.ar  1 <1>   0.0830 
 11 C       -5.5300     1.1820     0.8620 C.3   1 <1>   0.2800 
 12 C       -5.2970    -1.3940    -0.4120 C.3   1 <1>  -0.1600 
 13 C       -0.9490     4.4530     0.4970 C.ar  1 <1>  -0.1500 
 14 C       -0.3510     4.4990    -1.8220 C.ar  1 <1>  -0.1500 
 15 O       -5.9630     1.6840    -0.3520 O.3   1 <1>  -0.6800 
 16 C       -6.5490     0.1030     1.2750 C.3   1 <1>  -0.1600 
 17 C       -5.5600     2.3530     1.8700 C.3   1 <1>  -0.1600 
 18 C       -6.6340    -1.0800     0.2850 C.3   1 <1>  -0.1600 
 19 C       -1.2090     5.8140     0.4750 C.ar  1 <1>  -0.1440 
 20 C       -0.6050     5.8590    -1.8490 C.ar  1 <1>  -0.1500 
 21 C       -4.6370     3.5410     1.5420 C.3   1 <1>  -0.2400 
 22 C       -1.0380     6.5230    -0.7100 C.ar  1 <1>  -0.1430 
 23 C       -1.6780     6.4960     1.7520 C.3   1 <1>  -0.0970 
 24 C       -1.3110     8.0180    -0.7860 C.3   1 <1>  -0.0970 
 25 H       -1.2850     2.0600    -2.3110 H     1 <1>   0.0800 
 26 H        0.3930     1.5450    -2.2070 H     1 <1>   0.0800 
 27 H       -2.7370     2.0280    -0.0570 H     1 <1>   0.0800 
 28 H       -3.7920     1.3490    -1.2820 H     1 <1>   0.0800 
 29 H       -2.8560    -1.9280    -1.0660 H     1 <1>   0.0800 
 30 H       -2.0460    -1.6530     0.4650 H     1 <1>   0.0800 
 31 H       -3.5890     0.6910     1.6410 H     1 <1>   0.0800 
 32 H       -4.1360    -1.5150     1.3760 H     1 <1>   0.0800 
 33 H       -5.2570    -0.8580    -1.3460 H     1 <1>   0.0800 
 34 H       -5.2460    -2.4450    -0.6380 H     1 <1>   0.0800 
 35 H       -1.0690     3.8860     1.4020 H     1 <1>   0.1500 
 36 H       -0.0070     4.0120    -2.7140 H     1 <1>   0.1500 
 37 H       -6.8680     2.0270    -0.2530 H     1 <1>   0.4000 
 38 H       -6.2470    -0.2840     2.2330 H     1 <1>   0.0800 
 39 H       -7.5250     0.5350     1.4080 H     1 <1>   0.0800 
 40 H       -6.5690     2.7160     1.9500 H     1 <1>   0.0800 
 41 H       -5.2890     1.9770     2.8410 H     1 <1>   0.0800 
 42 H       -6.9760    -1.9500     0.8180 H     1 <1>   0.0800 
 43 H       -7.3660    -0.8590    -0.4730 H     1 <1>   0.0800 
 44 H       -0.4620     6.3990    -2.7680 H     1 <1>   0.1500 
 45 H       -4.8200     3.9070     0.5470 H     1 <1>   0.0800 
 46 H       -3.6040     3.2570     1.6220 H     1 <1>   0.0800 
 47 H       -4.8150     4.3440     2.2350 H     1 <1>   0.0800 
 48 H       -1.7510     5.7910     2.5610 H     1 <1>   0.0800 
 49 H       -2.6470     6.9360     1.6000 H     1 <1>   0.0800 
 50 H       -0.9820     7.2640     2.0360 H     1 <1>   0.0800 
 51 H       -1.1290     8.3950    -1.7770 H     1 <1>   0.0800 
 52 H       -0.6710     8.5450    -0.1020 H     1 <1>   0.0800 
 53 H       -2.3370     8.2180    -0.5340 H     1 <1>   0.0800 
@<TRIPOS>BOND
  1   1   2  2   
  2   2   3  am  
  3   2   4  1   
  4   3   5  1   
  5   3   6  1   
  6   4   7  1   
  7   4  25  1   
  8   4  26  1   
  9   5   8  1   
 10   5  27  1   
 11   5  28  1   
 12   6   9  1   
 13   6  29  1   
 14   6  30  1   
 15   7  10  1   
 16   8   9  1   
 17   8  11  1   
 18   8  31  1   
 19   9  12  1   
 20   9  32  1   
 21  10  13  ar  
 22  10  14  ar  
 23  11  15  1   
 24  11  16  1   
 25  11  17  1   
 26  12  18  1   
 27  12  33  1   
 28  12  34  1   
 29  13  19  ar  
 30  13  35  1   
 31  14  20  ar  
 32  14  36  1   
 33  15  37  1   
 34  16  18  1   
 35  16  38  1   
 36  16  39  1   
 37  17  21  1   
 38  17  40  1   
 39  17  41  1   
 40  18  42  1   
 41  18  43  1   
 42  19  22  ar  
 43  19  23  1   
 44  20  22  ar  
 45  20  44  1   
 46  21  45  1   
 47  21  46  1   
 48  21  47  1   
 49  22  24  1   
 50  23  48  1   
 51  23  49  1   
 52  23  50  1   
 53  24  51  1   
 54  24  52  1   
 55  24  53  1   
@<TRIPOS>SUBSTRUCTURE
  1 ****   5 GROUP 4 **** **** 0

# MOE 2024.06 (io_trps.svl 2023.06)
