@<TRIPOS>MOLECULE
NONAME
41 42 1 0 0 
SMALL
USER_CHARGES


@<TRIPOS>ATOM
  1 S       -0.0290     0.1890     0.2530 S.o2  1 <1>   1.3330 
  2 O       -0.5590     1.5090     0.5140 O.2   1 <1>  -0.6500 
  3 O        0.1480    -0.7410     1.3460 O.2   1 <1>  -0.6500 
  4 N       -1.0360    -0.5590    -0.8920 N.am  1 <1>  -0.8490 
  5 C        1.5040     0.3900    -0.6560 C.3   1 <1>  -0.0550 
  6 C       -0.8440    -2.0120    -0.9700 C.3   1 <1>   0.1160 
  7 C       -2.4520    -0.2580    -0.6640 C.3   1 <1>   0.1160 
  8 C        2.6240     1.0700     0.1530 C.3   1 <1>  -0.0800 
  9 C        3.7930     1.4640    -0.7540 C.3   1 <1>   0.2200 
 10 C        3.2800     0.0980     1.1370 C.3   1 <1>   0.1200 
 11 N        4.1190     2.9150    -0.6720 N.am  1 <1>  -0.7300 
 12 C        4.9420     0.5560    -0.3020 C.3   1 <1>   0.1200 
 13 O        4.3320    -0.4610     0.4260 O.3   1 <1>  -0.5600 
 14 C        4.4530     3.6480     0.4360 C.2   1 <1>   0.5440 
 15 O        4.5270     3.0750     1.5040 O.2   1 <1>  -0.5700 
 16 C        4.6930     5.0800     0.3690 C.ar  1 <1>   0.0860 
 17 C        5.0870     5.7560    -0.7890 C.ar  1 <1>   0.1900 
 18 C        4.5340     5.8720     1.5140 C.ar  1 <1>  -0.1500 
 19 F        5.2690     5.0990    -1.9060 F     1 <1>  -0.1900 
 20 C        5.2990     7.1260    -0.7940 C.ar  1 <1>   0.1900 
 21 C        4.7460     7.2420     1.5100 C.ar  1 <1>  -0.1500 
 22 F        5.6650     7.7300    -1.8950 F     1 <1>  -0.1900 
 23 C        5.1330     7.8860     0.3460 C.ar  1 <1>  -0.1500 
 24 H        1.8500    -0.5660    -0.9990 H     1 <1>   0.0800 
 25 H        1.2920     0.9900    -1.5190 H     1 <1>   0.0800 
 26 H       -1.4370    -2.4200    -1.7710 H     1 <1>   0.0800 
 27 H       -1.1350    -2.4810    -0.0440 H     1 <1>   0.0800 
 28 H        0.1900    -2.2420    -1.1620 H     1 <1>   0.0800 
 29 H       -3.0620    -0.7370    -1.4100 H     1 <1>   0.0800 
 30 H       -2.6180     0.8050    -0.7260 H     1 <1>   0.0800 
 31 H       -2.7540    -0.5970     0.3140 H     1 <1>   0.0800 
 32 H        2.2220     1.9180     0.6810 H     1 <1>   0.0800 
 33 H        3.5660     1.2290    -1.7800 H     1 <1>   0.0800 
 34 H        2.6310    -0.6860     1.4840 H     1 <1>   0.0800 
 35 H        3.6910     0.6260     1.9820 H     1 <1>   0.0800 
 36 H        4.1530     3.3950    -1.5760 H     1 <1>   0.3700 
 37 H        5.6230     1.0690     0.3550 H     1 <1>   0.0800 
 38 H        5.4710     0.1210    -1.1290 H     1 <1>   0.0800 
 39 H        4.2350     5.3940     2.4340 H     1 <1>   0.1500 
 40 H        4.6100     7.8090     2.4170 H     1 <1>   0.1500 
 41 H        5.3030     8.9480     0.3230 H     1 <1>   0.1500 
@<TRIPOS>BOND
  1   1   2  2   
  2   1   3  2   
  3   1   4  am  
  4   1   5  1   
  5   4   6  1   
  6   4   7  1   
  7   5   8  1   
  8   5  24  1   
  9   5  25  1   
 10   6  26  1   
 11   6  27  1   
 12   6  28  1   
 13   7  29  1   
 14   7  30  1   
 15   7  31  1   
 16   8   9  1   
 17   8  10  1   
 18   8  32  1   
 19   9  11  1   
 20   9  12  1   
 21   9  33  1   
 22  10  13  1   
 23  10  34  1   
 24  10  35  1   
 25  11  14  am  
 26  11  36  1   
 27  12  13  1   
 28  12  37  1   
 29  12  38  1   
 30  14  15  2   
 31  14  16  1   
 32  16  17  ar  
 33  16  18  ar  
 34  17  19  1   
 35  17  20  ar  
 36  18  21  ar  
 37  18  39  1   
 38  20  22  1   
 39  20  23  ar  
 40  21  23  ar  
 41  21  40  1   
 42  23  41  1   
@<TRIPOS>SUBSTRUCTURE
  1 ****  11 GROUP 4 **** **** 0

# MOE 2024.06 (io_trps.svl 2023.06)
