@<TRIPOS>MOLECULE
NONAME
47 49 1 0 0 
SMALL
USER_CHARGES


@<TRIPOS>ATOM
  1 O       -0.4020     0.1880    -0.2140 O.2   1 <1>  -0.5700 
  2 C       -1.5180     0.6550    -0.0900 C.2   1 <1>   0.5440 
  3 N       -1.6420     1.9650     0.3240 N.am  1 <1>  -0.6600 
  4 C       -2.6610    -0.1820    -0.3680 C.ar  1 <1>   0.0860 
  5 C       -2.8610     2.5500     0.9590 C.3   1 <1>   0.1400 
  6 C       -0.4660     2.8840     0.3760 C.3   1 <1>   0.1400 
  7 C       -2.7460    -1.4580     0.1800 C.ar  1 <1>   0.1600 
  8 C       -3.7090     0.2190    -1.1910 C.ar  1 <1>  -0.1500 
  9 C       -3.1180     3.9690     0.4230 C.3   1 <1>   0.1200 
 10 C       -0.8540     4.2890    -0.1150 C.3   1 <1>   0.1200 
 11 N       -3.7450    -2.3090     0.0180 N.ar  1 <1>  -0.6200 
 12 C       -4.7520    -0.6560    -1.3780 C.ar  1 <1>  -0.1500 
 13 O       -1.9780     4.7670     0.5720 O.3   1 <1>  -0.5600 
 14 C       -4.7420    -1.9030    -0.7590 C.ar  1 <1>   0.4100 
 15 N       -5.7920    -2.7570    -0.9530 N.pl3 1 <1>  -0.8690 
 16 C       -6.0510    -3.9370    -0.1140 C.3   1 <1>   0.4330 
 17 C       -7.5640    -4.0350     0.0690 C.ar  1 <1>  -0.1430 
 18 C       -5.4420    -5.1750    -0.7890 C.3   1 <1>  -0.1600 
 19 C       -8.4100    -4.2350    -1.0150 C.ar  1 <1>  -0.1500 
 20 C       -8.1140    -3.9150     1.3370 C.ar  1 <1>  -0.1500 
 21 C       -5.6780    -6.4720     0.0010 C.3   1 <1>  -0.2400 
 22 C       -9.7800    -4.3160    -0.8330 C.ar  1 <1>  -0.1500 
 23 C       -9.4840    -3.9960     1.5210 C.ar  1 <1>  -0.1500 
 24 C      -10.3180    -4.1960     0.4360 C.ar  1 <1>  -0.1500 
 25 H       -3.7250     1.9370     0.7840 H     1 <1>   0.0800 
 26 H       -2.7080     2.6050     2.0220 H     1 <1>   0.0800 
 27 H       -0.1080     2.9450     1.3890 H     1 <1>   0.0800 
 28 H        0.3340     2.5050    -0.2370 H     1 <1>   0.0800 
 29 H       -1.9260    -1.7870     0.7960 H     1 <1>   0.1500 
 30 H       -3.6900     1.1830    -1.6660 H     1 <1>   0.1500 
 31 H       -3.9160     4.4350     0.9730 H     1 <1>   0.0800 
 32 H       -3.3860     3.9410    -0.6190 H     1 <1>   0.0800 
 33 H       -1.0730     4.2720    -1.1680 H     1 <1>   0.0800 
 34 H       -0.0460     4.9780     0.0590 H     1 <1>   0.0800 
 35 H       -5.5820    -0.3940    -2.0060 H     1 <1>   0.1500 
 36 H       -6.6660    -2.3540    -1.2880 H     1 <1>   0.4000 
 37 H       -5.5870    -3.8040     0.8500 H     1 <1>   0.0800 
 38 H       -5.8470    -5.2830    -1.7780 H     1 <1>   0.0800 
 39 H       -4.3820    -5.0160    -0.8810 H     1 <1>   0.0800 
 40 H       -8.0050    -4.3300    -2.0070 H     1 <1>   0.1500 
 41 H       -7.4770    -3.7560     2.1900 H     1 <1>   0.1500 
 42 H       -6.7300    -6.6850     0.0760 H     1 <1>   0.0800 
 43 H       -5.2700    -6.3860     0.9930 H     1 <1>   0.0800 
 44 H       -5.1980    -7.2960    -0.4960 H     1 <1>   0.0800 
 45 H      -10.4270    -4.4720    -1.6790 H     1 <1>   0.1500 
 46 H       -9.9000    -3.9020     2.5090 H     1 <1>   0.1500 
 47 H      -11.3820    -4.2590     0.5780 H     1 <1>   0.1500 
@<TRIPOS>BOND
  1   1   2  2   
  2   2   3  am  
  3   2   4  1   
  4   3   5  1   
  5   3   6  1   
  6   4   7  ar  
  7   4   8  ar  
  8   5   9  1   
  9   5  25  1   
 10   5  26  1   
 11   6  10  1   
 12   6  27  1   
 13   6  28  1   
 14   7  11  ar  
 15   7  29  1   
 16   8  12  ar  
 17   8  30  1   
 18   9  13  1   
 19   9  31  1   
 20   9  32  1   
 21  10  13  1   
 22  10  33  1   
 23  10  34  1   
 24  11  14  ar  
 25  12  14  ar  
 26  12  35  1   
 27  14  15  1   
 28  15  16  1   
 29  15  36  1   
 30  16  17  1   
 31  16  18  1   
 32  16  37  1   
 33  17  19  ar  
 34  17  20  ar  
 35  18  21  1   
 36  18  38  1   
 37  18  39  1   
 38  19  22  ar  
 39  19  40  1   
 40  20  23  ar  
 41  20  41  1   
 42  21  42  1   
 43  21  43  1   
 44  21  44  1   
 45  22  24  ar  
 46  22  45  1   
 47  23  24  ar  
 48  23  46  1   
 49  24  47  1   
@<TRIPOS>SUBSTRUCTURE
  1 ****  14 GROUP 4 **** **** 0

# MOE 2024.06 (io_trps.svl 2023.06)
