@<TRIPOS>MOLECULE
NONAME
47 49 1 0 0 
SMALL
USER_CHARGES


@<TRIPOS>ATOM
  1 O       -1.2300    -0.7870    -2.6370 O.2   1 <1>  -0.5700 
  2 C       -1.8310    -1.0520    -1.6220 C.2   1 <1>   0.5690 
  3 N       -1.8540    -0.2070    -0.5510 N.am  1 <1>  -0.6600 
  4 C       -2.5670    -2.3710    -1.5670 C.3   1 <1>  -0.0190 
  5 C       -2.6610    -0.5040     0.6670 C.3   1 <1>   0.2200 
  6 C       -1.1200     1.0910    -0.5530 C.3   1 <1>   0.0600 
  7 C       -1.9800    -3.2740    -0.4650 C.3   1 <1>   0.1200 
  8 C       -4.0940    -2.1540    -1.5830 C.3   1 <1>   0.1400 
  9 C       -2.1360    -1.7650     1.4020 C.3   1 <1>   0.1200 
 10 C       -4.1740    -0.4920     0.3410 C.3   1 <1>   0.1400 
 11 O       -2.4650    -2.9970     0.8130 O.3   1 <1>  -0.5600 
 12 N       -4.6940    -1.7590    -0.2680 N.am  1 <1>  -0.6600 
 13 C       -5.5400    -2.5600     0.4640 C.2   1 <1>   0.5690 
 14 O       -6.0980    -2.1480     1.4560 O.2   1 <1>  -0.5700 
 15 C       -5.7950    -4.0010     0.0430 C.3   1 <1>  -0.0990 
 16 C       -6.4730    -4.8560     1.1230 C.3   1 <1>  -0.0170 
 17 C       -6.6280    -6.2870     0.6330 C.ar  1 <1>  -0.1440 
 18 C       -5.6150    -7.2100     0.8400 C.ar  1 <1>  -0.1500 
 19 C       -7.7780    -6.6820    -0.0310 C.ar  1 <1>  -0.1500 
 20 C       -5.7500    -8.5110     0.3870 C.ar  1 <1>  -0.1500 
 21 C       -7.9120    -7.9830    -0.4850 C.ar  1 <1>  -0.1500 
 22 C       -6.8990    -8.9040    -0.2800 C.ar  1 <1>  -0.1440 
 23 C       -7.0490   -10.3320    -0.7740 C.3   1 <1>  -0.0970 
 24 H       -2.3330    -2.8600    -2.4950 H     1 <1>   0.0800 
 25 H       -2.5040     0.3150     1.3460 H     1 <1>   0.0800 
 26 H       -0.4340     1.1230     0.2750 H     1 <1>   0.0800 
 27 H       -1.8190     1.9050    -0.4700 H     1 <1>   0.0800 
 28 H       -0.5590     1.2140    -1.4640 H     1 <1>   0.0800 
 29 H       -0.9050    -3.2020    -0.4450 H     1 <1>   0.0800 
 30 H       -2.2420    -4.2960    -0.6730 H     1 <1>   0.0800 
 31 H       -4.5580    -3.0520    -1.9460 H     1 <1>   0.0800 
 32 H       -4.3230    -1.3840    -2.3010 H     1 <1>   0.0800 
 33 H       -2.5660    -1.7860     2.3870 H     1 <1>   0.0800 
 34 H       -1.0670    -1.7150     1.5070 H     1 <1>   0.0800 
 35 H       -4.3880     0.3300    -0.3190 H     1 <1>   0.0800 
 36 H       -4.6970    -0.2950     1.2600 H     1 <1>   0.0800 
 37 H       -6.4090    -3.9970    -0.8370 H     1 <1>   0.0800 
 38 H       -4.8530    -4.4580    -0.1950 H     1 <1>   0.0800 
 39 H       -7.4380    -4.4450     1.3640 H     1 <1>   0.0800 
 40 H       -5.8790    -4.8410     2.0200 H     1 <1>   0.0800 
 41 H       -4.7170    -6.9170     1.3550 H     1 <1>   0.1500 
 42 H       -8.5740    -5.9770    -0.1980 H     1 <1>   0.1500 
 43 H       -4.9570    -9.2160     0.5580 H     1 <1>   0.1500 
 44 H       -8.8120    -8.2730    -0.9970 H     1 <1>   0.1500 
 45 H       -6.0870   -10.7490    -1.0150 H     1 <1>   0.0800 
 46 H       -7.6620   -10.3620    -1.6570 H     1 <1>   0.0800 
 47 H       -7.5080   -10.9340    -0.0110 H     1 <1>   0.0800 
@<TRIPOS>BOND
  1   1   2  2   
  2   2   3  am  
  3   2   4  1   
  4   3   5  1   
  5   3   6  1   
  6   4   7  1   
  7   4   8  1   
  8   4  24  1   
  9   5   9  1   
 10   5  10  1   
 11   5  25  1   
 12   6  26  1   
 13   6  27  1   
 14   6  28  1   
 15   7  11  1   
 16   7  29  1   
 17   7  30  1   
 18   8  12  1   
 19   8  31  1   
 20   8  32  1   
 21   9  11  1   
 22   9  33  1   
 23   9  34  1   
 24  10  12  1   
 25  10  35  1   
 26  10  36  1   
 27  12  13  am  
 28  13  14  2   
 29  13  15  1   
 30  15  16  1   
 31  15  37  1   
 32  15  38  1   
 33  16  17  1   
 34  16  39  1   
 35  16  40  1   
 36  17  18  ar  
 37  17  19  ar  
 38  18  20  ar  
 39  18  41  1   
 40  19  21  ar  
 41  19  42  1   
 42  20  22  ar  
 43  20  43  1   
 44  21  22  ar  
 45  21  44  1   
 46  22  23  1   
 47  23  45  1   
 48  23  46  1   
 49  23  47  1   
@<TRIPOS>SUBSTRUCTURE
  1 ****  15 GROUP 4 **** **** 0

# MOE 2024.06 (io_trps.svl 2023.06)
