@<TRIPOS>MOLECULE
NONAME
43 45 1 0 0 
SMALL
USER_CHARGES


@<TRIPOS>ATOM
  1 S       -0.1880     0.0190    -0.5250 S.3   1 <1>  -0.0800 
  2 C       -1.4390    -0.8790     0.3400 C.2   1 <1>  -0.0450 
  3 C       -0.7790     1.5640     0.0500 C.2   1 <1>  -0.1400 
  4 C       -1.4600    -2.3180     0.2210 C.2   1 <1>   0.7150 
  5 C       -2.2150     0.0120     1.0110 C.2   1 <1>  -0.1500 
  6 C       -1.8480     1.3790     0.8470 C.2   1 <1>  -0.1500 
  7 C       -0.0230     2.7940    -0.4190 C.3   1 <1>   0.0200 
  8 O       -0.4310    -2.9400     0.0260 O.2   1 <1>  -0.5700 
  9 N       -2.6370    -3.0290     0.3200 N.am  1 <1>  -0.6600 
 10 C       -0.6240     4.0890     0.1340 C.3   1 <1>  -0.2400 
 11 C       -3.9820    -2.4660     0.0360 C.3   1 <1>   0.1400 
 12 C       -2.6690    -4.5110     0.2330 C.3   1 <1>   0.1400 
 13 C       -4.7880    -3.6400    -0.5130 C.3   1 <1>   0.2000 
 14 C       -4.1470    -4.8820     0.0990 C.3   1 <1>  -0.0800 
 15 O       -6.1230    -3.5580    -0.1500 O.3   1 <1>  -0.6800 
 16 C       -4.3890    -6.1580    -0.7200 C.3   1 <1>   0.0210 
 17 C       -3.6490    -7.3370    -0.1190 C.2   1 <1>   0.1080 
 18 N       -3.8660    -7.7610     1.0870 N.2   1 <1>  -0.7070 
 19 C       -2.6670    -8.0770    -0.7690 C.2   1 <1>  -0.1500 
 20 N       -3.0200    -8.7980     1.2390 N.pl3 1 <1>   0.3000 
 21 C       -2.2820    -9.0070     0.1290 C.2   1 <1>  -0.3320 
 22 C       -1.2380   -10.1000    -0.0070 C.3   1 <1>  -0.0600 
 23 H       -3.0470    -0.2530     1.6390 H     1 <1>   0.1500 
 24 H       -2.4030     2.1610     1.3350 H     1 <1>   0.1500 
 25 H        1.0030     2.7140    -0.1050 H     1 <1>   0.0800 
 26 H       -0.0400     2.8240    -1.4950 H     1 <1>   0.0800 
 27 H       -0.5940     4.0830     1.2100 H     1 <1>   0.0800 
 28 H       -1.6450     4.1930    -0.1870 H     1 <1>   0.0800 
 29 H       -0.0630     4.9350    -0.2210 H     1 <1>   0.0800 
 30 H       -4.4140    -2.1080     0.9540 H     1 <1>   0.0800 
 31 H       -3.9230    -1.6710    -0.6880 H     1 <1>   0.0800 
 32 H       -2.1130    -4.8270    -0.6340 H     1 <1>   0.0800 
 33 H       -2.2330    -4.9560     1.1120 H     1 <1>   0.0800 
 34 H       -4.7270    -3.6520    -1.5880 H     1 <1>   0.0800 
 35 H       -4.5250    -5.0290     1.0960 H     1 <1>   0.0800 
 36 H       -6.2280    -3.7450     0.8030 H     1 <1>   0.4000 
 37 H       -4.0660    -6.0140    -1.7350 H     1 <1>   0.0800 
 38 H       -5.4410    -6.3820    -0.7330 H     1 <1>   0.0800 
 39 H       -2.3100    -7.9190    -1.7710 H     1 <1>   0.1500 
 40 H       -2.9720    -9.3400     2.1100 H     1 <1>   0.2700 
 41 H       -0.7880   -10.0610    -0.9830 H     1 <1>   0.0800 
 42 H       -1.6910   -11.0670     0.1220 H     1 <1>   0.0800 
 43 H       -0.4660    -9.9710     0.7310 H     1 <1>   0.0800 
@<TRIPOS>BOND
  1   1   2  1   
  2   1   3  1   
  3   2   4  1   
  4   2   5  2   
  5   3   6  2   
  6   3   7  1   
  7   4   8  2   
  8   4   9  am  
  9   5   6  1   
 10   5  23  1   
 11   6  24  1   
 12   7  10  1   
 13   7  25  1   
 14   7  26  1   
 15   9  11  1   
 16   9  12  1   
 17  10  27  1   
 18  10  28  1   
 19  10  29  1   
 20  11  13  1   
 21  11  30  1   
 22  11  31  1   
 23  12  14  1   
 24  12  32  1   
 25  12  33  1   
 26  13  14  1   
 27  13  15  1   
 28  13  34  1   
 29  14  16  1   
 30  14  35  1   
 31  15  36  1   
 32  16  17  1   
 33  16  37  1   
 34  16  38  1   
 35  17  18  2   
 36  17  19  1   
 37  18  20  1   
 38  19  21  2   
 39  19  39  1   
 40  20  21  1   
 41  20  40  1   
 42  21  22  1   
 43  22  41  1   
 44  22  42  1   
 45  22  43  1   
@<TRIPOS>SUBSTRUCTURE
  1 ****   9 GROUP 4 **** **** 0

# MOE 2024.06 (io_trps.svl 2023.06)
