@<TRIPOS>MOLECULE
NONAME
37 38 1 0 0 
SMALL
USER_CHARGES


@<TRIPOS>ATOM
  1 F       -1.4650    -0.7790     2.2820 F     1 <1>  -0.3400 
  2 C       -1.1710    -0.4410     1.0330 C.3   1 <1>   1.1640 
  3 F       -0.2790    -1.3250     0.6060 F     1 <1>  -0.3400 
  4 F       -0.5380     0.7240     1.1020 F     1 <1>  -0.3400 
  5 C       -2.4250    -0.4050     0.1430 C.ar  1 <1>  -0.1430 
  6 C       -3.1730    -1.5640    -0.0420 C.ar  1 <1>  -0.1500 
  7 C       -2.8430     0.7620    -0.4900 C.ar  1 <1>  -0.1500 
  8 C       -4.3130    -1.5630    -0.8320 C.ar  1 <1>  -0.1430 
  9 C       -3.9750     0.7670    -1.2860 C.ar  1 <1>  -0.1500 
 10 C       -4.7080    -0.3920    -1.4600 C.ar  1 <1>  -0.1500 
 11 C       -5.1180    -2.8390    -1.0000 C.3   1 <1>   0.4870 
 12 N       -6.3060    -2.7480    -0.1010 N.4   1 <1>  -0.9590 
 13 C       -5.8980    -2.9890     1.3340 C.3   1 <1>   0.3430 
 14 C       -7.3840    -3.6760    -0.5910 C.3   1 <1>   0.3430 
 15 C       -5.5890    -4.4690     1.6690 C.3   1 <1>   0.2000 
 16 C       -7.8200    -4.6860     0.4800 C.3   1 <1>  -0.1600 
 17 O       -4.2820    -4.7400     1.3040 O.3   1 <1>  -0.6800 
 18 C       -6.5850    -5.4540     0.9990 C.3   1 <1>  -0.1860 
 19 C       -6.0240    -6.2530    -0.1680 C.2   1 <1>   0.9060 
 20 O       -6.5250    -7.3400    -0.4260 O.co2 1 <1>  -0.9000 
 21 O       -5.1640    -5.7250    -0.8890 O.co2 1 <1>  -0.9000 
 22 H       -2.8590    -2.4810     0.4370 H     1 <1>   0.1500 
 23 H       -2.2910     1.6800    -0.3720 H     1 <1>   0.1500 
 24 H       -4.2800     1.6780    -1.7740 H     1 <1>   0.1500 
 25 H       -5.5800    -0.3700    -2.0910 H     1 <1>   0.1500 
 26 H       -4.5070    -3.6880    -0.7540 H     1 <1>   0.0800 
 27 H       -5.4290    -2.9400    -2.0270 H     1 <1>   0.0800 
 28 H       -6.6280    -1.7800    -0.1800 H     1 <1>   0.4500 
 29 H       -5.0440    -2.3850     1.5930 H     1 <1>   0.0800 
 30 H       -6.7120    -2.6820     1.9680 H     1 <1>   0.0800 
 31 H       -8.2400    -3.1060    -0.9140 H     1 <1>   0.0800 
 32 H       -7.0190    -4.2300    -1.4430 H     1 <1>   0.0800 
 33 H       -5.6320    -4.5870     2.7380 H     1 <1>   0.0800 
 34 H       -8.3440    -4.1960     1.2810 H     1 <1>   0.0800 
 35 H       -8.5050    -5.3880     0.0320 H     1 <1>   0.0800 
 36 H       -4.3160    -5.2090     0.4130 H     1 <1>   0.4000 
 37 H       -6.9060    -6.1670     1.7360 H     1 <1>   0.0800 
@<TRIPOS>BOND
  1   1   2  1   
  2   2   3  1   
  3   2   4  1   
  4   2   5  1   
  5   5   6  ar  
  6   5   7  ar  
  7   6   8  ar  
  8   6  22  1   
  9   7   9  ar  
 10   7  23  1   
 11   8  10  ar  
 12   8  11  1   
 13   9  10  ar  
 14   9  24  1   
 15  10  25  1   
 16  11  12  1   
 17  11  26  1   
 18  11  27  1   
 19  12  13  1   
 20  12  14  1   
 21  12  28  1   
 22  13  15  1   
 23  13  29  1   
 24  13  30  1   
 25  14  16  1   
 26  14  31  1   
 27  14  32  1   
 28  15  17  1   
 29  15  18  1   
 30  15  33  1   
 31  16  18  1   
 32  16  34  1   
 33  16  35  1   
 34  17  36  1   
 35  18  19  1   
 36  18  37  1   
 37  19  20  ar  
 38  19  21  ar  
@<TRIPOS>SUBSTRUCTURE
  1 ****  11 GROUP 4 **** **** 0

# MOE 2024.06 (io_trps.svl 2023.06)
