@<TRIPOS>MOLECULE
NONAME
51 53 1 0 0 
SMALL
USER_CHARGES


@<TRIPOS>ATOM
  1 O       -2.0860     0.5190     0.7220 O.co2 1 <1>  -0.9000 
  2 C       -2.2140     0.0110    -0.3950 C.2   1 <1>   0.9060 
  3 O       -1.3040    -0.0620    -1.2240 O.co2 1 <1>  -0.9000 
  4 C       -3.4980    -0.7760    -0.6660 C.3   1 <1>   0.2370 
  5 N       -3.4180    -2.2450    -0.2730 N.4   1 <1>  -0.9590 
  6 C       -3.0850    -2.3860     1.1930 C.3   1 <1>   0.4230 
  7 C       -2.4990    -2.9710    -1.1940 C.3   1 <1>   0.3430 
  8 C       -1.5780    -2.4880     1.5450 C.3   1 <1>   0.1200 
  9 C       -3.8660    -3.6180     1.7200 C.3   1 <1>   0.2090 
 10 C       -2.0700    -4.3620    -0.6980 C.3   1 <1>  -0.0800 
 11 O       -1.1100    -3.8060     1.4510 O.3   1 <1>  -0.5600 
 12 N       -4.3060    -4.5670     0.6070 N.pl3 1 <1>  -0.8380 
 13 C       -0.8090    -4.2480     0.1730 C.3   1 <1>   0.1200 
 14 C       -3.1660    -5.2750    -0.0840 C.3   1 <1>   0.2090 
 15 C       -5.6150    -4.8180     0.3690 C.ar  1 <1>   0.4100 
 16 N       -6.4810    -3.8390     0.6660 N.ar  1 <1>  -0.6200 
 17 C       -6.0840    -6.0300    -0.1590 C.ar  1 <1>  -0.1500 
 18 C       -7.7520    -4.0550     0.4830 C.ar  1 <1>   0.5280 
 19 C       -7.4220    -6.2200    -0.3460 C.ar  1 <1>   0.2180 
 20 N       -8.2470    -5.2080    -0.0110 N.ar  1 <1>  -0.1790 
 21 C       -8.7270    -2.9520     0.8420 C.3   1 <1>  -0.0970 
 22 C       -8.0090    -7.5120    -0.8990 C.3   1 <1>  -0.0170 
 23 C       -8.8140    -8.2740     0.1640 C.3   1 <1>  -0.1600 
 24 C       -9.3770    -9.5820    -0.4010 C.3   1 <1>  -0.2400 
 25 H       -3.7140    -0.6850    -1.7150 H     1 <1>   0.0800 
 26 H       -4.2820    -0.2930    -0.1130 H     1 <1>   0.0800 
 27 H       -4.3310    -2.7220    -0.3390 H     1 <1>   0.4500 
 28 H       -3.4550    -1.5120     1.7040 H     1 <1>   0.0800 
 29 H       -2.9860    -3.0750    -2.1490 H     1 <1>   0.0800 
 30 H       -1.6130    -2.3750    -1.3540 H     1 <1>   0.0800 
 31 H       -1.4510    -2.1930     2.5710 H     1 <1>   0.0800 
 32 H       -0.9650    -1.8360     0.9470 H     1 <1>   0.0800 
 33 H       -4.7180    -3.2550     2.2640 H     1 <1>   0.0800 
 34 H       -3.2760    -4.1590     2.4390 H     1 <1>   0.0800 
 35 H       -1.7220    -4.8740    -1.5770 H     1 <1>   0.0800 
 36 H       -0.0850    -3.5770    -0.2610 H     1 <1>   0.0800 
 37 H       -0.3470    -5.2140     0.2800 H     1 <1>   0.0800 
 38 H       -2.7090    -5.9580     0.6150 H     1 <1>   0.0800 
 39 H       -3.5590    -5.8670    -0.8900 H     1 <1>   0.0800 
 40 H       -5.3880    -6.8130    -0.3870 H     1 <1>   0.1500 
 41 H       -9.2570    -5.3130    -0.1210 H     1 <1>   0.4570 
 42 H       -8.1960    -2.1020     1.2380 H     1 <1>   0.0800 
 43 H       -9.4190    -3.2920     1.5920 H     1 <1>   0.0800 
 44 H       -9.2700    -2.6320    -0.0280 H     1 <1>   0.0800 
 45 H       -8.6360    -7.2930    -1.7460 H     1 <1>   0.0800 
 46 H       -7.2120    -8.1460    -1.2500 H     1 <1>   0.0800 
 47 H       -8.1780    -8.5060     1.0040 H     1 <1>   0.0800 
 48 H       -9.6340    -7.6760     0.5230 H     1 <1>   0.0800 
 49 H       -8.5830   -10.2280    -0.7350 H     1 <1>   0.0800 
 50 H      -10.0380    -9.3920    -1.2290 H     1 <1>   0.0800 
 51 H       -9.9320   -10.1040     0.3600 H     1 <1>   0.0800 
@<TRIPOS>BOND
  1   1   2  ar  
  2   2   3  ar  
  3   2   4  1   
  4   4   5  1   
  5   4  25  1   
  6   4  26  1   
  7   5   6  1   
  8   5   7  1   
  9   5  27  1   
 10   6   8  1   
 11   6   9  1   
 12   6  28  1   
 13   7  10  1   
 14   7  29  1   
 15   7  30  1   
 16   8  11  1   
 17   8  31  1   
 18   8  32  1   
 19   9  12  1   
 20   9  33  1   
 21   9  34  1   
 22  10  13  1   
 23  10  14  1   
 24  10  35  1   
 25  11  13  1   
 26  12  14  1   
 27  12  15  1   
 28  13  36  1   
 29  13  37  1   
 30  14  38  1   
 31  14  39  1   
 32  15  16  ar  
 33  15  17  ar  
 34  16  18  ar  
 35  17  19  ar  
 36  17  40  1   
 37  18  20  ar  
 38  18  21  1   
 39  19  20  ar  
 40  19  22  1   
 41  20  41  1   
 42  21  42  1   
 43  21  43  1   
 44  21  44  1   
 45  22  23  1   
 46  22  45  1   
 47  22  46  1   
 48  23  24  1   
 49  23  47  1   
 50  23  48  1   
 51  24  49  1   
 52  24  50  1   
 53  24  51  1   
@<TRIPOS>SUBSTRUCTURE
  1 ****  12 GROUP 4 **** **** 0

# MOE 2024.06 (io_trps.svl 2023.06)
