@<TRIPOS>MOLECULE
NONAME
49 53 1 0 0 
SMALL
USER_CHARGES


@<TRIPOS>ATOM
  1 O       -3.3960    -0.1040    -0.8450 O.2   1 <1>  -0.5700 
  2 C       -2.8590     0.4700     0.1030 C.2   1 <1>   0.6160 
  3 N       -2.6040     1.8370     0.0390 N.am  1 <1>  -0.0580 
  4 C       -2.4840    -0.1780     1.2980 C.2   1 <1>   0.0290 
  5 N       -2.8630     2.7710    -0.9480 N.2   1 <1>  -0.5120 
  6 C       -2.0030     2.4460     1.0770 C.2   1 <1>   0.5600 
  7 C       -2.7060    -1.5740     1.4710 C.2   1 <1>   0.6160 
  8 C       -1.8620     0.5810     2.2810 C.2   1 <1>   0.0210 
  9 C       -2.4120     3.8690    -0.4760 C.2   1 <1>   0.4390 
 10 N       -1.8760     3.7250     0.7620 N.pl3 1 <1>  -0.5000 
 11 N       -1.6130     1.8820     2.2120 N.2   1 <1>  -0.6210 
 12 O       -1.7530    -2.2790     1.7610 O.2   1 <1>  -0.5700 
 13 N       -3.9490    -2.1770     1.3790 N.am  1 <1>  -0.6600 
 14 C       -2.4480     5.2050    -1.1740 C.3   1 <1>  -0.1790 
 15 C       -4.0940    -3.6600     1.2220 C.3   1 <1>   0.1400 
 16 C       -5.2540    -1.4590     1.2250 C.3   1 <1>   0.1400 
 17 C       -4.9040    -4.0080    -0.0430 C.3   1 <1>   0.3430 
 18 C       -5.9870    -1.9230    -0.0500 C.3   1 <1>   0.2950 
 19 O       -6.1260    -3.3150    -0.0430 O.3   1 <1>  -0.5600 
 20 C       -5.1670    -5.5090    -0.1150 C.ar  1 <1>  -0.1430 
 21 C       -7.3890    -1.3160    -0.1400 C.3   1 <1>  -0.1950 
 22 C       -6.2730    -6.0810     0.4990 C.ar  1 <1>  -0.1500 
 23 C       -4.2760    -6.3280    -0.7960 C.ar  1 <1>  -0.1500 
 24 C       -8.0930    -1.1860    -1.4540 C.3   1 <1>  -0.2000 
 25 C       -7.5950     0.0400    -0.7410 C.3   1 <1>  -0.2000 
 26 C       -6.4840    -7.4480     0.4360 C.ar  1 <1>  -0.1500 
 27 C       -4.4860    -7.6950    -0.8600 C.ar  1 <1>  -0.1500 
 28 C       -5.5900    -8.2560    -0.2430 C.ar  1 <1>  -0.1500 
 29 H       -1.5480     0.0760     3.1820 H     1 <1>   0.1500 
 30 H       -1.4490     4.4260     1.3610 H     1 <1>   0.4000 
 31 H       -1.4490     5.5750    -1.3090 H     1 <1>   0.0800 
 32 H       -3.0160     5.9080    -0.5930 H     1 <1>   0.0800 
 33 H       -2.9110     5.0970    -2.1380 H     1 <1>   0.0800 
 34 H       -3.1310    -4.1350     1.1550 H     1 <1>   0.0800 
 35 H       -4.5960    -4.0620     2.0840 H     1 <1>   0.0800 
 36 H       -5.8730    -1.6750     2.0780 H     1 <1>   0.0800 
 37 H       -5.1150    -0.3960     1.1870 H     1 <1>   0.0800 
 38 H       -4.3530    -3.7030    -0.9170 H     1 <1>   0.0800 
 39 H       -5.4210    -1.6450    -0.9240 H     1 <1>   0.0800 
 40 H       -7.9940    -1.5700     0.7120 H     1 <1>   0.1000 
 41 H       -6.9760    -5.4600     1.0260 H     1 <1>   0.1500 
 42 H       -3.4130    -5.9060    -1.2800 H     1 <1>   0.1500 
 43 H       -7.5850    -1.5140    -2.3450 H     1 <1>   0.1000 
 44 H       -9.1510    -1.3810    -1.4890 H     1 <1>   0.1000 
 45 H       -8.3170     0.7040    -0.2960 H     1 <1>   0.1000 
 46 H       -6.7550     0.5670    -1.1630 H     1 <1>   0.1000 
 47 H       -7.3450    -7.8790     0.9150 H     1 <1>   0.1500 
 48 H       -3.7900    -8.3210    -1.3900 H     1 <1>   0.1500 
 49 H       -5.7540    -9.3180    -0.2930 H     1 <1>   0.1500 
@<TRIPOS>BOND
  1   1   2  2   
  2   2   3  am  
  3   2   4  1   
  4   3   5  1   
  5   3   6  1   
  6   4   7  1   
  7   4   8  2   
  8   5   9  2   
  9   6  10  1   
 10   6  11  2   
 11   7  12  2   
 12   7  13  am  
 13   8  11  1   
 14   8  29  1   
 15   9  10  1   
 16   9  14  1   
 17  10  30  1   
 18  13  15  1   
 19  13  16  1   
 20  14  31  1   
 21  14  32  1   
 22  14  33  1   
 23  15  17  1   
 24  15  34  1   
 25  15  35  1   
 26  16  18  1   
 27  16  36  1   
 28  16  37  1   
 29  17  19  1   
 30  17  20  1   
 31  17  38  1   
 32  18  19  1   
 33  18  21  1   
 34  18  39  1   
 35  20  22  ar  
 36  20  23  ar  
 37  21  24  1   
 38  21  25  1   
 39  21  40  1   
 40  22  26  ar  
 41  22  41  1   
 42  23  27  ar  
 43  23  42  1   
 44  24  25  1   
 45  24  43  1   
 46  24  44  1   
 47  25  45  1   
 48  25  46  1   
 49  26  28  ar  
 50  26  47  1   
 51  27  28  ar  
 52  27  48  1   
 53  28  49  1   
@<TRIPOS>SUBSTRUCTURE
  1 ****  13 GROUP 4 **** **** 0

# MOE 2024.06 (io_trps.svl 2023.06)
