@<TRIPOS>MOLECULE
NONAME
23 23 1 0 0 
SMALL
USER_CHARGES


@<TRIPOS>ATOM
  1 N        5.3050     1.8490     0.4020 N.4   1 <1>  -0.9590 
  2 C        6.5410     1.2580    -0.1930 C.3   1 <1>   0.3430 
  3 C        4.0650     1.2540    -0.1790 C.3   1 <1>   0.3430 
  4 C        5.3020     3.3360     0.2570 C.3   1 <1>   0.2630 
  5 C        6.5670    -0.2460     0.0630 C.3   1 <1>  -0.1600 
  6 C        4.0480    -0.2510     0.0780 C.3   1 <1>  -0.1600 
  7 C        5.3050    -0.9280    -0.4790 C.3   1 <1>   0.1200 
  8 C        5.3100    -2.3700    -0.1090 C.1   1 <1>  -0.2000 
  9 C        5.3140    -3.5220     0.1860 C.1   1 <1>  -0.1770 
 10 H        5.3110     1.6200     1.4070 H     1 <1>   0.4500 
 11 H        7.4160     1.7110     0.2460 H     1 <1>   0.0800 
 12 H        6.5600     1.4440    -1.2550 H     1 <1>   0.0800 
 13 H        4.0330     1.4390    -1.2410 H     1 <1>   0.0800 
 14 H        3.1940     1.7030     0.2700 H     1 <1>   0.0800 
 15 H        5.2950     3.6120    -0.7850 H     1 <1>   0.0800 
 16 H        6.1780     3.7600     0.7200 H     1 <1>   0.0800 
 17 H        4.4290     3.7570     0.7300 H     1 <1>   0.0800 
 18 H        6.6620    -0.4290     1.1200 H     1 <1>   0.0800 
 19 H        7.4320    -0.6700    -0.4150 H     1 <1>   0.0800 
 20 H        3.1780    -0.6780    -0.3910 H     1 <1>   0.0800 
 21 H        3.9650    -0.4340     1.1360 H     1 <1>   0.0800 
 22 H        5.2990    -0.8580    -1.5540 H     1 <1>   0.0800 
 23 H        5.3170    -4.5660     0.4500 H     1 <1>   0.1770 
@<TRIPOS>BOND
  1   1   2  1   
  2   1   3  1   
  3   1   4  1   
  4   1  10  1   
  5   2   5  1   
  6   2  11  1   
  7   2  12  1   
  8   3   6  1   
  9   3  13  1   
 10   3  14  1   
 11   4  15  1   
 12   4  16  1   
 13   4  17  1   
 14   5   7  1   
 15   5  18  1   
 16   5  19  1   
 17   6   7  1   
 18   6  20  1   
 19   6  21  1   
 20   7   8  1   
 21   7  22  1   
 22   8   9  3   
 23   9  23  1   
@<TRIPOS>SUBSTRUCTURE
  1 ****   7 GROUP 4 **** **** 0

# MOE 2024.06 (io_trps.svl 2023.06)
