@<TRIPOS>MOLECULE
NONAME
53 57 1 0 0 
SMALL
USER_CHARGES


@<TRIPOS>ATOM
  1 N        0.0810     0.3830     0.3450 N.ar  1 <1>  -0.6200 
  2 C       -1.0980     0.9810     0.5790 C.ar  1 <1>   0.6200 
  3 C        0.9250     1.0670    -0.3870 C.ar  1 <1>   0.1660 
  4 N       -1.4410     2.2010     0.1400 N.ar  1 <1>  -0.6200 
  5 C       -2.0780     0.2500     1.3690 C.ar  1 <1>   0.0000 
  6 C        0.6620     2.3090    -0.8720 C.ar  1 <1>  -0.1430 
  7 C        2.3000     0.5860    -0.7860 C.3   1 <1>   0.1440 
  8 C       -0.5600     2.8570    -0.5810 C.ar  1 <1>   0.1600 
  9 C       -3.4510     0.4180     1.1650 C.ar  1 <1>  -0.1500 
 10 C       -1.6960    -0.6520     2.3660 C.ar  1 <1>  -0.1500 
 11 C        1.8220     2.8570    -1.6650 C.3   1 <1>  -0.0160 
 12 C        3.0060     0.0200     0.4580 C.3   1 <1>   0.3430 
 13 C        2.1880    -0.4990    -1.8790 C.3   1 <1>  -0.1600 
 14 C        2.9660     1.8840    -1.3200 C.3   1 <1>  -0.1600 
 15 C       -4.3890    -0.2740     1.9100 C.ar  1 <1>  -0.1500 
 16 C       -2.6270    -1.3480     3.1150 C.ar  1 <1>  -0.1500 
 17 N        4.3210    -0.6000     0.1060 N.4   1 <1>  -0.9590 
 18 C        3.5420    -1.1790    -2.1610 C.3   1 <1>  -0.1600 
 19 C       -3.9780    -1.1600     2.8880 C.ar  1 <1>  -0.1500 
 20 C        4.2060    -1.7030    -0.8840 C.3   1 <1>   0.3430 
 21 C        5.1200    -0.9990     1.2920 C.3   1 <1>   0.5240 
 22 C        6.5810    -0.8910     0.8770 C.2   1 <1>   0.0460 
 23 N        6.9660     0.1310     0.0800 N.2   1 <1>  -0.5650 
 24 C        7.6280    -1.6960     1.1710 C.2   1 <1>  -0.3320 
 25 C        8.2340    -0.0650    -0.0830 C.2   1 <1>   0.0360 
 26 N        8.7000    -1.1600     0.5540 N.pl3 1 <1>   0.0330 
 27 C        7.7240    -2.9600     2.0110 C.3   1 <1>  -0.0600 
 28 H       -0.8210     3.8390    -0.9400 H     1 <1>   0.1500 
 29 H       -3.7900     1.1040     0.4080 H     1 <1>   0.1500 
 30 H       -0.6500    -0.8100     2.5600 H     1 <1>   0.1500 
 31 H        2.0590     3.8680    -1.3800 H     1 <1>   0.0800 
 32 H        1.5910     2.8200    -2.7160 H     1 <1>   0.0800 
 33 H        2.3640    -0.7230     0.9040 H     1 <1>   0.0800 
 34 H        3.1450     0.8130     1.1730 H     1 <1>   0.0800 
 35 H        1.7940    -0.0710    -2.7860 H     1 <1>   0.0800 
 36 H        1.4870    -1.2490    -1.5520 H     1 <1>   0.0800 
 37 H        3.6000     1.7160    -2.1720 H     1 <1>   0.0800 
 38 H        3.5600     2.3330    -0.5420 H     1 <1>   0.0800 
 39 H       -5.4390    -0.1220     1.7280 H     1 <1>   0.1500 
 40 H       -2.3040    -2.0360     3.8770 H     1 <1>   0.1500 
 41 H        4.9430     0.1130    -0.3210 H     1 <1>   0.4500 
 42 H        4.2130    -0.4950    -2.6500 H     1 <1>   0.0800 
 43 H        3.3880    -2.0040    -2.8350 H     1 <1>   0.0800 
 44 H       -4.7060    -1.7000     3.4690 H     1 <1>   0.1500 
 45 H        3.6130    -2.5030    -0.4730 H     1 <1>   0.0800 
 46 H        5.1860    -2.0880    -1.1210 H     1 <1>   0.0800 
 47 H        4.8790    -1.9980     1.6120 H     1 <1>   0.0800 
 48 H        4.9450    -0.3120     2.1020 H     1 <1>   0.0800 
 49 H        8.8800     0.5710    -0.6660 H     1 <1>   0.1500 
 50 H        9.6680    -1.4980     0.5650 H     1 <1>   0.2700 
 51 H        6.7680    -3.2230     2.4260 H     1 <1>   0.0800 
 52 H        8.4160    -2.8140     2.8230 H     1 <1>   0.0800 
 53 H        8.0730    -3.7820     1.4090 H     1 <1>   0.0800 
@<TRIPOS>BOND
  1   1   2  ar  
  2   1   3  ar  
  3   2   4  ar  
  4   2   5  1   
  5   3   6  ar  
  6   3   7  1   
  7   4   8  ar  
  8   5   9  ar  
  9   5  10  ar  
 10   6   8  ar  
 11   6  11  1   
 12   7  12  1   
 13   7  13  1   
 14   7  14  1   
 15   8  28  1   
 16   9  15  ar  
 17   9  29  1   
 18  10  16  ar  
 19  10  30  1   
 20  11  14  1   
 21  11  31  1   
 22  11  32  1   
 23  12  17  1   
 24  12  33  1   
 25  12  34  1   
 26  13  18  1   
 27  13  35  1   
 28  13  36  1   
 29  14  37  1   
 30  14  38  1   
 31  15  19  ar  
 32  15  39  1   
 33  16  19  ar  
 34  16  40  1   
 35  17  20  1   
 36  17  21  1   
 37  17  41  1   
 38  18  20  1   
 39  18  42  1   
 40  18  43  1   
 41  19  44  1   
 42  20  45  1   
 43  20  46  1   
 44  21  22  1   
 45  21  47  1   
 46  21  48  1   
 47  22  23  1   
 48  22  24  2   
 49  23  25  2   
 50  24  26  1   
 51  24  27  1   
 52  25  26  1   
 53  25  49  1   
 54  26  50  1   
 55  27  51  1   
 56  27  52  1   
 57  27  53  1   
@<TRIPOS>SUBSTRUCTURE
  1 ****  12 GROUP 4 **** **** 0

# MOE 2024.06 (io_trps.svl 2023.06)
