@<TRIPOS>MOLECULE
NONAME
46 49 1 0 0 
SMALL
USER_CHARGES


@<TRIPOS>ATOM
  1 O        1.8910     0.3960     2.0980 O.2   1 <1>  -0.5700 
  2 C        2.0780    -0.4220     1.2320 C.2   1 <1>   0.5690 
  3 N        2.6760    -0.0870     0.0520 N.am  1 <1>  -0.6600 
  4 C        1.6130    -1.8440     1.4940 C.3   1 <1>  -0.0990 
  5 C        3.0190     1.3270    -0.2650 C.3   1 <1>   0.4000 
  6 C        3.1700    -1.0060    -0.9960 C.3   1 <1>   0.1400 
  7 C        0.3430    -2.1850     0.6960 C.3   1 <1>  -0.1600 
  8 C        1.7970     2.2450    -0.3610 C.2   1 <1>   0.2980 
  9 C        3.7760     1.2480    -1.5960 C.3   1 <1>  -0.1600 
 10 C        4.2410    -0.2020    -1.7190 C.3   1 <1>  -0.1600 
 11 C       -0.1570    -3.6010     1.0110 C.3   1 <1>   0.0960 
 12 O        0.7230     1.7970    -0.9600 O.3   1 <1>  -0.0190 
 13 N        1.7160     3.4380     0.0740 N.2   1 <1>  -0.5650 
 14 N       -1.2720    -3.9630     0.1170 N.pl3 1 <1>   0.3140 
 15 N       -0.1150     2.7820    -0.8930 N.2   1 <1>  -0.4100 
 16 C        0.4640     3.7480    -0.2730 C.2   1 <1>   0.4620 
 17 N       -1.0640    -4.5950    -1.0520 N.2   1 <1>  -0.7070 
 18 C       -2.5830    -3.7170     0.3140 C.2   1 <1>  -0.3020 
 19 C       -0.1320     5.0350     0.0290 C.ar  1 <1>   0.0540 
 20 C       -2.2470    -4.7360    -1.5690 C.2   1 <1>   0.1390 
 21 C       -3.2420    -4.2050    -0.7580 C.2   1 <1>  -0.1500 
 22 C        0.5190     6.0160     0.7660 C.ar  1 <1>  -0.1500 
 23 C       -1.4070     5.3860    -0.3960 C.ar  1 <1>  -0.1500 
 24 C       -0.0960     7.2260     1.0230 C.ar  1 <1>   0.1600 
 25 C       -1.9350     6.6250    -0.0860 C.ar  1 <1>   0.1600 
 26 N       -1.3090     7.5560     0.6130 N.ar  1 <1>  -0.6200 
 27 H        2.4040    -2.5310     1.2580 H     1 <1>   0.0800 
 28 H        1.4070    -1.9390     2.5460 H     1 <1>   0.0800 
 29 H        3.6760     1.6970     0.5040 H     1 <1>   0.0800 
 30 H        3.5770    -1.9100    -0.5770 H     1 <1>   0.0800 
 31 H        2.3630    -1.2430    -1.6690 H     1 <1>   0.0800 
 32 H        0.5520    -2.1130    -0.3570 H     1 <1>   0.0800 
 33 H       -0.4270    -1.4710     0.9360 H     1 <1>   0.0800 
 34 H        3.1060     1.4780    -2.4060 H     1 <1>   0.0800 
 35 H        4.5950     1.9440    -1.6210 H     1 <1>   0.0800 
 36 H        5.1810    -0.3320    -1.2100 H     1 <1>   0.0800 
 37 H        4.3520    -0.5130    -2.7430 H     1 <1>   0.0800 
 38 H       -0.4930    -3.6670     2.0290 H     1 <1>   0.0800 
 39 H        0.6310    -4.3160     0.8590 H     1 <1>   0.0800 
 40 H       -2.9640    -3.2170     1.1850 H     1 <1>   0.1500 
 41 H       -2.4250    -5.2110    -2.5190 H     1 <1>   0.1500 
 42 H       -4.2960    -4.1980    -0.9670 H     1 <1>   0.1500 
 43 H        1.5090     5.8340     1.1420 H     1 <1>   0.1500 
 44 H       -1.9900     4.6900    -0.9710 H     1 <1>   0.1500 
 45 H        0.4380     7.9640     1.5980 H     1 <1>   0.1500 
 46 H       -2.9270     6.8640    -0.4320 H     1 <1>   0.1500 
@<TRIPOS>BOND
  1   1   2  2   
  2   2   3  am  
  3   2   4  1   
  4   3   5  1   
  5   3   6  1   
  6   4   7  1   
  7   4  27  1   
  8   4  28  1   
  9   5   8  1   
 10   5   9  1   
 11   5  29  1   
 12   6  10  1   
 13   6  30  1   
 14   6  31  1   
 15   7  11  1   
 16   7  32  1   
 17   7  33  1   
 18   8  12  1   
 19   8  13  2   
 20   9  10  1   
 21   9  34  1   
 22   9  35  1   
 23  10  36  1   
 24  10  37  1   
 25  11  14  1   
 26  11  38  1   
 27  11  39  1   
 28  12  15  1   
 29  13  16  1   
 30  14  17  1   
 31  14  18  1   
 32  15  16  2   
 33  16  19  1   
 34  17  20  2   
 35  18  21  2   
 36  18  40  1   
 37  19  22  ar  
 38  19  23  ar  
 39  20  21  1   
 40  20  41  1   
 41  21  42  1   
 42  22  24  ar  
 43  22  43  1   
 44  23  25  ar  
 45  23  44  1   
 46  24  26  ar  
 47  24  45  1   
 48  25  26  ar  
 49  25  46  1   
@<TRIPOS>SUBSTRUCTURE
  1 ****  12 GROUP 4 **** **** 0

# MOE 2024.06 (io_trps.svl 2023.06)
