@<TRIPOS>MOLECULE
NONAME
51 54 1 0 0 
SMALL
USER_CHARGES


@<TRIPOS>ATOM
  1 S        1.6190     1.0470     0.1780 S.3   1 <1>  -0.0800 
  2 C        2.1410    -0.2360    -0.9150 C.ar  1 <1>   0.0400 
  3 C        0.8710    -0.1160     1.2570 C.2   1 <1>  -0.1100 
  4 C        1.7440    -1.4740    -0.4290 C.ar  1 <1>   0.0000 
  5 C        2.8570    -0.0640    -2.0850 C.ar  1 <1>  -0.1500 
  6 C        0.9840    -1.3870     0.8030 C.2   1 <1>  -0.0860 
  7 C        2.1300    -2.5980    -1.1600 C.ar  1 <1>  -0.1500 
  8 C        3.2080    -1.1930    -2.8010 C.ar  1 <1>  -0.1500 
  9 C        0.4120    -2.5420     1.4580 C.2   1 <1>   0.7160 
 10 C        2.8490    -2.4540    -2.3350 C.ar  1 <1>  -0.1500 
 11 O        0.5680    -2.6730     2.6570 O.2   1 <1>  -0.5700 
 12 N       -0.3280    -3.4980     0.7860 N.am  1 <1>  -0.6600 
 13 C       -1.1390    -3.2310    -0.4470 C.3   1 <1>   0.2200 
 14 C       -0.2270    -4.9190     1.2420 C.3   1 <1>   0.0600 
 15 C       -1.7580    -1.8320    -0.4830 C.3   1 <1>  -0.1600 
 16 C       -2.3700    -4.1340    -0.5360 C.3   1 <1>  -0.1600 
 17 C       -2.9660    -1.9300    -1.4240 C.3   1 <1>  -0.0800 
 18 C       -3.3530    -3.4140    -1.4680 C.3   1 <1>  -0.0800 
 19 C       -4.1960    -1.1690    -0.9160 C.3   1 <1>  -0.1600 
 20 C       -4.8110    -3.4970    -0.9960 C.3   1 <1>  -0.1600 
 21 C       -5.0100    -2.2280    -0.1740 C.3   1 <1>   0.4230 
 22 N       -6.4500    -1.8820     0.0340 N.4   1 <1>  -0.9590 
 23 C       -7.2200    -1.5590    -1.2120 C.3   1 <1>   0.2630 
 24 C       -6.5830    -0.7680     1.0240 C.3   1 <1>   0.2630 
 25 H        0.4000     0.2680     2.1450 H     1 <1>   0.1500 
 26 H        3.1320     0.9210    -2.4160 H     1 <1>   0.1500 
 27 H        1.8740    -3.5800    -0.8080 H     1 <1>   0.1500 
 28 H        3.7650    -1.0990    -3.7180 H     1 <1>   0.1500 
 29 H        3.1390    -3.3260    -2.8960 H     1 <1>   0.1500 
 30 H       -0.5290    -3.3770    -1.3240 H     1 <1>   0.0800 
 31 H       -0.0900    -5.5720     0.3980 H     1 <1>   0.0800 
 32 H       -1.1190    -5.1980     1.7740 H     1 <1>   0.0800 
 33 H        0.6130    -5.0430     1.9040 H     1 <1>   0.0800 
 34 H       -2.0730    -1.5600     0.5090 H     1 <1>   0.0800 
 35 H       -1.0650    -1.0990    -0.8560 H     1 <1>   0.0800 
 36 H       -2.1190    -5.1070    -0.9210 H     1 <1>   0.0800 
 37 H       -2.8030    -4.2350     0.4440 H     1 <1>   0.0800 
 38 H       -2.6830    -1.5900    -2.4080 H     1 <1>   0.0800 
 39 H       -3.2490    -3.7980    -2.4700 H     1 <1>   0.0800 
 40 H       -4.7300    -0.7970    -1.7710 H     1 <1>   0.0800 
 41 H       -3.9240    -0.3450    -0.2810 H     1 <1>   0.0800 
 42 H       -4.9980    -4.3860    -0.4200 H     1 <1>   0.0800 
 43 H       -5.4400    -3.4970    -1.8660 H     1 <1>   0.0800 
 44 H       -4.5410    -2.3880     0.7850 H     1 <1>   0.0800 
 45 H       -6.8820    -2.7190     0.4530 H     1 <1>   0.4500 
 46 H       -6.8230    -0.6750    -1.6830 H     1 <1>   0.0800 
 47 H       -8.2560    -1.3820    -0.9740 H     1 <1>   0.0800 
 48 H       -7.1700    -2.3760    -1.9130 H     1 <1>   0.0800 
 49 H       -6.1450     0.1350     0.6310 H     1 <1>   0.0800 
 50 H       -6.0810    -1.0220     1.9440 H     1 <1>   0.0800 
 51 H       -7.6220    -0.5810     1.2410 H     1 <1>   0.0800 
@<TRIPOS>BOND
  1   1   2  1   
  2   1   3  1   
  3   2   4  ar  
  4   2   5  ar  
  5   3   6  2   
  6   3  25  1   
  7   4   6  1   
  8   4   7  ar  
  9   5   8  ar  
 10   5  26  1   
 11   6   9  1   
 12   7  10  ar  
 13   7  27  1   
 14   8  10  ar  
 15   8  28  1   
 16   9  11  2   
 17   9  12  am  
 18  10  29  1   
 19  12  13  1   
 20  12  14  1   
 21  13  15  1   
 22  13  16  1   
 23  13  30  1   
 24  14  31  1   
 25  14  32  1   
 26  14  33  1   
 27  15  17  1   
 28  15  34  1   
 29  15  35  1   
 30  16  18  1   
 31  16  36  1   
 32  16  37  1   
 33  17  18  1   
 34  17  19  1   
 35  17  38  1   
 36  18  20  1   
 37  18  39  1   
 38  19  21  1   
 39  19  40  1   
 40  19  41  1   
 41  20  21  1   
 42  20  42  1   
 43  20  43  1   
 44  21  22  1   
 45  21  44  1   
 46  22  23  1   
 47  22  24  1   
 48  22  45  1   
 49  23  46  1   
 50  23  47  1   
 51  23  48  1   
 52  24  49  1   
 53  24  50  1   
 54  24  51  1   
@<TRIPOS>SUBSTRUCTURE
  1 ****  15 GROUP 4 **** **** 0

# MOE 2024.06 (io_trps.svl 2023.06)
