@<TRIPOS>MOLECULE
NONAME
43 44 1 0 0 
SMALL
USER_CHARGES


@<TRIPOS>ATOM
  1 S        0.5610     0.2070     1.1420 S.3   1 <1>  -0.0800 
  2 C        0.4510     1.9150     0.8360 C.2   1 <1>   0.4620 
  3 C       -0.2960    -0.0460    -0.3420 C.2   1 <1>   0.1980 
  4 N       -0.1670     2.1640    -0.2670 N.2   1 <1>  -0.3380 
  5 N        1.0070     2.8140     1.7310 N.pl3 1 <1>  -0.8220 
  6 N       -0.5880     1.0450    -0.9290 N.2   1 <1>  -0.3380 
  7 C       -0.5850    -1.4880    -0.7510 C.3   1 <1>   0.1000 
  8 C        0.9850     4.2660     1.4260 C.3   1 <1>   0.2090 
  9 C        1.7700     2.3890     2.9360 C.3   1 <1>   0.1290 
 10 C       -0.8720    -1.6060    -2.2540 C.3   1 <1>  -0.2400 
 11 C       -1.7650    -2.0500     0.0520 C.3   1 <1>  -0.2400 
 12 C        2.2830     4.6550     0.7200 C.3   1 <1>  -0.1600 
 13 C        2.2430     6.1080     0.2390 C.3   1 <1>   0.0210 
 14 C        3.5310     6.4540    -0.4850 C.2   1 <1>  -0.1810 
 15 C        4.6530     7.0890     0.0460 C.2   1 <1>   0.1080 
 16 C        3.8510     6.2160    -1.7760 C.2   1 <1>  -0.3320 
 17 N        5.5940     7.2420    -0.8310 N.2   1 <1>  -0.7070 
 18 C        4.8090     7.5630     1.4730 C.3   1 <1>  -0.0590 
 19 N        5.0970     6.7010    -1.9570 N.pl3 1 <1>   0.3000 
 20 C        3.0510     5.5390    -2.8770 C.3   1 <1>  -0.0600 
 21 H        0.2910    -2.0750    -0.5330 H     1 <1>   0.0800 
 22 H        0.8650     4.8290     2.3360 H     1 <1>   0.0800 
 23 H        0.1440     4.4870     0.7890 H     1 <1>   0.0800 
 24 H        1.2280     1.6270     3.4680 H     1 <1>   0.0800 
 25 H        1.9220     3.2230     3.5980 H     1 <1>   0.0800 
 26 H        2.7280     2.0000     2.6370 H     1 <1>   0.0800 
 27 H       -1.7520    -1.0430    -2.5130 H     1 <1>   0.0800 
 28 H       -1.0230    -2.6340    -2.5310 H     1 <1>   0.0800 
 29 H       -0.0420    -1.2170    -2.8180 H     1 <1>   0.0800 
 30 H       -2.6510    -1.4690    -0.1350 H     1 <1>   0.0800 
 31 H       -1.5510    -2.0160     1.1060 H     1 <1>   0.0800 
 32 H       -1.9550    -3.0720    -0.2240 H     1 <1>   0.0800 
 33 H        2.4240     4.0140    -0.1320 H     1 <1>   0.0800 
 34 H        3.1150     4.5230     1.3870 H     1 <1>   0.0800 
 35 H        2.1030     6.7740     1.0720 H     1 <1>   0.0800 
 36 H        1.4150     6.2460    -0.4340 H     1 <1>   0.0800 
 37 H        4.5040     6.7910     2.1530 H     1 <1>   0.0800 
 38 H        4.2080     8.4390     1.6290 H     1 <1>   0.0800 
 39 H        5.8380     7.8080     1.6640 H     1 <1>   0.0800 
 40 H        5.6340     6.6750    -2.8310 H     1 <1>   0.2700 
 41 H        2.1030     5.1970    -2.5020 H     1 <1>   0.0800 
 42 H        3.5890     4.6880    -3.2550 H     1 <1>   0.0800 
 43 H        2.8710     6.2280    -3.6820 H     1 <1>   0.0800 
@<TRIPOS>BOND
  1   1   2  1   
  2   1   3  1   
  3   2   4  2   
  4   2   5  1   
  5   3   6  2   
  6   3   7  1   
  7   4   6  1   
  8   5   8  1   
  9   5   9  1   
 10   7  10  1   
 11   7  11  1   
 12   7  21  1   
 13   8  12  1   
 14   8  22  1   
 15   8  23  1   
 16   9  24  1   
 17   9  25  1   
 18   9  26  1   
 19  10  27  1   
 20  10  28  1   
 21  10  29  1   
 22  11  30  1   
 23  11  31  1   
 24  11  32  1   
 25  12  13  1   
 26  12  33  1   
 27  12  34  1   
 28  13  14  1   
 29  13  35  1   
 30  13  36  1   
 31  14  15  1   
 32  14  16  2   
 33  15  17  2   
 34  15  18  1   
 35  16  19  1   
 36  16  20  1   
 37  17  19  1   
 38  18  37  1   
 39  18  38  1   
 40  18  39  1   
 41  19  40  1   
 42  20  41  1   
 43  20  42  1   
 44  20  43  1   
@<TRIPOS>SUBSTRUCTURE
  1 ****  12 GROUP 4 **** **** 0

# MOE 2024.06 (io_trps.svl 2023.06)
