@<TRIPOS>MOLECULE
NONAME
36 37 1 0 0 
SMALL
USER_CHARGES


@<TRIPOS>ATOM
  1 O       -0.5040     0.2550     1.5730 O.2   1 <1>  -0.5700 
  2 C       -1.3430     0.6990     0.8100 C.2   1 <1>   0.5440 
  3 N       -2.1540    -0.1770     0.1250 N.am  1 <1>  -0.6600 
  4 C       -1.4990     2.1350     0.6610 C.ar  1 <1>   0.0860 
  5 C       -2.4140    -1.5650     0.6390 C.3   1 <1>   0.1400 
  6 C       -3.0320     0.2200    -1.0090 C.3   1 <1>   0.1400 
  7 C       -0.5170     2.9570     0.0890 C.ar  1 <1>  -0.1440 
  8 C       -2.6810     2.7290     1.0980 C.ar  1 <1>  -0.1500 
  9 C       -3.9120    -1.9480     0.5920 C.3   1 <1>   0.2000 
 10 C       -4.5050     0.2490    -0.5680 C.3   1 <1>  -0.1600 
 11 C       -0.7320     4.3210    -0.0380 C.ar  1 <1>  -0.1500 
 12 C        0.7970     2.3600    -0.3980 C.3   1 <1>  -0.0960 
 13 C       -2.8900     4.0870     0.9570 C.ar  1 <1>   0.0820 
 14 O       -4.1830    -2.6490    -0.5720 O.3   1 <1>  -0.6800 
 15 C       -4.8140    -0.7050     0.6150 C.3   1 <1>  -0.1860 
 16 C       -1.9170     4.8890     0.3920 C.ar  1 <1>  -0.1500 
 17 O       -4.0440     4.6340     1.3650 O.3   1 <1>  -0.5330 
 18 C       -6.2780    -1.0850     0.6760 C.2   1 <1>   0.9060 
 19 O       -7.0050    -0.4890     1.4750 O.co2 1 <1>  -0.9000 
 20 O       -6.6950    -1.9740    -0.0800 O.co2 1 <1>  -0.9000 
 21 H       -1.8360    -2.2770     0.0770 H     1 <1>   0.0800 
 22 H       -2.0930    -1.6160     1.6650 H     1 <1>   0.0800 
 23 H       -2.7410     1.1740    -1.4130 H     1 <1>   0.0800 
 24 H       -2.9170    -0.5140    -1.7890 H     1 <1>   0.0800 
 25 H       -3.4340     2.1090     1.5480 H     1 <1>   0.1500 
 26 H       -4.1520    -2.6010     1.4130 H     1 <1>   0.0800 
 27 H       -4.7940     1.2490    -0.3020 H     1 <1>   0.0800 
 28 H       -5.1070    -0.0340    -1.4150 H     1 <1>   0.0800 
 29 H        0.0230     4.9520    -0.4740 H     1 <1>   0.1500 
 30 H        1.4040     3.1000    -0.8870 H     1 <1>   0.0800 
 31 H        0.6060     1.5620    -1.0920 H     1 <1>   0.0800 
 32 H        1.3480     1.9640     0.4370 H     1 <1>   0.0800 
 33 H       -5.1820    -2.6330    -0.6560 H     1 <1>   0.4000 
 34 H       -4.5990    -0.1820     1.5280 H     1 <1>   0.0800 
 35 H       -2.0920     5.9460     0.2940 H     1 <1>   0.1500 
 36 H       -4.6780     3.9780     1.7110 H     1 <1>   0.4500 
@<TRIPOS>BOND
  1   1   2  2   
  2   2   3  am  
  3   2   4  1   
  4   3   5  1   
  5   3   6  1   
  6   4   7  ar  
  7   4   8  ar  
  8   5   9  1   
  9   5  21  1   
 10   5  22  1   
 11   6  10  1   
 12   6  23  1   
 13   6  24  1   
 14   7  11  ar  
 15   7  12  1   
 16   8  13  ar  
 17   8  25  1   
 18   9  14  1   
 19   9  15  1   
 20   9  26  1   
 21  10  15  1   
 22  10  27  1   
 23  10  28  1   
 24  11  16  ar  
 25  11  29  1   
 26  12  30  1   
 27  12  31  1   
 28  12  32  1   
 29  13  16  ar  
 30  13  17  1   
 31  14  33  1   
 32  15  18  1   
 33  15  34  1   
 34  16  35  1   
 35  17  36  1   
 36  18  19  ar  
 37  18  20  ar  
@<TRIPOS>SUBSTRUCTURE
  1 ****   3 GROUP 4 **** **** 0

# MOE 2024.06 (io_trps.svl 2023.06)
