@<TRIPOS>MOLECULE
NONAME
51 53 1 0 0 
SMALL
USER_CHARGES


@<TRIPOS>ATOM
  1 O        0.2330    -0.6320    -0.1120 O.3   1 <1>  -0.6800 
  2 C        1.2490    -1.2460    -0.8100 C.3   1 <1>   0.2000 
  3 C        1.6320    -2.5540    -0.1280 C.3   1 <1>  -0.1600 
  4 C        2.5020    -0.3820    -0.7490 C.3   1 <1>  -0.1600 
  5 C        3.1110    -2.7550    -0.4850 C.3   1 <1>  -0.0800 
  6 C        3.6670    -1.3750    -0.8510 C.3   1 <1>  -0.0800 
  7 C        3.9960    -3.2760     0.6590 C.3   1 <1>  -0.1600 
  8 C        4.8260    -1.1150     0.1220 C.3   1 <1>  -0.1600 
  9 C        5.3130    -2.4940     0.5670 C.3   1 <1>   0.4230 
 10 N        6.2820    -2.9970    -0.4670 N.4   1 <1>  -0.9590 
 11 C        7.6900    -2.8960     0.0550 C.3   1 <1>   0.5240 
 12 C        6.0480    -4.3730    -1.0050 C.3   1 <1>   0.2630 
 13 C        8.0700    -1.4670     0.4270 C.2   1 <1>   0.1080 
 14 N        7.7560    -0.9250     1.5640 N.2   1 <1>  -0.7070 
 15 C        8.7730    -0.5920    -0.3940 C.2   1 <1>  -0.1500 
 16 N        8.2630     0.3240     1.4980 N.pl3 1 <1>   0.3000 
 17 C        8.8790     0.5530     0.3190 C.2   1 <1>  -0.3320 
 18 C        9.5360     1.8850    -0.0250 C.3   1 <1>   0.1800 
 19 C        8.4780     2.9940     0.0000 C.3   1 <1>  -0.2400 
 20 C       10.6340     2.1920     1.0000 C.3   1 <1>  -0.2400 
 21 C       10.1640     1.8280    -1.4230 C.3   1 <1>  -0.2400 
 22 H       -0.5740    -1.1810    -0.1290 H     1 <1>   0.4000 
 23 H        0.9380    -1.4070    -1.8300 H     1 <1>   0.0800 
 24 H        1.5110    -2.4430     0.9360 H     1 <1>   0.0800 
 25 H        1.0270    -3.3720    -0.4760 H     1 <1>   0.0800 
 26 H        2.5180     0.3330    -1.5520 H     1 <1>   0.0800 
 27 H        2.5240     0.1400     0.1920 H     1 <1>   0.0800 
 28 H        3.1850    -3.3980    -1.3470 H     1 <1>   0.0800 
 29 H        4.0290    -1.4030    -1.8660 H     1 <1>   0.0800 
 30 H        4.1010    -4.3450     0.6680 H     1 <1>   0.0800 
 31 H        3.5480    -3.0040     1.6000 H     1 <1>   0.0800 
 32 H        4.4610    -0.6100     0.9990 H     1 <1>   0.0800 
 33 H        5.5950    -0.5000    -0.3100 H     1 <1>   0.0800 
 34 H        5.7900    -2.4400     1.5340 H     1 <1>   0.0800 
 35 H        6.2120    -2.3200    -1.2350 H     1 <1>   0.4500 
 36 H        7.7980    -3.5120     0.9310 H     1 <1>   0.0800 
 37 H        8.3820    -3.2490    -0.6910 H     1 <1>   0.0800 
 38 H        6.0980    -5.0990    -0.2100 H     1 <1>   0.0800 
 39 H        6.7900    -4.6190    -1.7470 H     1 <1>   0.0800 
 40 H        5.0760    -4.4330    -1.4660 H     1 <1>   0.0800 
 41 H        9.1470    -0.7970    -1.3820 H     1 <1>   0.1500 
 42 H        8.1790     1.0000     2.2690 H     1 <1>   0.2700 
 43 H        8.9160     3.9370    -0.2760 H     1 <1>   0.0800 
 44 H        8.0480     3.0970     0.9790 H     1 <1>   0.0800 
 45 H        7.6900     2.7690    -0.6960 H     1 <1>   0.0800 
 46 H       11.1360     3.1100     0.7500 H     1 <1>   0.0800 
 47 H       11.3610     1.4000     1.0110 H     1 <1>   0.0800 
 48 H       10.2240     2.2920     1.9880 H     1 <1>   0.0800 
 49 H       10.6300     2.7660    -1.6660 H     1 <1>   0.0800 
 50 H        9.4140     1.6220    -2.1640 H     1 <1>   0.0800 
 51 H       10.9140     1.0580    -1.4660 H     1 <1>   0.0800 
@<TRIPOS>BOND
  1   1   2  1   
  2   1  22  1   
  3   2   3  1   
  4   2   4  1   
  5   2  23  1   
  6   3   5  1   
  7   3  24  1   
  8   3  25  1   
  9   4   6  1   
 10   4  26  1   
 11   4  27  1   
 12   5   6  1   
 13   5   7  1   
 14   5  28  1   
 15   6   8  1   
 16   6  29  1   
 17   7   9  1   
 18   7  30  1   
 19   7  31  1   
 20   8   9  1   
 21   8  32  1   
 22   8  33  1   
 23   9  10  1   
 24   9  34  1   
 25  10  11  1   
 26  10  12  1   
 27  10  35  1   
 28  11  13  1   
 29  11  36  1   
 30  11  37  1   
 31  12  38  1   
 32  12  39  1   
 33  12  40  1   
 34  13  14  2   
 35  13  15  1   
 36  14  16  1   
 37  15  17  2   
 38  15  41  1   
 39  16  17  1   
 40  16  42  1   
 41  17  18  1   
 42  18  19  1   
 43  18  20  1   
 44  18  21  1   
 45  19  43  1   
 46  19  44  1   
 47  19  45  1   
 48  20  46  1   
 49  20  47  1   
 50  20  48  1   
 51  21  49  1   
 52  21  50  1   
 53  21  51  1   
@<TRIPOS>SUBSTRUCTURE
  1 ****   8 GROUP 4 **** **** 0

# MOE 2024.06 (io_trps.svl 2023.06)
