@<TRIPOS>MOLECULE
NONAME
55 58 1 0 0 
SMALL
USER_CHARGES


@<TRIPOS>ATOM
  1 O       -0.4810     0.4830     1.0330 O.2   1 <1>  -0.5700 
  2 C       -1.5360     1.0670     0.8720 C.2   1 <1>   0.5440 
  3 N       -2.7070     0.4520     1.2700 N.am  1 <1>  -0.6600 
  4 C       -1.5310     2.3770     0.2510 C.ar  1 <1>   0.0860 
  5 C       -4.0470     0.7830     0.7140 C.3   1 <1>   0.1400 
  6 C       -2.7030    -0.7590     2.1380 C.3   1 <1>   0.1400 
  7 C       -2.2000     3.4620     0.8210 C.ar  1 <1>  -0.1500 
  8 C       -0.8480     2.6000    -0.9450 C.ar  1 <1>  -0.1500 
  9 C       -4.5500    -0.4020    -0.1130 C.3   1 <1>  -0.1600 
 10 C       -3.1970    -1.9610     1.3300 C.3   1 <1>  -0.1600 
 11 C       -2.2050     4.7030     0.2130 C.ar  1 <1>  -0.1500 
 12 C       -0.8470     3.8390    -1.5600 C.ar  1 <1>  -0.1500 
 13 C       -4.5770    -1.7040     0.7060 C.3   1 <1>   0.4240 
 14 C       -1.5340     4.9030    -0.9820 C.ar  1 <1>   0.0830 
 15 O       -5.4480    -1.5140     1.7960 O.3   1 <1>  -0.5600 
 16 C       -5.0030    -2.9040    -0.1680 C.ar  1 <1>  -0.1430 
 17 O       -1.5910     6.1430    -1.5160 O.3   1 <1>  -0.3630 
 18 C       -6.8100    -1.7150     1.5770 C.3   1 <1>   0.1200 
 19 C       -6.1730    -3.6090     0.0960 C.ar  1 <1>  -0.1430 
 20 C       -4.2220    -3.3010    -1.2490 C.ar  1 <1>  -0.1500 
 21 C       -0.9170     6.4710    -2.7080 C.3   1 <1>   0.1200 
 22 C       -7.0470    -3.1880     1.2610 C.3   1 <1>  -0.0160 
 23 C       -6.5460    -4.6860    -0.6920 C.ar  1 <1>  -0.1500 
 24 C       -4.5940    -4.3730    -2.0380 C.ar  1 <1>  -0.1500 
 25 C       -1.1780     7.9440    -3.0090 C.3   1 <1>  -0.2400 
 26 C       -5.7550    -5.0750    -1.7680 C.ar  1 <1>   0.0830 
 27 O       -6.0470    -6.1150    -2.5880 O.3   1 <1>  -0.3620 
 28 C       -7.1950    -6.9080    -2.3860 C.3   1 <1>   0.0400 
 29 H       -4.0030     1.6560     0.0880 H     1 <1>   0.0800 
 30 H       -4.7260     0.9830     1.5260 H     1 <1>   0.0800 
 31 H       -3.3510    -0.5900     2.9810 H     1 <1>   0.0800 
 32 H       -1.7130    -0.9550     2.5150 H     1 <1>   0.0800 
 33 H       -2.7180     3.3210     1.7540 H     1 <1>   0.1500 
 34 H       -0.3110     1.7800    -1.3880 H     1 <1>   0.1500 
 35 H       -3.8940    -0.5220    -0.9550 H     1 <1>   0.0800 
 36 H       -5.5260    -0.1910    -0.5040 H     1 <1>   0.0800 
 37 H       -3.2510    -2.8280     1.9610 H     1 <1>   0.0800 
 38 H       -2.4720    -2.1630     0.5650 H     1 <1>   0.0800 
 39 H       -2.7260     5.5300     0.6620 H     1 <1>   0.1500 
 40 H       -0.3090     3.9570    -2.4800 H     1 <1>   0.1500 
 41 H       -7.1360    -1.0880     0.7660 H     1 <1>   0.0800 
 42 H       -7.3340    -1.4330     2.4740 H     1 <1>   0.0800 
 43 H       -3.3130    -2.7780    -1.4880 H     1 <1>   0.1500 
 44 H       -1.2980     5.8480    -3.4980 H     1 <1>   0.0800 
 45 H        0.1350     6.2930    -2.5640 H     1 <1>   0.0800 
 46 H       -8.0840    -3.3360     1.0230 H     1 <1>   0.0800 
 47 H       -6.8090    -3.7820     2.1260 H     1 <1>   0.0800 
 48 H       -7.4510    -5.2120    -0.4590 H     1 <1>   0.1500 
 49 H       -3.9840    -4.6750    -2.8700 H     1 <1>   0.1500 
 50 H       -2.2330     8.1130    -3.1330 H     1 <1>   0.0800 
 51 H       -0.6750     8.2260    -3.9160 H     1 <1>   0.0800 
 52 H       -0.8090     8.5560    -2.2060 H     1 <1>   0.0800 
 53 H       -7.2130    -7.6690    -3.1450 H     1 <1>   0.0800 
 54 H       -8.0680    -6.2850    -2.4720 H     1 <1>   0.0800 
 55 H       -7.1380    -7.3630    -1.4130 H     1 <1>   0.0800 
@<TRIPOS>BOND
  1   1   2  2   
  2   2   3  am  
  3   2   4  1   
  4   3   5  1   
  5   3   6  1   
  6   4   7  ar  
  7   4   8  ar  
  8   5   9  1   
  9   5  29  1   
 10   5  30  1   
 11   6  10  1   
 12   6  31  1   
 13   6  32  1   
 14   7  11  ar  
 15   7  33  1   
 16   8  12  ar  
 17   8  34  1   
 18   9  13  1   
 19   9  35  1   
 20   9  36  1   
 21  10  13  1   
 22  10  37  1   
 23  10  38  1   
 24  11  14  ar  
 25  11  39  1   
 26  12  14  ar  
 27  12  40  1   
 28  13  15  1   
 29  13  16  1   
 30  14  17  1   
 31  15  18  1   
 32  16  19  ar  
 33  16  20  ar  
 34  17  21  1   
 35  18  22  1   
 36  18  41  1   
 37  18  42  1   
 38  19  22  1   
 39  19  23  ar  
 40  20  24  ar  
 41  20  43  1   
 42  21  25  1   
 43  21  44  1   
 44  21  45  1   
 45  22  46  1   
 46  22  47  1   
 47  23  26  ar  
 48  23  48  1   
 49  24  26  ar  
 50  24  49  1   
 51  25  50  1   
 52  25  51  1   
 53  25  52  1   
 54  26  27  1   
 55  27  28  1   
 56  28  53  1   
 57  28  54  1   
 58  28  55  1   
@<TRIPOS>SUBSTRUCTURE
  1 ****   9 GROUP 4 **** **** 0

# MOE 2024.06 (io_trps.svl 2023.06)
