@<TRIPOS>MOLECULE
NONAME
50 53 1 0 0 
SMALL
USER_CHARGES


@<TRIPOS>ATOM
  1 CL      -0.8740     0.5280    -0.2200 Cl    1 <1>  -0.1770 
  2 C       -0.8520     2.2750    -0.1450 C.ar  1 <1>   0.1770 
  3 C       -1.9690     2.9510     0.3460 C.ar  1 <1>  -0.1440 
  4 C        0.2790     2.9430    -0.5900 C.ar  1 <1>  -0.1500 
  5 C       -1.9590     4.3420     0.3960 C.ar  1 <1>  -0.1500 
  6 C       -3.1860     2.1850     0.8260 C.3   1 <1>   0.4870 
  7 C        0.2570     4.3210    -0.5300 C.ar  1 <1>   0.0820 
  8 C       -0.8290     4.9980    -0.0530 C.ar  1 <1>   0.0820 
  9 N       -3.8850     1.5570    -0.3350 N.4   1 <1>  -0.9590 
 10 O        1.2100     5.1820    -0.8960 O.3   1 <1>  -0.3630 
 11 O       -0.6070     6.3140    -0.1000 O.3   1 <1>  -0.3620 
 12 C       -4.3450     2.5900    -1.3270 C.3   1 <1>   0.3430 
 13 C       -4.9800     0.6600     0.1300 C.3   1 <1>   0.3430 
 14 C        0.7090     6.4910    -0.6260 C.3   1 <1>   0.4000 
 15 C       -5.8660     2.7600    -1.3640 C.3   1 <1>  -0.1600 
 16 C       -6.1290     1.4470     0.7700 C.3   1 <1>  -0.1600 
 17 C       -6.4710     2.7730     0.0500 C.3   1 <1>   0.2800 
 18 O       -5.7720     3.7870     0.7430 O.3   1 <1>  -0.5600 
 19 C       -8.0140     3.0040     0.0540 C.3   1 <1>   0.2000 
 20 C       -6.4830     4.8690     1.2830 C.3   1 <1>   0.1200 
 21 O       -8.6560     2.0870    -0.7850 O.3   1 <1>  -0.6800 
 22 C       -8.4500     4.4720    -0.2460 C.3   1 <1>   0.2800 
 23 C       -7.3730     5.4740     0.1980 C.3   1 <1>  -0.1600 
 24 O       -9.5670     4.7070     0.5300 O.3   1 <1>  -0.6800 
 25 C       -8.8980     4.7600    -1.6870 C.3   1 <1>  -0.2400 
 26 H        1.1380     2.4180    -0.9660 H     1 <1>   0.1500 
 27 H       -2.7920     4.9150     0.7690 H     1 <1>   0.1500 
 28 H       -3.8500     2.8520     1.3480 H     1 <1>   0.0800 
 29 H       -2.8690     1.4210     1.5180 H     1 <1>   0.0800 
 30 H       -3.1690     0.9790    -0.7990 H     1 <1>   0.4500 
 31 H       -3.9090     3.5440    -1.0790 H     1 <1>   0.0800 
 32 H       -4.0010     2.3260    -2.3140 H     1 <1>   0.0800 
 33 H       -5.3700     0.1230    -0.7210 H     1 <1>   0.0800 
 34 H       -4.6010    -0.0670     0.8300 H     1 <1>   0.0800 
 35 H        1.3310     6.9710     0.1090 H     1 <1>   0.0800 
 36 H        0.6620     7.0570    -1.5400 H     1 <1>   0.0800 
 37 H       -6.3010     1.9660    -1.9450 H     1 <1>   0.0800 
 38 H       -6.0910     3.6770    -1.8720 H     1 <1>   0.0800 
 39 H       -5.9230     1.6350     1.8080 H     1 <1>   0.0800 
 40 H       -6.9830     0.7940     0.7470 H     1 <1>   0.0800 
 41 H       -8.3490     2.7720     1.0510 H     1 <1>   0.0800 
 42 H       -7.0640     4.5250     2.1230 H     1 <1>   0.0800 
 43 H       -5.7660     5.5930     1.6300 H     1 <1>   0.0800 
 44 H       -9.6230     2.2400    -0.7290 H     1 <1>   0.4000 
 45 H       -6.7430     5.7370    -0.6320 H     1 <1>   0.0800 
 46 H       -7.8240     6.3830     0.5560 H     1 <1>   0.0800 
 47 H       -9.9530     5.5750     0.3040 H     1 <1>   0.4000 
 48 H       -8.1150     4.5240    -2.3810 H     1 <1>   0.0800 
 49 H       -9.1430     5.8000    -1.8070 H     1 <1>   0.0800 
 50 H       -9.7580     4.1700    -1.9480 H     1 <1>   0.0800 
@<TRIPOS>BOND
  1   1   2  1   
  2   2   3  ar  
  3   2   4  ar  
  4   3   5  ar  
  5   3   6  1   
  6   4   7  ar  
  7   4  26  1   
  8   5   8  ar  
  9   5  27  1   
 10   6   9  1   
 11   6  28  1   
 12   6  29  1   
 13   7   8  ar  
 14   7  10  1   
 15   8  11  1   
 16   9  12  1   
 17   9  13  1   
 18   9  30  1   
 19  10  14  1   
 20  11  14  1   
 21  12  15  1   
 22  12  31  1   
 23  12  32  1   
 24  13  16  1   
 25  13  33  1   
 26  13  34  1   
 27  14  35  1   
 28  14  36  1   
 29  15  17  1   
 30  15  37  1   
 31  15  38  1   
 32  16  17  1   
 33  16  39  1   
 34  16  40  1   
 35  17  18  1   
 36  17  19  1   
 37  18  20  1   
 38  19  21  1   
 39  19  22  1   
 40  19  41  1   
 41  20  23  1   
 42  20  42  1   
 43  20  43  1   
 44  21  44  1   
 45  22  23  1   
 46  22  24  1   
 47  22  25  1   
 48  23  45  1   
 49  23  46  1   
 50  24  47  1   
 51  25  48  1   
 52  25  49  1   
 53  25  50  1   
@<TRIPOS>SUBSTRUCTURE
  1 ****  12 GROUP 4 **** **** 0

# MOE 2024.06 (io_trps.svl 2023.06)
