@<TRIPOS>MOLECULE
NONAME
51 53 1 0 0 
SMALL
USER_CHARGES


@<TRIPOS>ATOM
  1 F       -0.4460     0.5770     0.5000 F     1 <1>  -0.1900 
  2 C       -1.7390     0.7750     0.4720 C.ar  1 <1>   0.1900 
  3 C       -2.3290     1.7050    -0.3910 C.ar  1 <1>   0.0830 
  4 C       -2.4960     0.0160     1.3430 C.ar  1 <1>  -0.1500 
  5 O       -1.6940     2.5100    -1.2900 O.3   1 <1>  -0.3630 
  6 C       -3.7070     1.8380    -0.3470 C.ar  1 <1>  -0.1500 
  7 C       -3.8690     0.1740     1.3620 C.ar  1 <1>  -0.1500 
  8 C       -0.2920     2.5400    -1.4400 C.3   1 <1>   0.0400 
  9 C       -4.5060     1.0830     0.5140 C.ar  1 <1>   0.0530 
 10 C       -5.9380     1.2430     0.5150 C.2   1 <1>   0.0870 
 11 O       -6.4810     2.4030     0.2390 O.3   1 <1>  -0.0190 
 12 C       -6.9620     0.3780     0.7310 C.2   1 <1>  -0.0860 
 13 N       -7.7900     2.3740     0.2630 N.2   1 <1>  -0.4100 
 14 C       -8.1020     1.1630     0.5690 C.2   1 <1>   0.3720 
 15 C       -7.0000    -1.0200     1.0000 C.2   1 <1>   0.7160 
 16 N       -9.4150     0.6920     0.7230 N.pl3 1 <1>  -0.8210 
 17 O       -6.7280    -1.4340     2.1130 O.2   1 <1>  -0.5700 
 18 N       -7.3680    -1.9140     0.0220 N.am  1 <1>  -0.6600 
 19 C       -9.7990     0.4630     2.1460 C.3   1 <1>   0.1290 
 20 C      -10.4610     1.4650    -0.0040 C.3   1 <1>   0.1290 
 21 C       -8.1060    -3.1670     0.3680 C.3   1 <1>   0.1400 
 22 C       -7.3010    -1.6110    -1.4350 C.3   1 <1>   0.1400 
 23 C       -9.5450    -3.1360    -0.1960 C.3   1 <1>   0.2800 
 24 C       -8.7110    -1.5620    -2.0350 C.3   1 <1>  -0.1600 
 25 O      -10.2520    -2.1300     0.4290 O.3   1 <1>  -0.6800 
 26 C       -9.5280    -2.8260    -1.7030 C.3   1 <1>  -0.1600 
 27 C      -10.2950    -4.4340     0.0960 C.3   1 <1>  -0.2400 
 28 H       -2.0150    -0.6880     1.9980 H     1 <1>   0.1500 
 29 H       -4.1710     2.5500    -1.0070 H     1 <1>   0.1500 
 30 H       -4.4500    -0.4130     2.0520 H     1 <1>   0.1500 
 31 H       -0.0510     3.2710    -2.1910 H     1 <1>   0.0800 
 32 H        0.0480     1.5690    -1.7560 H     1 <1>   0.0800 
 33 H        0.1560     2.8200    -0.5030 H     1 <1>   0.0800 
 34 H       -9.0770    -0.1690     2.6330 H     1 <1>   0.0800 
 35 H      -10.7600    -0.0210     2.1960 H     1 <1>   0.0800 
 36 H       -9.8480     1.4030     2.6700 H     1 <1>   0.0800 
 37 H      -10.1410     1.6550    -1.0150 H     1 <1>   0.0800 
 38 H      -10.6350     2.4080     0.4870 H     1 <1>   0.0800 
 39 H      -11.3790     0.9030    -0.0330 H     1 <1>   0.0800 
 40 H       -8.1480    -3.3040     1.4350 H     1 <1>   0.0800 
 41 H       -7.5760    -4.0040    -0.0490 H     1 <1>   0.0800 
 42 H       -6.7310    -2.3850    -1.9200 H     1 <1>   0.0800 
 43 H       -6.7980    -0.6760    -1.6100 H     1 <1>   0.0800 
 44 H       -8.6370    -1.4540    -3.1020 H     1 <1>   0.0800 
 45 H       -9.2200    -0.6910    -1.6630 H     1 <1>   0.0800 
 46 H       -9.7580    -1.2760     0.3510 H     1 <1>   0.4000 
 47 H      -10.5370    -2.7170    -2.0610 H     1 <1>   0.0800 
 48 H       -9.0900    -3.6610    -2.2200 H     1 <1>   0.0800 
 49 H      -10.3300    -4.6110     1.1560 H     1 <1>   0.0800 
 50 H       -9.8010    -5.2650    -0.3730 H     1 <1>   0.0800 
 51 H      -11.3000    -4.3750    -0.2820 H     1 <1>   0.0800 
@<TRIPOS>BOND
  1   1   2  1   
  2   2   3  ar  
  3   2   4  ar  
  4   3   5  1   
  5   3   6  ar  
  6   4   7  ar  
  7   4  28  1   
  8   5   8  1   
  9   6   9  ar  
 10   6  29  1   
 11   7   9  ar  
 12   7  30  1   
 13   8  31  1   
 14   8  32  1   
 15   8  33  1   
 16   9  10  1   
 17  10  11  1   
 18  10  12  2   
 19  11  13  1   
 20  12  14  1   
 21  12  15  1   
 22  13  14  2   
 23  14  16  1   
 24  15  17  2   
 25  15  18  am  
 26  16  19  1   
 27  16  20  1   
 28  18  21  1   
 29  18  22  1   
 30  19  34  1   
 31  19  35  1   
 32  19  36  1   
 33  20  37  1   
 34  20  38  1   
 35  20  39  1   
 36  21  23  1   
 37  21  40  1   
 38  21  41  1   
 39  22  24  1   
 40  22  42  1   
 41  22  43  1   
 42  23  25  1   
 43  23  26  1   
 44  23  27  1   
 45  24  26  1   
 46  24  44  1   
 47  24  45  1   
 48  25  46  1   
 49  26  47  1   
 50  26  48  1   
 51  27  49  1   
 52  27  50  1   
 53  27  51  1   
@<TRIPOS>SUBSTRUCTURE
  1 ****  12 GROUP 4 **** **** 0

# MOE 2024.06 (io_trps.svl 2023.06)
