@<TRIPOS>MOLECULE
NONAME
63 65 1 0 0 
SMALL
USER_CHARGES


@<TRIPOS>ATOM
  1 O        1.5090    -0.0320     0.4910 O.2   1 <1>  -0.5700 
  2 C        2.0310    -0.5530    -0.4670 C.2   1 <1>   0.5690 
  3 N        2.5090     0.2120    -1.5090 N.am  1 <1>  -0.6600 
  4 C        2.0990    -2.0970    -0.4490 C.3   1 <1>   0.4040 
  5 C        3.4500    -0.2700    -2.5750 C.3   1 <1>   0.1400 
  6 C        1.9520     1.5860    -1.7080 C.3   1 <1>   0.1400 
  7 N        1.0460    -2.7270     0.4350 N.4   1 <1>  -0.9590 
  8 C        4.5560     0.7520    -2.9390 C.3   1 <1>   0.3430 
  9 C        2.8430     2.6360    -1.0400 C.3   1 <1>  -0.1600 
 10 C        1.4000    -4.1210     0.8210 C.3   1 <1>   0.3430 
 11 C       -0.3190    -2.5710    -0.1480 C.3   1 <1>   0.3430 
 12 N        4.9860     1.5990    -1.7730 N.4   1 <1>  -0.9590 
 13 C        4.1900     2.8620    -1.7230 C.3   1 <1>   0.3430 
 14 C        0.5120    -4.6530     1.9470 C.3   1 <1>  -0.1600 
 15 C       -1.3450    -2.4380     0.9750 C.3   1 <1>  -0.1600 
 16 C        6.4550     1.8670    -1.8160 C.3   1 <1>   0.3430 
 17 C       -0.9210    -4.9660     1.4930 C.3   1 <1>  -0.1600 
 18 C       -1.8770    -3.7660     1.5400 C.3   1 <1>  -0.1600 
 19 C        6.9570     2.3460    -0.4520 C.3   1 <1>  -0.1600 
 20 C        8.4750     2.5800    -0.4710 C.3   1 <1>   0.0960 
 21 N        8.9120     3.1240     0.8300 N.pl3 1 <1>   0.0480 
 22 C        9.4130     2.4750     1.9100 C.2   1 <1>   0.0060 
 23 C        8.8550     4.4160     1.2030 C.2   1 <1>  -0.3020 
 24 N        9.6630     3.2520     2.9100 N.2   1 <1>  -0.5650 
 25 C        9.6660     0.9810     1.9640 C.3   1 <1>  -0.0600 
 26 C        9.3170     4.4740     2.4700 C.2   1 <1>   0.0770 
 27 H        3.0730    -2.3730    -0.0880 H     1 <1>   0.0800 
 28 H        1.9930    -2.4660    -1.4540 H     1 <1>   0.0800 
 29 H        2.8910    -0.5050    -3.4650 H     1 <1>   0.0800 
 30 H        3.9310    -1.1750    -2.2500 H     1 <1>   0.0800 
 31 H        0.9690     1.6400    -1.2660 H     1 <1>   0.0800 
 32 H        1.8360     1.7970    -2.7580 H     1 <1>   0.0800 
 33 H        1.0340    -2.1480     1.2930 H     1 <1>   0.4500 
 34 H        4.1980     1.3880    -3.7320 H     1 <1>   0.0800 
 35 H        5.4000     0.2070    -3.3320 H     1 <1>   0.0800 
 36 H        2.9860     2.3870    -0.0030 H     1 <1>   0.0800 
 37 H        2.3130     3.5720    -1.0570 H     1 <1>   0.0800 
 38 H        2.4230    -4.1440     1.1640 H     1 <1>   0.0800 
 39 H        1.3220    -4.7720    -0.0340 H     1 <1>   0.0800 
 40 H       -0.5650    -3.4000    -0.7920 H     1 <1>   0.0800 
 41 H       -0.3550    -1.6650    -0.7320 H     1 <1>   0.0800 
 42 H        4.7580     1.0840    -0.9100 H     1 <1>   0.4500 
 43 H        4.7240     3.6140    -1.1640 H     1 <1>   0.0800 
 44 H        4.0380     3.2440    -2.7200 H     1 <1>   0.0800 
 45 H        0.5150    -3.9860     2.7910 H     1 <1>   0.0800 
 46 H        0.9520    -5.5780     2.2800 H     1 <1>   0.0800 
 47 H       -2.1890    -1.8920     0.5900 H     1 <1>   0.0800 
 48 H       -0.9360    -1.8380     1.7700 H     1 <1>   0.0800 
 49 H        6.6730     2.6080    -2.5690 H     1 <1>   0.0800 
 50 H        6.9800     0.9620    -2.0760 H     1 <1>   0.0800 
 51 H       -1.3270    -5.7260     2.1410 H     1 <1>   0.0800 
 52 H       -0.9080    -5.3870     0.5010 H     1 <1>   0.0800 
 53 H       -2.7700    -4.0390     1.0010 H     1 <1>   0.0800 
 54 H       -2.1780    -3.6000     2.5620 H     1 <1>   0.0800 
 55 H        6.7340     1.6060     0.2970 H     1 <1>   0.0800 
 56 H        6.4800     3.2710    -0.1830 H     1 <1>   0.0800 
 57 H        8.7410     3.2910    -1.2340 H     1 <1>   0.0800 
 58 H        9.0050     1.6640    -0.6600 H     1 <1>   0.0800 
 59 H        8.5050     5.2110     0.5720 H     1 <1>   0.1500 
 60 H        8.7540     0.4410     1.7990 H     1 <1>   0.0800 
 61 H       10.0490     0.7160     2.9340 H     1 <1>   0.0800 
 62 H       10.3950     0.7020     1.2250 H     1 <1>   0.0800 
 63 H        9.4220     5.3430     3.0990 H     1 <1>   0.1500 
@<TRIPOS>BOND
  1   1   2  2   
  2   2   3  am  
  3   2   4  1   
  4   3   5  1   
  5   3   6  1   
  6   4   7  1   
  7   4  27  1   
  8   4  28  1   
  9   5   8  1   
 10   5  29  1   
 11   5  30  1   
 12   6   9  1   
 13   6  31  1   
 14   6  32  1   
 15   7  10  1   
 16   7  11  1   
 17   7  33  1   
 18   8  12  1   
 19   8  34  1   
 20   8  35  1   
 21   9  13  1   
 22   9  36  1   
 23   9  37  1   
 24  10  14  1   
 25  10  38  1   
 26  10  39  1   
 27  11  15  1   
 28  11  40  1   
 29  11  41  1   
 30  12  13  1   
 31  12  16  1   
 32  12  42  1   
 33  13  43  1   
 34  13  44  1   
 35  14  17  1   
 36  14  45  1   
 37  14  46  1   
 38  15  18  1   
 39  15  47  1   
 40  15  48  1   
 41  16  19  1   
 42  16  49  1   
 43  16  50  1   
 44  17  18  1   
 45  17  51  1   
 46  17  52  1   
 47  18  53  1   
 48  18  54  1   
 49  19  20  1   
 50  19  55  1   
 51  19  56  1   
 52  20  21  1   
 53  20  57  1   
 54  20  58  1   
 55  21  22  1   
 56  21  23  1   
 57  22  24  2   
 58  22  25  1   
 59  23  26  2   
 60  23  59  1   
 61  24  26  1   
 62  25  60  1   
 63  25  61  1   
 64  25  62  1   
 65  26  63  1   
@<TRIPOS>SUBSTRUCTURE
  1 ****   3 GROUP 4 **** **** 0

# MOE 2024.06 (io_trps.svl 2023.06)
