@<TRIPOS>MOLECULE
NONAME
50 53 1 0 0 
SMALL
USER_CHARGES


@<TRIPOS>ATOM
  1 S       -0.4110    -0.2610    -1.9790 S.3   1 <1>  -0.2420 
  2 C        0.8930    -0.4940    -0.8150 C.2   1 <1>   0.6410 
  3 C       -0.6050    -2.0150    -2.1820 C.2   1 <1>  -0.0490 
  4 N        1.5120     0.4720    -0.2420 N.2   1 <1>  -0.6610 
  5 N        1.1230    -1.8490    -0.6350 N.pl3 1 <1>  -0.1080 
  6 C        0.2740    -2.6760    -1.4060 C.2   1 <1>   0.2090 
  7 C        2.4840     0.0400     0.6210 C.2   1 <1>   0.7810 
  8 N        2.0900    -2.3180     0.2230 N.2   1 <1>  -0.4920 
  9 N        0.4520    -4.0570    -1.2620 N.am  1 <1>  -0.5390 
 10 O        3.1250     0.9010     1.2120 O.2   1 <1>  -0.5700 
 11 C        2.7430    -1.3730     0.8260 C.2   1 <1>   0.3890 
 12 C       -0.2340    -5.0850    -1.8370 C.2   1 <1>   0.5690 
 13 C        3.8380    -1.7880     1.7990 C.3   1 <1>  -0.1790 
 14 O       -1.1130    -4.9020    -2.6420 O.2   1 <1>  -0.5700 
 15 C        0.1440    -6.5140    -1.4730 C.3   1 <1>  -0.0190 
 16 C       -1.0510    -7.4790    -1.5320 C.3   1 <1>   0.1400 
 17 C        0.7460    -6.7060    -0.0630 C.3   1 <1>  -0.0990 
 18 N       -0.7440    -8.4690    -0.4850 N.am  1 <1>  -0.6600 
 19 C        0.2290    -8.0540     0.3490 C.2   1 <1>   0.5690 
 20 C       -1.6000    -9.6570    -0.2670 C.3   1 <1>   0.2840 
 21 O        0.6430    -8.6440     1.3150 O.2   1 <1>  -0.5700 
 22 C       -3.0310    -9.2160    -0.0040 C.ar  1 <1>  -0.1440 
 23 C       -4.0080    -9.3540    -0.9770 C.ar  1 <1>  -0.1500 
 24 C       -3.3680    -8.6620     1.2200 C.ar  1 <1>  -0.1500 
 25 C       -5.3060    -8.9420    -0.7270 C.ar  1 <1>  -0.1500 
 26 C       -4.6650    -8.2510     1.4700 C.ar  1 <1>  -0.1500 
 27 C       -5.6420    -8.3870     0.4970 C.ar  1 <1>  -0.1440 
 28 C       -7.0670    -7.9330     0.7700 C.3   1 <1>  -0.0170 
 29 C       -7.8930    -9.0790     1.3590 C.3   1 <1>  -0.2400 
 30 H       -1.3640    -2.3560    -2.8640 H     1 <1>   0.1500 
 31 H        1.2010    -4.2900    -0.6070 H     1 <1>   0.3700 
 32 H        4.7800    -1.3800     1.4810 H     1 <1>   0.0800 
 33 H        3.9230    -2.8590     1.8470 H     1 <1>   0.0800 
 34 H        3.6120    -1.4140     2.7810 H     1 <1>   0.0800 
 35 H        0.8620    -6.8540    -2.1990 H     1 <1>   0.0800 
 36 H       -1.1370    -7.9450    -2.4990 H     1 <1>   0.0800 
 37 H       -1.9730    -6.9760    -1.2870 H     1 <1>   0.0800 
 38 H        0.3690    -5.9860     0.6390 H     1 <1>   0.0800 
 39 H        1.8200    -6.6970    -0.0740 H     1 <1>   0.0800 
 40 H       -1.2350   -10.2170     0.5770 H     1 <1>   0.0800 
 41 H       -1.5540   -10.2910    -1.1340 H     1 <1>   0.0800 
 42 H       -3.7660    -9.7810    -1.9340 H     1 <1>   0.1500 
 43 H       -2.6150    -8.5480     1.9820 H     1 <1>   0.1500 
 44 H       -6.0550    -9.0550    -1.4900 H     1 <1>   0.1500 
 45 H       -4.9110    -7.8250     2.4260 H     1 <1>   0.1500 
 46 H       -7.5200    -7.5930    -0.1450 H     1 <1>   0.0800 
 47 H       -7.0580    -7.1040     1.4570 H     1 <1>   0.0800 
 48 H       -7.9210    -9.9060     0.6720 H     1 <1>   0.0800 
 49 H       -8.8990    -8.7520     1.5510 H     1 <1>   0.0800 
 50 H       -7.4540    -9.4140     2.2820 H     1 <1>   0.0800 
@<TRIPOS>BOND
  1   1   2  1   
  2   1   3  1   
  3   2   4  2   
  4   2   5  1   
  5   3   6  2   
  6   3  30  1   
  7   4   7  1   
  8   5   6  1   
  9   5   8  1   
 10   6   9  1   
 11   7  10  2   
 12   7  11  1   
 13   8  11  2   
 14   9  12  am  
 15   9  31  1   
 16  11  13  1   
 17  12  14  2   
 18  12  15  1   
 19  13  32  1   
 20  13  33  1   
 21  13  34  1   
 22  15  16  1   
 23  15  17  1   
 24  15  35  1   
 25  16  18  1   
 26  16  36  1   
 27  16  37  1   
 28  17  19  1   
 29  17  38  1   
 30  17  39  1   
 31  18  19  am  
 32  18  20  1   
 33  19  21  2   
 34  20  22  1   
 35  20  40  1   
 36  20  41  1   
 37  22  23  ar  
 38  22  24  ar  
 39  23  25  ar  
 40  23  42  1   
 41  24  26  ar  
 42  24  43  1   
 43  25  27  ar  
 44  25  44  1   
 45  26  27  ar  
 46  26  45  1   
 47  27  28  1   
 48  28  29  1   
 49  28  46  1   
 50  28  47  1   
 51  29  48  1   
 52  29  49  1   
 53  29  50  1   
@<TRIPOS>SUBSTRUCTURE
  1 ****  12 GROUP 4 **** **** 0

# MOE 2024.06 (io_trps.svl 2023.06)
