@<TRIPOS>MOLECULE
NONAME
57 60 1 0 0 
SMALL
USER_CHARGES


@<TRIPOS>ATOM
  1 O       -0.0600    -0.5760     1.6850 O.2   1 <1>  -0.5700 
  2 C        0.9350    -0.9870     1.1190 C.2   1 <1>   0.5440 
  3 N        1.7980    -0.0840     0.5410 N.am  1 <1>  -0.6600 
  4 C        1.1710    -2.4150     1.0570 C.ar  1 <1>   0.0860 
  5 C        2.7990    -0.4240    -0.4960 C.3   1 <1>   0.1400 
  6 C        1.5610     1.3780     0.5830 C.3   1 <1>   0.1400 
  7 C        0.2040    -3.2960     0.6140 C.ar  1 <1>  -0.1500 
  8 C        2.3660    -3.0040     1.4470 C.ar  1 <1>  -0.1500 
  9 C        3.3350     0.9170    -0.9850 C.3   1 <1>  -0.1600 
 10 C        2.2240     1.9160    -0.6790 C.3   1 <1>  -0.1600 
 11 C        0.4480    -4.6610     0.5610 C.ar  1 <1>   0.4100 
 12 C        2.5250    -4.3710     1.3570 C.ar  1 <1>   0.1600 
 13 N        1.6010    -5.2100     0.9190 N.ar  1 <1>  -0.6200 
 14 N       -0.5450    -5.5030     0.1140 N.pl3 1 <1>  -0.8690 
 15 C       -0.5050    -6.9520     0.3480 C.3   1 <1>   0.2890 
 16 C        0.1590    -7.6170    -0.8540 C.3   1 <1>  -0.1600 
 17 C       -1.9260    -7.4710     0.5360 C.3   1 <1>  -0.1600 
 18 C        0.1580    -9.1310    -0.6940 C.3   1 <1>   0.3430 
 19 C       -1.9170    -8.9890     0.6850 C.3   1 <1>   0.3430 
 20 N       -1.2400    -9.6110    -0.4930 N.4   1 <1>  -0.9590 
 21 C       -1.3360   -11.1220    -0.4580 C.3   1 <1>   0.4040 
 22 C       -2.7720   -11.6430    -0.6520 C.2   1 <1>   0.5690 
 23 O       -3.5680   -10.8830    -1.1550 O.2   1 <1>  -0.5700 
 24 N       -3.1110   -12.9020    -0.2540 N.am  1 <1>  -0.5790 
 25 C       -4.4540   -13.4860    -0.3850 C.3   1 <1>   0.0490 
 26 C       -4.9200   -14.4170     0.6840 C.3   1 <1>  -0.2000 
 27 C       -4.5570   -14.9470    -0.6710 C.3   1 <1>  -0.2000 
 28 H        2.3120    -0.9490    -1.3000 H     1 <1>   0.0800 
 29 H        3.5910    -1.0300    -0.0910 H     1 <1>   0.0800 
 30 H        2.0330     1.7820     1.4620 H     1 <1>   0.0800 
 31 H        0.5080     1.6050     0.6020 H     1 <1>   0.0800 
 32 H       -0.7510    -2.9140     0.3090 H     1 <1>   0.1500 
 33 H        3.1620    -2.3890     1.8250 H     1 <1>   0.1500 
 34 H        3.5860     0.8900    -2.0310 H     1 <1>   0.0800 
 35 H        4.2160     1.1680    -0.4200 H     1 <1>   0.0800 
 36 H        2.5940     2.9160    -0.5400 H     1 <1>   0.0800 
 37 H        1.5010     1.9170    -1.4770 H     1 <1>   0.0800 
 38 H        3.4640    -4.8020     1.6640 H     1 <1>   0.1500 
 39 H       -1.4800    -5.0920     0.0820 H     1 <1>   0.4000 
 40 H        0.0650    -7.1590     1.2400 H     1 <1>   0.0800 
 41 H        1.1770    -7.2750    -0.9270 H     1 <1>   0.0800 
 42 H       -0.3500    -7.3440    -1.7610 H     1 <1>   0.0800 
 43 H       -2.5410    -7.1990    -0.3040 H     1 <1>   0.0800 
 44 H       -2.3500    -7.0360     1.4230 H     1 <1>   0.0800 
 45 H        0.7650    -9.4000     0.1560 H     1 <1>   0.0800 
 46 H        0.5850    -9.5820    -1.5750 H     1 <1>   0.0800 
 47 H       -2.9340    -9.3440     0.7560 H     1 <1>   0.0800 
 48 H       -1.3980    -9.2580     1.5910 H     1 <1>   0.0800 
 49 H       -1.8070    -9.3320    -1.3130 H     1 <1>   0.4500 
 50 H       -0.9550   -11.4890     0.4790 H     1 <1>   0.0800 
 51 H       -0.7350   -11.5340    -1.2500 H     1 <1>   0.0800 
 52 H       -2.4320   -13.5490     0.1520 H     1 <1>   0.3700 
 53 H       -5.1740   -12.8230    -0.8410 H     1 <1>   0.1000 
 54 H       -5.9610   -14.4110     0.9590 H     1 <1>   0.1000 
 55 H       -4.2770   -14.6390     1.5170 H     1 <1>   0.1000 
 56 H       -3.6610   -15.5320    -0.7770 H     1 <1>   0.1000 
 57 H       -5.3530   -15.2950    -1.3060 H     1 <1>   0.1000 
@<TRIPOS>BOND
  1   1   2  2   
  2   2   3  am  
  3   2   4  1   
  4   3   5  1   
  5   3   6  1   
  6   4   7  ar  
  7   4   8  ar  
  8   5   9  1   
  9   5  28  1   
 10   5  29  1   
 11   6  10  1   
 12   6  30  1   
 13   6  31  1   
 14   7  11  ar  
 15   7  32  1   
 16   8  12  ar  
 17   8  33  1   
 18   9  10  1   
 19   9  34  1   
 20   9  35  1   
 21  10  36  1   
 22  10  37  1   
 23  11  13  ar  
 24  11  14  1   
 25  12  13  ar  
 26  12  38  1   
 27  14  15  1   
 28  14  39  1   
 29  15  16  1   
 30  15  17  1   
 31  15  40  1   
 32  16  18  1   
 33  16  41  1   
 34  16  42  1   
 35  17  19  1   
 36  17  43  1   
 37  17  44  1   
 38  18  20  1   
 39  18  45  1   
 40  18  46  1   
 41  19  20  1   
 42  19  47  1   
 43  19  48  1   
 44  20  21  1   
 45  20  49  1   
 46  21  22  1   
 47  21  50  1   
 48  21  51  1   
 49  22  23  2   
 50  22  24  am  
 51  24  25  1   
 52  24  52  1   
 53  25  26  1   
 54  25  27  1   
 55  25  53  1   
 56  26  27  1   
 57  26  54  1   
 58  26  55  1   
 59  27  56  1   
 60  27  57  1   
@<TRIPOS>SUBSTRUCTURE
  1 ****  14 GROUP 4 **** **** 0

# MOE 2024.06 (io_trps.svl 2023.06)
