@<TRIPOS>MOLECULE
NONAME
44 46 1 0 0 
SMALL
USER_CHARGES


@<TRIPOS>ATOM
  1 O       -0.6220    -0.6230     1.7730 O.3   1 <1>  -0.5600 
  2 C       -0.2170    -1.7080     0.9770 C.3   1 <1>   0.2800 
  3 C       -1.9800    -0.2710     1.8150 C.3   1 <1>   0.1200 
  4 C       -1.4170    -2.3930     0.2570 C.3   1 <1>   0.2000 
  5 C        0.4550    -2.6970     1.9560 C.3   1 <1>  -0.1600 
  6 C        0.8030    -1.1110    -0.0210 C.3   1 <1>  -0.1600 
  7 C       -2.5020    -0.0890     0.3870 C.3   1 <1>  -0.1600 
  8 O       -0.9840    -3.4030    -0.6120 O.3   1 <1>  -0.6800 
  9 C       -2.3850    -1.3880    -0.4320 C.3   1 <1>   0.2800 
 10 C        1.5830    -3.4520     1.2640 C.3   1 <1>   0.3430 
 11 C        2.1990    -1.0950     0.5830 C.3   1 <1>   0.3430 
 12 O       -3.6250    -1.9940    -0.4380 O.3   1 <1>  -0.6800 
 13 C       -2.0850    -1.0750    -1.9060 C.3   1 <1>  -0.2400 
 14 N        2.6500    -2.4990     0.8350 N.4   1 <1>  -0.9590 
 15 C        3.4520    -3.0330    -0.2990 C.3   1 <1>   0.5240 
 16 C        4.8750    -2.5080    -0.1380 C.2   1 <1>   0.1080 
 17 N        5.3560    -2.1350     1.0160 N.2   1 <1>  -0.7070 
 18 C        5.8030    -2.3640    -1.1640 C.2   1 <1>  -0.1500 
 19 N        6.6230    -1.7460     0.7480 N.pl3 1 <1>   0.3000 
 20 C        6.9070    -1.8750    -0.5620 C.2   1 <1>  -0.3020 
 21 H       -2.5240    -1.0380     2.3420 H     1 <1>   0.0800 
 22 H       -2.0600     0.6500     2.3680 H     1 <1>   0.0800 
 23 H       -1.9860    -2.8950     1.0210 H     1 <1>   0.0800 
 24 H        0.8580    -2.1770     2.8080 H     1 <1>   0.0800 
 25 H       -0.2640    -3.4060     2.3240 H     1 <1>   0.0800 
 26 H        0.8370    -1.6780    -0.9320 H     1 <1>   0.0800 
 27 H        0.5140    -0.1080    -0.2800 H     1 <1>   0.0800 
 28 H       -1.9140     0.6900    -0.0670 H     1 <1>   0.0800 
 29 H       -3.5200     0.2580     0.4130 H     1 <1>   0.0800 
 30 H       -1.7810    -3.7840    -1.0420 H     1 <1>   0.4000 
 31 H        1.1740    -3.9560     0.4020 H     1 <1>   0.0800 
 32 H        1.9960    -4.1940     1.9280 H     1 <1>   0.0800 
 33 H        2.1610    -0.5550     1.5170 H     1 <1>   0.0800 
 34 H        2.8930    -0.5880    -0.0680 H     1 <1>   0.0800 
 35 H       -4.2680    -1.4310    -0.9100 H     1 <1>   0.4000 
 36 H       -1.1160    -0.6260    -2.0090 H     1 <1>   0.0800 
 37 H       -2.8090    -0.3840    -2.2990 H     1 <1>   0.0800 
 38 H       -2.1030    -1.9700    -2.5010 H     1 <1>   0.0800 
 39 H        3.3790    -2.4250     1.5720 H     1 <1>   0.4500 
 40 H        3.4790    -4.1090    -0.2590 H     1 <1>   0.0800 
 41 H        3.0340    -2.7250    -1.2420 H     1 <1>   0.0800 
 42 H        5.6640    -2.5960    -2.2070 H     1 <1>   0.1500 
 43 H        7.2660    -1.4010     1.4750 H     1 <1>   0.2700 
 44 H        7.8630    -1.6180    -0.9840 H     1 <1>   0.1500 
@<TRIPOS>BOND
  1   1   2  1   
  2   1   3  1   
  3   2   4  1   
  4   2   5  1   
  5   2   6  1   
  6   3   7  1   
  7   3  21  1   
  8   3  22  1   
  9   4   8  1   
 10   4   9  1   
 11   4  23  1   
 12   5  10  1   
 13   5  24  1   
 14   5  25  1   
 15   6  11  1   
 16   6  26  1   
 17   6  27  1   
 18   7   9  1   
 19   7  28  1   
 20   7  29  1   
 21   8  30  1   
 22   9  12  1   
 23   9  13  1   
 24  10  14  1   
 25  10  31  1   
 26  10  32  1   
 27  11  14  1   
 28  11  33  1   
 29  11  34  1   
 30  12  35  1   
 31  13  36  1   
 32  13  37  1   
 33  13  38  1   
 34  14  15  1   
 35  14  39  1   
 36  15  16  1   
 37  15  40  1   
 38  15  41  1   
 39  16  17  2   
 40  16  18  1   
 41  17  19  1   
 42  18  20  2   
 43  18  42  1   
 44  19  20  1   
 45  19  43  1   
 46  20  44  1   
@<TRIPOS>SUBSTRUCTURE
  1 ****   6 GROUP 4 **** **** 0

# MOE 2024.06 (io_trps.svl 2023.06)
