@<TRIPOS>MOLECULE
NONAME
55 59 1 0 0 
SMALL
USER_CHARGES


@<TRIPOS>ATOM
  1 O       -0.9520    -1.2460     1.8020 O.2   1 <1>  -0.5700 
  2 C       -1.5260    -1.2830     0.7270 C.2   1 <1>   0.5440 
  3 N       -0.9680    -2.0490    -0.2640 N.am  1 <1>  -0.7300 
  4 C       -2.7710    -0.5430     0.4940 C.ar  1 <1>   0.3960 
  5 C        0.3100    -2.7930    -0.1730 C.3   1 <1>   0.1400 
  6 N       -3.3750    -0.6490    -0.7070 N.ar  1 <1>  -0.6200 
  7 C       -3.3020     0.2530     1.5140 C.ar  1 <1>  -0.1500 
  8 C        0.0690    -4.1850     0.4250 C.3   1 <1>  -0.0800 
  9 C       -4.4850     0.0410    -0.8510 C.ar  1 <1>   0.3930 
 10 C       -4.4700     0.9650     1.3330 C.ar  1 <1>  -0.1500 
 11 C       -0.7140    -5.0910    -0.5380 C.3   1 <1>   0.2000 
 12 C        1.3350    -5.0460     0.6490 C.3   1 <1>  -0.0800 
 13 O       -5.0490    -0.0850    -2.0360 O.3   1 <1>  -0.5330 
 14 C       -5.0750     0.8490     0.1050 C.ar  1 <1>  -0.1500 
 15 O        0.3170    -5.6690    -1.2490 O.3   1 <1>  -0.5600 
 16 C       -1.2910    -6.3110     0.1920 C.3   1 <1>  -0.1600 
 17 C        1.0270    -6.2610    -0.2210 C.3   1 <1>   0.2800 
 18 C        2.6960    -4.5640     0.1240 C.3   1 <1>   0.1400 
 19 C       -0.0360    -7.1650     0.4030 C.3   1 <1>  -0.1600 
 20 C        2.3670    -6.8440    -0.6670 C.3   1 <1>   0.1400 
 21 N        3.3730    -5.7830    -0.3840 N.am  1 <1>  -0.6600 
 22 C        4.7180    -6.0500    -0.2650 C.2   1 <1>   0.7160 
 23 O        5.0860    -7.2080    -0.3290 O.2   1 <1>  -0.5700 
 24 C        5.6800    -4.9900    -0.0580 C.2   1 <1>  -0.0860 
 25 C        6.8000    -4.9700     0.7190 C.2   1 <1>  -0.0400 
 26 C        5.6600    -3.7110    -0.6560 C.2   1 <1>  -0.1500 
 27 O        7.4120    -3.8140     0.6380 O.3   1 <1>  -0.2800 
 28 C        7.4070    -6.0320     1.6130 C.3   1 <1>  -0.0600 
 29 C        6.7350    -3.0490    -0.1880 C.2   1 <1>  -0.0400 
 30 C        7.2440    -1.6520    -0.4630 C.3   1 <1>  -0.0600 
 31 H       -1.4590    -2.0710    -1.1630 H     1 <1>   0.3700 
 32 H        0.7370    -2.8730    -1.1580 H     1 <1>   0.0800 
 33 H        0.9900    -2.2420     0.4550 H     1 <1>   0.0800 
 34 H       -2.7880     0.3090     2.4580 H     1 <1>   0.1500 
 35 H       -0.4640    -4.0670     1.3530 H     1 <1>   0.0800 
 36 H       -4.8850     1.5800     2.1140 H     1 <1>   0.1500 
 37 H       -1.4080    -4.5870    -1.1890 H     1 <1>   0.0800 
 38 H        1.4380    -5.3360     1.6800 H     1 <1>   0.0800 
 39 H       -4.5070    -0.6800    -2.5810 H     1 <1>   0.4500 
 40 H       -5.9870     1.3680    -0.1250 H     1 <1>   0.1500 
 41 H       -1.7710    -6.0360     1.1150 H     1 <1>   0.0800 
 42 H       -1.9980    -6.8160    -0.4420 H     1 <1>   0.0800 
 43 H        3.2690    -4.0920     0.9050 H     1 <1>   0.0800 
 44 H        2.5850    -3.8870    -0.7020 H     1 <1>   0.0800 
 45 H       -0.1020    -8.0910    -0.1410 H     1 <1>   0.0800 
 46 H        0.1640    -7.3660     1.4400 H     1 <1>   0.0800 
 47 H        2.3510    -7.0910    -1.7140 H     1 <1>   0.0800 
 48 H        2.6010    -7.7210    -0.0890 H     1 <1>   0.0800 
 49 H        4.9170    -3.3720    -1.3540 H     1 <1>   0.1500 
 50 H        6.8020    -6.9200     1.6180 H     1 <1>   0.0800 
 51 H        7.4870    -5.6580     2.6170 H     1 <1>   0.0800 
 52 H        8.3880    -6.2840     1.2550 H     1 <1>   0.0800 
 53 H        6.5990    -1.1500    -1.1610 H     1 <1>   0.0800 
 54 H        8.2350    -1.7040    -0.8760 H     1 <1>   0.0800 
 55 H        7.2760    -1.0910     0.4530 H     1 <1>   0.0800 
@<TRIPOS>BOND
  1   1   2  2   
  2   2   3  am  
  3   2   4  1   
  4   3   5  1   
  5   3  31  1   
  6   4   6  ar  
  7   4   7  ar  
  8   5   8  1   
  9   5  32  1   
 10   5  33  1   
 11   6   9  ar  
 12   7  10  ar  
 13   7  34  1   
 14   8  11  1   
 15   8  12  1   
 16   8  35  1   
 17   9  13  1   
 18   9  14  ar  
 19  10  14  ar  
 20  10  36  1   
 21  11  15  1   
 22  11  16  1   
 23  11  37  1   
 24  12  17  1   
 25  12  18  1   
 26  12  38  1   
 27  13  39  1   
 28  14  40  1   
 29  15  17  1   
 30  16  19  1   
 31  16  41  1   
 32  16  42  1   
 33  17  19  1   
 34  17  20  1   
 35  18  21  1   
 36  18  43  1   
 37  18  44  1   
 38  19  45  1   
 39  19  46  1   
 40  20  21  1   
 41  20  47  1   
 42  20  48  1   
 43  21  22  am  
 44  22  23  2   
 45  22  24  1   
 46  24  25  2   
 47  24  26  1   
 48  25  27  1   
 49  25  28  1   
 50  26  29  2   
 51  26  49  1   
 52  27  29  1   
 53  28  50  1   
 54  28  51  1   
 55  28  52  1   
 56  29  30  1   
 57  30  53  1   
 58  30  54  1   
 59  30  55  1   
@<TRIPOS>SUBSTRUCTURE
  1 ****   5 GROUP 4 **** **** 0

# MOE 2024.06 (io_trps.svl 2023.06)
