@<TRIPOS>MOLECULE
NONAME
45 47 1 0 0 
SMALL
USER_CHARGES


@<TRIPOS>ATOM
  1 S       -0.0730    -0.3390     0.6280 S.o2  1 <1>   1.5760 
  2 O        0.5190    -1.5190     1.2030 O.2   1 <1>  -0.6500 
  3 O        0.0210     0.9620     1.2340 O.2   1 <1>  -0.6500 
  4 N       -1.6560    -0.6360     0.1550 N.am  1 <1>  -0.8490 
  5 N        0.5740    -0.1300    -0.8680 N.am  1 <1>  -0.9780 
  6 C       -2.5840    -0.4580     1.2840 C.3   1 <1>   0.1960 
  7 C       -1.8080    -1.9860    -0.4180 C.3   1 <1>   0.1960 
  8 C       -4.0460    -0.6670     0.8530 C.3   1 <1>   0.1400 
  9 C       -3.2460    -2.2340    -0.9060 C.3   1 <1>   0.1400 
 10 N       -4.2230    -2.0030     0.2030 N.am  1 <1>  -0.6600 
 11 C       -5.0640    -2.9570     0.7320 C.2   1 <1>   0.5690 
 12 O       -5.6520    -2.7460     1.7710 O.2   1 <1>  -0.5700 
 13 C       -5.2750    -4.3060     0.0200 C.3   1 <1>   0.2610 
 14 O       -4.1370    -5.1420     0.1820 O.3   1 <1>  -0.5600 
 15 C       -6.5730    -5.0120     0.4960 C.3   1 <1>   0.3640 
 16 C       -4.1900    -6.3670    -0.5190 C.3   1 <1>   0.1810 
 17 N       -6.5870    -6.4490     0.1330 N.am  1 <1>  -0.7300 
 18 C       -7.8050    -4.3470    -0.1160 C.ar  1 <1>  -0.1430 
 19 C       -5.5090    -7.1200    -0.3250 C.2   1 <1>   0.5690 
 20 C       -8.1860    -4.5960    -1.4300 C.ar  1 <1>  -0.1500 
 21 C       -8.5620    -3.4670     0.6450 C.ar  1 <1>  -0.1500 
 22 O       -5.5860    -8.2880    -0.6100 O.2   1 <1>  -0.5700 
 23 C       -9.3010    -3.9800    -1.9690 C.ar  1 <1>  -0.1500 
 24 C       -9.6770    -2.8490     0.1070 C.ar  1 <1>  -0.1500 
 25 C      -10.0480    -3.1050    -1.2010 C.ar  1 <1>  -0.1500 
 26 H        1.5600     0.0020    -0.6770 H     1 <1>   0.4200 
 27 H        0.2220     0.7860    -1.1240 H     1 <1>   0.4200 
 28 H       -2.3450    -1.1540     2.0720 H     1 <1>   0.0800 
 29 H       -2.4830     0.5390     1.6790 H     1 <1>   0.0800 
 30 H       -1.1360    -2.1030    -1.2500 H     1 <1>   0.0800 
 31 H       -1.5550    -2.7330     0.3170 H     1 <1>   0.0800 
 32 H       -4.3220     0.1040     0.1560 H     1 <1>   0.0800 
 33 H       -4.6830    -0.5720     1.7150 H     1 <1>   0.0800 
 34 H       -3.3110    -3.2360    -1.2850 H     1 <1>   0.0800 
 35 H       -3.4630    -1.5580    -1.7150 H     1 <1>   0.0800 
 36 H       -5.3760    -4.1030    -1.0300 H     1 <1>   0.0800 
 37 H       -6.6340    -4.9510     1.5690 H     1 <1>   0.0800 
 38 H       -4.0460    -6.1670    -1.5650 H     1 <1>   0.0800 
 39 H       -3.3790    -6.9790    -0.1680 H     1 <1>   0.0800 
 40 H       -7.4700    -6.9480     0.2520 H     1 <1>   0.3700 
 41 H       -7.6190    -5.2760    -2.0430 H     1 <1>   0.1500 
 42 H       -8.2860    -3.2520     1.6640 H     1 <1>   0.1500 
 43 H       -9.5900    -4.1810    -2.9860 H     1 <1>   0.1500 
 44 H      -10.2550    -2.1680     0.7070 H     1 <1>   0.1500 
 45 H      -10.9160    -2.6250    -1.6190 H     1 <1>   0.1500 
@<TRIPOS>BOND
  1   1   2  2   
  2   1   3  2   
  3   1   4  am  
  4   1   5  am  
  5   4   6  1   
  6   4   7  1   
  7   5  26  1   
  8   5  27  1   
  9   6   8  1   
 10   6  28  1   
 11   6  29  1   
 12   7   9  1   
 13   7  30  1   
 14   7  31  1   
 15   8  10  1   
 16   8  32  1   
 17   8  33  1   
 18   9  10  1   
 19   9  34  1   
 20   9  35  1   
 21  10  11  am  
 22  11  12  2   
 23  11  13  1   
 24  13  14  1   
 25  13  15  1   
 26  13  36  1   
 27  14  16  1   
 28  15  17  1   
 29  15  18  1   
 30  15  37  1   
 31  16  19  1   
 32  16  38  1   
 33  16  39  1   
 34  17  19  am  
 35  17  40  1   
 36  18  20  ar  
 37  18  21  ar  
 38  19  22  2   
 39  20  23  ar  
 40  20  41  1   
 41  21  24  ar  
 42  21  42  1   
 43  23  25  ar  
 44  23  43  1   
 45  24  25  ar  
 46  24  44  1   
 47  25  45  1   
@<TRIPOS>SUBSTRUCTURE
  1 ****  11 GROUP 4 **** **** 0

# MOE 2024.06 (io_trps.svl 2023.06)
