@<TRIPOS>MOLECULE
NONAME
44 45 1 0 0 
SMALL
USER_CHARGES


@<TRIPOS>ATOM
  1 CL       0.4040    -3.5630     2.3470 Cl    1 <1>  -0.1770 
  2 C        1.3850    -2.9650     1.0280 C.ar  1 <1>   0.1770 
  3 C        0.7910    -2.4050    -0.1010 C.ar  1 <1>  -0.1440 
  4 C        2.7570    -3.0770     1.1460 C.ar  1 <1>  -0.1500 
  5 C        1.6050    -1.9560    -1.1350 C.ar  1 <1>  -0.1500 
  6 C       -0.7260    -2.2800    -0.2400 C.3   1 <1>   0.0450 
  7 C        3.5320    -2.6170     0.1020 C.ar  1 <1>   0.1900 
  8 C        2.9830    -2.0590    -1.0380 C.ar  1 <1>  -0.1500 
  9 C       -1.3420    -3.5280    -0.8450 C.2   1 <1>   0.5690 
 10 F        4.8310    -2.7120     0.1930 F     1 <1>  -0.1900 
 11 O       -1.9100    -3.4500    -1.9060 O.2   1 <1>  -0.5700 
 12 N       -1.2360    -4.7020    -0.1740 N.am  1 <1>  -0.7300 
 13 C       -1.7430    -6.0060    -0.6490 C.3   1 <1>   0.2200 
 14 C       -2.6680    -6.5930     0.4030 C.3   1 <1>  -0.0800 
 15 C       -0.6020    -7.0200    -0.6770 C.3   1 <1>   0.1200 
 16 C       -1.6670    -7.2440     1.3600 C.3   1 <1>   0.1200 
 17 C       -3.6270    -7.6290    -0.2190 C.3   1 <1>  -0.0550 
 18 O       -0.5740    -7.6290     0.5820 O.3   1 <1>  -0.5600 
 19 S       -4.9360    -8.1530     0.8890 S.o2  1 <1>   1.3330 
 20 O       -5.7510    -6.9950     1.1800 O.2   1 <1>  -0.6500 
 21 O       -4.3830    -8.9250     1.9780 O.2   1 <1>  -0.6500 
 22 N       -5.8410    -9.2080    -0.0850 N.am  1 <1>  -0.8490 
 23 C       -5.3060   -10.5740    -0.1150 C.3   1 <1>   0.1160 
 24 C       -7.2570    -9.2370     0.2940 C.3   1 <1>   0.1160 
 25 H        3.2080    -3.5090     2.0200 H     1 <1>   0.1500 
 26 H        1.1690    -1.5280    -2.0230 H     1 <1>   0.1500 
 27 H       -0.9620    -1.4430    -0.8720 H     1 <1>   0.0800 
 28 H       -1.1840    -2.0920     0.7120 H     1 <1>   0.0800 
 29 H        3.6240    -1.7150    -1.8310 H     1 <1>   0.1500 
 30 H       -0.6950    -4.7410     0.6950 H     1 <1>   0.3700 
 31 H       -2.2100    -5.8970    -1.6140 H     1 <1>   0.0800 
 32 H       -3.2450    -5.8250     0.8900 H     1 <1>   0.0800 
 33 H        0.3500    -6.5630    -0.8790 H     1 <1>   0.0800 
 34 H       -0.7970    -7.7890    -1.4030 H     1 <1>   0.0800 
 35 H       -2.0510    -8.1080     1.8740 H     1 <1>   0.0800 
 36 H       -1.3140    -6.5310     2.0850 H     1 <1>   0.0800 
 37 H       -3.0690    -8.4850    -0.5450 H     1 <1>   0.0800 
 38 H       -4.0870    -7.1910    -1.0830 H     1 <1>   0.0800 
 39 H       -5.8600   -11.1730    -0.8180 H     1 <1>   0.0800 
 40 H       -5.3720   -11.0270     0.8610 H     1 <1>   0.0800 
 41 H       -4.2730   -10.5630    -0.4200 H     1 <1>   0.0800 
 42 H       -7.8030    -9.9040    -0.3510 H     1 <1>   0.0800 
 43 H       -7.6850    -8.2530     0.1980 H     1 <1>   0.0800 
 44 H       -7.3650    -9.5630     1.3160 H     1 <1>   0.0800 
@<TRIPOS>BOND
  1   1   2  1   
  2   2   3  ar  
  3   2   4  ar  
  4   3   5  ar  
  5   3   6  1   
  6   4   7  ar  
  7   4  25  1   
  8   5   8  ar  
  9   5  26  1   
 10   6   9  1   
 11   6  27  1   
 12   6  28  1   
 13   7   8  ar  
 14   7  10  1   
 15   8  29  1   
 16   9  11  2   
 17   9  12  am  
 18  12  13  1   
 19  12  30  1   
 20  13  14  1   
 21  13  15  1   
 22  13  31  1   
 23  14  16  1   
 24  14  17  1   
 25  14  32  1   
 26  15  18  1   
 27  15  33  1   
 28  15  34  1   
 29  16  18  1   
 30  16  35  1   
 31  16  36  1   
 32  17  19  1   
 33  17  37  1   
 34  17  38  1   
 35  19  20  2   
 36  19  21  2   
 37  19  22  am  
 38  22  23  1   
 39  22  24  1   
 40  23  39  1   
 41  23  40  1   
 42  23  41  1   
 43  24  42  1   
 44  24  43  1   
 45  24  44  1   
@<TRIPOS>SUBSTRUCTURE
  1 ****  12 GROUP 4 **** **** 0

# MOE 2024.06 (io_trps.svl 2023.06)
