@<TRIPOS>MOLECULE
NONAME
48 49 1 0 0 
SMALL
USER_CHARGES


@<TRIPOS>ATOM
  1 O        2.3930     0.2990    -2.2450 O.2   1 <1>  -0.5700 
  2 C        1.8540    -0.4790    -1.4920 C.2   1 <1>   0.5690 
  3 N        1.4860    -0.1860    -0.2150 N.am  1 <1>  -0.4930 
  4 C        1.5530    -1.8980    -1.9760 C.3   1 <1>   0.1710 
  5 C        1.6140     1.0130     0.5290 C.2   1 <1>   0.0630 
  6 N        0.5030    -2.5980    -1.1720 N.3   1 <1>  -0.8100 
  7 C        1.1280     1.2610     1.8140 C.2   1 <1>   0.1080 
  8 C        2.2220     2.1620     0.1740 C.2   1 <1>  -0.3020 
  9 C        0.5870    -4.0540    -1.3570 C.3   1 <1>   0.1100 
 10 C       -0.8410    -2.0910    -1.5050 C.3   1 <1>   0.1100 
 11 N        1.4100     2.4590     2.2260 N.2   1 <1>  -0.7070 
 12 C        0.3590     0.2720     2.6610 C.3   1 <1>  -0.0590 
 13 N        2.0870     3.0170     1.2070 N.pl3 1 <1>   0.3140 
 14 C       -0.4090    -4.7580    -0.4330 C.3   1 <1>  -0.1600 
 15 C       -1.8780    -2.7260    -0.5780 C.3   1 <1>  -0.1600 
 16 C        2.5970     4.3900     1.2710 C.3   1 <1>   0.0160 
 17 C       -1.8310    -4.2490    -0.6840 C.3   1 <1>   0.2000 
 18 O       -2.6920    -4.7610     0.2830 O.3   1 <1>  -0.5600 
 19 C       -3.1840    -6.0420     0.0250 C.3   1 <1>   0.1200 
 20 C       -4.1160    -6.4400     1.1640 C.3   1 <1>   0.1200 
 21 O       -4.6070    -7.7180     0.9060 O.3   1 <1>  -0.5600 
 22 C       -5.4720    -8.1940     1.8850 C.3   1 <1>   0.0400 
 23 H        0.9990    -0.9660     0.2370 H     1 <1>   0.3700 
 24 H        2.4760    -2.4460    -1.9120 H     1 <1>   0.0800 
 25 H        1.2640    -1.8610    -3.0110 H     1 <1>   0.0800 
 26 H        2.7300     2.4020    -0.7410 H     1 <1>   0.1500 
 27 H        1.5820    -4.3910    -1.1180 H     1 <1>   0.0800 
 28 H        0.3800    -4.3060    -2.3840 H     1 <1>   0.0800 
 29 H       -1.0780    -2.3210    -2.5310 H     1 <1>   0.0800 
 30 H       -0.8750    -1.0200    -1.3850 H     1 <1>   0.0800 
 31 H       -0.4730    -0.1190     2.1050 H     1 <1>   0.0800 
 32 H       -0.0110     0.7600     3.5440 H     1 <1>   0.0800 
 33 H        1.0060    -0.5340     2.9540 H     1 <1>   0.0800 
 34 H       -0.1310    -4.5650     0.5880 H     1 <1>   0.0800 
 35 H       -0.3570    -5.8150    -0.6100 H     1 <1>   0.0800 
 36 H       -2.8580    -2.3790    -0.8470 H     1 <1>   0.0800 
 37 H       -1.6730    -2.4250     0.4340 H     1 <1>   0.0800 
 38 H        2.3690     4.8950     0.3520 H     1 <1>   0.0800 
 39 H        3.6590     4.3610     1.4230 H     1 <1>   0.0800 
 40 H        2.1270     4.9000     2.0910 H     1 <1>   0.0800 
 41 H       -2.1760    -4.5480    -1.6610 H     1 <1>   0.0800 
 42 H       -2.3610    -6.7320    -0.0300 H     1 <1>   0.0800 
 43 H       -3.7260    -6.0250    -0.9040 H     1 <1>   0.0800 
 44 H       -4.9440    -5.7550     1.2210 H     1 <1>   0.0800 
 45 H       -3.5760    -6.4580     2.0950 H     1 <1>   0.0800 
 46 H       -5.7940    -9.1790     1.5970 H     1 <1>   0.0800 
 47 H       -6.3240    -7.5390     1.9550 H     1 <1>   0.0800 
 48 H       -4.9510    -8.2420     2.8260 H     1 <1>   0.0800 
@<TRIPOS>BOND
  1   1   2  2   
  2   2   3  am  
  3   2   4  1   
  4   3   5  1   
  5   3  23  1   
  6   4   6  1   
  7   4  24  1   
  8   4  25  1   
  9   5   7  1   
 10   5   8  2   
 11   6   9  1   
 12   6  10  1   
 13   7  11  2   
 14   7  12  1   
 15   8  13  1   
 16   8  26  1   
 17   9  14  1   
 18   9  27  1   
 19   9  28  1   
 20  10  15  1   
 21  10  29  1   
 22  10  30  1   
 23  11  13  1   
 24  12  31  1   
 25  12  32  1   
 26  12  33  1   
 27  13  16  1   
 28  14  17  1   
 29  14  34  1   
 30  14  35  1   
 31  15  17  1   
 32  15  36  1   
 33  15  37  1   
 34  16  38  1   
 35  16  39  1   
 36  16  40  1   
 37  17  18  1   
 38  17  41  1   
 39  18  19  1   
 40  19  20  1   
 41  19  42  1   
 42  19  43  1   
 43  20  21  1   
 44  20  44  1   
 45  20  45  1   
 46  21  22  1   
 47  22  46  1   
 48  22  47  1   
 49  22  48  1   
@<TRIPOS>SUBSTRUCTURE
  1 ****   6 GROUP 4 **** **** 0

# MOE 2024.06 (io_trps.svl 2023.06)
