@<TRIPOS>MOLECULE
NONAME
45 47 1 0 0 
SMALL
USER_CHARGES


@<TRIPOS>ATOM
  1 O       -1.0700    -2.0300     0.2820 O.2   1 <1>  -0.5700 
  2 C       -0.0580    -2.6360     0.0460 C.2   1 <1>   0.5690 
  3 N        0.0450    -3.4530    -1.0220 N.am  1 <1>  -0.7300 
  4 C        1.1490    -2.5120     0.9510 C.3   1 <1>  -0.0990 
  5 C        1.2590    -4.2380    -1.3250 C.3   1 <1>   0.1400 
  6 C        2.4370    -2.3900     0.1150 C.3   1 <1>  -0.0800 
  7 C        2.5180    -3.3810    -1.0750 C.3   1 <1>  -0.0800 
  8 C        3.7120    -2.5950     0.9460 C.3   1 <1>  -0.1600 
  9 C        3.7760    -4.2250    -0.8300 C.3   1 <1>  -0.1600 
 10 C        4.6740    -3.3180     0.0100 C.3   1 <1>   0.2200 
 11 N        5.7630    -4.0270     0.7510 N.am  1 <1>  -0.6600 
 12 C        7.0570    -3.5640     0.8170 C.2   1 <1>   0.5690 
 13 C        5.4110    -5.3040     1.4510 C.3   1 <1>   0.0600 
 14 O        7.9320    -4.2090     1.3460 O.2   1 <1>  -0.5700 
 15 C        7.4320    -2.2120     0.2210 C.3   1 <1>  -0.0990 
 16 C        8.8470    -1.7390     0.5860 C.3   1 <1>  -0.0170 
 17 C        9.1190    -0.3730    -0.0230 C.ar  1 <1>  -0.1440 
 18 C        8.8630     0.7960     0.6640 C.ar  1 <1>  -0.1500 
 19 C        9.6310    -0.2330    -1.2960 C.ar  1 <1>  -0.1500 
 20 C        9.1220     2.0150     0.0590 C.ar  1 <1>   0.1600 
 21 C        9.8540     1.0340    -1.8090 C.ar  1 <1>   0.1600 
 22 N        9.6100     2.1630    -1.1620 N.ar  1 <1>  -0.6200 
 23 H       -0.7820    -3.5660    -1.6120 H     1 <1>   0.3700 
 24 H        1.0350    -1.6520     1.5860 H     1 <1>   0.0800 
 25 H        1.1810    -3.3890     1.5700 H     1 <1>   0.0800 
 26 H        1.2640    -5.1070    -0.6880 H     1 <1>   0.0800 
 27 H        1.2360    -4.5680    -2.3500 H     1 <1>   0.0800 
 28 H        2.4590    -1.3960    -0.3000 H     1 <1>   0.0800 
 29 H        2.6870    -2.7960    -1.9640 H     1 <1>   0.0800 
 30 H        3.5020    -3.2100     1.8020 H     1 <1>   0.0800 
 31 H        4.1200    -1.6560     1.2770 H     1 <1>   0.0800 
 32 H        4.2530    -4.5050    -1.7520 H     1 <1>   0.0800 
 33 H        3.5030    -5.1070    -0.2830 H     1 <1>   0.0800 
 34 H        5.0930    -2.5900    -0.6620 H     1 <1>   0.0800 
 35 H        4.4330    -5.2390     1.8930 H     1 <1>   0.0800 
 36 H        6.1170    -5.5150     2.2360 H     1 <1>   0.0800 
 37 H        5.4320    -6.1170     0.7470 H     1 <1>   0.0800 
 38 H        7.3560    -2.2800    -0.8480 H     1 <1>   0.0800 
 39 H        6.7300    -1.4770     0.5690 H     1 <1>   0.0800 
 40 H        9.5730    -2.4480     0.2250 H     1 <1>   0.0800 
 41 H        8.9480    -1.6880     1.6560 H     1 <1>   0.0800 
 42 H        8.4660     0.7710     1.6620 H     1 <1>   0.1500 
 43 H        9.8600    -1.0970    -1.8940 H     1 <1>   0.1500 
 44 H        8.9170     2.9170     0.6100 H     1 <1>   0.1500 
 45 H       10.2550     1.1240    -2.8040 H     1 <1>   0.1500 
@<TRIPOS>BOND
  1   1   2  2   
  2   2   3  am  
  3   2   4  1   
  4   3   5  1   
  5   3  23  1   
  6   4   6  1   
  7   4  24  1   
  8   4  25  1   
  9   5   7  1   
 10   5  26  1   
 11   5  27  1   
 12   6   7  1   
 13   6   8  1   
 14   6  28  1   
 15   7   9  1   
 16   7  29  1   
 17   8  10  1   
 18   8  30  1   
 19   8  31  1   
 20   9  10  1   
 21   9  32  1   
 22   9  33  1   
 23  10  11  1   
 24  10  34  1   
 25  11  12  am  
 26  11  13  1   
 27  12  14  2   
 28  12  15  1   
 29  13  35  1   
 30  13  36  1   
 31  13  37  1   
 32  15  16  1   
 33  15  38  1   
 34  15  39  1   
 35  16  17  1   
 36  16  40  1   
 37  16  41  1   
 38  17  18  ar  
 39  17  19  ar  
 40  18  20  ar  
 41  18  42  1   
 42  19  21  ar  
 43  19  43  1   
 44  20  22  ar  
 45  20  44  1   
 46  21  22  ar  
 47  21  45  1   
@<TRIPOS>SUBSTRUCTURE
  1 ****  10 GROUP 4 **** **** 0

# MOE 2024.06 (io_trps.svl 2023.06)
