@<TRIPOS>MOLECULE
NONAME
41 42 1 0 0 
SMALL
USER_CHARGES


@<TRIPOS>ATOM
  1 O        0.0730     0.0750    -0.1620 O.2   1 <1>  -0.5700 
  2 C        1.1280    -0.5260    -0.1370 C.2   1 <1>   0.5440 
  3 N        2.3100     0.1580     0.0150 N.am  1 <1>  -0.4940 
  4 C        1.1490    -1.9730    -0.2250 C.ar  1 <1>   0.0860 
  5 C        2.5650     1.5320    -0.0450 C.2   1 <1>   0.2040 
  6 C        2.2040    -2.6630    -0.8290 C.ar  1 <1>  -0.1500 
  7 C        0.1040    -2.7360     0.3000 C.ar  1 <1>  -0.1500 
  8 O        1.6920     2.3910    -0.5190 O.3   1 <1>  -0.0190 
  9 C        3.6680     2.2240     0.3050 C.2   1 <1>  -0.1810 
 10 C        2.2200    -4.0440    -0.8850 C.ar  1 <1>  -0.1500 
 11 C        0.1130    -4.1180     0.2460 C.ar  1 <1>  -0.1500 
 12 N        2.1570     3.6150    -0.5060 N.2   1 <1>  -0.4100 
 13 C        3.3410     3.5410    -0.0140 C.2   1 <1>   0.1080 
 14 C        4.9680     1.7170     0.9070 C.3   1 <1>   0.0210 
 15 C        1.1810    -4.7840    -0.3470 C.ar  1 <1>   0.0830 
 16 C        4.2320     4.7490     0.1800 C.3   1 <1>  -0.0590 
 17 C        6.0120     1.4790    -0.1860 C.3   1 <1>  -0.2400 
 18 O        1.2750    -6.1290    -0.4400 O.3   1 <1>  -0.3630 
 19 C        0.2630    -6.9800     0.0480 C.3   1 <1>   0.1200 
 20 C        0.6790    -8.4250    -0.2280 C.3   1 <1>  -0.1600 
 21 C       -0.3750    -9.4170     0.2760 C.3   1 <1>  -0.2400 
 22 H        3.1180    -0.4180     0.2290 H     1 <1>   0.3700 
 23 H        3.0170    -2.1170    -1.2730 H     1 <1>   0.1500 
 24 H       -0.7280    -2.2270     0.7570 H     1 <1>   0.1500 
 25 H        3.0380    -4.5640    -1.3520 H     1 <1>   0.1500 
 26 H       -0.7150    -4.6560     0.6680 H     1 <1>   0.1500 
 27 H        4.7850     0.7980     1.4340 H     1 <1>   0.0800 
 28 H        5.3390     2.4320     1.6190 H     1 <1>   0.0800 
 29 H        5.1260     4.6440    -0.4060 H     1 <1>   0.0800 
 30 H        4.4930     4.8490     1.2170 H     1 <1>   0.0800 
 31 H        3.7150     5.6380    -0.1340 H     1 <1>   0.0800 
 32 H        5.6500     0.7580    -0.8970 H     1 <1>   0.0800 
 33 H        6.9250     1.1100     0.2480 H     1 <1>   0.0800 
 34 H        6.2250     2.3960    -0.7070 H     1 <1>   0.0800 
 35 H       -0.6550    -6.7450    -0.4620 H     1 <1>   0.0800 
 36 H        0.1570    -6.8110     1.1060 H     1 <1>   0.0800 
 37 H        1.6160    -8.6230     0.2630 H     1 <1>   0.0800 
 38 H        0.8120    -8.5580    -1.2880 H     1 <1>   0.0800 
 39 H       -0.5120    -9.3140     1.3390 H     1 <1>   0.0800 
 40 H       -0.0590   -10.4240     0.0700 H     1 <1>   0.0800 
 41 H       -1.3180    -9.2480    -0.2150 H     1 <1>   0.0800 
@<TRIPOS>BOND
  1   1   2  2   
  2   2   3  am  
  3   2   4  1   
  4   3   5  1   
  5   3  22  1   
  6   4   6  ar  
  7   4   7  ar  
  8   5   8  1   
  9   5   9  2   
 10   6  10  ar  
 11   6  23  1   
 12   7  11  ar  
 13   7  24  1   
 14   8  12  1   
 15   9  13  1   
 16   9  14  1   
 17  10  15  ar  
 18  10  25  1   
 19  11  15  ar  
 20  11  26  1   
 21  12  13  2   
 22  13  16  1   
 23  14  17  1   
 24  14  27  1   
 25  14  28  1   
 26  15  18  1   
 27  16  29  1   
 28  16  30  1   
 29  16  31  1   
 30  17  32  1   
 31  17  33  1   
 32  17  34  1   
 33  18  19  1   
 34  19  20  1   
 35  19  35  1   
 36  19  36  1   
 37  20  21  1   
 38  20  37  1   
 39  20  38  1   
 40  21  39  1   
 41  21  40  1   
 42  21  41  1   
@<TRIPOS>SUBSTRUCTURE
  1 ****   4 GROUP 4 **** **** 0

# MOE 2024.06 (io_trps.svl 2023.06)
