@<TRIPOS>MOLECULE
NONAME
50 53 1 0 0 
SMALL
USER_CHARGES


@<TRIPOS>ATOM
  1 O       -1.1740    -0.2560    -1.9040 O.2   1 <1>  -0.5700 
  2 C       -1.9430    -0.7180    -1.0910 C.2   1 <1>   0.5690 
  3 N       -2.9860     0.0080    -0.5810 N.am  1 <1>  -0.6600 
  4 C       -1.6830    -2.1310    -0.5940 C.3   1 <1>  -0.0190 
  5 C       -3.9090    -0.5790     0.4380 C.3   1 <1>   0.2200 
  6 C       -3.3630     1.3400    -1.1250 C.3   1 <1>   0.0600 
  7 C       -1.3280    -2.1260     0.9010 C.3   1 <1>   0.1200 
  8 C       -2.7920    -3.1380    -0.9590 C.3   1 <1>   0.1100 
  9 C       -3.1550    -0.8790     1.7500 C.3   1 <1>   0.1200 
 10 C       -4.7000    -1.8090    -0.0800 C.3   1 <1>   0.1100 
 11 O       -2.4560    -2.0900     1.7210 O.3   1 <1>  -0.5600 
 12 N       -4.1070    -2.5270    -1.2310 N.3   1 <1>  -0.8100 
 13 C       -5.0570    -3.4500    -1.8860 C.3   1 <1>   0.2530 
 14 C       -5.3230    -4.7320    -1.0890 C.ar  1 <1>  -0.1440 
 15 C       -6.3540    -4.8490    -0.1490 C.ar  1 <1>  -0.0230 
 16 C       -4.5110    -5.8290    -1.3390 C.ar  1 <1>  -0.1500 
 17 N       -7.2400    -3.7780     0.1650 N.pl3 1 <1>   0.5930 
 18 C       -6.5260    -6.0610     0.5160 C.ar  1 <1>  -0.1500 
 19 C       -4.6840    -7.0290    -0.6710 C.ar  1 <1>   0.0820 
 20 N       -8.0830    -3.1910    -0.7230 N.2   1 <1>  -0.7070 
 21 C       -7.4180    -3.2290     1.3920 C.2   1 <1>  -0.3020 
 22 C       -5.7040    -7.1430     0.2650 C.ar  1 <1>  -0.1500 
 23 O       -3.8300    -8.0350    -0.9860 O.3   1 <1>  -0.3620 
 24 C       -8.7470    -2.3090    -0.0450 C.2   1 <1>   0.1390 
 25 C       -8.3740    -2.2830     1.2920 C.2   1 <1>  -0.1500 
 26 C       -3.9500    -9.3080    -0.3920 C.3   1 <1>   0.0400 
 27 H       -0.7930    -2.4650    -1.0940 H     1 <1>   0.0800 
 28 H       -4.6360     0.1730     0.6890 H     1 <1>   0.0800 
 29 H       -3.3880     2.0650    -0.3310 H     1 <1>   0.0800 
 30 H       -4.3320     1.2790    -1.5880 H     1 <1>   0.0800 
 31 H       -2.6510     1.6650    -1.8640 H     1 <1>   0.0800 
 32 H       -0.6880    -1.2950     1.1450 H     1 <1>   0.0800 
 33 H       -0.8060    -3.0360     1.1420 H     1 <1>   0.0800 
 34 H       -2.8860    -3.8740    -0.1780 H     1 <1>   0.0800 
 35 H       -2.4780    -3.6500    -1.8520 H     1 <1>   0.0800 
 36 H       -3.8710    -0.9640     2.5480 H     1 <1>   0.0800 
 37 H       -2.4740    -0.0810     1.9930 H     1 <1>   0.0800 
 38 H       -5.6720    -1.4540    -0.3740 H     1 <1>   0.0800 
 39 H       -4.8440    -2.5000     0.7320 H     1 <1>   0.0800 
 40 H       -5.9750    -2.9300    -2.0920 H     1 <1>   0.0800 
 41 H       -4.6500    -3.7200    -2.8450 H     1 <1>   0.0800 
 42 H       -3.7210    -5.7660    -2.0650 H     1 <1>   0.1500 
 43 H       -7.3190    -6.1620     1.2380 H     1 <1>   0.1500 
 44 H       -6.8530    -3.5520     2.2460 H     1 <1>   0.1500 
 45 H       -5.8720    -8.0570     0.8010 H     1 <1>   0.1500 
 46 H       -9.5030    -1.6740    -0.4790 H     1 <1>   0.1500 
 47 H       -8.7810    -1.6410     2.0530 H     1 <1>   0.1500 
 48 H       -3.1830    -9.9410    -0.8010 H     1 <1>   0.0800 
 49 H       -4.9190    -9.7120    -0.6240 H     1 <1>   0.0800 
 50 H       -3.8150    -9.2120     0.6710 H     1 <1>   0.0800 
@<TRIPOS>BOND
  1   1   2  2   
  2   2   3  am  
  3   2   4  1   
  4   3   5  1   
  5   3   6  1   
  6   4   7  1   
  7   4   8  1   
  8   4  27  1   
  9   5   9  1   
 10   5  10  1   
 11   5  28  1   
 12   6  29  1   
 13   6  30  1   
 14   6  31  1   
 15   7  11  1   
 16   7  32  1   
 17   7  33  1   
 18   8  12  1   
 19   8  34  1   
 20   8  35  1   
 21   9  11  1   
 22   9  36  1   
 23   9  37  1   
 24  10  12  1   
 25  10  38  1   
 26  10  39  1   
 27  12  13  1   
 28  13  14  1   
 29  13  40  1   
 30  13  41  1   
 31  14  15  ar  
 32  14  16  ar  
 33  15  17  1   
 34  15  18  ar  
 35  16  19  ar  
 36  16  42  1   
 37  17  20  1   
 38  17  21  1   
 39  18  22  ar  
 40  18  43  1   
 41  19  22  ar  
 42  19  23  1   
 43  20  24  2   
 44  21  25  2   
 45  21  44  1   
 46  22  45  1   
 47  23  26  1   
 48  24  25  1   
 49  24  46  1   
 50  25  47  1   
 51  26  48  1   
 52  26  49  1   
 53  26  50  1   
@<TRIPOS>SUBSTRUCTURE
  1 ****  12 GROUP 4 **** **** 0

# MOE 2024.06 (io_trps.svl 2023.06)
