@<TRIPOS>MOLECULE
NONAME
51 53 1 0 0 
SMALL
USER_CHARGES


@<TRIPOS>ATOM
  1 O       -0.2170    -3.7160     0.0970 O.co2 1 <1>  -0.9000 
  2 C        0.7450    -4.3890     0.4910 C.2   1 <1>   1.0330 
  3 O        0.4770    -5.3850     1.1930 O.co2 1 <1>  -0.9000 
  4 C        2.0300    -4.2490    -0.1000 C.2   1 <1>  -0.2330 
  5 C        2.6480    -5.3350    -0.7050 C.2   1 <1>   0.3720 
  6 C        2.8820    -3.2170    -0.3380 C.2   1 <1>   0.0870 
  7 N        3.7400    -5.0000    -1.2840 N.2   1 <1>  -0.4100 
  8 N        2.1120    -6.6170    -0.7090 N.pl3 1 <1>  -0.8520 
  9 O        3.8750    -3.7200    -1.0420 O.3   1 <1>  -0.0190 
 10 C        2.8830    -1.8120     0.0060 C.ar  1 <1>   0.0530 
 11 C        1.3370    -6.9370    -1.9360 C.3   1 <1>   0.2090 
 12 C        3.9470    -0.9830    -0.3620 C.ar  1 <1>  -0.1500 
 13 C        1.8400    -1.2140     0.7180 C.ar  1 <1>  -0.1500 
 14 C       -0.0950    -6.3410    -1.9380 C.3   1 <1>   0.3430 
 15 C        3.9680     0.3610    -0.0410 C.ar  1 <1>  -0.1500 
 16 C        1.8520     0.1300     1.0430 C.ar  1 <1>  -0.1500 
 17 N       -0.9360    -6.6830    -0.7400 N.4   1 <1>  -0.9590 
 18 C        2.9230     0.9320     0.6640 C.ar  1 <1>   0.0830 
 19 C       -1.0920    -8.1380    -0.4860 C.3   1 <1>   0.3430 
 20 C       -2.1800    -5.8700    -0.7660 C.3   1 <1>   0.3430 
 21 O        3.0140     2.2550     0.9410 O.3   1 <1>  -0.3630 
 22 C       -1.3220    -8.3970     1.0030 C.3   1 <1>  -0.1600 
 23 C       -2.9670    -5.9430     0.5430 C.3   1 <1>  -0.1600 
 24 C        1.9870     2.9310     1.6300 C.3   1 <1>   0.0400 
 25 C       -2.7920    -8.3470     1.4490 C.3   1 <1>  -0.1600 
 26 C       -3.6670    -7.2930     0.7580 C.3   1 <1>  -0.1600 
 27 H        1.5150    -6.6710     0.1380 H     1 <1>   0.4000 
 28 H        1.2910    -8.0040    -2.0500 H     1 <1>   0.0800 
 29 H        1.8690    -6.5530    -2.7900 H     1 <1>   0.0800 
 30 H        4.7750    -1.3960    -0.9100 H     1 <1>   0.1500 
 31 H        0.9960    -1.8020     1.0250 H     1 <1>   0.1500 
 32 H       -0.6010    -6.6660    -2.8310 H     1 <1>   0.0800 
 33 H       -0.0010    -5.2680    -1.9940 H     1 <1>   0.0800 
 34 H        4.7970     0.9790    -0.3340 H     1 <1>   0.1500 
 35 H        1.0200     0.5300     1.5890 H     1 <1>   0.1500 
 36 H       -0.4360    -6.2780     0.0930 H     1 <1>   0.4500 
 37 H       -0.1830    -8.6420    -0.7650 H     1 <1>   0.0800 
 38 H       -1.9000    -8.5440    -1.0710 H     1 <1>   0.0800 
 39 H       -2.8080    -6.1810    -1.5830 H     1 <1>   0.0800 
 40 H       -1.9110    -4.8370    -0.9280 H     1 <1>   0.0800 
 41 H       -0.7400    -7.7000     1.5820 H     1 <1>   0.0800 
 42 H       -0.9440    -9.3760     1.2360 H     1 <1>   0.0800 
 43 H       -3.7250    -5.1820     0.4890 H     1 <1>   0.0800 
 44 H       -2.3320    -5.6840     1.3740 H     1 <1>   0.0800 
 45 H        2.2710     3.9640     1.7240 H     1 <1>   0.0800 
 46 H        1.8730     2.4920     2.6050 H     1 <1>   0.0800 
 47 H        1.0760     2.8520     1.0630 H     1 <1>   0.0800 
 48 H       -2.8070    -8.1660     2.5110 H     1 <1>   0.0800 
 49 H       -3.2440    -9.3120     1.2920 H     1 <1>   0.0800 
 50 H       -4.0210    -7.6700    -0.1860 H     1 <1>   0.0800 
 51 H       -4.5370    -7.1350     1.3750 H     1 <1>   0.0800 
@<TRIPOS>BOND
  1   1   2  ar  
  2   2   3  ar  
  3   2   4  1   
  4   4   5  1   
  5   4   6  2   
  6   5   7  2   
  7   5   8  1   
  8   6   9  1   
  9   6  10  1   
 10   7   9  1   
 11   8  11  1   
 12   8  27  1   
 13  10  12  ar  
 14  10  13  ar  
 15  11  14  1   
 16  11  28  1   
 17  11  29  1   
 18  12  15  ar  
 19  12  30  1   
 20  13  16  ar  
 21  13  31  1   
 22  14  17  1   
 23  14  32  1   
 24  14  33  1   
 25  15  18  ar  
 26  15  34  1   
 27  16  18  ar  
 28  16  35  1   
 29  17  19  1   
 30  17  20  1   
 31  17  36  1   
 32  18  21  1   
 33  19  22  1   
 34  19  37  1   
 35  19  38  1   
 36  20  23  1   
 37  20  39  1   
 38  20  40  1   
 39  21  24  1   
 40  22  25  1   
 41  22  41  1   
 42  22  42  1   
 43  23  26  1   
 44  23  43  1   
 45  23  44  1   
 46  24  45  1   
 47  24  46  1   
 48  24  47  1   
 49  25  26  1   
 50  25  48  1   
 51  25  49  1   
 52  26  50  1   
 53  26  51  1   
@<TRIPOS>SUBSTRUCTURE
  1 ****   2 GROUP 4 **** **** 0

# MOE 2024.06 (io_trps.svl 2023.06)
