@<TRIPOS>MOLECULE
NONAME
52 54 1 0 0 
SMALL
USER_CHARGES


@<TRIPOS>ATOM
  1 O        2.3140    -0.4970    -1.5720 O.2   1 <1>  -0.5700 
  2 C        1.7810    -0.9130    -0.5710 C.2   1 <1>   0.5690 
  3 N        1.4400    -0.1210     0.4810 N.am  1 <1>  -0.7300 
  4 C        1.4620    -2.4070    -0.4670 C.3   1 <1>   0.1710 
  5 C        1.5810     1.3410     0.6290 C.3   1 <1>   0.2200 
  6 N        0.2880    -2.7320     0.3990 N.3   1 <1>  -0.8100 
  7 C        0.7810     2.0500    -0.4750 C.3   1 <1>  -0.1600 
  8 C        3.0710     1.7010     0.6950 C.3   1 <1>  -0.1600 
  9 C       -0.9770    -2.2580    -0.1800 C.3   1 <1>   0.1100 
 10 C        0.1190    -4.1830     0.5670 C.3   1 <1>   0.1100 
 11 C        0.5240     3.5310    -0.1540 C.3   1 <1>  -0.1600 
 12 C        3.3650     3.2030     0.8560 C.3   1 <1>  -0.1600 
 13 C       -2.0390    -3.0680     0.5500 C.3   1 <1>   0.2000 
 14 C       -1.3950    -4.4470     0.6880 C.3   1 <1>  -0.0800 
 15 C        1.6420     4.4920    -0.5880 C.3   1 <1>  -0.1600 
 16 C        3.0870     3.9920    -0.4310 C.3   1 <1>  -0.1600 
 17 O       -2.1720    -2.5380     1.8190 O.3   1 <1>  -0.6800 
 18 C       -1.9090    -5.4110    -0.3980 C.3   1 <1>  -0.0170 
 19 C       -1.2660    -6.7840    -0.2860 C.ar  1 <1>   0.1670 
 20 N       -0.2630    -7.0410    -1.1100 N.ar  1 <1>  -0.6200 
 21 C       -1.7410    -7.6950     0.6560 C.ar  1 <1>   0.1600 
 22 C        0.2270    -8.2570    -0.9320 C.ar  1 <1>   0.1600 
 23 N       -1.2490    -8.9090     0.8380 N.ar  1 <1>  -0.6200 
 24 C       -0.2490    -9.1600     0.0100 C.ar  1 <1>   0.1600 
 25 H        0.9370    -0.6000     1.2330 H     1 <1>   0.3700 
 26 H        2.3350    -2.8910    -0.0660 H     1 <1>   0.0800 
 27 H        1.3020    -2.7900    -1.4590 H     1 <1>   0.0800 
 28 H        1.1400     1.6040     1.5750 H     1 <1>   0.0800 
 29 H        1.2770     1.9520    -1.4250 H     1 <1>   0.0800 
 30 H       -0.1750     1.5630    -0.5530 H     1 <1>   0.0800 
 31 H        3.4980     1.1850     1.5360 H     1 <1>   0.0800 
 32 H        3.5670     1.3430    -0.1900 H     1 <1>   0.0800 
 33 H       -1.1140    -1.1990    -0.0410 H     1 <1>   0.0800 
 34 H       -1.0120    -2.4860    -1.2320 H     1 <1>   0.0800 
 35 H        0.5270    -4.7020    -0.2840 H     1 <1>   0.0800 
 36 H        0.6400    -4.5120     1.4510 H     1 <1>   0.0800 
 37 H       -0.3810     3.8370    -0.6500 H     1 <1>   0.0800 
 38 H        0.3480     3.6430     0.9020 H     1 <1>   0.0800 
 39 H        2.8170     3.6160     1.6850 H     1 <1>   0.0800 
 40 H        4.4120     3.3030     1.0830 H     1 <1>   0.0800 
 41 H       -3.0020    -3.0630     0.0680 H     1 <1>   0.0800 
 42 H       -1.6190    -4.8720     1.6520 H     1 <1>   0.0800 
 43 H        1.4950     4.7420    -1.6250 H     1 <1>   0.0800 
 44 H        1.5290     5.4050    -0.0290 H     1 <1>   0.0800 
 45 H        3.7340     4.8520    -0.4540 H     1 <1>   0.0800 
 46 H        3.3490     3.3880    -1.2840 H     1 <1>   0.0800 
 47 H       -1.2620    -2.4140     2.1630 H     1 <1>   0.4000 
 48 H       -1.7100    -5.0060    -1.3750 H     1 <1>   0.0800 
 49 H       -2.9740    -5.5180    -0.3030 H     1 <1>   0.0800 
 50 H       -2.5610    -7.4060     1.2890 H     1 <1>   0.1500 
 51 H        1.0460    -8.5540    -1.5630 H     1 <1>   0.1500 
 52 H        0.2150   -10.1270     0.0810 H     1 <1>   0.1500 
@<TRIPOS>BOND
  1   1   2  2   
  2   2   3  am  
  3   2   4  1   
  4   3   5  1   
  5   3  25  1   
  6   4   6  1   
  7   4  26  1   
  8   4  27  1   
  9   5   7  1   
 10   5   8  1   
 11   5  28  1   
 12   6   9  1   
 13   6  10  1   
 14   7  11  1   
 15   7  29  1   
 16   7  30  1   
 17   8  12  1   
 18   8  31  1   
 19   8  32  1   
 20   9  13  1   
 21   9  33  1   
 22   9  34  1   
 23  10  14  1   
 24  10  35  1   
 25  10  36  1   
 26  11  15  1   
 27  11  37  1   
 28  11  38  1   
 29  12  16  1   
 30  12  39  1   
 31  12  40  1   
 32  13  14  1   
 33  13  17  1   
 34  13  41  1   
 35  14  18  1   
 36  14  42  1   
 37  15  16  1   
 38  15  43  1   
 39  15  44  1   
 40  16  45  1   
 41  16  46  1   
 42  17  47  1   
 43  18  19  1   
 44  18  48  1   
 45  18  49  1   
 46  19  20  ar  
 47  19  21  ar  
 48  20  22  ar  
 49  21  23  ar  
 50  21  50  1   
 51  22  24  ar  
 52  22  51  1   
 53  23  24  ar  
 54  24  52  1   
@<TRIPOS>SUBSTRUCTURE
  1 ****   6 GROUP 4 **** **** 0

# MOE 2024.06 (io_trps.svl 2023.06)
