@<TRIPOS>MOLECULE
NONAME
48 50 1 0 0 
SMALL
USER_CHARGES


@<TRIPOS>ATOM
  1 F        1.1440    -1.4620     2.0040 F     1 <1>  -0.3400 
  2 C       -0.1270    -1.8350     1.8900 C.3   1 <1>   1.2010 
  3 F       -0.4190    -2.4810     3.0170 F     1 <1>  -0.3400 
  4 F       -0.8500    -0.7180     1.9170 F     1 <1>  -0.3400 
  5 C       -0.3960    -2.7060     0.6290 C.2   1 <1>   0.1080 
  6 N       -0.2860    -2.3100    -0.6190 N.2   1 <1>  -0.7070 
  7 C       -0.7900    -4.0380     0.6810 C.2   1 <1>  -0.1500 
  8 N       -0.5970    -3.3790    -1.3660 N.pl3 1 <1>   0.3140 
  9 C       -0.9220    -4.4550    -0.6090 C.2   1 <1>  -0.2370 
 10 C       -0.5690    -3.2910    -2.8370 C.3   1 <1>   0.0160 
 11 C       -1.2960    -5.7350    -1.1470 C.2   1 <1>   0.7150 
 12 O       -0.7690    -6.1240    -2.1730 O.2   1 <1>  -0.5700 
 13 N       -2.2390    -6.5220    -0.5300 N.am  1 <1>  -0.6600 
 14 C       -2.3330    -7.9980    -0.7930 C.3   1 <1>   0.1400 
 15 C       -3.3800    -5.9760     0.2490 C.3   1 <1>   0.1400 
 16 C       -2.3960    -8.7870     0.5330 C.3   1 <1>  -0.1060 
 17 C       -3.4830    -6.6980     1.5920 C.3   1 <1>  -0.1600 
 18 C       -2.7820   -10.2390     0.2610 C.2   1 <1>   0.9060 
 19 C       -3.5550    -8.2120     1.3760 C.3   1 <1>   0.2000 
 20 C       -1.0310    -8.7170     1.2790 C.3   1 <1>  -0.0160 
 21 O       -3.0840   -10.6070    -0.8790 O.co2 1 <1>  -0.9000 
 22 O       -2.8760   -11.0050     1.2330 O.co2 1 <1>  -0.9000 
 23 O       -3.5850    -8.8200     2.6160 O.3   1 <1>  -0.6800 
 24 C        0.1670    -9.1960     0.4630 C.ar  1 <1>  -0.1430 
 25 C        1.0340    -8.2850    -0.1210 C.ar  1 <1>  -0.1500 
 26 C        0.4060   -10.5520     0.3020 C.ar  1 <1>  -0.1500 
 27 C        2.1230    -8.7210    -0.8560 C.ar  1 <1>  -0.1500 
 28 C        1.4950   -10.9920    -0.4310 C.ar  1 <1>  -0.1500 
 29 C        2.3560   -10.0760    -1.0100 C.ar  1 <1>  -0.1500 
 30 H       -0.9500    -4.6260     1.5690 H     1 <1>   0.1500 
 31 H       -1.4970    -3.6550    -3.2330 H     1 <1>   0.0800 
 32 H        0.2420    -3.8890    -3.2080 H     1 <1>   0.0800 
 33 H       -0.4250    -2.2670    -3.1300 H     1 <1>   0.0800 
 34 H       -3.2230    -8.1860    -1.3680 H     1 <1>   0.0800 
 35 H       -1.4990    -8.3400    -1.3830 H     1 <1>   0.0800 
 36 H       -3.2750    -4.9170     0.4050 H     1 <1>   0.0800 
 37 H       -4.2850    -6.1370    -0.3120 H     1 <1>   0.0800 
 38 H       -4.3730    -6.3730     2.0990 H     1 <1>   0.0800 
 39 H       -2.6370    -6.4460     2.2030 H     1 <1>   0.0800 
 40 H       -4.4860    -8.4530     0.8880 H     1 <1>   0.0800 
 41 H       -0.8420    -7.7090     1.5940 H     1 <1>   0.0800 
 42 H       -1.0810    -9.3150     2.1720 H     1 <1>   0.0800 
 43 H       -3.4210    -9.7930     2.4420 H     1 <1>   0.4000 
 44 H        0.8590    -7.2300    -0.0130 H     1 <1>   0.1500 
 45 H       -0.2650   -11.2710     0.7440 H     1 <1>   0.1500 
 46 H        2.7830    -8.0040    -1.3090 H     1 <1>   0.1500 
 47 H        1.6610   -12.0470    -0.5510 H     1 <1>   0.1500 
 48 H        3.1990   -10.4170    -1.5830 H     1 <1>   0.1500 
@<TRIPOS>BOND
  1   1   2  1   
  2   2   3  1   
  3   2   4  1   
  4   2   5  1   
  5   5   6  2   
  6   5   7  1   
  7   6   8  1   
  8   7   9  2   
  9   7  30  1   
 10   8   9  1   
 11   8  10  1   
 12   9  11  1   
 13  10  31  1   
 14  10  32  1   
 15  10  33  1   
 16  11  12  2   
 17  11  13  am  
 18  13  14  1   
 19  13  15  1   
 20  14  16  1   
 21  14  34  1   
 22  14  35  1   
 23  15  17  1   
 24  15  36  1   
 25  15  37  1   
 26  16  18  1   
 27  16  19  1   
 28  16  20  1   
 29  17  19  1   
 30  17  38  1   
 31  17  39  1   
 32  18  21  ar  
 33  18  22  ar  
 34  19  23  1   
 35  19  40  1   
 36  20  24  1   
 37  20  41  1   
 38  20  42  1   
 39  23  43  1   
 40  24  25  ar  
 41  24  26  ar  
 42  25  27  ar  
 43  25  44  1   
 44  26  28  ar  
 45  26  45  1   
 46  27  29  ar  
 47  27  46  1   
 48  28  29  ar  
 49  28  47  1   
 50  29  48  1   
@<TRIPOS>SUBSTRUCTURE
  1 ****  13 GROUP 4 **** **** 0

# MOE 2024.06 (io_trps.svl 2023.06)
