@<TRIPOS>MOLECULE
NONAME
43 45 1 0 0 
SMALL
USER_CHARGES


@<TRIPOS>ATOM
  1 O       -0.1680     1.5430     1.0010 O.co2 1 <1>  -0.9000 
  2 C        0.8880     1.5140     1.6480 C.2   1 <1>   0.9470 
  3 O        0.9410     1.9700     2.7990 O.co2 1 <1>  -0.9000 
  4 C        2.1960     1.1340     0.9480 C.3   1 <1>  -0.2420 
  5 C        2.9420    -0.1700     0.7930 C.3   1 <1>  -0.2420 
  6 C        3.2270     2.2280     1.1420 C.3   1 <1>   0.2350 
  7 C        2.1180     0.3650    -0.3490 C.3   1 <1>  -0.2000 
  8 C        2.6410    -1.5630     1.3490 C.2   1 <1>   0.9470 
  9 C        4.4310     0.1280     0.8630 C.3   1 <1>   0.2350 
 10 N        4.5350     1.6110     0.7830 N.am  1 <1>  -0.6600 
 11 O        2.1430    -2.4200     0.6050 O.co2 1 <1>  -0.9000 
 12 O        3.0460    -1.8560     2.4820 O.co2 1 <1>  -0.9000 
 13 C        5.6450     2.2690     0.3510 C.2   1 <1>   0.5690 
 14 O        6.6500     1.6860     0.0130 O.2   1 <1>  -0.5700 
 15 C        5.6150     3.7890     0.2950 C.3   1 <1>  -0.0990 
 16 C        6.9790     4.4280    -0.0140 C.3   1 <1>  -0.0160 
 17 C        7.0040     5.9620    -0.0630 C.ar  1 <1>  -0.1430 
 18 C        8.2010     6.6190    -0.3440 C.ar  1 <1>  -0.1430 
 19 C        5.8650     6.7260     0.1670 C.ar  1 <1>  -0.1500 
 20 C        8.2350     8.0050    -0.3910 C.ar  1 <1>  -0.1500 
 21 C        9.4930     5.8550    -0.6070 C.3   1 <1>  -0.0970 
 22 C        5.9100     8.1070     0.1180 C.ar  1 <1>  -0.1500 
 23 C        7.0970     8.7570    -0.1630 C.ar  1 <1>  -0.1430 
 24 C        7.1560    10.2720    -0.2170 C.3   1 <1>  -0.0970 
 25 H        3.2520     2.5330     2.1740 H     1 <1>   0.0800 
 26 H        2.9930     3.0690     0.5160 H     1 <1>   0.0800 
 27 H        2.6090     0.7460    -1.2240 H     1 <1>   0.1000 
 28 H        1.1970    -0.1450    -0.5790 H     1 <1>   0.1000 
 29 H        4.9580    -0.3450     0.0530 H     1 <1>   0.0800 
 30 H        4.8350    -0.2060     1.8040 H     1 <1>   0.0800 
 31 H        4.9110     4.0760    -0.4630 H     1 <1>   0.0800 
 32 H        5.2710     4.1470     1.2480 H     1 <1>   0.0800 
 33 H        7.3150     4.0510    -0.9640 H     1 <1>   0.0800 
 34 H        7.6780     4.0970     0.7340 H     1 <1>   0.0800 
 35 H        4.9180     6.2700     0.3890 H     1 <1>   0.1500 
 36 H        9.1600     8.5090    -0.6070 H     1 <1>   0.1500 
 37 H       10.3080     6.5270    -0.8030 H     1 <1>   0.0800 
 38 H        9.3750     5.2130    -1.4610 H     1 <1>   0.0800 
 39 H        9.7500     5.2580     0.2490 H     1 <1>   0.0800 
 40 H        5.0140     8.6730     0.3020 H     1 <1>   0.1500 
 41 H        6.1870    10.6820    -0.4360 H     1 <1>   0.0800 
 42 H        7.8400    10.5920    -0.9820 H     1 <1>   0.0800 
 43 H        7.4890    10.6560     0.7310 H     1 <1>   0.0800 
@<TRIPOS>BOND
  1   1   2  ar  
  2   2   3  ar  
  3   2   4  1   
  4   4   5  1   
  5   4   6  1   
  6   4   7  1   
  7   5   7  1   
  8   5   8  1   
  9   5   9  1   
 10   6  10  1   
 11   6  25  1   
 12   6  26  1   
 13   7  27  1   
 14   7  28  1   
 15   8  11  ar  
 16   8  12  ar  
 17   9  10  1   
 18   9  29  1   
 19   9  30  1   
 20  10  13  am  
 21  13  14  2   
 22  13  15  1   
 23  15  16  1   
 24  15  31  1   
 25  15  32  1   
 26  16  17  1   
 27  16  33  1   
 28  16  34  1   
 29  17  18  ar  
 30  17  19  ar  
 31  18  20  ar  
 32  18  21  1   
 33  19  22  ar  
 34  19  35  1   
 35  20  23  ar  
 36  20  36  1   
 37  21  37  1   
 38  21  38  1   
 39  21  39  1   
 40  22  23  ar  
 41  22  40  1   
 42  23  24  1   
 43  24  41  1   
 44  24  42  1   
 45  24  43  1   
@<TRIPOS>SUBSTRUCTURE
  1 ****  15 GROUP 4 **** **** 0

# MOE 2024.06 (io_trps.svl 2023.06)
