@<TRIPOS>MOLECULE
NONAME
53 57 1 0 0 
SMALL
USER_CHARGES


@<TRIPOS>ATOM
  1 F       -0.3720    -0.4650     0.4720 F     1 <1>  -0.1900 
  2 C       -1.5680    -1.0160     0.4110 C.ar  1 <1>   0.1900 
  3 C       -2.7070    -0.2840     0.0760 C.ar  1 <1>   0.4100 
  4 C       -1.6830    -2.3510     0.6730 C.ar  1 <1>   0.1600 
  5 N       -3.8700    -0.9060     0.0070 N.ar  1 <1>  -0.6200 
  6 N       -2.7130     1.0810    -0.2120 N.pl3 1 <1>  -0.8380 
  7 N       -2.8450    -2.9700     0.6160 N.ar  1 <1>  -0.6200 
  8 C       -3.8840    -2.2060     0.2840 C.ar  1 <1>   0.7200 
  9 C       -1.7730     2.0410     0.4150 C.3   1 <1>   0.2090 
 10 C       -3.9430     1.7810    -0.6550 C.3   1 <1>   0.2090 
 11 N       -5.1090    -2.8320     0.2280 N.pl3 1 <1>  -0.8380 
 12 C       -2.5400     3.3550     0.5030 C.3   1 <1>  -0.1600 
 13 C       -3.5920     3.2610    -0.5970 C.3   1 <1>  -0.1600 
 14 C       -6.3050    -2.1700    -0.3560 C.3   1 <1>   0.2090 
 15 C       -5.2560    -4.3090     0.1400 C.3   1 <1>   0.2090 
 16 C       -7.3820    -3.2510    -0.3190 C.3   1 <1>   0.2000 
 17 C       -6.5960    -4.5440    -0.5720 C.3   1 <1>  -0.0800 
 18 O       -7.9160    -3.2770     0.9620 O.3   1 <1>  -0.6800 
 19 C       -7.3260    -5.8310    -0.1320 C.3   1 <1>  -0.0170 
 20 C       -6.6610    -7.1640    -0.5010 C.ar  1 <1>  -0.1440 
 21 C       -7.1700    -8.3720     0.0380 C.ar  1 <1>   0.0000 
 22 C       -5.5910    -7.2680    -1.3460 C.ar  1 <1>  -0.1500 
 23 C       -6.5250    -9.5840    -0.3140 C.ar  1 <1>   0.3100 
 24 C       -8.2890    -8.4520     0.9020 C.ar  1 <1>  -0.1500 
 25 C       -5.0300    -8.5190    -1.6330 C.ar  1 <1>   0.1600 
 26 N       -5.4580    -9.6390    -1.1480 N.ar  1 <1>  -0.6200 
 27 C       -7.0070   -10.7930     0.2140 C.ar  1 <1>  -0.1500 
 28 C       -8.7340    -9.6470     1.3980 C.ar  1 <1>  -0.1500 
 29 C       -8.0860   -10.8350     1.0530 C.ar  1 <1>  -0.1500 
 30 H       -0.8110    -2.9230     0.9330 H     1 <1>   0.1500 
 31 H       -1.4640     1.7070     1.3910 H     1 <1>   0.0800 
 32 H       -0.9110     2.1520    -0.2220 H     1 <1>   0.0800 
 33 H       -4.2190     1.4730    -1.6490 H     1 <1>   0.0800 
 34 H       -4.7460     1.5620     0.0290 H     1 <1>   0.0800 
 35 H       -3.0210     3.4120     1.4630 H     1 <1>   0.0800 
 36 H       -1.8930     4.2050     0.3820 H     1 <1>   0.0800 
 37 H       -3.1640     3.5530    -1.5400 H     1 <1>   0.0800 
 38 H       -4.4560     3.8690    -0.3960 H     1 <1>   0.0800 
 39 H       -6.5890    -1.2970     0.2070 H     1 <1>   0.0800 
 40 H       -6.0920    -1.8890    -1.3730 H     1 <1>   0.0800 
 41 H       -4.4380    -4.7470    -0.4060 H     1 <1>   0.0800 
 42 H       -5.2720    -4.7150     1.1370 H     1 <1>   0.0800 
 43 H       -8.1790    -3.0840    -1.0230 H     1 <1>   0.0800 
 44 H       -6.4100    -4.5900    -1.6290 H     1 <1>   0.0800 
 45 H       -7.1730    -3.1730     1.5940 H     1 <1>   0.4000 
 46 H       -8.3140    -5.8230    -0.5590 H     1 <1>   0.0800 
 47 H       -7.4370    -5.7990     0.9370 H     1 <1>   0.0800 
 48 H       -5.1380    -6.4210    -1.8220 H     1 <1>   0.1500 
 49 H       -8.8100    -7.5550     1.1810 H     1 <1>   0.1500 
 50 H       -4.1860    -8.5500    -2.3010 H     1 <1>   0.1500 
 51 H       -6.4930   -11.6930    -0.0690 H     1 <1>   0.1500 
 52 H       -9.5850    -9.6890     2.0560 H     1 <1>   0.1500 
 53 H       -8.4440   -11.7690     1.4490 H     1 <1>   0.1500 
@<TRIPOS>BOND
  1   1   2  1   
  2   2   3  ar  
  3   2   4  ar  
  4   3   5  ar  
  5   3   6  1   
  6   4   7  ar  
  7   4  30  1   
  8   5   8  ar  
  9   6   9  1   
 10   6  10  1   
 11   7   8  ar  
 12   8  11  1   
 13   9  12  1   
 14   9  31  1   
 15   9  32  1   
 16  10  13  1   
 17  10  33  1   
 18  10  34  1   
 19  11  14  1   
 20  11  15  1   
 21  12  13  1   
 22  12  35  1   
 23  12  36  1   
 24  13  37  1   
 25  13  38  1   
 26  14  16  1   
 27  14  39  1   
 28  14  40  1   
 29  15  17  1   
 30  15  41  1   
 31  15  42  1   
 32  16  17  1   
 33  16  18  1   
 34  16  43  1   
 35  17  19  1   
 36  17  44  1   
 37  18  45  1   
 38  19  20  1   
 39  19  46  1   
 40  19  47  1   
 41  20  21  ar  
 42  20  22  ar  
 43  21  23  ar  
 44  21  24  ar  
 45  22  25  ar  
 46  22  48  1   
 47  23  26  ar  
 48  23  27  ar  
 49  24  28  ar  
 50  24  49  1   
 51  25  26  ar  
 52  25  50  1   
 53  27  29  ar  
 54  27  51  1   
 55  28  29  ar  
 56  28  52  1   
 57  29  53  1   
@<TRIPOS>SUBSTRUCTURE
  1 ****  15 GROUP 4 **** **** 0

# MOE 2024.06 (io_trps.svl 2023.06)
