@<TRIPOS>MOLECULE
NONAME
48 50 1 0 0 
SMALL
USER_CHARGES


@<TRIPOS>ATOM
  1 O       -2.8080     0.9820    -2.3570 O.2   1 <1>  -0.5700 
  2 C       -2.3050     0.9520    -1.2620 C.2   1 <1>   0.5690 
  3 N       -1.9230    -0.2100    -0.6810 N.am  1 <1>  -0.7300 
  4 C       -2.0880     2.2430    -0.5090 C.3   1 <1>  -0.0990 
  5 C       -2.0240    -1.5470    -1.3100 C.3   1 <1>   0.2200 
  6 C       -0.7670     2.9010    -0.9190 C.3   1 <1>  -0.0160 
  7 C       -3.1540    -2.3630    -0.6970 C.3   1 <1>  -0.0800 
  8 C       -0.8210    -2.3750    -0.8820 C.3   1 <1>   0.1200 
  9 C       -0.5210     4.1540    -0.0870 C.ar  1 <1>  -0.1440 
 10 C       -2.5030    -2.9780     0.5480 C.3   1 <1>   0.1200 
 11 C       -4.4620    -1.5980    -0.4190 C.3   1 <1>  -0.0160 
 12 O       -1.1220    -2.7990     0.4120 O.3   1 <1>  -0.5600 
 13 C        0.2250     4.1420     1.0900 C.ar  1 <1>  -0.1440 
 14 C       -1.0760     5.3460    -0.5290 C.ar  1 <1>  -0.1500 
 15 C       -5.5410    -2.5390     0.0950 C.ar  1 <1>  -0.1440 
 16 C        0.4010     5.3230     1.7970 C.ar  1 <1>  -0.1500 
 17 C        0.8630     2.8710     1.6340 C.3   1 <1>  -0.0970 
 18 C       -0.8960     6.5180     0.1820 C.ar  1 <1>  -0.1500 
 19 C       -6.2860    -3.3220    -0.7630 C.ar  1 <1>  -0.1500 
 20 C       -5.8310    -2.6610     1.4390 C.ar  1 <1>  -0.1500 
 21 C       -0.1560     6.5060     1.3480 C.ar  1 <1>  -0.1500 
 22 C       -7.2540    -4.1700    -0.2500 C.ar  1 <1>   0.1600 
 23 C       -6.8200    -3.5400     1.8480 C.ar  1 <1>   0.1600 
 24 N       -7.5370    -4.3000     1.0360 N.ar  1 <1>  -0.6200 
 25 H       -1.5200    -0.2250     0.2580 H     1 <1>   0.3700 
 26 H       -2.9040     2.9090    -0.7230 H     1 <1>   0.0800 
 27 H       -2.0890     2.0490     0.5470 H     1 <1>   0.0800 
 28 H       -2.1040    -1.4600    -2.3810 H     1 <1>   0.0800 
 29 H       -0.8130     3.1640    -1.9620 H     1 <1>   0.0800 
 30 H        0.0430     2.2050    -0.8090 H     1 <1>   0.0800 
 31 H       -3.3770    -3.1700    -1.3720 H     1 <1>   0.0800 
 32 H        0.0960    -1.8130    -0.8790 H     1 <1>   0.0800 
 33 H       -0.7160    -3.2490    -1.5020 H     1 <1>   0.0800 
 34 H       -2.7140    -4.0300     0.6290 H     1 <1>   0.0800 
 35 H       -2.8080    -2.4760     1.4500 H     1 <1>   0.0800 
 36 H       -4.8000    -1.1290    -1.3270 H     1 <1>   0.0800 
 37 H       -4.2970    -0.8180     0.3040 H     1 <1>   0.0800 
 38 H       -1.6550     5.3680    -1.4360 H     1 <1>   0.1500 
 39 H        0.9760     5.3310     2.7060 H     1 <1>   0.1500 
 40 H        1.2940     3.0400     2.6040 H     1 <1>   0.0800 
 41 H        1.6440     2.5420     0.9720 H     1 <1>   0.0800 
 42 H        0.1280     2.0930     1.7270 H     1 <1>   0.0800 
 43 H       -1.3310     7.4360    -0.1720 H     1 <1>   0.1500 
 44 H       -6.1240    -3.2810    -1.8240 H     1 <1>   0.1500 
 45 H       -5.3010    -2.0820     2.1720 H     1 <1>   0.1500 
 46 H       -0.0130     7.4150     1.9050 H     1 <1>   0.1500 
 47 H       -7.8250    -4.7740    -0.9340 H     1 <1>   0.1500 
 48 H       -7.0330    -3.6230     2.9010 H     1 <1>   0.1500 
@<TRIPOS>BOND
  1   1   2  2   
  2   2   3  am  
  3   2   4  1   
  4   3   5  1   
  5   3  25  1   
  6   4   6  1   
  7   4  26  1   
  8   4  27  1   
  9   5   7  1   
 10   5   8  1   
 11   5  28  1   
 12   6   9  1   
 13   6  29  1   
 14   6  30  1   
 15   7  10  1   
 16   7  11  1   
 17   7  31  1   
 18   8  12  1   
 19   8  32  1   
 20   8  33  1   
 21   9  13  ar  
 22   9  14  ar  
 23  10  12  1   
 24  10  34  1   
 25  10  35  1   
 26  11  15  1   
 27  11  36  1   
 28  11  37  1   
 29  13  16  ar  
 30  13  17  1   
 31  14  18  ar  
 32  14  38  1   
 33  15  19  ar  
 34  15  20  ar  
 35  16  21  ar  
 36  16  39  1   
 37  17  40  1   
 38  17  41  1   
 39  17  42  1   
 40  18  21  ar  
 41  18  43  1   
 42  19  22  ar  
 43  19  44  1   
 44  20  23  ar  
 45  20  45  1   
 46  21  46  1   
 47  22  24  ar  
 48  22  47  1   
 49  23  24  ar  
 50  23  48  1   
@<TRIPOS>SUBSTRUCTURE
  1 ****   3 GROUP 4 **** **** 0

# MOE 2024.06 (io_trps.svl 2023.06)
