@<TRIPOS>MOLECULE
NONAME
62 65 1 0 0 
SMALL
USER_CHARGES


@<TRIPOS>ATOM
  1 O       -4.0360    -1.7840    -1.8380 O.2   1 <1>  -0.5700 
  2 C       -2.8340    -1.6250    -1.8380 C.2   1 <1>   0.6300 
  3 N       -2.0010    -2.0940    -0.8630 N.am  1 <1>  -0.5470 
  4 C       -2.1970    -0.8800    -3.0000 C.3   1 <1>  -0.1000 
  5 C       -2.3330    -2.7690     0.3140 C.ar  1 <1>   0.1170 
  6 C       -2.2670    -1.4290    -4.3960 C.3   1 <1>  -0.2000 
  7 C       -0.9550    -1.3860    -3.6800 C.3   1 <1>  -0.2000 
  8 C       -3.2480    -2.2320     1.2080 C.ar  1 <1>  -0.1500 
  9 C       -1.7550    -3.9980     0.6090 C.ar  1 <1>  -0.1500 
 10 C       -3.6280    -2.9370     2.3340 C.ar  1 <1>  -0.1500 
 11 C       -2.1460    -4.7130     1.7290 C.ar  1 <1>  -0.1500 
 12 C       -3.1190    -4.2060     2.5760 C.ar  1 <1>  -0.1430 
 13 C       -3.6750    -5.0480     3.7290 C.3   1 <1>   0.0440 
 14 C       -4.3490    -6.3850     3.3630 C.2   1 <1>   0.5690 
 15 O       -3.9300    -7.3520     3.9570 O.2   1 <1>  -0.5700 
 16 N       -5.3980    -6.5110     2.4640 N.am  1 <1>  -0.6600 
 17 C       -5.6920    -5.4820     1.4350 C.3   1 <1>   0.2200 
 18 C       -6.1430    -7.8010     2.3400 C.3   1 <1>   0.0600 
 19 C       -7.1320    -5.2140     1.0110 C.3   1 <1>  -0.1600 
 20 C       -5.0080    -5.7780     0.1070 C.3   1 <1>  -0.1600 
 21 C       -6.9070    -4.2660    -0.1830 C.3   1 <1>  -0.0800 
 22 C       -5.5440    -4.6550    -0.7740 C.3   1 <1>  -0.0800 
 23 C       -7.8890    -4.3400    -1.3550 C.3   1 <1>  -0.1600 
 24 C       -5.7880    -4.9930    -2.2480 C.3   1 <1>  -0.1600 
 25 C       -7.0220    -4.1700    -2.6130 C.3   1 <1>   0.4230 
 26 N       -6.5780    -2.7560    -2.8500 N.4   1 <1>  -0.9590 
 27 C       -7.6240    -1.7100    -2.6500 C.3   1 <1>   0.2630 
 28 C       -5.9710    -2.5970    -4.2050 C.3   1 <1>   0.2630 
 29 H       -1.0040    -1.9760    -1.0400 H     1 <1>   0.3700 
 30 H       -2.3000     0.1840    -2.8860 H     1 <1>   0.1000 
 31 H       -2.7160    -2.3920    -4.5650 H     1 <1>   0.1000 
 32 H       -2.4250    -0.7490    -5.2170 H     1 <1>   0.1000 
 33 H       -0.2150    -0.6730    -4.0060 H     1 <1>   0.1000 
 34 H       -0.5160    -2.3240    -3.3860 H     1 <1>   0.1000 
 35 H       -3.6700    -1.2620     1.0130 H     1 <1>   0.1500 
 36 H       -1.0130    -4.4110    -0.0500 H     1 <1>   0.1500 
 37 H       -4.3480    -2.5030     3.0060 H     1 <1>   0.1500 
 38 H       -1.7120    -5.6800     1.9270 H     1 <1>   0.1500 
 39 H       -4.3940    -4.4750     4.2820 H     1 <1>   0.0800 
 40 H       -2.8650    -5.2570     4.4030 H     1 <1>   0.0800 
 41 H       -5.3580    -4.5390     1.8010 H     1 <1>   0.0800 
 42 H       -7.1970    -7.6280     2.4620 H     1 <1>   0.0800 
 43 H       -5.8310    -8.5000     3.0960 H     1 <1>   0.0800 
 44 H       -5.9610    -8.2420     1.3770 H     1 <1>   0.0800 
 45 H       -7.6100    -6.1230     0.6930 H     1 <1>   0.0800 
 46 H       -7.7000    -4.7450     1.7960 H     1 <1>   0.0800 
 47 H       -3.9390    -5.7540     0.1730 H     1 <1>   0.0800 
 48 H       -5.3210    -6.7380    -0.2600 H     1 <1>   0.0800 
 49 H       -6.8420    -3.2500     0.1750 H     1 <1>   0.0800 
 50 H       -4.8820    -3.8130    -0.6870 H     1 <1>   0.0800 
 51 H       -8.7010    -3.6430    -1.2690 H     1 <1>   0.0800 
 52 H       -8.3200    -5.3260    -1.3890 H     1 <1>   0.0800 
 53 H       -6.0350    -6.0360    -2.3470 H     1 <1>   0.0800 
 54 H       -4.9270    -4.7900    -2.8570 H     1 <1>   0.0800 
 55 H       -7.5230    -4.5590    -3.4850 H     1 <1>   0.0800 
 56 H       -5.8060    -2.5620    -2.1730 H     1 <1>   0.4500 
 57 H       -8.4680    -1.8940    -3.2950 H     1 <1>   0.0800 
 58 H       -7.2210    -0.7350    -2.8730 H     1 <1>   0.0800 
 59 H       -7.9600    -1.7070    -1.6260 H     1 <1>   0.0800 
 60 H       -6.7090    -2.7720    -4.9700 H     1 <1>   0.0800 
 61 H       -5.1600    -3.2930    -4.3370 H     1 <1>   0.0800 
 62 H       -5.5790    -1.5990    -4.3180 H     1 <1>   0.0800 
@<TRIPOS>BOND
  1   1   2  2   
  2   2   3  am  
  3   2   4  1   
  4   3   5  1   
  5   3  29  1   
  6   4   6  1   
  7   4   7  1   
  8   4  30  1   
  9   5   8  ar  
 10   5   9  ar  
 11   6   7  1   
 12   6  31  1   
 13   6  32  1   
 14   7  33  1   
 15   7  34  1   
 16   8  10  ar  
 17   8  35  1   
 18   9  11  ar  
 19   9  36  1   
 20  10  12  ar  
 21  10  37  1   
 22  11  12  ar  
 23  11  38  1   
 24  12  13  1   
 25  13  14  1   
 26  13  39  1   
 27  13  40  1   
 28  14  15  2   
 29  14  16  am  
 30  16  17  1   
 31  16  18  1   
 32  17  19  1   
 33  17  20  1   
 34  17  41  1   
 35  18  42  1   
 36  18  43  1   
 37  18  44  1   
 38  19  21  1   
 39  19  45  1   
 40  19  46  1   
 41  20  22  1   
 42  20  47  1   
 43  20  48  1   
 44  21  22  1   
 45  21  23  1   
 46  21  49  1   
 47  22  24  1   
 48  22  50  1   
 49  23  25  1   
 50  23  51  1   
 51  23  52  1   
 52  24  25  1   
 53  24  53  1   
 54  24  54  1   
 55  25  26  1   
 56  25  55  1   
 57  26  27  1   
 58  26  28  1   
 59  26  56  1   
 60  27  57  1   
 61  27  58  1   
 62  27  59  1   
 63  28  60  1   
 64  28  61  1   
 65  28  62  1   
@<TRIPOS>SUBSTRUCTURE
  1 ****  22 GROUP 4 **** **** 0

# MOE 2024.06 (io_trps.svl 2023.06)
