@<TRIPOS>MOLECULE
NONAME
47 49 1 0 0 
SMALL
USER_CHARGES


@<TRIPOS>ATOM
  1 S        0.2280    -0.1780    -0.7610 S.o2  1 <1>   1.3330 
  2 O       -0.5940    -1.3450    -0.5340 O.2   1 <1>  -0.6500 
  3 O        0.8530     0.0230    -2.0480 O.2   1 <1>  -0.6500 
  4 N        1.4580    -0.1910     0.4130 N.am  1 <1>  -0.8490 
  5 C       -0.7190     1.2970    -0.3760 C.3   1 <1>  -0.0550 
  6 C        2.6300    -0.9480    -0.0380 C.3   1 <1>   0.1160 
  7 C        1.0100    -0.7120     1.7110 C.3   1 <1>   0.1160 
  8 C        0.0040     2.6190    -0.7130 C.3   1 <1>  -0.0800 
  9 C       -0.8330     3.8730    -0.4620 C.3   1 <1>   0.2000 
 10 C        1.2960     2.8670     0.0770 C.3   1 <1>   0.2090 
 11 O       -1.4200     3.7780     0.7910 O.3   1 <1>  -0.6800 
 12 C        0.2130     4.9830    -0.4110 C.3   1 <1>   0.2090 
 13 N        1.3930     4.3440     0.2400 N.pl3 1 <1>  -0.8380 
 14 C        2.6210     4.9940     0.2650 C.ar  1 <1>   0.4100 
 15 N        2.7070     6.2120    -0.2870 N.ar  1 <1>  -0.3100 
 16 C        3.7250     4.4010     0.8550 C.ar  1 <1>  -0.1500 
 17 N        3.8420     6.8650    -0.3020 N.ar  1 <1>  -0.3100 
 18 C        4.9120     5.0870     0.8430 C.ar  1 <1>  -0.1500 
 19 C        4.9440     6.3350     0.2420 C.ar  1 <1>   0.3100 
 20 C        6.1730     7.0970     0.1950 C.ar  1 <1>   0.0000 
 21 C        7.3790     6.5120    -0.1930 C.ar  1 <1>  -0.1500 
 22 C        6.1950     8.4480     0.5410 C.ar  1 <1>  -0.1500 
 23 C        8.5550     7.2390    -0.2230 C.ar  1 <1>  -0.1500 
 24 C        7.3680     9.1810     0.5120 C.ar  1 <1>  -0.1500 
 25 C        8.5520     8.5760     0.1310 C.ar  1 <1>  -0.1500 
 26 H       -1.6310     1.2680    -0.9410 H     1 <1>   0.0800 
 27 H       -0.9910     1.2830     0.6610 H     1 <1>   0.0800 
 28 H        3.3970    -0.9380     0.7180 H     1 <1>   0.0800 
 29 H        3.0350    -0.5060    -0.9330 H     1 <1>   0.0800 
 30 H        2.3570    -1.9690    -0.2510 H     1 <1>   0.0800 
 31 H        1.8010    -0.6270     2.4370 H     1 <1>   0.0800 
 32 H        0.7260    -1.7490     1.6240 H     1 <1>   0.0800 
 33 H        0.1630    -0.1520     2.0670 H     1 <1>   0.0800 
 34 H        0.2660     2.6070    -1.7570 H     1 <1>   0.0800 
 35 H       -1.6020     4.0390    -1.1980 H     1 <1>   0.0800 
 36 H        2.1500     2.4730    -0.4500 H     1 <1>   0.0800 
 37 H        1.2380     2.4160     1.0530 H     1 <1>   0.0800 
 38 H       -0.7220     3.9590     1.4570 H     1 <1>   0.4000 
 39 H       -0.1310     5.8390     0.1450 H     1 <1>   0.0800 
 40 H        0.4760     5.2860    -1.4100 H     1 <1>   0.0800 
 41 H        3.6460     3.4360     1.3150 H     1 <1>   0.1500 
 42 H        5.7970     4.6750     1.2920 H     1 <1>   0.1500 
 43 H        7.3960     5.4760    -0.4820 H     1 <1>   0.1500 
 44 H        5.2770     8.9280     0.8350 H     1 <1>   0.1500 
 45 H        9.4740     6.7670    -0.5250 H     1 <1>   0.1500 
 46 H        7.3580    10.2220     0.7850 H     1 <1>   0.1500 
 47 H        9.4660     9.1440     0.1080 H     1 <1>   0.1500 
@<TRIPOS>BOND
  1   1   2  2   
  2   1   3  2   
  3   1   4  am  
  4   1   5  1   
  5   4   6  1   
  6   4   7  1   
  7   5   8  1   
  8   5  26  1   
  9   5  27  1   
 10   6  28  1   
 11   6  29  1   
 12   6  30  1   
 13   7  31  1   
 14   7  32  1   
 15   7  33  1   
 16   8   9  1   
 17   8  10  1   
 18   8  34  1   
 19   9  11  1   
 20   9  12  1   
 21   9  35  1   
 22  10  13  1   
 23  10  36  1   
 24  10  37  1   
 25  11  38  1   
 26  12  13  1   
 27  12  39  1   
 28  12  40  1   
 29  13  14  1   
 30  14  15  ar  
 31  14  16  ar  
 32  15  17  ar  
 33  16  18  ar  
 34  16  41  1   
 35  17  19  ar  
 36  18  19  ar  
 37  18  42  1   
 38  19  20  1   
 39  20  21  ar  
 40  20  22  ar  
 41  21  23  ar  
 42  21  43  1   
 43  22  24  ar  
 44  22  44  1   
 45  23  25  ar  
 46  23  45  1   
 47  24  25  ar  
 48  24  46  1   
 49  25  47  1   
@<TRIPOS>SUBSTRUCTURE
  1 ****  14 GROUP 4 **** **** 0

# MOE 2024.06 (io_trps.svl 2023.06)
