@<TRIPOS>MOLECULE
NONAME
46 49 1 0 0 
SMALL
USER_CHARGES


@<TRIPOS>ATOM
  1 CL      -0.3940    -0.3290    -1.3130 Cl    1 <1>  -0.1400 
  2 C       -2.0130     0.1280    -0.8470 C.2   1 <1>   0.1400 
  3 C       -2.9160    -0.8180    -0.4500 C.2   1 <1>   0.2290 
  4 C       -2.3550     1.4930    -0.8900 C.2   1 <1>  -0.1500 
  5 N       -4.1950    -0.4290    -0.0950 N.pl3 1 <1>  -0.6290 
  6 C       -3.6240     1.8600    -0.5160 C.2   1 <1>  -0.1410 
  7 C       -5.2940    -1.1680     0.3600 C.2   1 <1>   0.2770 
  8 C       -4.5430     0.8770    -0.1060 C.cat 1 <1>   0.7910 
  9 C       -6.2730    -0.2570     0.6260 C.2   1 <1>   0.1820 
 10 C       -5.3170    -2.6110     0.5180 C.2   1 <1>   0.7030 
 11 N       -5.8100     0.9860     0.3210 N.pl3 1 <1>  -0.7000 
 12 C       -7.6700    -0.4390     1.1960 C.3   1 <1>  -0.0720 
 13 O       -4.3750    -3.1670     1.0500 O.2   1 <1>  -0.5700 
 14 N       -6.3620    -3.3900     0.0680 N.am  1 <1>  -0.6600 
 15 C       -7.2300    -3.0690    -1.0990 C.3   1 <1>   0.1400 
 16 C       -6.4750    -4.8420     0.3860 C.3   1 <1>   0.1400 
 17 C       -8.2530    -4.2000    -1.1320 C.3   1 <1>   0.2000 
 18 C       -7.4580    -5.4170    -0.6450 C.3   1 <1>  -0.0800 
 19 O       -9.2550    -3.8940    -0.2230 O.3   1 <1>  -0.6800 
 20 C       -8.3140    -6.5830    -0.1140 C.3   1 <1>   0.0200 
 21 C       -7.4900    -7.8040     0.2580 C.2   1 <1>  -0.0400 
 22 O       -8.0690    -8.7690     0.9210 O.3   1 <1>  -0.0190 
 23 C       -6.2110    -8.1620     0.0530 C.2   1 <1>  -0.1500 
 24 N       -7.2500    -9.7470     1.1750 N.2   1 <1>  -0.4100 
 25 C       -6.1220    -9.4100     0.6630 C.2   1 <1>   0.1080 
 26 C       -4.8740   -10.2620     0.7230 C.3   1 <1>  -0.0590 
 27 H       -2.6530    -1.8640    -0.4030 H     1 <1>   0.1500 
 28 H       -1.6160     2.2090    -1.2110 H     1 <1>   0.1500 
 29 H       -3.9350     2.8880    -0.5250 H     1 <1>   0.1500 
 30 H       -6.3120     1.8720     0.4240 H     1 <1>   0.4500 
 31 H       -7.8470    -1.4650     1.4640 H     1 <1>   0.0800 
 32 H       -8.4090    -0.1390     0.4750 H     1 <1>   0.0800 
 33 H       -7.7870     0.1610     2.0810 H     1 <1>   0.0800 
 34 H       -7.7140    -2.1120    -1.0140 H     1 <1>   0.0800 
 35 H       -6.6370    -3.0940    -1.9970 H     1 <1>   0.0800 
 36 H       -5.5150    -5.3280     0.3210 H     1 <1>   0.0800 
 37 H       -6.8570    -4.9560     1.3870 H     1 <1>   0.0800 
 38 H       -8.7010    -4.3360    -2.1030 H     1 <1>   0.0800 
 39 H       -6.8820    -5.7770    -1.4790 H     1 <1>   0.0800 
 40 H       -8.8860    -3.8720     0.6810 H     1 <1>   0.4000 
 41 H       -9.0320    -6.8730    -0.8600 H     1 <1>   0.0800 
 42 H       -8.8620    -6.2730     0.7580 H     1 <1>   0.0800 
 43 H       -5.4120    -7.6540    -0.4520 H     1 <1>   0.1500 
 44 H       -4.5060   -10.4420    -0.2710 H     1 <1>   0.0800 
 45 H       -5.0960   -11.2050     1.1880 H     1 <1>   0.0800 
 46 H       -4.1170    -9.7610     1.2970 H     1 <1>   0.0800 
@<TRIPOS>BOND
  1   1   2  1   
  2   2   3  2   
  3   2   4  1   
  4   3   5  1   
  5   3  27  1   
  6   4   6  2   
  7   4  28  1   
  8   5   7  1   
  9   5   8  ar  
 10   6   8  1   
 11   6  29  1   
 12   7   9  2   
 13   7  10  1   
 14   8  11  ar  
 15   9  11  1   
 16   9  12  1   
 17  10  13  2   
 18  10  14  am  
 19  11  30  1   
 20  12  31  1   
 21  12  32  1   
 22  12  33  1   
 23  14  15  1   
 24  14  16  1   
 25  15  17  1   
 26  15  34  1   
 27  15  35  1   
 28  16  18  1   
 29  16  36  1   
 30  16  37  1   
 31  17  18  1   
 32  17  19  1   
 33  17  38  1   
 34  18  20  1   
 35  18  39  1   
 36  19  40  1   
 37  20  21  1   
 38  20  41  1   
 39  20  42  1   
 40  21  22  1   
 41  21  23  2   
 42  22  24  1   
 43  23  25  1   
 44  23  43  1   
 45  24  25  2   
 46  25  26  1   
 47  26  44  1   
 48  26  45  1   
 49  26  46  1   
@<TRIPOS>SUBSTRUCTURE
  1 ****  14 GROUP 4 **** **** 0

# MOE 2024.06 (io_trps.svl 2023.06)
