@<TRIPOS>MOLECULE
NONAME
55 58 1 0 0 
SMALL
USER_CHARGES


@<TRIPOS>ATOM
  1 O       -2.0160    -0.0840    -0.7480 O.2   1 <1>  -0.5700 
  2 C       -1.2240     0.7600    -0.3960 C.2   1 <1>   0.5690 
  3 N       -1.6570     1.7580     0.4340 N.am  1 <1>  -0.6600 
  4 C        0.1910     0.7080    -0.9670 C.3   1 <1>   0.0440 
  5 C       -2.7260     1.4830     1.4570 C.3   1 <1>   0.1400 
  6 C       -1.3790     3.1950     0.1650 C.3   1 <1>   0.1400 
  7 C        1.2570     1.3650    -0.0930 C.ar  1 <1>  -0.1440 
  8 C       -4.1480     1.8460     0.9590 C.3   1 <1>   0.4230 
  9 C       -2.6080     3.9330    -0.4230 C.3   1 <1>  -0.0800 
 10 C        2.1240     2.3180    -0.5910 C.ar  1 <1>  -0.1500 
 11 C        1.4140     1.0400     1.2400 C.ar  1 <1>  -0.1500 
 12 N       -4.1620     1.8590    -0.5520 N.4   1 <1>  -0.9590 
 13 C       -4.6850     3.1410     1.6030 C.3   1 <1>   0.1200 
 14 C       -3.3310     4.8200     0.6030 C.3   1 <1>   0.1200 
 15 C       -3.6100     3.0780    -1.2300 C.3   1 <1>   0.3430 
 16 C        3.0650     2.8930     0.2460 C.ar  1 <1>   0.1600 
 17 C        2.3870     1.6760     1.9920 C.ar  1 <1>   0.1600 
 18 C       -5.4450     1.4120    -1.1620 C.3   1 <1>   0.4860 
 19 O       -3.6900     4.1110     1.7390 O.3   1 <1>  -0.5600 
 20 N        3.2110     2.6000     1.5270 N.ar  1 <1>  -0.6200 
 21 C       -5.9450     0.1580    -0.4720 C.ar  1 <1>  -0.1440 
 22 C       -7.0890     0.2110     0.3110 C.ar  1 <1>  -0.1500 
 23 C       -5.2570    -1.0400    -0.5980 C.ar  1 <1>  -0.1500 
 24 C       -7.5400    -0.9170     0.9750 C.ar  1 <1>  -0.1440 
 25 C       -5.7050    -2.1680     0.0640 C.ar  1 <1>  -0.1500 
 26 C       -6.8410    -2.1060     0.8500 C.ar  1 <1>  -0.1500 
 27 C       -8.7920    -0.8610     1.8330 C.3   1 <1>  -0.0970 
 28 H        0.4580    -0.3240    -1.1040 H     1 <1>   0.0800 
 29 H        0.1770     1.1660    -1.9370 H     1 <1>   0.0800 
 30 H       -2.7160     0.4330     1.6930 H     1 <1>   0.0800 
 31 H       -2.4980     2.0040     2.3710 H     1 <1>   0.0800 
 32 H       -1.0530     3.6710     1.0760 H     1 <1>   0.0800 
 33 H       -0.5680     3.2740    -0.5370 H     1 <1>   0.0800 
 34 H       -4.7920     1.0550     1.3050 H     1 <1>   0.0800 
 35 H       -2.2060     4.6350    -1.1310 H     1 <1>   0.0800 
 36 H        2.0860     2.6210    -1.6220 H     1 <1>   0.1500 
 37 H        0.7880     0.2990     1.7060 H     1 <1>   0.1500 
 38 H       -3.4780     1.0990    -0.7530 H     1 <1>   0.4500 
 39 H       -5.0140     2.9110     2.6020 H     1 <1>   0.0800 
 40 H       -5.5210     3.5470     1.0620 H     1 <1>   0.0800 
 41 H       -4.2110     5.2830     0.1880 H     1 <1>   0.0800 
 42 H       -2.6680     5.6040     0.9300 H     1 <1>   0.0800 
 43 H       -3.1270     2.7650    -2.1410 H     1 <1>   0.0800 
 44 H       -4.4290     3.7200    -1.5110 H     1 <1>   0.0800 
 45 H        3.7340     3.6340    -0.1580 H     1 <1>   0.1500 
 46 H        2.4930     1.4120     3.0310 H     1 <1>   0.1500 
 47 H       -6.1860     2.1890    -1.0680 H     1 <1>   0.0800 
 48 H       -5.3020     1.2050    -2.2100 H     1 <1>   0.0800 
 49 H       -7.6420     1.1300     0.4130 H     1 <1>   0.1500 
 50 H       -4.3710    -1.1150    -1.2060 H     1 <1>   0.1500 
 51 H       -5.1700    -3.0980    -0.0320 H     1 <1>   0.1500 
 52 H       -7.1810    -2.9900     1.3610 H     1 <1>   0.1500 
 53 H       -9.3180    -1.7980     1.7860 H     1 <1>   0.0800 
 54 H       -9.4550    -0.0870     1.4920 H     1 <1>   0.0800 
 55 H       -8.5260    -0.6670     2.8570 H     1 <1>   0.0800 
@<TRIPOS>BOND
  1   1   2  2   
  2   2   3  am  
  3   2   4  1   
  4   3   5  1   
  5   3   6  1   
  6   4   7  1   
  7   4  28  1   
  8   4  29  1   
  9   5   8  1   
 10   5  30  1   
 11   5  31  1   
 12   6   9  1   
 13   6  32  1   
 14   6  33  1   
 15   7  10  ar  
 16   7  11  ar  
 17   8  12  1   
 18   8  13  1   
 19   8  34  1   
 20   9  14  1   
 21   9  15  1   
 22   9  35  1   
 23  10  16  ar  
 24  10  36  1   
 25  11  17  ar  
 26  11  37  1   
 27  12  15  1   
 28  12  18  1   
 29  12  38  1   
 30  13  19  1   
 31  13  39  1   
 32  13  40  1   
 33  14  19  1   
 34  14  41  1   
 35  14  42  1   
 36  15  43  1   
 37  15  44  1   
 38  16  20  ar  
 39  16  45  1   
 40  17  20  ar  
 41  17  46  1   
 42  18  21  1   
 43  18  47  1   
 44  18  48  1   
 45  21  22  ar  
 46  21  23  ar  
 47  22  24  ar  
 48  22  49  1   
 49  23  25  ar  
 50  23  50  1   
 51  24  26  ar  
 52  24  27  1   
 53  25  26  ar  
 54  25  51  1   
 55  26  52  1   
 56  27  53  1   
 57  27  54  1   
 58  27  55  1   
@<TRIPOS>SUBSTRUCTURE
  1 ****   5 GROUP 4 **** **** 0

# MOE 2024.06 (io_trps.svl 2023.06)
