@<TRIPOS>MOLECULE
NONAME
53 56 1 0 0 
SMALL
USER_CHARGES


@<TRIPOS>ATOM
  1 O        1.3710     1.2350    -0.6820 O.2   1 <1>  -0.5700 
  2 C        1.2600     0.0780    -0.3590 C.2   1 <1>   0.5690 
  3 N        2.2670    -0.7740     0.0000 N.am  1 <1>  -0.4770 
  4 C       -0.0800    -0.6050    -0.3090 C.3   1 <1>  -0.0990 
  5 C        3.6500    -0.5140     0.0230 C.ar  1 <1>   0.1170 
  6 C        1.7300    -2.1060     0.3460 C.3   1 <1>   0.1400 
  7 C        0.2780    -2.0880    -0.1460 C.3   1 <1>  -0.1600 
  8 C        4.2430     0.2860    -0.9470 C.ar  1 <1>  -0.1500 
  9 C        4.4660    -1.0500     1.0150 C.ar  1 <1>  -0.1500 
 10 C        5.6000     0.5460    -0.9290 C.ar  1 <1>  -0.1500 
 11 C        5.8260    -0.7930     1.0380 C.ar  1 <1>  -0.1500 
 12 C        6.4050     0.0090     0.0650 C.ar  1 <1>  -0.1430 
 13 C        7.8900     0.3100     0.0940 C.3   1 <1>   0.3530 
 14 N        8.0470     1.7400     0.4350 N.pl3 1 <1>  -0.8690 
 15 C        8.7560     2.7480    -0.0740 C.ar  1 <1>   0.7710 
 16 N        8.4870     3.9400     0.4110 N.ar  1 <1>  -0.6200 
 17 N        9.6840     2.5370    -1.0250 N.ar  1 <1>  -0.1790 
 18 C        9.1570     4.9750    -0.0620 C.ar  1 <1>   0.4100 
 19 C       10.3860     3.5710    -1.5480 C.ar  1 <1>   0.2110 
 20 N        8.8770     6.1990     0.4560 N.pl3 1 <1>  -0.8380 
 21 C       10.1270     4.8120    -1.0720 C.ar  1 <1>  -0.1500 
 22 C        9.8650     7.3210     0.5820 C.3   1 <1>   0.2090 
 23 C        7.5470     6.5300     1.0590 C.3   1 <1>   0.2090 
 24 C        9.3200     8.5920    -0.0920 C.3   1 <1>   0.2000 
 25 C        6.9790     7.7880     0.3880 C.3   1 <1>  -0.1600 
 26 O       10.1930     9.6440     0.1210 O.3   1 <1>  -0.6800 
 27 C        7.9470     8.9820     0.4640 C.3   1 <1>  -0.1600 
 28 H       -0.6360    -0.4210    -1.2090 H     1 <1>   0.0800 
 29 H       -0.6230    -0.2390     0.5430 H     1 <1>   0.0800 
 30 H        1.7630    -2.2340     1.4140 H     1 <1>   0.0800 
 31 H        2.2990    -2.8820    -0.1360 H     1 <1>   0.0800 
 32 H        0.2290    -2.5780    -1.1030 H     1 <1>   0.0800 
 33 H       -0.3810    -2.5930     0.5380 H     1 <1>   0.0800 
 34 H        3.6310     0.7130    -1.7220 H     1 <1>   0.1500 
 35 H        4.0360    -1.6650     1.7830 H     1 <1>   0.1500 
 36 H        6.0160     1.1770    -1.6940 H     1 <1>   0.1500 
 37 H        6.4240    -1.2200     1.8250 H     1 <1>   0.1500 
 38 H        8.3190     0.0870    -0.8670 H     1 <1>   0.0800 
 39 H        8.3750    -0.2950     0.8420 H     1 <1>   0.0800 
 40 H        7.3520     2.0380     1.1320 H     1 <1>   0.4000 
 41 H        9.8240     1.5770    -1.3190 H     1 <1>   0.4570 
 42 H       11.1170     3.3810    -2.3180 H     1 <1>   0.1500 
 43 H       10.6340     5.6740    -1.4610 H     1 <1>   0.1500 
 44 H       10.8120     7.0600     0.1480 H     1 <1>   0.0800 
 45 H       10.0230     7.5160     1.6280 H     1 <1>   0.0800 
 46 H        7.6680     6.6960     2.1160 H     1 <1>   0.0800 
 47 H        6.8490     5.7200     0.9280 H     1 <1>   0.0800 
 48 H        9.2630     8.4310    -1.1550 H     1 <1>   0.0800 
 49 H        6.0490     8.0490     0.8620 H     1 <1>   0.0800 
 50 H        6.7640     7.5600    -0.6410 H     1 <1>   0.0800 
 51 H       10.1070     9.9810     1.0340 H     1 <1>   0.4000 
 52 H        7.5480     9.8040    -0.1050 H     1 <1>   0.0800 
 53 H        8.0420     9.2840     1.4920 H     1 <1>   0.0800 
@<TRIPOS>BOND
  1   1   2  2   
  2   2   3  am  
  3   2   4  1   
  4   3   5  1   
  5   3   6  1   
  6   4   7  1   
  7   4  28  1   
  8   4  29  1   
  9   5   8  ar  
 10   5   9  ar  
 11   6   7  1   
 12   6  30  1   
 13   6  31  1   
 14   7  32  1   
 15   7  33  1   
 16   8  10  ar  
 17   8  34  1   
 18   9  11  ar  
 19   9  35  1   
 20  10  12  ar  
 21  10  36  1   
 22  11  12  ar  
 23  11  37  1   
 24  12  13  1   
 25  13  14  1   
 26  13  38  1   
 27  13  39  1   
 28  14  15  1   
 29  14  40  1   
 30  15  16  ar  
 31  15  17  ar  
 32  16  18  ar  
 33  17  19  ar  
 34  17  41  1   
 35  18  20  1   
 36  18  21  ar  
 37  19  21  ar  
 38  19  42  1   
 39  20  22  1   
 40  20  23  1   
 41  21  43  1   
 42  22  24  1   
 43  22  44  1   
 44  22  45  1   
 45  23  25  1   
 46  23  46  1   
 47  23  47  1   
 48  24  26  1   
 49  24  27  1   
 50  24  48  1   
 51  25  27  1   
 52  25  49  1   
 53  25  50  1   
 54  26  51  1   
 55  27  52  1   
 56  27  53  1   
@<TRIPOS>SUBSTRUCTURE
  1 ****  14 GROUP 4 **** **** 0

# MOE 2024.06 (io_trps.svl 2023.06)
