@<TRIPOS>MOLECULE
NONAME
46 48 1 0 0 
SMALL
USER_CHARGES


@<TRIPOS>ATOM
  1 O       -0.5920    -0.3640    -0.5760 O.2   1 <1>  -0.5700 
  2 C       -1.4660     0.3420    -0.1190 C.2   1 <1>   0.6340 
  3 O       -1.3080     1.6690    -0.1550 O.3   1 <1>  -0.4300 
  4 C       -2.6880    -0.1830     0.4640 C.ar  1 <1>   0.0860 
  5 C       -0.1480     2.2650    -0.7030 C.3   1 <1>   0.0400 
  6 C       -3.7240     0.6530     0.8820 C.ar  1 <1>  -0.1500 
  7 C       -2.8730    -1.5580     0.6220 C.ar  1 <1>  -0.1500 
  8 C       -4.8800     0.1250     1.4280 C.ar  1 <1>   0.0830 
  9 C       -4.0320    -2.1100     1.1590 C.ar  1 <1>   0.0860 
 10 O       -5.8710     0.9340     1.8270 O.3   1 <1>  -0.5320 
 11 C       -5.0340    -1.2380     1.5710 C.ar  1 <1>  -0.1500 
 12 C       -4.1820    -3.5470     1.2830 C.2   1 <1>   0.5440 
 13 O       -3.3560    -4.1880     1.9020 O.2   1 <1>  -0.5700 
 14 N       -5.2320    -4.2130     0.6970 N.am  1 <1>  -0.6600 
 15 C       -6.1050    -3.6580    -0.3710 C.3   1 <1>   0.1400 
 16 C       -5.3780    -5.6890     0.7650 C.3   1 <1>   0.1400 
 17 C       -7.0930    -4.7820    -0.6760 C.3   1 <1>   0.2000 
 18 C       -6.2850    -6.0570    -0.4150 C.3   1 <1>  -0.0800 
 19 O       -8.1330    -4.6960     0.2360 O.3   1 <1>  -0.6800 
 20 C       -7.1290    -7.3250    -0.1820 C.3   1 <1>   0.0200 
 21 C       -6.2920    -8.5870    -0.0670 C.2   1 <1>  -0.0400 
 22 O       -6.8860    -9.7050     0.2590 O.3   1 <1>  -0.0190 
 23 C       -4.9860    -8.8550    -0.2340 C.2   1 <1>  -0.1500 
 24 N       -6.0520   -10.7010     0.3210 N.2   1 <1>  -0.4100 
 25 C       -4.8980   -10.2190     0.0290 C.2   1 <1>   0.1080 
 26 C       -3.6230   -11.0320    -0.0170 C.3   1 <1>  -0.0590 
 27 H       -0.2410     3.3330    -0.6220 H     1 <1>   0.0800 
 28 H       -0.0640     1.9770    -1.7370 H     1 <1>   0.0800 
 29 H        0.7120     1.9240    -0.1530 H     1 <1>   0.0800 
 30 H       -3.6220     1.7180     0.7790 H     1 <1>   0.1500 
 31 H       -2.0860    -2.2280     0.3170 H     1 <1>   0.1500 
 32 H       -5.6760     1.8830     1.7210 H     1 <1>   0.4500 
 33 H       -5.9370    -1.6240     2.0090 H     1 <1>   0.1500 
 34 H       -6.6140    -2.7620    -0.0580 H     1 <1>   0.0800 
 35 H       -5.5060    -3.4490    -1.2400 H     1 <1>   0.0800 
 36 H       -4.4180    -6.1710     0.6960 H     1 <1>   0.0800 
 37 H       -5.8370    -5.9500     1.7040 H     1 <1>   0.0800 
 38 H       -7.5040    -4.7280    -1.6700 H     1 <1>   0.0800 
 39 H       -5.6560    -6.2210    -1.2720 H     1 <1>   0.0800 
 40 H       -7.7570    -4.5900     1.1340 H     1 <1>   0.4000 
 41 H       -7.8200    -7.4490    -0.9970 H     1 <1>   0.0800 
 42 H       -7.7090    -7.2200     0.7190 H     1 <1>   0.0800 
 43 H       -4.1690    -8.2140    -0.5060 H     1 <1>   0.1500 
 44 H       -3.1980   -10.9870    -1.0030 H     1 <1>   0.0800 
 45 H       -3.8340   -12.0580     0.2250 H     1 <1>   0.0800 
 46 H       -2.9170   -10.6430     0.6930 H     1 <1>   0.0800 
@<TRIPOS>BOND
  1   1   2  2   
  2   2   3  1   
  3   2   4  1   
  4   3   5  1   
  5   4   6  ar  
  6   4   7  ar  
  7   5  27  1   
  8   5  28  1   
  9   5  29  1   
 10   6   8  ar  
 11   6  30  1   
 12   7   9  ar  
 13   7  31  1   
 14   8  10  1   
 15   8  11  ar  
 16   9  11  ar  
 17   9  12  1   
 18  10  32  1   
 19  11  33  1   
 20  12  13  2   
 21  12  14  am  
 22  14  15  1   
 23  14  16  1   
 24  15  17  1   
 25  15  34  1   
 26  15  35  1   
 27  16  18  1   
 28  16  36  1   
 29  16  37  1   
 30  17  18  1   
 31  17  19  1   
 32  17  38  1   
 33  18  20  1   
 34  18  39  1   
 35  19  40  1   
 36  20  21  1   
 37  20  41  1   
 38  20  42  1   
 39  21  22  1   
 40  21  23  2   
 41  22  24  1   
 42  23  25  1   
 43  23  43  1   
 44  24  25  2   
 45  25  26  1   
 46  26  44  1   
 47  26  45  1   
 48  26  46  1   
@<TRIPOS>SUBSTRUCTURE
  1 ****  14 GROUP 4 **** **** 0

# MOE 2024.06 (io_trps.svl 2023.06)
