@<TRIPOS>MOLECULE
NONAME
56 58 1 0 0 
SMALL
USER_CHARGES


@<TRIPOS>ATOM
  1 O        3.0000     0.7280     2.2060 O.2   1 <1>  -0.5700 
  2 C        3.0920     0.1680     1.1250 C.2   1 <1>   0.5440 
  3 N        2.5430     0.8020     0.0160 N.am  1 <1>  -0.6600 
  4 C        3.8230    -1.0970     1.0590 C.ar  1 <1>   0.3960 
  5 C        2.5980     0.2300    -1.3740 C.3   1 <1>   0.1400 
  6 C        2.0830     2.2150     0.1250 C.3   1 <1>   0.1400 
  7 N        3.2700    -2.2020     0.5540 N.ar  1 <1>  -0.6200 
  8 C        5.1190    -1.1420     1.5370 C.ar  1 <1>  -0.1500 
  9 C        3.1360     1.2180    -2.4240 C.3   1 <1>   0.1400 
 10 C        3.2910     3.1650     0.0760 C.3   1 <1>  -0.1600 
 11 C        4.0250    -3.2800     0.5400 C.ar  1 <1>   0.4770 
 12 C        5.8110    -2.3230     1.4670 C.ar  1 <1>   0.1660 
 13 N        4.3120     1.9570    -1.8870 N.am  1 <1>  -0.6600 
 14 C        3.9930     3.2810    -1.2860 C.3   1 <1>   0.1400 
 15 N        5.2690    -3.4060     0.9650 N.ar  1 <1>  -0.6200 
 16 C        3.4040    -4.5290    -0.0360 C.3   1 <1>  -0.0970 
 17 C        7.2360    -2.4280     1.9640 C.3   1 <1>  -0.0970 
 18 C        5.5240     1.3220    -1.8230 C.2   1 <1>   0.5690 
 19 O        5.7550     0.3480    -2.5020 O.2   1 <1>  -0.5700 
 20 C        6.5990     1.8100    -0.8680 C.3   1 <1>  -0.0990 
 21 C        7.6190     0.7160    -0.5230 C.3   1 <1>   0.0210 
 22 C        8.4910     1.1510     0.6380 C.2   1 <1>   0.1080 
 23 N        8.0650     1.1090     1.8620 N.2   1 <1>  -0.7070 
 24 C        9.7930     1.6410     0.5480 C.2   1 <1>  -0.1810 
 25 N        9.0910     1.5760     2.5930 N.pl3 1 <1>   0.3000 
 26 C       10.1510     1.9040     1.8240 C.2   1 <1>  -0.3320 
 27 C       10.5910     1.8230    -0.7320 C.3   1 <1>  -0.0590 
 28 C       11.4430     2.4570     2.4040 C.3   1 <1>  -0.0600 
 29 H        1.6130    -0.0950    -1.6590 H     1 <1>   0.0800 
 30 H        3.2380    -0.6310    -1.3990 H     1 <1>   0.0800 
 31 H        1.5690     2.3440     1.0630 H     1 <1>   0.0800 
 32 H        1.3830     2.4420    -0.6600 H     1 <1>   0.0800 
 33 H        5.5680    -0.2570     1.9510 H     1 <1>   0.1500 
 34 H        2.3620     1.9080    -2.7080 H     1 <1>   0.0800 
 35 H        3.4200     0.6730    -3.3080 H     1 <1>   0.0800 
 36 H        4.0020     2.8670     0.8260 H     1 <1>   0.0800 
 37 H        2.9510     4.1460     0.3530 H     1 <1>   0.0800 
 38 H        4.8950     3.8580    -1.1730 H     1 <1>   0.0800 
 39 H        3.3570     3.8220    -1.9670 H     1 <1>   0.0800 
 40 H        2.3560    -4.3810    -0.2200 H     1 <1>   0.0800 
 41 H        3.5260    -5.3420     0.6550 H     1 <1>   0.0800 
 42 H        3.8940    -4.7750    -0.9600 H     1 <1>   0.0800 
 43 H        7.5420    -1.5210     2.4500 H     1 <1>   0.0800 
 44 H        7.8930    -2.6140     1.1340 H     1 <1>   0.0800 
 45 H        7.3170    -3.2400     2.6620 H     1 <1>   0.0800 
 46 H        6.1300     2.1240     0.0450 H     1 <1>   0.0800 
 47 H        7.1050     2.6510    -1.3010 H     1 <1>   0.0800 
 48 H        8.2210     0.4880    -1.3830 H     1 <1>   0.0800 
 49 H        7.1050    -0.1840    -0.2410 H     1 <1>   0.0800 
 50 H        9.0390     1.6620     3.6150 H     1 <1>   0.2700 
 51 H       10.0490     2.4540    -1.4130 H     1 <1>   0.0800 
 52 H       10.7550     0.8670    -1.1960 H     1 <1>   0.0800 
 53 H       11.5430     2.2750    -0.5320 H     1 <1>   0.0800 
 54 H       12.1630     2.6420     1.6290 H     1 <1>   0.0800 
 55 H       11.8660     1.7530     3.0980 H     1 <1>   0.0800 
 56 H       11.2510     3.3830     2.9160 H     1 <1>   0.0800 
@<TRIPOS>BOND
  1   1   2  2   
  2   2   3  am  
  3   2   4  1   
  4   3   5  1   
  5   3   6  1   
  6   4   7  ar  
  7   4   8  ar  
  8   5   9  1   
  9   5  29  1   
 10   5  30  1   
 11   6  10  1   
 12   6  31  1   
 13   6  32  1   
 14   7  11  ar  
 15   8  12  ar  
 16   8  33  1   
 17   9  13  1   
 18   9  34  1   
 19   9  35  1   
 20  10  14  1   
 21  10  36  1   
 22  10  37  1   
 23  11  15  ar  
 24  11  16  1   
 25  12  15  ar  
 26  12  17  1   
 27  13  14  1   
 28  13  18  am  
 29  14  38  1   
 30  14  39  1   
 31  16  40  1   
 32  16  41  1   
 33  16  42  1   
 34  17  43  1   
 35  17  44  1   
 36  17  45  1   
 37  18  19  2   
 38  18  20  1   
 39  20  21  1   
 40  20  46  1   
 41  20  47  1   
 42  21  22  1   
 43  21  48  1   
 44  21  49  1   
 45  22  23  2   
 46  22  24  1   
 47  23  25  1   
 48  24  26  2   
 49  24  27  1   
 50  25  26  1   
 51  25  50  1   
 52  26  28  1   
 53  27  51  1   
 54  27  52  1   
 55  27  53  1   
 56  28  54  1   
 57  28  55  1   
 58  28  56  1   
@<TRIPOS>SUBSTRUCTURE
  1 ****   8 GROUP 4 **** **** 0

# MOE 2024.06 (io_trps.svl 2023.06)
