@<TRIPOS>MOLECULE
NONAME
48 51 1 0 0 
SMALL
USER_CHARGES


@<TRIPOS>ATOM
  1 O       -1.3420    -0.0590     1.4630 O.2   1 <1>  -0.5700 
  2 C       -2.2390     0.5420     0.9020 C.2   1 <1>   0.5440 
  3 N       -1.9670     1.7860     0.3690 N.am  1 <1>  -0.6600 
  4 C       -3.5430    -0.0710     0.8040 C.ar  1 <1>   0.0860 
  5 C       -2.6700     2.3490    -0.8240 C.3   1 <1>   0.1400 
  6 C       -0.7310     2.5460     0.7290 C.3   1 <1>   0.1400 
  7 C       -3.6630    -1.4310     0.5290 C.ar  1 <1>   0.1600 
  8 C       -4.7280     0.6370     0.9830 C.ar  1 <1>  -0.1500 
  9 C       -1.6770     2.6000    -1.9730 C.3   1 <1>   0.1200 
 10 C        0.1480     2.7710    -0.5110 C.3   1 <1>   0.1200 
 11 N       -4.7940    -2.1030     0.3970 N.ar  1 <1>  -0.6200 
 12 C       -5.9140    -0.0450     0.8550 C.ar  1 <1>  -0.1500 
 13 O       -0.5940     3.3710    -1.5360 O.3   1 <1>  -0.5600 
 14 C       -5.9120    -1.4050     0.5600 C.ar  1 <1>   0.4100 
 15 N       -7.0980    -2.0720     0.4260 N.pl3 1 <1>  -0.8690 
 16 C       -7.2170    -3.5400     0.3190 C.3   1 <1>   0.3040 
 17 C       -8.5830    -4.0320     0.8470 C.3   1 <1>  -0.1900 
 18 C       -9.8340    -3.2690     0.5310 C.3   1 <1>  -0.2000 
 19 C       -9.3030    -3.3020     1.9430 C.3   1 <1>  -0.2000 
 20 C       -8.6550    -5.5740     0.8730 C.3   1 <1>   0.1910 
 21 N       -8.5160    -6.1700    -0.4740 N.pl3 1 <1>   0.3140 
 22 N       -9.5770    -6.4020    -1.2700 N.2   1 <1>  -0.7070 
 23 C       -7.3700    -6.5720    -1.0640 C.2   1 <1>  -0.3020 
 24 C       -9.0800    -6.9320    -2.3450 C.2   1 <1>   0.1390 
 25 C       -7.7000    -7.0660    -2.2760 C.2   1 <1>  -0.1500 
 26 H       -3.1390     3.2790    -0.5530 H     1 <1>   0.0800 
 27 H       -3.4340     1.6750    -1.1690 H     1 <1>   0.0800 
 28 H       -0.1630     2.0220     1.4780 H     1 <1>   0.0800 
 29 H       -1.0110     3.5000     1.1400 H     1 <1>   0.0800 
 30 H       -2.7520    -1.9930     0.4100 H     1 <1>   0.1500 
 31 H       -4.7050     1.6860     1.2200 H     1 <1>   0.1500 
 32 H       -2.1600     3.1350    -2.7710 H     1 <1>   0.0800 
 33 H       -1.3020     1.6680    -2.3590 H     1 <1>   0.0800 
 34 H        0.5410     1.8340    -0.8680 H     1 <1>   0.0800 
 35 H        0.9680     3.4230    -0.2720 H     1 <1>   0.0800 
 36 H       -6.8530     0.4590     0.9810 H     1 <1>   0.1500 
 37 H       -7.9710    -1.6070     0.6730 H     1 <1>   0.4000 
 38 H       -6.4260    -4.0030     0.8850 H     1 <1>   0.0800 
 39 H       -7.0980    -3.8150    -0.7150 H     1 <1>   0.0800 
 40 H      -10.7220    -3.8290     0.2870 H     1 <1>   0.1000 
 41 H       -9.7660    -2.3610    -0.0410 H     1 <1>   0.1000 
 42 H       -8.8750    -2.4070     2.3620 H     1 <1>   0.1000 
 43 H       -9.8620    -3.8570     2.6760 H     1 <1>   0.1000 
 44 H       -9.6020    -5.8900     1.2710 H     1 <1>   0.0800 
 45 H       -7.8790    -5.9680     1.5030 H     1 <1>   0.0800 
 46 H       -6.4040    -6.4870    -0.6020 H     1 <1>   0.1500 
 47 H       -9.6800    -7.2320    -3.1890 H     1 <1>   0.1500 
 48 H       -7.0620    -7.4770    -3.0380 H     1 <1>   0.1500 
@<TRIPOS>BOND
  1   1   2  2   
  2   2   3  am  
  3   2   4  1   
  4   3   5  1   
  5   3   6  1   
  6   4   7  ar  
  7   4   8  ar  
  8   5   9  1   
  9   5  26  1   
 10   5  27  1   
 11   6  10  1   
 12   6  28  1   
 13   6  29  1   
 14   7  11  ar  
 15   7  30  1   
 16   8  12  ar  
 17   8  31  1   
 18   9  13  1   
 19   9  32  1   
 20   9  33  1   
 21  10  13  1   
 22  10  34  1   
 23  10  35  1   
 24  11  14  ar  
 25  12  14  ar  
 26  12  36  1   
 27  14  15  1   
 28  15  16  1   
 29  15  37  1   
 30  16  17  1   
 31  16  38  1   
 32  16  39  1   
 33  17  18  1   
 34  17  19  1   
 35  17  20  1   
 36  18  19  1   
 37  18  40  1   
 38  18  41  1   
 39  19  42  1   
 40  19  43  1   
 41  20  21  1   
 42  20  44  1   
 43  20  45  1   
 44  21  22  1   
 45  21  23  1   
 46  22  24  2   
 47  23  25  2   
 48  23  46  1   
 49  24  25  1   
 50  24  47  1   
 51  25  48  1   
@<TRIPOS>SUBSTRUCTURE
  1 ****  11 GROUP 4 **** **** 0

# MOE 2024.06 (io_trps.svl 2023.06)
