@<TRIPOS>MOLECULE
NONAME
45 47 1 0 0 
SMALL
USER_CHARGES


@<TRIPOS>ATOM
  1 O        4.1110    -1.8350     1.6160 O.2   1 <1>  -0.5700 
  2 C        3.1210    -1.6150     0.9450 C.2   1 <1>   0.5440 
  3 N        2.9400    -0.3180     0.5310 N.am  1 <1>  -0.6600 
  4 C        2.2360    -2.6870     0.5350 C.ar  1 <1>   0.0860 
  5 C        3.2710     0.8080     1.4840 C.3   1 <1>   0.2200 
  6 C        2.9000    -0.0360    -0.9340 C.3   1 <1>   0.1400 
  7 C        2.6860    -4.0040     0.5070 C.ar  1 <1>   0.1600 
  8 C        0.9200    -2.4700     0.1510 C.ar  1 <1>  -0.1500 
  9 C        2.5330     2.1140     1.1480 C.3   1 <1>   0.1200 
 10 C        4.7970     1.0620     1.5680 C.3   1 <1>   0.3430 
 11 C        3.8040     1.1320    -1.3730 C.3   1 <1>  -0.0800 
 12 N        1.9810    -5.0520     0.1190 N.ar  1 <1>  -0.6200 
 13 C        0.1560    -3.5470    -0.2510 C.ar  1 <1>  -0.1440 
 14 O        3.2680     2.8690     0.2290 O.3   1 <1>  -0.5600 
 15 N        5.5370     0.4330     0.4230 N.4   1 <1>  -0.9590 
 16 C        3.1470     2.4970    -1.1020 C.3   1 <1>   0.1200 
 17 C        5.2800     1.0770    -0.9080 C.3   1 <1>   0.3430 
 18 C        0.7360    -4.8140    -0.2560 C.ar  1 <1>   0.1670 
 19 C       -1.2910    -3.3130    -0.6660 C.3   1 <1>  -0.0970 
 20 C        6.9910     0.3170     0.7210 C.3   1 <1>   0.2630 
 21 C       -0.0420    -6.0420    -0.6920 C.3   1 <1>  -0.0970 
 22 H        2.9350     0.5090     2.4630 H     1 <1>   0.0800 
 23 H        3.2040    -0.9220    -1.4670 H     1 <1>   0.0800 
 24 H        1.8820     0.1700    -1.2190 H     1 <1>   0.0800 
 25 H        3.6960    -4.2020     0.8220 H     1 <1>   0.1500 
 26 H        0.5040    -1.4780     0.1740 H     1 <1>   0.1500 
 27 H        2.4550     2.7140     2.0390 H     1 <1>   0.0800 
 28 H        1.5390     1.9340     0.7770 H     1 <1>   0.0800 
 29 H        5.1470     0.6280     2.4890 H     1 <1>   0.0800 
 30 H        4.9940     2.1210     1.6090 H     1 <1>   0.0800 
 31 H        3.8400     1.0730    -2.4460 H     1 <1>   0.0800 
 32 H        5.1290    -0.5230     0.4060 H     1 <1>   0.4500 
 33 H        2.1040     2.4990    -1.3720 H     1 <1>   0.0800 
 34 H        3.6400     3.2600    -1.6810 H     1 <1>   0.0800 
 35 H        5.6710     2.0820    -0.8960 H     1 <1>   0.0800 
 36 H        5.8350     0.5300    -1.6520 H     1 <1>   0.0800 
 37 H       -1.6010    -2.3080    -0.4450 H     1 <1>   0.0800 
 38 H       -1.9430    -3.9850    -0.1360 H     1 <1>   0.0800 
 39 H       -1.4030    -3.4780    -1.7230 H     1 <1>   0.0800 
 40 H        7.4350     1.2950     0.8100 H     1 <1>   0.0800 
 41 H        7.4920    -0.2230    -0.0660 H     1 <1>   0.0800 
 42 H        7.1370    -0.2170     1.6470 H     1 <1>   0.0800 
 43 H       -0.6690    -5.8240    -1.5360 H     1 <1>   0.0800 
 44 H       -0.6480    -6.3920     0.1230 H     1 <1>   0.0800 
 45 H        0.6360    -6.8270    -0.9760 H     1 <1>   0.0800 
@<TRIPOS>BOND
  1   1   2  2   
  2   2   3  am  
  3   2   4  1   
  4   3   5  1   
  5   3   6  1   
  6   4   7  ar  
  7   4   8  ar  
  8   5   9  1   
  9   5  10  1   
 10   5  22  1   
 11   6  11  1   
 12   6  23  1   
 13   6  24  1   
 14   7  12  ar  
 15   7  25  1   
 16   8  13  ar  
 17   8  26  1   
 18   9  14  1   
 19   9  27  1   
 20   9  28  1   
 21  10  15  1   
 22  10  29  1   
 23  10  30  1   
 24  11  16  1   
 25  11  17  1   
 26  11  31  1   
 27  12  18  ar  
 28  13  18  ar  
 29  13  19  1   
 30  14  16  1   
 31  15  17  1   
 32  15  20  1   
 33  15  32  1   
 34  16  33  1   
 35  16  34  1   
 36  17  35  1   
 37  17  36  1   
 38  18  21  1   
 39  19  37  1   
 40  19  38  1   
 41  19  39  1   
 42  20  40  1   
 43  20  41  1   
 44  20  42  1   
 45  21  43  1   
 46  21  44  1   
 47  21  45  1   
@<TRIPOS>SUBSTRUCTURE
  1 ****   3 GROUP 4 **** **** 0

# MOE 2024.06 (io_trps.svl 2023.06)
