@<TRIPOS>MOLECULE
NONAME
49 52 1 0 0 
SMALL
USER_CHARGES


@<TRIPOS>ATOM
  1 O       -1.2190     1.1390    -1.9350 O.2   1 <1>  -0.5700 
  2 C       -2.1000     1.4850    -1.1640 C.2   1 <1>   0.5440 
  3 N       -3.2910     0.7740    -1.1770 N.am  1 <1>  -0.6600 
  4 C       -1.8210     2.5960    -0.2550 C.ar  1 <1>   0.3960 
  5 C       -4.3460     0.8720    -0.1300 C.3   1 <1>   0.1400 
  6 C       -3.6100    -0.2180    -2.2440 C.3   1 <1>   0.1400 
  7 N       -2.7250     3.5650    -0.0230 N.ar  1 <1>  -0.6200 
  8 C       -0.5650     2.6250     0.3600 C.ar  1 <1>   0.1600 
  9 C       -4.5390    -0.4980     0.5260 C.3   1 <1>  -0.1600 
 10 C       -3.7950    -1.6030    -1.6190 C.3   1 <1>  -0.1600 
 11 C       -2.2960     4.4880     0.8170 C.ar  1 <1>   0.1600 
 12 N       -0.1390     3.5460     1.2110 N.ar  1 <1>  -0.6200 
 13 C       -4.8580    -1.5980    -0.5060 C.3   1 <1>   0.4240 
 14 C       -1.0420     4.4840     1.4210 C.ar  1 <1>   0.1670 
 15 O       -6.0390    -1.2010    -1.1710 O.3   1 <1>  -0.5600 
 16 C       -5.0140    -3.0020     0.1470 C.ar  1 <1>  -0.1430 
 17 C       -0.6380     5.5890     2.3770 C.3   1 <1>  -0.0970 
 18 C       -7.2560    -1.5050    -0.5760 C.3   1 <1>   0.1200 
 19 C       -3.9570    -3.6390     0.8120 C.ar  1 <1>   0.0830 
 20 C       -6.2390    -3.6660     0.0810 C.ar  1 <1>  -0.1430 
 21 C       -7.4260    -3.0160    -0.6000 C.3   1 <1>  -0.0170 
 22 O       -2.7610    -3.0010     0.9110 O.3   1 <1>  -0.3630 
 23 C       -4.1370    -4.9050     1.3680 C.ar  1 <1>  -0.1500 
 24 C       -6.4060    -4.9240     0.6350 C.ar  1 <1>  -0.1500 
 25 C       -1.6030    -3.6210     1.4250 C.3   1 <1>   0.0400 
 26 C       -5.3550    -5.5450     1.2770 C.ar  1 <1>  -0.1500 
 27 H       -5.2650     1.1980    -0.5870 H     1 <1>   0.0800 
 28 H       -4.0810     1.5820     0.6300 H     1 <1>   0.0800 
 29 H       -2.8280    -0.2570    -2.9820 H     1 <1>   0.0800 
 30 H       -4.5150     0.0850    -2.7430 H     1 <1>   0.0800 
 31 H        0.1210     1.8300     0.1240 H     1 <1>   0.1500 
 32 H       -5.3180    -0.4480     1.2620 H     1 <1>   0.0800 
 33 H       -3.6350    -0.7340     1.0500 H     1 <1>   0.0800 
 34 H       -2.8420    -1.9130    -1.2410 H     1 <1>   0.0800 
 35 H       -4.0830    -2.3090    -2.3740 H     1 <1>   0.0800 
 36 H       -2.9740     5.2930     1.0390 H     1 <1>   0.1500 
 37 H       -1.4250     6.3110     2.4950 H     1 <1>   0.0800 
 38 H        0.2370     6.0860     2.0010 H     1 <1>   0.0800 
 39 H       -0.4070     5.1660     3.3380 H     1 <1>   0.0800 
 40 H       -8.0330    -1.0280    -1.1470 H     1 <1>   0.0800 
 41 H       -7.2690    -1.1260     0.4310 H     1 <1>   0.0800 
 42 H       -7.4930    -3.3540    -1.6180 H     1 <1>   0.0800 
 43 H       -8.3370    -3.2760    -0.0930 H     1 <1>   0.0800 
 44 H       -3.3430    -5.4120     1.8810 H     1 <1>   0.1500 
 45 H       -7.3550    -5.4260     0.5680 H     1 <1>   0.1500 
 46 H       -0.7850    -2.9300     1.3280 H     1 <1>   0.0800 
 47 H       -1.4000    -4.5100     0.8550 H     1 <1>   0.0800 
 48 H       -1.7620    -3.8530     2.4630 H     1 <1>   0.0800 
 49 H       -5.4880    -6.5230     1.7070 H     1 <1>   0.1500 
@<TRIPOS>BOND
  1   1   2  2   
  2   2   3  am  
  3   2   4  1   
  4   3   5  1   
  5   3   6  1   
  6   4   7  ar  
  7   4   8  ar  
  8   5   9  1   
  9   5  27  1   
 10   5  28  1   
 11   6  10  1   
 12   6  29  1   
 13   6  30  1   
 14   7  11  ar  
 15   8  12  ar  
 16   8  31  1   
 17   9  13  1   
 18   9  32  1   
 19   9  33  1   
 20  10  13  1   
 21  10  34  1   
 22  10  35  1   
 23  11  14  ar  
 24  11  36  1   
 25  12  14  ar  
 26  13  15  1   
 27  13  16  1   
 28  14  17  1   
 29  15  18  1   
 30  16  19  ar  
 31  16  20  ar  
 32  17  37  1   
 33  17  38  1   
 34  17  39  1   
 35  18  21  1   
 36  18  40  1   
 37  18  41  1   
 38  19  22  1   
 39  19  23  ar  
 40  20  21  1   
 41  20  24  ar  
 42  21  42  1   
 43  21  43  1   
 44  22  25  1   
 45  23  26  ar  
 46  23  44  1   
 47  24  26  ar  
 48  24  45  1   
 49  25  46  1   
 50  25  47  1   
 51  25  48  1   
 52  26  49  1   
@<TRIPOS>SUBSTRUCTURE
  1 ****   9 GROUP 4 **** **** 0

# MOE 2024.06 (io_trps.svl 2023.06)
