@<TRIPOS>MOLECULE
NONAME
52 54 1 0 0 
SMALL
USER_CHARGES


@<TRIPOS>ATOM
  1 S        0.3070     0.1880     0.8680 S.o2  1 <1>   1.3330 
  2 O        1.7020     0.2300     1.2430 O.2   1 <1>  -0.6500 
  3 O       -0.7120     0.3070     1.8870 O.2   1 <1>  -0.6500 
  4 N        0.0390    -1.2470     0.0030 N.am  1 <1>  -0.8490 
  5 C       -0.0050     1.4590    -0.3550 C.3   1 <1>  -0.0550 
  6 C       -0.4300    -2.3360     0.8650 C.3   1 <1>   0.1160 
  7 C        1.2060    -1.6900    -0.7680 C.3   1 <1>   0.1160 
  8 C        0.0580     2.8810     0.2290 C.3   1 <1>  -0.0800 
  9 C       -0.3360     3.9480    -0.7850 C.3   1 <1>   0.2000 
 10 C        1.4510     3.3150     0.6900 C.3   1 <1>   0.1400 
 11 O       -1.7150     4.0400    -0.8690 O.3   1 <1>  -0.6800 
 12 C        0.2920     5.2400    -0.2660 C.3   1 <1>   0.1400 
 13 N        1.4740     4.7920     0.5200 N.am  1 <1>  -0.6600 
 14 C        2.6360     5.5190     0.6540 C.2   1 <1>   0.5440 
 15 O        3.6860     4.9190     0.7720 O.2   1 <1>  -0.5700 
 16 C        2.6400     6.9570     0.6420 C.ar  1 <1>   0.0860 
 17 C        3.6430     7.6840     0.0300 C.ar  1 <1>   0.1600 
 18 C        1.6580     7.7190     1.2450 C.ar  1 <1>   0.1600 
 19 N        3.6570     8.9940    -0.0170 N.ar  1 <1>  -0.6200 
 20 N        1.6380     9.0280     1.2150 N.ar  1 <1>  -0.6200 
 21 C        2.6450     9.6270     0.5780 C.ar  1 <1>   0.7200 
 22 N        2.6420    11.0000     0.5350 N.pl3 1 <1>  -0.8380 
 23 C        1.6000    11.8470     1.1960 C.3   1 <1>   0.2090 
 24 C        3.7390    11.8100    -0.0840 C.3   1 <1>   0.2090 
 25 C        1.1510    12.9880     0.2670 C.3   1 <1>   0.1200 
 26 C        3.1610    12.9530    -0.9370 C.3   1 <1>   0.1200 
 27 O        2.2490    13.7220    -0.2020 O.3   1 <1>  -0.5600 
 28 H        0.6990     1.3680    -1.1580 H     1 <1>   0.0800 
 29 H       -0.9860     1.3030    -0.7610 H     1 <1>   0.0800 
 30 H       -0.6060    -3.2240     0.2840 H     1 <1>   0.0800 
 31 H       -1.3560    -2.0570     1.3410 H     1 <1>   0.0800 
 32 H        0.3000    -2.5490     1.6290 H     1 <1>   0.0800 
 33 H        0.9520    -2.5510    -1.3620 H     1 <1>   0.0800 
 34 H        2.0180    -1.9460    -0.1080 H     1 <1>   0.0800 
 35 H        1.5330    -0.9060    -1.4300 H     1 <1>   0.0800 
 36 H       -0.5950     2.9450     1.0830 H     1 <1>   0.0800 
 37 H        0.0500     3.7230    -1.7650 H     1 <1>   0.0800 
 38 H        2.2190     2.8770     0.0720 H     1 <1>   0.0800 
 39 H        1.6330     3.0480     1.7180 H     1 <1>   0.0800 
 40 H       -2.1110     4.1640     0.0160 H     1 <1>   0.4000 
 41 H       -0.3920     5.7580     0.3820 H     1 <1>   0.0800 
 42 H        0.5910     5.8750    -1.0830 H     1 <1>   0.0800 
 43 H        4.4560     7.1520    -0.4360 H     1 <1>   0.1500 
 44 H        0.8650     7.2200     1.7730 H     1 <1>   0.1500 
 45 H        0.7360    11.2670     1.4660 H     1 <1>   0.0800 
 46 H        2.0090    12.2670     2.0990 H     1 <1>   0.0800 
 47 H        4.3520    12.2250     0.6960 H     1 <1>   0.0800 
 48 H        4.3690    11.2040    -0.7100 H     1 <1>   0.0800 
 49 H        0.5060    13.6650     0.7970 H     1 <1>   0.0800 
 50 H        0.6160    12.5910    -0.5780 H     1 <1>   0.0800 
 51 H        2.6580    12.5550    -1.8010 H     1 <1>   0.0800 
 52 H        3.9500    13.6050    -1.2650 H     1 <1>   0.0800 
@<TRIPOS>BOND
  1   1   2  2   
  2   1   3  2   
  3   1   4  am  
  4   1   5  1   
  5   4   6  1   
  6   4   7  1   
  7   5   8  1   
  8   5  28  1   
  9   5  29  1   
 10   6  30  1   
 11   6  31  1   
 12   6  32  1   
 13   7  33  1   
 14   7  34  1   
 15   7  35  1   
 16   8   9  1   
 17   8  10  1   
 18   8  36  1   
 19   9  11  1   
 20   9  12  1   
 21   9  37  1   
 22  10  13  1   
 23  10  38  1   
 24  10  39  1   
 25  11  40  1   
 26  12  13  1   
 27  12  41  1   
 28  12  42  1   
 29  13  14  am  
 30  14  15  2   
 31  14  16  1   
 32  16  17  ar  
 33  16  18  ar  
 34  17  19  ar  
 35  17  43  1   
 36  18  20  ar  
 37  18  44  1   
 38  19  21  ar  
 39  20  21  ar  
 40  21  22  1   
 41  22  23  1   
 42  22  24  1   
 43  23  25  1   
 44  23  45  1   
 45  23  46  1   
 46  24  26  1   
 47  24  47  1   
 48  24  48  1   
 49  25  27  1   
 50  25  49  1   
 51  25  50  1   
 52  26  27  1   
 53  26  51  1   
 54  26  52  1   
@<TRIPOS>SUBSTRUCTURE
  1 ****  13 GROUP 4 **** **** 0

# MOE 2024.06 (io_trps.svl 2023.06)
