@<TRIPOS>MOLECULE
NONAME
43 44 1 0 0 
SMALL
USER_CHARGES


@<TRIPOS>ATOM
  1 CL      -1.1340    -0.9120     2.0750 Cl    1 <1>  -0.1770 
  2 C       -2.2860    -1.5050     0.9080 C.ar  1 <1>   0.1770 
  3 C       -3.2770    -0.6650     0.4260 C.ar  1 <1>   0.1600 
  4 C       -2.2130    -2.8120     0.4840 C.ar  1 <1>  -0.1500 
  5 N       -4.1940    -1.0340    -0.4630 N.ar  1 <1>  -0.6200 
  6 C       -3.1630    -3.2270    -0.4390 C.ar  1 <1>   0.0860 
  7 C       -4.0780    -2.2810    -0.8960 C.ar  1 <1>   0.1600 
  8 C       -3.2630    -4.5930    -0.8960 C.2   1 <1>   0.5440 
  9 O       -2.3730    -5.0620    -1.5710 O.2   1 <1>  -0.5700 
 10 N       -4.3690    -5.3600    -0.5960 N.am  1 <1>  -0.6600 
 11 C       -4.5230    -6.7150    -1.2430 C.3   1 <1>   0.3210 
 12 C       -5.4200    -4.9320     0.3850 C.3   1 <1>   0.1400 
 13 C       -5.3330    -7.7170    -0.4170 C.2   1 <1>   0.0460 
 14 C       -6.7240    -4.5530    -0.3430 C.3   1 <1>   0.3430 
 15 N       -6.6860    -7.6710    -0.3810 N.2   1 <1>  -0.5650 
 16 C       -4.8690    -8.7420     0.3360 C.2   1 <1>  -0.3320 
 17 N       -7.6400    -3.7100     0.4970 N.4   1 <1>  -0.9590 
 18 C       -7.0090    -8.6730     0.3720 C.2   1 <1>   0.0360 
 19 N       -5.9500    -9.3640     0.8410 N.pl3 1 <1>   0.0330 
 20 C       -3.4500    -9.2080     0.6240 C.3   1 <1>  -0.0600 
 21 C       -9.0040    -3.6950    -0.1160 C.3   1 <1>   0.2630 
 22 C       -7.1310    -2.3090     0.6730 C.3   1 <1>   0.2630 
 23 H       -3.3080     0.3490     0.7880 H     1 <1>   0.1500 
 24 H       -1.4570    -3.4830     0.8530 H     1 <1>   0.1500 
 25 H       -4.7660    -2.5890    -1.6650 H     1 <1>   0.1500 
 26 H       -3.5520    -7.1400    -1.4270 H     1 <1>   0.0800 
 27 H       -5.0000    -6.5950    -2.1990 H     1 <1>   0.0800 
 28 H       -5.0610    -4.0960     0.9550 H     1 <1>   0.0800 
 29 H       -5.6100    -5.7250     1.0880 H     1 <1>   0.0800 
 30 H       -7.2330    -5.4570    -0.6300 H     1 <1>   0.0800 
 31 H       -6.4770    -4.0160    -1.2430 H     1 <1>   0.0800 
 32 H       -7.7210    -4.1620     1.4220 H     1 <1>   0.4500 
 33 H       -8.0200    -8.9550     0.6120 H     1 <1>   0.1500 
 34 H       -5.9690   -10.1930     1.4430 H     1 <1>   0.2700 
 35 H       -2.7300    -8.5540     0.1670 H     1 <1>   0.0800 
 36 H       -3.3000   -10.2010     0.2370 H     1 <1>   0.0800 
 37 H       -3.2700    -9.2180     1.6840 H     1 <1>   0.0800 
 38 H       -8.9720    -3.2400    -1.0920 H     1 <1>   0.0800 
 39 H       -9.6880    -3.1370     0.5040 H     1 <1>   0.0800 
 40 H       -9.3780    -4.7020    -0.2180 H     1 <1>   0.0800 
 41 H       -7.0260    -1.8220    -0.2830 H     1 <1>   0.0800 
 42 H       -6.1690    -2.3100     1.1600 H     1 <1>   0.0800 
 43 H       -7.8160    -1.7350     1.2760 H     1 <1>   0.0800 
@<TRIPOS>BOND
  1   1   2  1   
  2   2   3  ar  
  3   2   4  ar  
  4   3   5  ar  
  5   3  23  1   
  6   4   6  ar  
  7   4  24  1   
  8   5   7  ar  
  9   6   7  ar  
 10   6   8  1   
 11   7  25  1   
 12   8   9  2   
 13   8  10  am  
 14  10  11  1   
 15  10  12  1   
 16  11  13  1   
 17  11  26  1   
 18  11  27  1   
 19  12  14  1   
 20  12  28  1   
 21  12  29  1   
 22  13  15  1   
 23  13  16  2   
 24  14  17  1   
 25  14  30  1   
 26  14  31  1   
 27  15  18  2   
 28  16  19  1   
 29  16  20  1   
 30  17  21  1   
 31  17  22  1   
 32  17  32  1   
 33  18  19  1   
 34  18  33  1   
 35  19  34  1   
 36  20  35  1   
 37  20  36  1   
 38  20  37  1   
 39  21  38  1   
 40  21  39  1   
 41  21  40  1   
 42  22  41  1   
 43  22  42  1   
 44  22  43  1   
@<TRIPOS>SUBSTRUCTURE
  1 ****  12 GROUP 4 **** **** 0

# MOE 2024.06 (io_trps.svl 2023.06)
