@<TRIPOS>MOLECULE
NONAME
40 41 1 0 0 
SMALL
USER_CHARGES


@<TRIPOS>ATOM
  1 S       -1.0270    -0.1420     0.9070 S.3   1 <1>  -0.2860 
  2 C        0.5850     0.2780     1.5940 C.2   1 <1>  -0.0960 
  3 C       -0.8720    -1.9300     0.4670 C.3   1 <1>   0.0700 
  4 N        0.8830     1.5050     2.0090 N.pl3 1 <1>   0.3000 
  5 C        1.6820    -0.4610     1.8060 C.2   1 <1>   0.0770 
  6 C       -2.2340    -2.4200    -0.0240 C.3   1 <1>   0.1400 
  7 N        2.1450     1.5150     2.4630 N.2   1 <1>  -0.4180 
  8 N        2.6300     0.3220     2.3410 N.2   1 <1>  -0.2270 
  9 N       -2.1360    -3.8140    -0.5230 N.am  1 <1>  -0.7300 
 10 C       -1.9810    -4.9080     0.2730 C.2   1 <1>   0.5690 
 11 O       -1.8250    -4.7990     1.4670 O.2   1 <1>  -0.5700 
 12 C       -1.9970    -6.3090    -0.3570 C.3   1 <1>   0.1710 
 13 N       -3.3300    -6.9650    -0.4590 N.3   1 <1>  -0.8100 
 14 C       -3.9150    -7.1760     0.8810 C.3   1 <1>   0.2530 
 15 C       -4.2480    -6.2410    -1.3510 C.3   1 <1>   0.0300 
 16 C       -5.1650    -8.0450     0.8120 C.ar  1 <1>  -0.1430 
 17 C       -5.1100    -9.2940     0.2030 C.ar  1 <1>  -0.1500 
 18 C       -6.3610    -7.5950     1.3590 C.ar  1 <1>  -0.1500 
 19 C       -6.2390   -10.0930     0.1380 C.ar  1 <1>  -0.1500 
 20 C       -7.4980    -8.3850     1.3010 C.ar  1 <1>  -0.1500 
 21 C       -7.4140    -9.6210     0.6900 C.ar  1 <1>   0.1900 
 22 F       -8.4830   -10.3690     0.6330 F     1 <1>  -0.1900 
 23 H       -0.5670    -2.4540     1.3550 H     1 <1>   0.0800 
 24 H       -0.1230    -2.0040    -0.3010 H     1 <1>   0.0800 
 25 H        0.2720     2.3260     1.9960 H     1 <1>   0.2700 
 26 H        1.8500    -1.5040     1.6100 H     1 <1>   0.1500 
 27 H       -2.5870    -1.7830    -0.8170 H     1 <1>   0.0800 
 28 H       -2.9400    -2.3820     0.7890 H     1 <1>   0.0800 
 29 H       -2.2960    -3.9450    -1.5230 H     1 <1>   0.3700 
 30 H       -1.3500    -6.9390     0.2280 H     1 <1>   0.0800 
 31 H       -1.5660    -6.2490    -1.3400 H     1 <1>   0.0800 
 32 H       -4.1510    -6.2260     1.3310 H     1 <1>   0.0800 
 33 H       -3.1940    -7.6690     1.5100 H     1 <1>   0.0800 
 34 H       -3.7840    -6.0840    -2.3090 H     1 <1>   0.0800 
 35 H       -4.5230    -5.2910    -0.9260 H     1 <1>   0.0800 
 36 H       -5.1430    -6.8210    -1.5070 H     1 <1>   0.0800 
 37 H       -4.1830    -9.6350    -0.2250 H     1 <1>   0.1500 
 38 H       -6.4110    -6.6290     1.8310 H     1 <1>   0.1500 
 39 H       -6.2110   -11.0600    -0.3310 H     1 <1>   0.1500 
 40 H       -8.4310    -8.0520     1.7180 H     1 <1>   0.1500 
@<TRIPOS>BOND
  1   1   2  1   
  2   1   3  1   
  3   2   4  1   
  4   2   5  2   
  5   3   6  1   
  6   3  23  1   
  7   3  24  1   
  8   4   7  1   
  9   4  25  1   
 10   5   8  1   
 11   5  26  1   
 12   6   9  1   
 13   6  27  1   
 14   6  28  1   
 15   7   8  2   
 16   9  10  am  
 17   9  29  1   
 18  10  11  2   
 19  10  12  1   
 20  12  13  1   
 21  12  30  1   
 22  12  31  1   
 23  13  14  1   
 24  13  15  1   
 25  14  16  1   
 26  14  32  1   
 27  14  33  1   
 28  15  34  1   
 29  15  35  1   
 30  15  36  1   
 31  16  17  ar  
 32  16  18  ar  
 33  17  19  ar  
 34  17  37  1   
 35  18  20  ar  
 36  18  38  1   
 37  19  21  ar  
 38  19  39  1   
 39  20  21  ar  
 40  20  40  1   
 41  21  22  1   
@<TRIPOS>SUBSTRUCTURE
  1 ****  10 GROUP 4 **** **** 0

# MOE 2024.06 (io_trps.svl 2023.06)
