@<TRIPOS>MOLECULE
NONAME
43 43 1 0 0 
SMALL
USER_CHARGES


@<TRIPOS>ATOM
  1 F       -0.9620     1.6290    -0.1620 F     1 <1>  -0.3400 
  2 C        0.3510     1.7330    -0.0340 C.3   1 <1>   1.0200 
  3 F        0.6620     1.2700     1.1680 F     1 <1>  -0.3400 
  4 F        0.8950     0.9040    -0.9110 F     1 <1>  -0.3400 
  5 C        0.8370     3.1750    -0.2330 C.3   1 <1>  -0.1600 
  6 C        2.3670     3.3470    -0.0920 C.3   1 <1>  -0.1600 
  7 C        2.7770     4.8070    -0.2980 C.3   1 <1>   0.3430 
  8 N        4.2440     4.9750    -0.0960 N.4   1 <1>  -0.9590 
  9 C        4.6060     6.4020     0.1970 C.3   1 <1>   0.4230 
 10 C        4.9540     4.4880    -1.3190 C.3   1 <1>   0.3430 
 11 C        6.1290     6.5180     0.3850 C.3   1 <1>  -0.1600 
 12 C        3.8830     6.9540     1.4460 C.3   1 <1>  -0.1600 
 13 C        6.4680     4.5550    -1.1290 C.3   1 <1>  -0.1600 
 14 C        6.9140     5.9830    -0.8150 C.3   1 <1>  -0.1600 
 15 C        3.0720     8.2170     1.1270 C.3   1 <1>   0.1400 
 16 N        1.7550     7.9000     0.5270 N.am  1 <1>  -0.7300 
 17 C        1.5130     7.7450    -0.7980 C.2   1 <1>   0.5690 
 18 O        2.3910     7.4820    -1.5800 O.2   1 <1>  -0.5700 
 19 C        0.0940     7.8650    -1.2860 C.3   1 <1>  -0.1790 
 20 H        0.3340     3.7910     0.4910 H     1 <1>   0.0800 
 21 H        0.5250     3.4910    -1.2120 H     1 <1>   0.0800 
 22 H        2.8530     2.7200    -0.8190 H     1 <1>   0.0800 
 23 H        2.6670     3.0290     0.8920 H     1 <1>   0.0800 
 24 H        2.2330     5.4160     0.4030 H     1 <1>   0.0800 
 25 H        2.5060     5.1340    -1.2900 H     1 <1>   0.0800 
 26 H        4.5480     4.4140     0.7060 H     1 <1>   0.4500 
 27 H        4.3360     7.0060    -0.6540 H     1 <1>   0.0800 
 28 H        4.6740     5.0990    -2.1630 H     1 <1>   0.0800 
 29 H        4.6730     3.4700    -1.5330 H     1 <1>   0.0800 
 30 H        6.4270     5.9860     1.2720 H     1 <1>   0.0800 
 31 H        6.3880     7.5540     0.5280 H     1 <1>   0.0800 
 32 H        4.6190     7.2480     2.1740 H     1 <1>   0.0800 
 33 H        3.2620     6.2250     1.9330 H     1 <1>   0.0800 
 34 H        6.9500     4.2230    -2.0330 H     1 <1>   0.0800 
 35 H        6.7640     3.8870    -0.3390 H     1 <1>   0.0800 
 36 H        7.9710     6.0010    -0.6020 H     1 <1>   0.0800 
 37 H        6.7400     6.6140    -1.6710 H     1 <1>   0.0800 
 38 H        3.6270     8.8580     0.4610 H     1 <1>   0.0800 
 39 H        2.9020     8.7670     2.0380 H     1 <1>   0.0800 
 40 H        0.9570     8.1420     1.1230 H     1 <1>   0.3700 
 41 H       -0.5400     7.1790    -0.7580 H     1 <1>   0.0800 
 42 H        0.0490     7.6440    -2.3370 H     1 <1>   0.0800 
 43 H       -0.2570     8.8680    -1.1320 H     1 <1>   0.0800 
@<TRIPOS>BOND
  1   1   2  1   
  2   2   3  1   
  3   2   4  1   
  4   2   5  1   
  5   5   6  1   
  6   5  20  1   
  7   5  21  1   
  8   6   7  1   
  9   6  22  1   
 10   6  23  1   
 11   7   8  1   
 12   7  24  1   
 13   7  25  1   
 14   8   9  1   
 15   8  10  1   
 16   8  26  1   
 17   9  11  1   
 18   9  12  1   
 19   9  27  1   
 20  10  13  1   
 21  10  28  1   
 22  10  29  1   
 23  11  14  1   
 24  11  30  1   
 25  11  31  1   
 26  12  15  1   
 27  12  32  1   
 28  12  33  1   
 29  13  14  1   
 30  13  34  1   
 31  13  35  1   
 32  14  36  1   
 33  14  37  1   
 34  15  16  1   
 35  15  38  1   
 36  15  39  1   
 37  16  17  am  
 38  16  40  1   
 39  17  18  2   
 40  17  19  1   
 41  19  41  1   
 42  19  42  1   
 43  19  43  1   
@<TRIPOS>SUBSTRUCTURE
  1 ****   7 GROUP 4 **** **** 0

# MOE 2024.06 (io_trps.svl 2023.06)
