@<TRIPOS>MOLECULE
NONAME
30 32 1 0 0 
SMALL
USER_CHARGES


@<TRIPOS>ATOM
  1 O       -2.3900     0.5720    -2.6320 O.2   1 <1>  -0.5700 
  2 C       -2.4350     1.0940    -1.5450 C.2   1 <1>   0.6300 
  3 N       -3.4840     1.0360    -0.6910 N.am  1 <1>  -0.5470 
  4 C       -1.3310     1.9260    -0.9040 C.3   1 <1>   0.0320 
  5 C       -3.2350     1.7660     0.4640 C.ar  1 <1>   0.1170 
  6 C       -1.9770     2.3390     0.4120 C.ar  1 <1>  -0.0320 
  7 C        0.1020     1.5160    -1.0610 C.3   1 <1>  -0.1000 
  8 C       -0.3840     2.8240    -1.6360 C.3   1 <1>  -0.2000 
  9 C       -4.0600     1.9630     1.5590 C.ar  1 <1>  -0.1500 
 10 C       -1.5260     3.1380     1.4480 C.ar  1 <1>  -0.1500 
 11 C        0.9730     1.4000     0.1750 C.2   1 <1>   0.7200 
 12 C       -3.6070     2.7540     2.6030 C.ar  1 <1>  -0.1500 
 13 C       -2.3490     3.3400     2.5470 C.ar  1 <1>  -0.1500 
 14 O        1.0480     0.3710     0.7920 O.2   1 <1>  -0.5700 
 15 O        1.6430     2.4890     0.5300 O.3   1 <1>  -0.4300 
 16 C        2.4750     2.4970     1.6660 C.3   1 <1>   0.1200 
 17 C        3.0280     3.9080     1.8350 C.3   1 <1>  -0.2400 
 18 H       -4.3340     0.5230    -0.9160 H     1 <1>   0.3700 
 19 H        0.3090     0.7230    -1.7560 H     1 <1>   0.1000 
 20 H       -0.4930     2.9130    -2.7030 H     1 <1>   0.1000 
 21 H       -0.0740     3.7440    -1.1730 H     1 <1>   0.1000 
 22 H       -5.0340     1.5090     1.5930 H     1 <1>   0.1500 
 23 H       -0.5550     3.5980     1.4070 H     1 <1>   0.1500 
 24 H       -4.2340     2.9180     3.4620 H     1 <1>   0.1500 
 25 H       -2.0090     3.9550     3.3620 H     1 <1>   0.1500 
 26 H        1.8890     2.2060     2.5220 H     1 <1>   0.0800 
 27 H        3.2680     1.7840     1.5120 H     1 <1>   0.0800 
 28 H        2.2250     4.6080     1.9760 H     1 <1>   0.0800 
 29 H        3.6020     4.1880     0.9690 H     1 <1>   0.0800 
 30 H        3.6700     3.9440     2.6970 H     1 <1>   0.0800 
@<TRIPOS>BOND
  1   1   2  2   
  2   2   3  am  
  3   2   4  1   
  4   3   5  1   
  5   3  18  1   
  6   4   6  1   
  7   4   7  1   
  8   4   8  1   
  9   5   6  ar  
 10   5   9  ar  
 11   6  10  ar  
 12   7   8  1   
 13   7  11  1   
 14   7  19  1   
 15   8  20  1   
 16   8  21  1   
 17   9  12  ar  
 18   9  22  1   
 19  10  13  ar  
 20  10  23  1   
 21  11  14  2   
 22  11  15  1   
 23  12  13  ar  
 24  12  24  1   
 25  13  25  1   
 26  15  16  1   
 27  16  17  1   
 28  16  26  1   
 29  16  27  1   
 30  17  28  1   
 31  17  29  1   
 32  17  30  1   
@<TRIPOS>SUBSTRUCTURE
  1 ****   6 GROUP 4 **** **** 0

# MOE 2024.06 (io_trps.svl 2023.06)
