@<TRIPOS>MOLECULE
NONAME
54 56 1 0 0 
SMALL
USER_CHARGES


@<TRIPOS>ATOM
  1 O       -1.0670     0.3720    -0.3030 O.2   1 <1>  -0.5700 
  2 C       -1.9040     1.1710    -0.6840 C.2   1 <1>   0.5440 
  3 N       -3.1220     0.6640    -1.0870 N.am  1 <1>  -0.6600 
  4 C       -1.6320     2.5960    -0.6610 C.ar  1 <1>   0.0860 
  5 C       -3.2310    -0.7830    -1.4010 C.3   1 <1>   0.1400 
  6 C       -4.3910     1.2610    -0.5910 C.3   1 <1>   0.1400 
  7 C       -0.8520     3.1610     0.3480 C.ar  1 <1>  -0.1500 
  8 C       -2.1340     3.4540    -1.6420 C.ar  1 <1>  -0.1500 
  9 C       -3.5870    -1.5390    -0.1020 C.3   1 <1>   0.4230 
 10 C       -4.7870     0.5320     0.7010 C.3   1 <1>  -0.1600 
 11 C       -0.5960     4.5190     0.3930 C.ar  1 <1>   0.0830 
 12 C       -1.8970     4.8160    -1.6000 C.ar  1 <1>  -0.1500 
 13 N       -3.5130    -3.0540    -0.2250 N.4   1 <1>  -0.9590 
 14 C       -4.9110    -1.0130     0.5360 C.3   1 <1>   0.0000 
 15 O        0.2050     4.9690     1.3870 O.3   1 <1>  -0.3620 
 16 C       -1.1470     5.3670    -0.5750 C.ar  1 <1>   0.0830 
 17 C       -4.2330    -3.7920     0.8630 C.3   1 <1>   0.3430 
 18 C       -3.8900    -3.6150    -1.5640 C.3   1 <1>   0.2630 
 19 C       -5.0920    -1.6530     1.9440 C.3   1 <1>  -0.1600 
 20 C       -6.1200    -1.3620    -0.3780 C.3   1 <1>   0.1200 
 21 C        1.5130     5.3250     0.9970 C.3   1 <1>   0.0400 
 22 O       -0.9970     6.7130    -0.5800 O.3   1 <1>  -0.3630 
 23 C       -4.2970    -2.9590     2.1420 C.3   1 <1>  -0.1600 
 24 O       -7.2800    -0.7330     0.0430 O.3   1 <1>  -0.6800 
 25 C       -1.3000     7.4290     0.5980 C.3   1 <1>   0.0400 
 26 H       -3.9760    -0.9190    -2.1620 H     1 <1>   0.0800 
 27 H       -2.2880    -1.1350    -1.7820 H     1 <1>   0.0800 
 28 H       -4.2630     2.3110    -0.3850 H     1 <1>   0.0800 
 29 H       -5.1610     1.1630    -1.3380 H     1 <1>   0.0800 
 30 H       -0.4300     2.5270     1.1070 H     1 <1>   0.1500 
 31 H       -2.7170     3.0470    -2.4490 H     1 <1>   0.1500 
 32 H       -2.8120    -1.2600     0.5940 H     1 <1>   0.0800 
 33 H       -4.0350     0.7600     1.4370 H     1 <1>   0.0800 
 34 H       -5.7080     0.9520     1.0670 H     1 <1>   0.0800 
 35 H       -2.2980     5.4640    -2.3590 H     1 <1>   0.1500 
 36 H       -2.5110    -3.2600    -0.0900 H     1 <1>   0.4500 
 37 H       -5.2400    -4.0130     0.5490 H     1 <1>   0.0800 
 38 H       -3.7350    -4.7280     1.0620 H     1 <1>   0.0800 
 39 H       -4.9190    -3.3910    -1.7920 H     1 <1>   0.0800 
 40 H       -3.7630    -4.6860    -1.5690 H     1 <1>   0.0800 
 41 H       -3.2650    -3.1990    -2.3380 H     1 <1>   0.0800 
 42 H       -4.7780    -0.9690     2.7150 H     1 <1>   0.0800 
 43 H       -6.1340    -1.8480     2.1300 H     1 <1>   0.0800 
 44 H       -6.3140    -2.4200    -0.3900 H     1 <1>   0.0800 
 45 H       -5.9550    -1.0370    -1.3900 H     1 <1>   0.0800 
 46 H        2.0460     5.6560     1.8690 H     1 <1>   0.0800 
 47 H        1.4620     6.1180     0.2720 H     1 <1>   0.0800 
 48 H        1.9950     4.4620     0.5740 H     1 <1>   0.0800 
 49 H       -4.7620    -3.5390     2.9210 H     1 <1>   0.0800 
 50 H       -3.2960    -2.7370     2.4690 H     1 <1>   0.0800 
 51 H       -7.5560    -1.0230     0.9350 H     1 <1>   0.4000 
 52 H       -1.4580     8.4590     0.3330 H     1 <1>   0.0800 
 53 H       -0.4750     7.3550     1.2820 H     1 <1>   0.0800 
 54 H       -2.1920     7.0210     1.0390 H     1 <1>   0.0800 
@<TRIPOS>BOND
  1   1   2  2   
  2   2   3  am  
  3   2   4  1   
  4   3   5  1   
  5   3   6  1   
  6   4   7  ar  
  7   4   8  ar  
  8   5   9  1   
  9   5  26  1   
 10   5  27  1   
 11   6  10  1   
 12   6  28  1   
 13   6  29  1   
 14   7  11  ar  
 15   7  30  1   
 16   8  12  ar  
 17   8  31  1   
 18   9  13  1   
 19   9  14  1   
 20   9  32  1   
 21  10  14  1   
 22  10  33  1   
 23  10  34  1   
 24  11  15  1   
 25  11  16  ar  
 26  12  16  ar  
 27  12  35  1   
 28  13  17  1   
 29  13  18  1   
 30  13  36  1   
 31  14  19  1   
 32  14  20  1   
 33  15  21  1   
 34  16  22  1   
 35  17  23  1   
 36  17  37  1   
 37  17  38  1   
 38  18  39  1   
 39  18  40  1   
 40  18  41  1   
 41  19  23  1   
 42  19  42  1   
 43  19  43  1   
 44  20  24  1   
 45  20  44  1   
 46  20  45  1   
 47  21  46  1   
 48  21  47  1   
 49  21  48  1   
 50  22  25  1   
 51  23  49  1   
 52  23  50  1   
 53  24  51  1   
 54  25  52  1   
 55  25  53  1   
 56  25  54  1   
@<TRIPOS>SUBSTRUCTURE
  1 ****   2 GROUP 4 **** **** 0

# MOE 2024.06 (io_trps.svl 2023.06)
