@<TRIPOS>MOLECULE
NONAME
46 48 1 0 0 
SMALL
USER_CHARGES


@<TRIPOS>ATOM
  1 O       -1.4610    -2.2120    -1.2270 O.2   1 <1>  -0.5700 
  2 C       -0.3700    -2.3700    -1.7360 C.2   1 <1>   0.5440 
  3 N       -0.3030    -2.1180    -3.0650 N.am  1 <1>  -0.8000 
  4 C        0.8070    -2.7720    -1.0020 C.ar  1 <1>   0.0860 
  5 C        0.8280    -3.8950    -0.1550 C.ar  1 <1>   0.4100 
  6 C        1.9880    -2.0570    -1.1390 C.ar  1 <1>  -0.1500 
  7 N        1.9130    -4.3200     0.4820 N.ar  1 <1>  -0.6200 
  8 N       -0.2970    -4.6570     0.0800 N.pl3 1 <1>  -0.8380 
  9 C        3.1130    -2.4830    -0.4670 C.ar  1 <1>  -0.1430 
 10 C        3.0200    -3.6240     0.3240 C.ar  1 <1>   0.1670 
 11 C       -0.2840    -6.0920    -0.2670 C.3   1 <1>   0.2890 
 12 C       -0.9660    -4.4940     1.3840 C.3   1 <1>   0.2890 
 13 C        4.4100    -1.6960    -0.6100 C.3   1 <1>  -0.0970 
 14 C        4.2260    -4.1480     1.0830 C.3   1 <1>  -0.0970 
 15 C       -1.5760    -6.4510    -1.0460 C.3   1 <1>   0.3430 
 16 C       -0.2010    -6.8070     1.0800 C.3   1 <1>  -0.1600 
 17 C       -2.4350    -4.1230     1.1350 C.3   1 <1>  -0.1600 
 18 C       -0.7980    -5.8400     2.1030 C.3   1 <1>  -0.1600 
 19 N       -2.8700    -6.1180    -0.3290 N.4   1 <1>  -0.9590 
 20 C       -3.0280    -4.6380    -0.1830 C.3   1 <1>   0.3430 
 21 C       -4.0400    -6.7030    -1.0440 C.3   1 <1>   0.2630 
 22 H       -1.1220    -1.7360    -3.5410 H     1 <1>   0.3700 
 23 H        0.5570    -2.1730    -3.6100 H     1 <1>   0.3700 
 24 H        2.0150    -1.1790    -1.7600 H     1 <1>   0.1500 
 25 H        0.5790    -6.3270    -0.8690 H     1 <1>   0.0800 
 26 H       -0.4870    -3.7160     1.9590 H     1 <1>   0.0800 
 27 H        4.2570    -0.7990    -1.1810 H     1 <1>   0.0800 
 28 H        5.1510    -2.2930    -1.1100 H     1 <1>   0.0800 
 29 H        4.7820    -1.4150     0.3590 H     1 <1>   0.0800 
 30 H        4.4730    -3.4740     1.8820 H     1 <1>   0.0800 
 31 H        5.0680    -4.2500     0.4260 H     1 <1>   0.0800 
 32 H        4.0120    -5.1130     1.5070 H     1 <1>   0.0800 
 33 H       -1.5500    -7.5070    -1.2550 H     1 <1>   0.0800 
 34 H       -1.5480    -5.9320    -1.9890 H     1 <1>   0.0800 
 35 H       -0.6900    -7.7650     1.0750 H     1 <1>   0.0800 
 36 H        0.8400    -6.9620     1.3110 H     1 <1>   0.0800 
 37 H       -3.0490    -4.4190     1.9650 H     1 <1>   0.0800 
 38 H       -2.4850    -3.0500     1.0990 H     1 <1>   0.0800 
 39 H       -0.1130    -5.7150     2.9240 H     1 <1>   0.0800 
 40 H       -1.7260    -6.2050     2.5020 H     1 <1>   0.0800 
 41 H       -2.8030    -6.5030     0.6210 H     1 <1>   0.4500 
 42 H       -2.5420    -4.1450    -1.0090 H     1 <1>   0.0800 
 43 H       -4.0720    -4.3710    -0.2120 H     1 <1>   0.0800 
 44 H       -4.1150    -6.2890    -2.0360 H     1 <1>   0.0800 
 45 H       -4.9510    -6.4840    -0.5100 H     1 <1>   0.0800 
 46 H       -3.9360    -7.7730    -1.1210 H     1 <1>   0.0800 
@<TRIPOS>BOND
  1   1   2  2   
  2   2   3  am  
  3   2   4  1   
  4   3  22  1   
  5   3  23  1   
  6   4   5  ar  
  7   4   6  ar  
  8   5   7  ar  
  9   5   8  1   
 10   6   9  ar  
 11   6  24  1   
 12   7  10  ar  
 13   8  11  1   
 14   8  12  1   
 15   9  10  ar  
 16   9  13  1   
 17  10  14  1   
 18  11  15  1   
 19  11  16  1   
 20  11  25  1   
 21  12  17  1   
 22  12  18  1   
 23  12  26  1   
 24  13  27  1   
 25  13  28  1   
 26  13  29  1   
 27  14  30  1   
 28  14  31  1   
 29  14  32  1   
 30  15  19  1   
 31  15  33  1   
 32  15  34  1   
 33  16  18  1   
 34  16  35  1   
 35  16  36  1   
 36  17  20  1   
 37  17  37  1   
 38  17  38  1   
 39  18  39  1   
 40  18  40  1   
 41  19  20  1   
 42  19  21  1   
 43  19  41  1   
 44  20  42  1   
 45  20  43  1   
 46  21  44  1   
 47  21  45  1   
 48  21  46  1   
@<TRIPOS>SUBSTRUCTURE
  1 ****   8 GROUP 4 **** **** 0

# MOE 2024.06 (io_trps.svl 2023.06)
