@<TRIPOS>MOLECULE
NONAME
52 54 1 0 0 
SMALL
USER_CHARGES


@<TRIPOS>ATOM
  1 O        0.5780    -0.2460     1.6400 O.2   1 <1>  -0.5700 
  2 C        1.5040    -0.7040     1.0140 C.2   1 <1>   0.5690 
  3 N        2.5660     0.0440     0.5810 N.am  1 <1>  -0.4940 
  4 C        1.5210    -2.1900     0.6870 C.3   1 <1>  -0.0190 
  5 C        2.8080     1.4340     0.7170 C.2   1 <1>  -0.0880 
  6 C        0.0990    -2.7160     0.4570 C.3   1 <1>   0.2090 
  7 C        2.2280    -3.0020     1.7920 C.3   1 <1>  -0.1600 
  8 N        3.9220     2.0930     0.2820 N.pl3 1 <1>   0.3140 
  9 C        2.0140     2.3730     1.2840 C.2   1 <1>  -0.1500 
 10 N        0.1630    -4.1610     0.1050 N.pl3 1 <1>  -0.8380 
 11 C        2.1900    -4.5060     1.4680 C.3   1 <1>  -0.1600 
 12 N        3.8480     3.4170     0.5620 N.2   1 <1>  -0.7070 
 13 C        5.1390     1.5430    -0.3870 C.3   1 <1>   0.1760 
 14 C        2.7060     3.5680     1.1570 C.2   1 <1>   0.1390 
 15 C       -0.9180    -4.6760    -0.5870 C.ar  1 <1>   0.4100 
 16 C        0.7650    -4.9940     1.1810 C.3   1 <1>   0.2090 
 17 C        4.8130     0.8100    -1.7110 C.3   1 <1>  -0.1600 
 18 C        5.9310     0.6660     0.6080 C.3   1 <1>  -0.1600 
 19 N       -1.7360    -5.4910     0.0710 N.ar  1 <1>  -0.6200 
 20 C       -1.1090    -4.3190    -1.9190 C.ar  1 <1>  -0.1500 
 21 C        3.9290     1.6300    -2.6620 C.3   1 <1>  -0.2400 
 22 C        7.3150     0.2450     0.0910 C.3   1 <1>  -0.2400 
 23 C       -2.7670    -5.9530    -0.6160 C.ar  1 <1>   0.1600 
 24 C       -2.1850    -4.8070    -2.6220 C.ar  1 <1>  -0.1500 
 25 C       -3.0370    -5.6510    -1.9380 C.ar  1 <1>  -0.1500 
 26 H        3.2820    -0.4790     0.0810 H     1 <1>   0.3700 
 27 H        2.0550    -2.3210    -0.2360 H     1 <1>   0.0800 
 28 H       -0.3750    -2.1630    -0.3360 H     1 <1>   0.0800 
 29 H       -0.4930    -2.5950     1.3490 H     1 <1>   0.0800 
 30 H        1.7270    -2.8300     2.7300 H     1 <1>   0.0800 
 31 H        3.2490    -2.6790     1.8960 H     1 <1>   0.0800 
 32 H        1.0490     2.2440     1.7410 H     1 <1>   0.1500 
 33 H        2.5930    -5.0650     2.2920 H     1 <1>   0.0800 
 34 H        2.7980    -4.7090     0.6040 H     1 <1>   0.0800 
 35 H        5.7530     2.3920    -0.6310 H     1 <1>   0.0800 
 36 H        2.3440     4.5180     1.5120 H     1 <1>   0.1500 
 37 H        0.7850    -6.0250     0.8700 H     1 <1>   0.0800 
 38 H        0.1580    -4.9200     2.0680 H     1 <1>   0.0800 
 39 H        4.3460    -0.1360    -1.5130 H     1 <1>   0.0800 
 40 H        5.7370     0.6050    -2.2220 H     1 <1>   0.0800 
 41 H        5.3680    -0.2150     0.8570 H     1 <1>   0.0800 
 42 H        6.0730     1.2330     1.5140 H     1 <1>   0.0800 
 43 H       -0.3990    -3.6630    -2.3830 H     1 <1>   0.1500 
 44 H        2.9490     1.7840    -2.2450 H     1 <1>   0.0800 
 45 H        3.8180     1.1150    -3.6000 H     1 <1>   0.0800 
 46 H        4.3730     2.5920    -2.8530 H     1 <1>   0.0800 
 47 H        7.2320    -0.4150    -0.7540 H     1 <1>   0.0800 
 48 H        7.8510    -0.2720     0.8670 H     1 <1>   0.0800 
 49 H        7.8890     1.1100    -0.1960 H     1 <1>   0.0800 
 50 H       -3.4370    -6.6130    -0.0920 H     1 <1>   0.1500 
 51 H       -2.3560    -4.5470    -3.6520 H     1 <1>   0.1500 
 52 H       -3.8990    -6.0690    -2.4250 H     1 <1>   0.1500 
@<TRIPOS>BOND
  1   1   2  2   
  2   2   3  am  
  3   2   4  1   
  4   3   5  1   
  5   3  26  1   
  6   4   6  1   
  7   4   7  1   
  8   4  27  1   
  9   5   8  1   
 10   5   9  2   
 11   6  10  1   
 12   6  28  1   
 13   6  29  1   
 14   7  11  1   
 15   7  30  1   
 16   7  31  1   
 17   8  12  1   
 18   8  13  1   
 19   9  14  1   
 20   9  32  1   
 21  10  15  1   
 22  10  16  1   
 23  11  16  1   
 24  11  33  1   
 25  11  34  1   
 26  12  14  2   
 27  13  17  1   
 28  13  18  1   
 29  13  35  1   
 30  14  36  1   
 31  15  19  ar  
 32  15  20  ar  
 33  16  37  1   
 34  16  38  1   
 35  17  21  1   
 36  17  39  1   
 37  17  40  1   
 38  18  22  1   
 39  18  41  1   
 40  18  42  1   
 41  19  23  ar  
 42  20  24  ar  
 43  20  43  1   
 44  21  44  1   
 45  21  45  1   
 46  21  46  1   
 47  22  47  1   
 48  22  48  1   
 49  22  49  1   
 50  23  25  ar  
 51  23  50  1   
 52  24  25  ar  
 53  24  51  1   
 54  25  52  1   
@<TRIPOS>SUBSTRUCTURE
  1 ****   4 GROUP 4 **** **** 0

# MOE 2024.06 (io_trps.svl 2023.06)
