@<TRIPOS>MOLECULE
NONAME
45 48 1 0 0 
SMALL
USER_CHARGES


@<TRIPOS>ATOM
  1 CL      -3.4560    -1.0000     2.0640 Cl    1 <1>  -0.1770 
  2 C       -3.0550     0.2280     0.8880 C.ar  1 <1>   0.1770 
  3 C       -2.8340    -0.1100    -0.4380 C.ar  1 <1>   0.0860 
  4 C       -2.9670     1.5440     1.3040 C.ar  1 <1>   0.1600 
  5 C       -2.9210    -1.4600    -0.9370 C.2   1 <1>   0.5440 
  6 C       -2.5080     0.9570    -1.2640 C.ar  1 <1>  -0.1500 
  7 N       -2.6740     2.5620     0.5080 N.ar  1 <1>  -0.6200 
  8 O       -1.8970    -2.0170    -1.2830 O.2   1 <1>  -0.5700 
  9 N       -4.1250    -2.1170    -1.0680 N.am  1 <1>  -0.6600 
 10 C       -2.4440     2.2420    -0.7570 C.ar  1 <1>   0.1600 
 11 C       -5.4680    -1.5080    -0.8200 C.3   1 <1>   0.1400 
 12 C       -4.2030    -3.5590    -1.4570 C.3   1 <1>   0.1400 
 13 C       -6.2810    -2.3520     0.1810 C.3   1 <1>   0.1900 
 14 C       -5.0600    -4.3530    -0.4570 C.3   1 <1>   0.1100 
 15 N       -6.4040    -3.7530    -0.2920 N.3   1 <1>  -0.8100 
 16 C       -7.6750    -1.7310     0.4010 C.3   1 <1>   0.1200 
 17 C       -7.2410    -4.5300     0.6530 C.3   1 <1>   0.3330 
 18 O       -8.4140    -2.4960     1.3080 O.3   1 <1>  -0.5600 
 19 C       -7.4960    -5.9440     0.1320 C.ar  1 <1>  -0.1430 
 20 C       -8.5940    -3.8250     0.8930 C.3   1 <1>   0.1200 
 21 C       -7.8970    -6.1580    -1.1800 C.ar  1 <1>  -0.1500 
 22 C       -7.3330    -7.0350     0.9730 C.ar  1 <1>  -0.1500 
 23 C       -8.1330    -7.4400    -1.6440 C.ar  1 <1>  -0.1500 
 24 C       -7.5690    -8.3190     0.5110 C.ar  1 <1>  -0.1500 
 25 C       -7.9690    -8.5220    -0.7980 C.ar  1 <1>  -0.1500 
 26 H       -3.1470     1.7650     2.3410 H     1 <1>   0.1500 
 27 H       -2.3010     0.7750    -2.3040 H     1 <1>   0.1500 
 28 H       -2.1900     3.0510    -1.4230 H     1 <1>   0.1500 
 29 H       -5.3710    -0.5070    -0.4430 H     1 <1>   0.0800 
 30 H       -6.0040    -1.4600    -1.7520 H     1 <1>   0.0800 
 31 H       -4.6410    -3.6380    -2.4360 H     1 <1>   0.0800 
 32 H       -3.2210    -3.9960    -1.4980 H     1 <1>   0.0800 
 33 H       -5.7650    -2.3390     1.1260 H     1 <1>   0.0800 
 34 H       -4.5520    -4.3870     0.4920 H     1 <1>   0.0800 
 35 H       -5.1530    -5.3620    -0.8200 H     1 <1>   0.0800 
 36 H       -8.2180    -1.6770    -0.5260 H     1 <1>   0.0800 
 37 H       -7.5840    -0.7410     0.8110 H     1 <1>   0.0800 
 38 H       -6.7310    -4.5940     1.6000 H     1 <1>   0.0800 
 39 H       -9.1430    -4.3380     1.6610 H     1 <1>   0.0800 
 40 H       -9.1800    -3.8260    -0.0080 H     1 <1>   0.0800 
 41 H       -8.0200    -5.3190    -1.8430 H     1 <1>   0.1500 
 42 H       -7.0230    -6.8930     1.9930 H     1 <1>   0.1500 
 43 H       -8.4430    -7.5940    -2.6630 H     1 <1>   0.1500 
 44 H       -7.4400    -9.1600     1.1700 H     1 <1>   0.1500 
 45 H       -8.1520    -9.5200    -1.1570 H     1 <1>   0.1500 
@<TRIPOS>BOND
  1   1   2  1   
  2   2   3  ar  
  3   2   4  ar  
  4   3   5  1   
  5   3   6  ar  
  6   4   7  ar  
  7   4  26  1   
  8   5   8  2   
  9   5   9  am  
 10   6  10  ar  
 11   6  27  1   
 12   7  10  ar  
 13   9  11  1   
 14   9  12  1   
 15  10  28  1   
 16  11  13  1   
 17  11  29  1   
 18  11  30  1   
 19  12  14  1   
 20  12  31  1   
 21  12  32  1   
 22  13  15  1   
 23  13  16  1   
 24  13  33  1   
 25  14  15  1   
 26  14  34  1   
 27  14  35  1   
 28  15  17  1   
 29  16  18  1   
 30  16  36  1   
 31  16  37  1   
 32  17  19  1   
 33  17  20  1   
 34  17  38  1   
 35  18  20  1   
 36  19  21  ar  
 37  19  22  ar  
 38  20  39  1   
 39  20  40  1   
 40  21  23  ar  
 41  21  41  1   
 42  22  24  ar  
 43  22  42  1   
 44  23  25  ar  
 45  23  43  1   
 46  24  25  ar  
 47  24  44  1   
 48  25  45  1   
@<TRIPOS>SUBSTRUCTURE
  1 ****  13 GROUP 4 **** **** 0

# MOE 2024.06 (io_trps.svl 2023.06)
