@<TRIPOS>MOLECULE
NONAME
58 62 1 0 0 
SMALL
USER_CHARGES


@<TRIPOS>ATOM
  1 O        0.2550    -0.2130    -0.5360 O.2   1 <1>  -0.5700 
  2 C       -0.7020     0.5090    -0.6690 C.2   1 <1>   0.5690 
  3 N       -1.9750     0.0120    -0.6990 N.am  1 <1>  -0.6600 
  4 C       -0.4600     1.9980    -0.7900 C.3   1 <1>  -0.0990 
  5 C       -3.2390     0.7890    -0.8030 C.3   1 <1>   0.1400 
  6 C       -2.2680    -1.4390    -0.6040 C.3   1 <1>   0.1400 
  7 C       -0.5040     2.6670     0.5860 C.3   1 <1>   0.0210 
  8 C       -4.3150    -0.1830    -0.3240 C.3   1 <1>   0.2000 
  9 C       -3.7900    -1.5530    -0.7720 C.3   1 <1>  -0.0800 
 10 C       -0.5320     4.1710     0.4290 C.2   1 <1>   0.1080 
 11 O       -4.3570    -0.1300     1.0610 O.3   1 <1>  -0.6800 
 12 C       -4.4180    -2.7530    -0.0320 C.3   1 <1>  -0.0160 
 13 N       -1.6220     4.8150     0.1350 N.2   1 <1>  -0.7070 
 14 C        0.5590     5.0240     0.5630 C.2   1 <1>  -0.1810 
 15 C       -4.0470    -4.1520    -0.5420 C.ar  1 <1>  -0.1440 
 16 N       -1.2490     6.1100     0.0820 N.pl3 1 <1>   0.3000 
 17 C        0.0650     6.2550     0.3400 C.2   1 <1>  -0.3320 
 18 C        2.0130     4.7420     0.8860 C.3   1 <1>   0.0210 
 19 C       -4.4390    -5.2940     0.2000 C.ar  1 <1>   0.0000 
 20 C       -3.3560    -4.3770    -1.7010 C.ar  1 <1>  -0.1500 
 21 C        0.8670     7.5420     0.3690 C.3   1 <1>   0.0200 
 22 C        2.8790     5.9690     0.5400 C.3   1 <1>  -0.1600 
 23 C       -4.0690    -6.5690    -0.2930 C.ar  1 <1>   0.3100 
 24 C       -5.1850    -5.2470     1.4030 C.ar  1 <1>  -0.1500 
 25 C       -3.0450    -5.6810    -2.1010 C.ar  1 <1>   0.1600 
 26 C        2.2370     7.2850     1.0250 C.3   1 <1>  -0.1600 
 27 N       -3.3720    -6.7460    -1.4430 N.ar  1 <1>  -0.6200 
 28 C       -4.4390    -7.7160     0.4290 C.ar  1 <1>  -0.1500 
 29 C       -5.5310    -6.3840     2.0820 C.ar  1 <1>  -0.1500 
 30 C       -5.1530    -7.6360     1.5930 C.ar  1 <1>  -0.1500 
 31 H        0.5030     2.1640    -1.2360 H     1 <1>   0.0800 
 32 H       -1.1950     2.4370    -1.4370 H     1 <1>   0.0800 
 33 H       -3.2210     1.6880    -0.2100 H     1 <1>   0.0800 
 34 H       -3.4080     1.0440    -1.8350 H     1 <1>   0.0800 
 35 H       -1.7320    -1.9790    -1.3660 H     1 <1>   0.0800 
 36 H       -1.9570    -1.7950     0.3630 H     1 <1>   0.0800 
 37 H        0.3480     2.3680     1.1680 H     1 <1>   0.0800 
 38 H       -1.3900     2.3690     1.1170 H     1 <1>   0.0800 
 39 H       -5.2950     0.0480    -0.7060 H     1 <1>   0.0800 
 40 H       -4.0070    -1.6400    -1.8220 H     1 <1>   0.0800 
 41 H       -3.4400    -0.1530     1.4030 H     1 <1>   0.4000 
 42 H       -5.4890    -2.6550    -0.0770 H     1 <1>   0.0800 
 43 H       -4.1330    -2.6910     1.0040 H     1 <1>   0.0800 
 44 H       -1.9130     6.8640    -0.1310 H     1 <1>   0.2700 
 45 H        2.0950     4.5240     1.9360 H     1 <1>   0.0800 
 46 H        2.3550     3.8860     0.3320 H     1 <1>   0.0800 
 47 H       -3.0270    -3.5870    -2.3470 H     1 <1>   0.1500 
 48 H        1.0090     7.8860    -0.6410 H     1 <1>   0.0800 
 49 H        0.3390     8.3010     0.9190 H     1 <1>   0.0800 
 50 H        3.8540     5.8520     0.9790 H     1 <1>   0.0800 
 51 H        3.0000     6.0160    -0.5290 H     1 <1>   0.0800 
 52 H       -5.4940    -4.2990     1.8000 H     1 <1>   0.1500 
 53 H       -2.4950    -5.8060    -3.0190 H     1 <1>   0.1500 
 54 H        2.8930     8.1120     0.8180 H     1 <1>   0.0800 
 55 H        2.1030     7.2300     2.0920 H     1 <1>   0.0800 
 56 H       -4.1390    -8.6670     0.0310 H     1 <1>   0.1500 
 57 H       -6.0970    -6.3300     2.9970 H     1 <1>   0.1500 
 58 H       -5.4300    -8.5230     2.1360 H     1 <1>   0.1500 
@<TRIPOS>BOND
  1   1   2  2   
  2   2   3  am  
  3   2   4  1   
  4   3   5  1   
  5   3   6  1   
  6   4   7  1   
  7   4  31  1   
  8   4  32  1   
  9   5   8  1   
 10   5  33  1   
 11   5  34  1   
 12   6   9  1   
 13   6  35  1   
 14   6  36  1   
 15   7  10  1   
 16   7  37  1   
 17   7  38  1   
 18   8   9  1   
 19   8  11  1   
 20   8  39  1   
 21   9  12  1   
 22   9  40  1   
 23  10  13  2   
 24  10  14  1   
 25  11  41  1   
 26  12  15  1   
 27  12  42  1   
 28  12  43  1   
 29  13  16  1   
 30  14  17  2   
 31  14  18  1   
 32  15  19  ar  
 33  15  20  ar  
 34  16  17  1   
 35  16  44  1   
 36  17  21  1   
 37  18  22  1   
 38  18  45  1   
 39  18  46  1   
 40  19  23  ar  
 41  19  24  ar  
 42  20  25  ar  
 43  20  47  1   
 44  21  26  1   
 45  21  48  1   
 46  21  49  1   
 47  22  26  1   
 48  22  50  1   
 49  22  51  1   
 50  23  27  ar  
 51  23  28  ar  
 52  24  29  ar  
 53  24  52  1   
 54  25  27  ar  
 55  25  53  1   
 56  26  54  1   
 57  26  55  1   
 58  28  30  ar  
 59  28  56  1   
 60  29  30  ar  
 61  29  57  1   
 62  30  58  1   
@<TRIPOS>SUBSTRUCTURE
  1 ****   3 GROUP 4 **** **** 0

# MOE 2024.06 (io_trps.svl 2023.06)
