@<TRIPOS>MOLECULE
NONAME
41 43 1 0 0 
SMALL
USER_CHARGES


@<TRIPOS>ATOM
  1 CL      -3.1460    -3.3670     2.9500 Cl    1 <1>  -0.1770 
  2 C       -2.6230    -2.2460     1.7160 C.ar  1 <1>   0.1770 
  3 C       -3.5580    -1.4880     1.0420 C.ar  1 <1>  -0.1440 
  4 C       -1.2750    -2.1440     1.4060 C.ar  1 <1>   0.1600 
  5 C       -3.0470    -0.6420     0.0800 C.ar  1 <1>   0.1770 
  6 C       -5.0380    -1.6160     1.3070 C.3   1 <1>   0.4860 
  7 N       -0.7870    -1.3490     0.4610 N.ar  1 <1>  -0.6200 
  8 CL      -4.1300     0.3650    -0.8490 Cl    1 <1>  -0.1770 
  9 C       -1.6830    -0.6000    -0.1730 C.ar  1 <1>   0.1600 
 10 N       -5.5050    -2.7180     0.4440 N.4   1 <1>  -0.9590 
 11 C       -6.3380    -2.3560    -0.7340 C.3   1 <1>   0.3430 
 12 C       -6.1350    -3.8850     1.0910 C.3   1 <1>   0.3430 
 13 C       -7.0420    -3.6600    -1.1370 C.3   1 <1>   0.2000 
 14 C       -6.6430    -4.7120    -0.0890 C.3   1 <1>  -0.0800 
 15 O       -8.4180    -3.4750    -1.0940 O.3   1 <1>  -0.6800 
 16 C       -5.5770    -5.7060    -0.6160 C.3   1 <1>   0.0210 
 17 C       -4.1430    -5.1910    -0.7220 C.2   1 <1>   0.1080 
 18 N       -3.7880    -4.0950    -1.3270 N.2   1 <1>  -0.7070 
 19 C       -3.0490    -5.8680    -0.1950 C.2   1 <1>  -0.1500 
 20 N       -2.4350    -4.0770    -1.2420 N.pl3 1 <1>   0.3000 
 21 C       -1.9740    -5.1310    -0.5440 C.2   1 <1>  -0.3320 
 22 C       -0.5030    -5.3920    -0.2730 C.3   1 <1>  -0.0600 
 23 H       -0.5750    -2.7500     1.9570 H     1 <1>   0.1500 
 24 H       -5.5510    -0.6990     1.0660 H     1 <1>   0.0800 
 25 H       -5.2090    -1.8500     2.3460 H     1 <1>   0.0800 
 26 H       -1.3190     0.0740    -0.9310 H     1 <1>   0.1500 
 27 H       -4.6520    -3.1210    -0.0040 H     1 <1>   0.4500 
 28 H       -7.0680    -1.6070    -0.4780 H     1 <1>   0.0800 
 29 H       -5.7130    -2.0020    -1.5380 H     1 <1>   0.0800 
 30 H       -5.4290    -4.4370     1.6910 H     1 <1>   0.0800 
 31 H       -6.9630    -3.5650     1.7030 H     1 <1>   0.0800 
 32 H       -6.7800    -3.9480    -2.1420 H     1 <1>   0.0800 
 33 H       -7.5000    -5.2930     0.2080 H     1 <1>   0.0800 
 34 H       -8.7680    -3.3760    -0.1880 H     1 <1>   0.4000 
 35 H       -5.8760    -6.0680    -1.5850 H     1 <1>   0.0800 
 36 H       -5.5670    -6.5610     0.0370 H     1 <1>   0.0800 
 37 H       -3.0710    -6.7930     0.3550 H     1 <1>   0.1500 
 38 H       -1.8470    -3.3490    -1.6740 H     1 <1>   0.2700 
 39 H       -0.3870    -6.2670     0.3420 H     1 <1>   0.0800 
 40 H       -0.0540    -4.5560     0.2320 H     1 <1>   0.0800 
 41 H        0.0200    -5.5580    -1.1990 H     1 <1>   0.0800 
@<TRIPOS>BOND
  1   1   2  1   
  2   2   3  ar  
  3   2   4  ar  
  4   3   5  ar  
  5   3   6  1   
  6   4   7  ar  
  7   4  23  1   
  8   5   8  1   
  9   5   9  ar  
 10   6  10  1   
 11   6  24  1   
 12   6  25  1   
 13   7   9  ar  
 14   9  26  1   
 15  10  11  1   
 16  10  12  1   
 17  10  27  1   
 18  11  13  1   
 19  11  28  1   
 20  11  29  1   
 21  12  14  1   
 22  12  30  1   
 23  12  31  1   
 24  13  14  1   
 25  13  15  1   
 26  13  32  1   
 27  14  16  1   
 28  14  33  1   
 29  15  34  1   
 30  16  17  1   
 31  16  35  1   
 32  16  36  1   
 33  17  18  2   
 34  17  19  1   
 35  18  20  1   
 36  19  21  2   
 37  19  37  1   
 38  20  21  1   
 39  20  38  1   
 40  21  22  1   
 41  22  39  1   
 42  22  40  1   
 43  22  41  1   
@<TRIPOS>SUBSTRUCTURE
  1 ****  10 GROUP 4 **** **** 0

# MOE 2024.06 (io_trps.svl 2023.06)
