@<TRIPOS>MOLECULE
NONAME
48 49 1 0 0 
SMALL
USER_CHARGES


@<TRIPOS>ATOM
  1 O        0.5220     2.2210     1.0320 O.3   1 <1>  -0.3630 
  2 C        1.6610     2.2440     0.3120 C.ar  1 <1>   0.0830 
  3 C       -0.6830     2.1670     0.3040 C.3   1 <1>   0.0400 
  4 C        2.2010     3.4320    -0.1630 C.ar  1 <1>  -0.1440 
  5 C        2.3290     1.0630     0.0410 C.ar  1 <1>  -0.1440 
  6 C        3.3670     3.3670    -0.9240 C.ar  1 <1>   0.1660 
  7 C        1.5260     4.7670     0.1560 C.3   1 <1>  -0.0960 
  8 C        3.4780     1.1290    -0.7230 C.ar  1 <1>   0.1600 
  9 C        1.8230    -0.2740     0.5660 C.3   1 <1>  -0.0970 
 10 N        4.0020     2.2370    -1.2160 N.ar  1 <1>  -0.6200 
 11 C        4.0120     4.6290    -1.5140 C.3   1 <1>   0.2530 
 12 N        4.7590     5.4570    -0.5300 N.3   1 <1>  -0.8100 
 13 C        5.3620     6.6240    -1.2040 C.3   1 <1>   0.2900 
 14 C        5.7980     4.6530     0.1410 C.3   1 <1>   0.0300 
 15 C        5.9630     7.6280    -0.2270 C.2   1 <1>   0.0070 
 16 N        7.1200     8.1710    -0.4010 N.2   1 <1>  -0.3380 
 17 N        5.3800     8.0710     0.8970 N.pl3 1 <1>   0.0480 
 18 N        7.3280     8.9960     0.6260 N.2   1 <1>  -0.3380 
 19 C        6.2890     8.9190     1.3800 C.2   1 <1>   0.0360 
 20 C        4.0700     7.7510     1.5010 C.3   1 <1>   0.0960 
 21 C        2.9430     8.3510     0.6630 C.3   1 <1>   0.1200 
 22 O        1.7400     8.0990     1.3130 O.3   1 <1>  -0.5600 
 23 C        0.6230     8.5970     0.6520 C.3   1 <1>   0.0400 
 24 H       -1.4990     2.1430     1.0030 H     1 <1>   0.0800 
 25 H       -0.6860     1.2770    -0.3000 H     1 <1>   0.0800 
 26 H       -0.7550     3.0400    -0.3200 H     1 <1>   0.0800 
 27 H        0.8500     4.6790     0.9870 H     1 <1>   0.0800 
 28 H        0.9780     5.1180    -0.6980 H     1 <1>   0.0800 
 29 H        2.2580     5.5000     0.4290 H     1 <1>   0.0800 
 30 H        4.0030     0.2160    -0.9460 H     1 <1>   0.1500 
 31 H        1.5710    -0.1860     1.6080 H     1 <1>   0.0800 
 32 H        2.5720    -1.0380     0.4630 H     1 <1>   0.0800 
 33 H        0.9460    -0.5730     0.0220 H     1 <1>   0.0800 
 34 H        3.2370     5.2260    -1.9600 H     1 <1>   0.0800 
 35 H        4.6790     4.3290    -2.3040 H     1 <1>   0.0800 
 36 H        4.6120     7.1320    -1.7820 H     1 <1>   0.0800 
 37 H        6.1320     6.2940    -1.8820 H     1 <1>   0.0800 
 38 H        5.3450     3.8570     0.7070 H     1 <1>   0.0800 
 39 H        6.3660     5.2610     0.8250 H     1 <1>   0.0800 
 40 H        6.4700     4.2220    -0.5820 H     1 <1>   0.0800 
 41 H        6.1550     9.4680     2.2930 H     1 <1>   0.1500 
 42 H        4.0360     8.1620     2.4930 H     1 <1>   0.0800 
 43 H        3.9610     6.6850     1.5650 H     1 <1>   0.0800 
 44 H        2.9090     7.8910    -0.3090 H     1 <1>   0.0800 
 45 H        3.0670     9.4170     0.5730 H     1 <1>   0.0800 
 46 H       -0.2480     8.3500     1.2330 H     1 <1>   0.0800 
 47 H        0.5500     8.1410    -0.3210 H     1 <1>   0.0800 
 48 H        0.7070     9.6670     0.5650 H     1 <1>   0.0800 
@<TRIPOS>BOND
  1   1   2  1   
  2   1   3  1   
  3   2   4  ar  
  4   2   5  ar  
  5   3  24  1   
  6   3  25  1   
  7   3  26  1   
  8   4   6  ar  
  9   4   7  1   
 10   5   8  ar  
 11   5   9  1   
 12   6  10  ar  
 13   6  11  1   
 14   7  27  1   
 15   7  28  1   
 16   7  29  1   
 17   8  10  ar  
 18   8  30  1   
 19   9  31  1   
 20   9  32  1   
 21   9  33  1   
 22  11  12  1   
 23  11  34  1   
 24  11  35  1   
 25  12  13  1   
 26  12  14  1   
 27  13  15  1   
 28  13  36  1   
 29  13  37  1   
 30  14  38  1   
 31  14  39  1   
 32  14  40  1   
 33  15  16  2   
 34  15  17  1   
 35  16  18  1   
 36  17  19  1   
 37  17  20  1   
 38  18  19  2   
 39  19  41  1   
 40  20  21  1   
 41  20  42  1   
 42  20  43  1   
 43  21  22  1   
 44  21  44  1   
 45  21  45  1   
 46  22  23  1   
 47  23  46  1   
 48  23  47  1   
 49  23  48  1   
@<TRIPOS>SUBSTRUCTURE
  1 ****  12 GROUP 4 **** **** 0

# MOE 2024.06 (io_trps.svl 2023.06)
