@<TRIPOS>MOLECULE
NONAME
43 45 1 0 0 
SMALL
USER_CHARGES


@<TRIPOS>ATOM
  1 O       -1.4260    -0.0550    -1.7820 O.2   1 <1>  -0.5700 
  2 C       -2.1510     0.4160    -0.9450 C.2   1 <1>   0.4230 
  3 C       -3.3300    -0.2600    -0.4800 C.ar  1 <1>   0.0860 
  4 C       -1.7210     1.7400    -0.3440 C.3   1 <1>  -0.1790 
  5 C       -4.5740     0.3170    -0.2350 C.ar  1 <1>   0.1660 
  6 C       -3.2680    -1.6220    -0.2380 C.ar  1 <1>   0.1600 
  7 N       -5.5800    -0.3650     0.2480 N.ar  1 <1>  -0.6200 
  8 C       -4.8770     1.7760    -0.5350 C.3   1 <1>  -0.0960 
  9 N       -4.2660    -2.3250     0.2350 N.ar  1 <1>  -0.6200 
 10 C       -5.3940    -1.6630     0.4770 C.ar  1 <1>   0.7200 
 11 N       -6.4500    -2.3800     0.9860 N.pl3 1 <1>  -0.8380 
 12 C       -7.6350    -1.7350     1.6220 C.3   1 <1>   0.2090 
 13 C       -6.4010    -3.8730     1.0820 C.3   1 <1>   0.2090 
 14 C       -8.9380    -2.2230     0.9730 C.3   1 <1>  -0.1600 
 15 C       -7.8110    -4.4790     1.1430 C.3   1 <1>  -0.1600 
 16 C       -8.8400    -3.6370     0.3760 C.3   1 <1>   0.4240 
 17 O       -8.3340    -3.4790    -0.8960 O.3   1 <1>  -0.6800 
 18 C      -10.2160    -4.3190     0.3130 C.ar  1 <1>  -0.1430 
 19 C      -10.8650    -4.5700    -0.8930 C.ar  1 <1>   0.1600 
 20 C      -10.8580    -4.7020     1.4790 C.ar  1 <1>  -0.1500 
 21 N      -12.0510    -5.1500    -1.0220 N.ar  1 <1>  -0.6200 
 22 C      -12.0910    -5.3080     1.3640 C.ar  1 <1>  -0.1500 
 23 C      -12.6340    -5.5050     0.1080 C.ar  1 <1>   0.1600 
 24 H       -2.1820     1.8950     0.6130 H     1 <1>   0.0800 
 25 H       -1.9810     2.5440    -1.0080 H     1 <1>   0.0800 
 26 H       -0.6540     1.7400    -0.2120 H     1 <1>   0.0800 
 27 H       -2.3450    -2.1380    -0.4440 H     1 <1>   0.1500 
 28 H       -4.3540     2.1060    -1.4140 H     1 <1>   0.0800 
 29 H       -4.6040     2.3900     0.3040 H     1 <1>   0.0800 
 30 H       -5.9300     1.9020    -0.7160 H     1 <1>   0.0800 
 31 H       -7.5880    -0.6600     1.5690 H     1 <1>   0.0800 
 32 H       -7.6370    -2.0010     2.6650 H     1 <1>   0.0800 
 33 H       -5.8310    -4.1620     1.9490 H     1 <1>   0.0800 
 34 H       -5.8990    -4.2650     0.2110 H     1 <1>   0.0800 
 35 H       -9.2490    -1.5300     0.2120 H     1 <1>   0.0800 
 36 H       -9.6980    -2.2030     1.7320 H     1 <1>   0.0800 
 37 H       -8.1040    -4.5530     2.1730 H     1 <1>   0.0800 
 38 H       -7.7930    -5.4790     0.7470 H     1 <1>   0.0800 
 39 H       -7.5050    -2.9600    -0.7890 H     1 <1>   0.4000 
 40 H      -10.3880    -4.2790    -1.8140 H     1 <1>   0.1500 
 41 H      -10.4250    -4.5390     2.4500 H     1 <1>   0.1500 
 42 H      -12.6300    -5.6250     2.2380 H     1 <1>   0.1500 
 43 H      -13.5970    -5.9790     0.0290 H     1 <1>   0.1500 
@<TRIPOS>BOND
  1   1   2  2   
  2   2   3  1   
  3   2   4  1   
  4   3   5  ar  
  5   3   6  ar  
  6   4  24  1   
  7   4  25  1   
  8   4  26  1   
  9   5   7  ar  
 10   5   8  1   
 11   6   9  ar  
 12   6  27  1   
 13   7  10  ar  
 14   8  28  1   
 15   8  29  1   
 16   8  30  1   
 17   9  10  ar  
 18  10  11  1   
 19  11  12  1   
 20  11  13  1   
 21  12  14  1   
 22  12  31  1   
 23  12  32  1   
 24  13  15  1   
 25  13  33  1   
 26  13  34  1   
 27  14  16  1   
 28  14  35  1   
 29  14  36  1   
 30  15  16  1   
 31  15  37  1   
 32  15  38  1   
 33  16  17  1   
 34  16  18  1   
 35  17  39  1   
 36  18  19  ar  
 37  18  20  ar  
 38  19  21  ar  
 39  19  40  1   
 40  20  22  ar  
 41  20  41  1   
 42  21  23  ar  
 43  22  23  ar  
 44  22  42  1   
 45  23  43  1   
@<TRIPOS>SUBSTRUCTURE
  1 ****  11 GROUP 4 **** **** 0

# MOE 2024.06 (io_trps.svl 2023.06)
