@<TRIPOS>MOLECULE
NONAME
53 56 1 0 0 
SMALL
USER_CHARGES


@<TRIPOS>ATOM
  1 S       -0.0480    -0.3030     0.3200 S.3   1 <1>  -0.0800 
  2 C       -0.8770     1.0260    -0.4830 C.2   1 <1>  -0.1400 
  3 C       -0.2870    -1.3600    -1.0650 C.2   1 <1>  -0.1400 
  4 C       -1.2990     0.6380    -1.7030 C.2   1 <1>  -0.1500 
  5 C       -1.0230     2.3540     0.2510 C.3   1 <1>   0.5230 
  6 C       -0.9590    -0.7110    -2.0350 C.2   1 <1>  -0.1500 
  7 C        0.2660    -2.7720    -0.9850 C.3   1 <1>   0.5230 
  8 N        0.2290     3.1680     0.1740 N.4   1 <1>  -0.9590 
  9 N       -0.4770    -3.5320     0.0550 N.4   1 <1>  -0.9590 
 10 C        1.3030     2.6370     1.0980 C.3   1 <1>   0.3430 
 11 C        0.6810     3.3440    -1.2570 C.3   1 <1>   0.3430 
 12 C        0.1840    -4.8360     0.3490 C.3   1 <1>   0.3430 
 13 C       -1.9150    -3.7060    -0.3110 C.3   1 <1>   0.3430 
 14 C        2.5030     3.6010     1.3130 C.3   1 <1>   0.2200 
 15 C        1.8140     4.3610    -1.4700 C.3   1 <1>  -0.0190 
 16 C       -0.5240    -5.5170     1.5220 C.3   1 <1>  -0.1600 
 17 C       -2.6640    -4.3650     0.8490 C.3   1 <1>  -0.1600 
 18 N        2.1700     4.9970     0.9010 N.am  1 <1>  -0.7300 
 19 C        3.7310     3.0810     0.5450 C.3   1 <1>   0.1200 
 20 C        1.8590     5.3820    -0.3560 C.2   1 <1>   0.5690 
 21 C        3.1750     3.6820    -1.6750 C.3   1 <1>   0.1200 
 22 C       -2.0240    -5.6990     1.2540 C.3   1 <1>  -0.1600 
 23 O        3.3700     2.6650    -0.7410 O.3   1 <1>  -0.5600 
 24 O        1.5570     6.5200    -0.5840 O.2   1 <1>  -0.5700 
 25 H       -1.8470     1.2430    -2.4080 H     1 <1>   0.1500 
 26 H       -1.2920     2.1740     1.2790 H     1 <1>   0.0800 
 27 H       -1.8290     2.9060    -0.2060 H     1 <1>   0.0800 
 28 H       -1.2390    -1.1170    -2.9950 H     1 <1>   0.1500 
 29 H        1.3140    -2.7280    -0.7360 H     1 <1>   0.0800 
 30 H        0.1630    -3.2590    -1.9410 H     1 <1>   0.0800 
 31 H        0.0130     4.1140     0.5270 H     1 <1>   0.4500 
 32 H       -0.4540    -2.9680     0.9120 H     1 <1>   0.4500 
 33 H        0.8680     2.4370     2.0630 H     1 <1>   0.0800 
 34 H        1.6780     1.7010     0.7190 H     1 <1>   0.0800 
 35 H        0.9930     2.3920    -1.6570 H     1 <1>   0.0800 
 36 H       -0.1630     3.6760    -1.8400 H     1 <1>   0.0800 
 37 H        0.1350    -5.4760    -0.5170 H     1 <1>   0.0800 
 38 H        1.2210    -4.6820     0.6010 H     1 <1>   0.0800 
 39 H       -2.3640    -2.7500    -0.5270 H     1 <1>   0.0800 
 40 H       -1.9970    -4.3260    -1.1900 H     1 <1>   0.0800 
 41 H        2.7590     3.6100     2.3590 H     1 <1>   0.0800 
 42 H        1.6060     4.8940    -2.3810 H     1 <1>   0.0800 
 43 H       -0.0750    -6.4810     1.6930 H     1 <1>   0.0800 
 44 H       -0.3790    -4.9350     2.4160 H     1 <1>   0.0800 
 45 H       -2.6810    -3.6950     1.6910 H     1 <1>   0.0800 
 46 H       -3.6850    -4.5360     0.5550 H     1 <1>   0.0800 
 47 H        2.2920     5.7490     1.5900 H     1 <1>   0.3700 
 48 H        4.1290     2.2160     1.0480 H     1 <1>   0.0800 
 49 H        4.5110     3.8220     0.4870 H     1 <1>   0.0800 
 50 H        3.9870     4.3900    -1.6160 H     1 <1>   0.0800 
 51 H        3.2060     3.2200    -2.6480 H     1 <1>   0.0800 
 52 H       -2.5090    -6.0850     2.1360 H     1 <1>   0.0800 
 53 H       -2.1630    -6.4200     0.4640 H     1 <1>   0.0800 
@<TRIPOS>BOND
  1   1   2  1   
  2   1   3  1   
  3   2   4  2   
  4   2   5  1   
  5   3   6  2   
  6   3   7  1   
  7   4   6  1   
  8   4  25  1   
  9   5   8  1   
 10   5  26  1   
 11   5  27  1   
 12   6  28  1   
 13   7   9  1   
 14   7  29  1   
 15   7  30  1   
 16   8  10  1   
 17   8  11  1   
 18   8  31  1   
 19   9  12  1   
 20   9  13  1   
 21   9  32  1   
 22  10  14  1   
 23  10  33  1   
 24  10  34  1   
 25  11  15  1   
 26  11  35  1   
 27  11  36  1   
 28  12  16  1   
 29  12  37  1   
 30  12  38  1   
 31  13  17  1   
 32  13  39  1   
 33  13  40  1   
 34  14  18  1   
 35  14  19  1   
 36  14  41  1   
 37  15  20  1   
 38  15  21  1   
 39  15  42  1   
 40  16  22  1   
 41  16  43  1   
 42  16  44  1   
 43  17  22  1   
 44  17  45  1   
 45  17  46  1   
 46  18  20  am  
 47  18  47  1   
 48  19  23  1   
 49  19  48  1   
 50  19  49  1   
 51  20  24  2   
 52  21  23  1   
 53  21  50  1   
 54  21  51  1   
 55  22  52  1   
 56  22  53  1   
@<TRIPOS>SUBSTRUCTURE
  1 ****   1 GROUP 4 **** **** 0

# MOE 2024.06 (io_trps.svl 2023.06)
