@<TRIPOS>MOLECULE
NONAME
54 57 1 0 0 
SMALL
USER_CHARGES


@<TRIPOS>ATOM
  1 O       -2.2670     0.1930     1.3130 O.2   1 <1>  -0.5700 
  2 C       -2.1230     0.5030     0.1540 C.2   1 <1>   0.5690 
  3 N       -2.1680    -0.4390    -0.8330 N.am  1 <1>  -0.7300 
  4 C       -1.8860     1.9800    -0.2530 C.3   1 <1>   0.0610 
  5 C       -2.3860    -1.9030    -0.6790 C.3   1 <1>   0.2200 
  6 C       -1.8340     2.9340     0.9800 C.3   1 <1>  -0.1600 
  7 C       -0.5590     2.0650    -1.0640 C.3   1 <1>  -0.1600 
  8 C       -3.0580     2.4510    -1.1420 C.3   1 <1>  -0.2400 
  9 C       -3.7020    -2.2310     0.0340 C.3   1 <1>  -0.0800 
 10 C       -1.3170    -2.5880     0.1780 C.3   1 <1>   0.1200 
 11 C       -0.4250     3.0260     1.5780 C.3   1 <1>  -0.1600 
 12 C        0.1680     3.4060    -0.8970 C.3   1 <1>  -0.1600 
 13 C       -3.2300    -2.9730     1.2850 C.3   1 <1>   0.1200 
 14 C       -4.6160    -3.0980    -0.8520 C.3   1 <1>  -0.0170 
 15 O       -2.0080    -3.5300     0.9330 O.3   1 <1>  -0.5600 
 16 C        0.5670     3.6390     0.5720 C.3   1 <1>  -0.1600 
 17 C       -5.9470    -3.4120    -0.1760 C.ar  1 <1>  -0.1440 
 18 C       -6.9840    -2.4560    -0.0570 C.ar  1 <1>   0.0000 
 19 C       -6.1730    -4.6530     0.3420 C.ar  1 <1>  -0.1500 
 20 C       -8.1740    -2.8550     0.6010 C.ar  1 <1>   0.3100 
 21 C       -6.9140    -1.1330    -0.5520 C.ar  1 <1>  -0.1500 
 22 C       -7.3900    -4.9460     0.9690 C.ar  1 <1>   0.1600 
 23 N       -8.3610    -4.1010     1.1060 N.ar  1 <1>  -0.6200 
 24 C       -9.2170    -1.9260     0.7410 C.ar  1 <1>  -0.1500 
 25 C       -7.9500    -0.2520    -0.4000 C.ar  1 <1>  -0.1500 
 26 C       -9.1170    -0.6500     0.2550 C.ar  1 <1>  -0.1500 
 27 H       -2.0140    -0.1250    -1.7910 H     1 <1>   0.3700 
 28 H       -2.3700    -2.3530    -1.6560 H     1 <1>   0.0800 
 29 H       -2.1290     3.9280     0.6930 H     1 <1>   0.0800 
 30 H       -2.5320     2.6150     1.7340 H     1 <1>   0.0800 
 31 H        0.1120     1.2950    -0.7220 H     1 <1>   0.0800 
 32 H       -0.7420     1.8820    -2.1090 H     1 <1>   0.0800 
 33 H       -2.9080     3.4660    -1.4650 H     1 <1>   0.0800 
 34 H       -3.9800     2.4020    -0.5890 H     1 <1>   0.0800 
 35 H       -3.1580     1.8340    -2.0160 H     1 <1>   0.0800 
 36 H       -4.2260    -1.3420     0.3350 H     1 <1>   0.0800 
 37 H       -0.8470    -1.9000     0.8590 H     1 <1>   0.0800 
 38 H       -0.5780    -3.0950    -0.4170 H     1 <1>   0.0800 
 39 H       -0.4420     3.6180     2.4760 H     1 <1>   0.0800 
 40 H       -0.0990     2.0350     1.8490 H     1 <1>   0.0800 
 41 H        1.0470     3.4320    -1.5170 H     1 <1>   0.0800 
 42 H       -0.4810     4.2020    -1.2220 H     1 <1>   0.0800 
 43 H       -3.8980    -3.7510     1.6080 H     1 <1>   0.0800 
 44 H       -3.0590    -2.2820     2.0950 H     1 <1>   0.0800 
 45 H       -4.1060    -4.0180    -1.0850 H     1 <1>   0.0800 
 46 H       -4.8040    -2.5990    -1.7860 H     1 <1>   0.0800 
 47 H        1.5410     3.2160     0.7520 H     1 <1>   0.0800 
 48 H        0.6410     4.6990     0.7420 H     1 <1>   0.0800 
 49 H       -5.4320    -5.4300     0.2860 H     1 <1>   0.1500 
 50 H       -6.0280    -0.8060    -1.0600 H     1 <1>   0.1500 
 51 H       -7.5250    -5.9390     1.3640 H     1 <1>   0.1500 
 52 H      -10.1050    -2.2550     1.2470 H     1 <1>   0.1500 
 53 H       -7.8820     0.7530    -0.7790 H     1 <1>   0.1500 
 54 H       -9.9260     0.0510     0.3710 H     1 <1>   0.1500 
@<TRIPOS>BOND
  1   1   2  2   
  2   2   3  am  
  3   2   4  1   
  4   3   5  1   
  5   3  27  1   
  6   4   6  1   
  7   4   7  1   
  8   4   8  1   
  9   5   9  1   
 10   5  10  1   
 11   5  28  1   
 12   6  11  1   
 13   6  29  1   
 14   6  30  1   
 15   7  12  1   
 16   7  31  1   
 17   7  32  1   
 18   8  33  1   
 19   8  34  1   
 20   8  35  1   
 21   9  13  1   
 22   9  14  1   
 23   9  36  1   
 24  10  15  1   
 25  10  37  1   
 26  10  38  1   
 27  11  16  1   
 28  11  39  1   
 29  11  40  1   
 30  12  16  1   
 31  12  41  1   
 32  12  42  1   
 33  13  15  1   
 34  13  43  1   
 35  13  44  1   
 36  14  17  1   
 37  14  45  1   
 38  14  46  1   
 39  16  47  1   
 40  16  48  1   
 41  17  18  ar  
 42  17  19  ar  
 43  18  20  ar  
 44  18  21  ar  
 45  19  22  ar  
 46  19  49  1   
 47  20  23  ar  
 48  20  24  ar  
 49  21  25  ar  
 50  21  50  1   
 51  22  23  ar  
 52  22  51  1   
 53  24  26  ar  
 54  24  52  1   
 55  25  26  ar  
 56  25  53  1   
 57  26  54  1   
@<TRIPOS>SUBSTRUCTURE
  1 ****   9 GROUP 4 **** **** 0

# MOE 2024.06 (io_trps.svl 2023.06)
