@<TRIPOS>MOLECULE
NONAME
54 57 1 0 0 
SMALL
USER_CHARGES


@<TRIPOS>ATOM
  1 O       -0.4780     0.6660     0.8580 O.2   1 <1>  -0.5700 
  2 C       -0.4160     1.8730     0.8550 C.2   1 <1>   0.5690 
  3 N       -1.5250     2.6650     0.9900 N.am  1 <1>  -0.6600 
  4 C        0.9590     2.5200     0.6620 C.3   1 <1>   0.1810 
  5 C       -1.4180     4.1610     0.9480 C.3   1 <1>   0.3640 
  6 C       -2.8670     2.1110     1.3340 C.3   1 <1>   0.0600 
  7 O        1.0110     3.8530     1.1070 O.3   1 <1>  -0.5600 
  8 C       -2.4710     4.7780     0.0110 C.ar  1 <1>  -0.1440 
  9 C       -0.0060     4.6770     0.5720 C.3   1 <1>   0.2610 
 10 C       -2.7160     4.3650    -1.3040 C.ar  1 <1>  -0.1440 
 11 C       -3.2130     5.8330     0.5300 C.ar  1 <1>  -0.1500 
 12 C        0.2020     6.1320     1.0110 C.2   1 <1>   0.5690 
 13 C       -3.6920     5.0110    -2.0490 C.ar  1 <1>  -0.1500 
 14 C       -1.9770     3.2180    -1.9880 C.3   1 <1>  -0.0960 
 15 C       -4.1810     6.4690    -0.2230 C.ar  1 <1>  -0.1500 
 16 O       -0.3920     6.5730     1.9710 O.2   1 <1>  -0.5700 
 17 N        1.0700     6.9130     0.3070 N.am  1 <1>  -0.5100 
 18 C       -4.4220     6.0560    -1.5170 C.ar  1 <1>  -0.1500 
 19 C        2.3150     6.5200    -0.4300 C.3   1 <1>   0.2250 
 20 C        1.7320     8.1750     0.7630 C.3   1 <1>   0.2250 
 21 C        3.0820     7.4710     0.5170 C.3   1 <1>   0.0850 
 22 N        4.0620     8.3450    -0.1580 N.pl3 1 <1>   0.4850 
 23 N        4.5270     8.0960    -1.4010 N.2   1 <1>  -0.7070 
 24 C        4.6510     9.4480     0.3660 C.2   1 <1>  -0.3320 
 25 C        5.3790     9.0410    -1.6390 C.2   1 <1>   0.1080 
 26 C        5.5010     9.9200    -0.5700 C.2   1 <1>  -0.1500 
 27 C        4.3900    10.0140     1.7540 C.3   1 <1>  -0.0600 
 28 C        6.1360     9.1390    -2.9420 C.3   1 <1>  -0.0590 
 29 H        1.2240     2.4960    -0.3790 H     1 <1>   0.0800 
 30 H        1.6900     1.9630     1.2180 H     1 <1>   0.0800 
 31 H       -1.6240     4.4940     1.9500 H     1 <1>   0.0800 
 32 H       -3.2100     2.5380     2.2600 H     1 <1>   0.0800 
 33 H       -2.8210     1.0420     1.4440 H     1 <1>   0.0800 
 34 H       -3.5740     2.3460     0.5570 H     1 <1>   0.0800 
 35 H        0.0970     4.6570    -0.4960 H     1 <1>   0.0800 
 36 H       -3.0390     6.1780     1.5360 H     1 <1>   0.1500 
 37 H       -3.8970     4.7020    -3.0590 H     1 <1>   0.1500 
 38 H       -2.1220     3.2500    -3.0530 H     1 <1>   0.0800 
 39 H       -2.3520     2.2760    -1.6310 H     1 <1>   0.0800 
 40 H       -0.9230     3.2620    -1.8060 H     1 <1>   0.0800 
 41 H       -4.7440     7.2840     0.1980 H     1 <1>   0.1500 
 42 H       -5.1750     6.5470    -2.1090 H     1 <1>   0.1500 
 43 H        2.5610     5.4830    -0.2950 H     1 <1>   0.0000 
 44 H        2.2540     6.8350    -1.4570 H     1 <1>   0.0000 
 45 H        1.5220     8.9860     0.0880 H     1 <1>   0.0000 
 46 H        1.5350     8.3880     1.7980 H     1 <1>   0.0000 
 47 H        3.4850     6.9850     1.3890 H     1 <1>   0.0000 
 48 H        6.1470    10.7790    -0.5280 H     1 <1>   0.1500 
 49 H        5.0430    10.8470     1.9420 H     1 <1>   0.0800 
 50 H        4.5720     9.2650     2.5040 H     1 <1>   0.0800 
 51 H        3.3740    10.3560     1.8370 H     1 <1>   0.0800 
 52 H        6.7830     9.9960    -2.9390 H     1 <1>   0.0800 
 53 H        5.4390     9.2250    -3.7550 H     1 <1>   0.0800 
 54 H        6.7260     8.2520    -3.0810 H     1 <1>   0.0800 
@<TRIPOS>BOND
  1   1   2  2   
  2   2   3  am  
  3   2   4  1   
  4   3   5  1   
  5   3   6  1   
  6   4   7  1   
  7   4  29  1   
  8   4  30  1   
  9   5   8  1   
 10   5   9  1   
 11   5  31  1   
 12   6  32  1   
 13   6  33  1   
 14   6  34  1   
 15   7   9  1   
 16   8  10  ar  
 17   8  11  ar  
 18   9  12  1   
 19   9  35  1   
 20  10  13  ar  
 21  10  14  1   
 22  11  15  ar  
 23  11  36  1   
 24  12  16  2   
 25  12  17  am  
 26  13  18  ar  
 27  13  37  1   
 28  14  38  1   
 29  14  39  1   
 30  14  40  1   
 31  15  18  ar  
 32  15  41  1   
 33  17  19  1   
 34  17  20  1   
 35  18  42  1   
 36  19  21  1   
 37  19  43  1   
 38  19  44  1   
 39  20  21  1   
 40  20  45  1   
 41  20  46  1   
 42  21  22  1   
 43  21  47  1   
 44  22  23  1   
 45  22  24  1   
 46  23  25  2   
 47  24  26  2   
 48  24  27  1   
 49  25  26  1   
 50  25  28  1   
 51  26  48  1   
 52  27  49  1   
 53  27  50  1   
 54  27  51  1   
 55  28  52  1   
 56  28  53  1   
 57  28  54  1   
@<TRIPOS>SUBSTRUCTURE
  1 ****  12 GROUP 4 **** **** 0

# MOE 2024.06 (io_trps.svl 2023.06)
