@<TRIPOS>MOLECULE
NONAME
48 51 1 0 0 
SMALL
USER_CHARGES


@<TRIPOS>ATOM
  1 O       -2.0100    -0.4750     1.1250 O.co2 1 <1>  -0.9000 
  2 C       -1.3730    -1.3170     0.4620 C.2   1 <1>   0.9790 
  3 O       -0.8350    -0.9440    -0.5970 O.co2 1 <1>  -0.9000 
  4 C       -1.1670    -2.6430     0.9750 C.ar  1 <1>  -0.1790 
  5 C       -2.0340    -3.7090     0.6830 C.ar  1 <1>   0.4100 
  6 C       -0.0660    -2.8900     1.7810 C.ar  1 <1>  -0.1500 
  7 N       -1.8420    -4.9510     1.1370 N.ar  1 <1>  -0.6200 
  8 N       -3.1650    -3.5530    -0.0980 N.pl3 1 <1>  -0.8380 
  9 C        0.1240    -4.1680     2.2510 C.ar  1 <1>  -0.1500 
 10 C       -0.7840    -5.1460     1.8980 C.ar  1 <1>   0.1600 
 11 C       -4.3000    -2.7280     0.4240 C.3   1 <1>   0.2090 
 12 C       -3.5680    -4.6360    -1.0280 C.3   1 <1>   0.2090 
 13 C       -5.1310    -2.1200    -0.7250 C.3   1 <1>   0.1430 
 14 C       -4.3740    -4.0540    -2.1940 C.3   1 <1>  -0.1600 
 15 C       -6.3050    -1.3600    -0.1310 C.ar  1 <1>   0.1670 
 16 C       -5.5780    -3.2320    -1.7000 C.3   1 <1>  -0.1600 
 17 C       -4.3570    -0.9920    -1.4550 C.3   1 <1>  -0.1600 
 18 N       -7.4040    -1.8920     0.3500 N.ar  1 <1>  -0.6200 
 19 C       -6.0820    -0.0160    -0.1490 C.ar  1 <1>  -0.1430 
 20 C       -4.7420     0.3210    -0.7560 C.3   1 <1>  -0.0170 
 21 C       -8.2990    -1.0200     0.8230 C.ar  1 <1>   0.7200 
 22 C       -7.0550     0.8010     0.3640 C.ar  1 <1>   0.1600 
 23 N       -8.1740     0.3120     0.8480 N.ar  1 <1>  -0.6200 
 24 N       -9.4700    -1.5470     1.3360 N.pl3 1 <1>  -0.8380 
 25 C       -9.5930    -2.9860     1.6970 C.3   1 <1>   0.1290 
 26 C      -10.6550    -0.6960     1.6310 C.3   1 <1>   0.1290 
 27 H        0.6120    -2.0890     2.0200 H     1 <1>   0.1500 
 28 H        0.9640    -4.4010     2.8770 H     1 <1>   0.1500 
 29 H       -0.6320    -6.1450     2.2650 H     1 <1>   0.1500 
 30 H       -3.9360    -1.9470     1.0650 H     1 <1>   0.0800 
 31 H       -4.9350    -3.3600     1.0190 H     1 <1>   0.0800 
 32 H       -4.1570    -5.3570    -0.4890 H     1 <1>   0.0800 
 33 H       -2.6870    -5.1280    -1.4030 H     1 <1>   0.0800 
 34 H       -4.7160    -4.8570    -2.8210 H     1 <1>   0.0800 
 35 H       -3.7200    -3.4330    -2.7810 H     1 <1>   0.0800 
 36 H       -6.1050    -2.8030    -2.5330 H     1 <1>   0.0800 
 37 H       -6.2590    -3.8880    -1.1870 H     1 <1>   0.0800 
 38 H       -4.6790    -0.9340    -2.4780 H     1 <1>   0.0800 
 39 H       -3.2930    -1.1490    -1.4480 H     1 <1>   0.0800 
 40 H       -4.7980     1.1380    -1.4530 H     1 <1>   0.0800 
 41 H       -4.0360     0.5550     0.0220 H     1 <1>   0.0800 
 42 H       -6.9120     1.8670     0.3760 H     1 <1>   0.1500 
 43 H       -8.6310    -3.3920     1.9590 H     1 <1>   0.0800 
 44 H       -9.9860    -3.5330     0.8590 H     1 <1>   0.0800 
 45 H      -10.2500    -3.1020     2.5410 H     1 <1>   0.0800 
 46 H      -10.6960     0.1380     0.9520 H     1 <1>   0.0800 
 47 H      -10.5870    -0.3230     2.6380 H     1 <1>   0.0800 
 48 H      -11.5590    -1.2680     1.5200 H     1 <1>   0.0800 
@<TRIPOS>BOND
  1   1   2  ar  
  2   2   3  ar  
  3   2   4  1   
  4   4   5  ar  
  5   4   6  ar  
  6   5   7  ar  
  7   5   8  1   
  8   6   9  ar  
  9   6  27  1   
 10   7  10  ar  
 11   8  11  1   
 12   8  12  1   
 13   9  10  ar  
 14   9  28  1   
 15  10  29  1   
 16  11  13  1   
 17  11  30  1   
 18  11  31  1   
 19  12  14  1   
 20  12  32  1   
 21  12  33  1   
 22  13  15  1   
 23  13  16  1   
 24  13  17  1   
 25  14  16  1   
 26  14  34  1   
 27  14  35  1   
 28  15  18  ar  
 29  15  19  ar  
 30  16  36  1   
 31  16  37  1   
 32  17  20  1   
 33  17  38  1   
 34  17  39  1   
 35  18  21  ar  
 36  19  20  1   
 37  19  22  ar  
 38  20  40  1   
 39  20  41  1   
 40  21  23  ar  
 41  21  24  1   
 42  22  23  ar  
 43  22  42  1   
 44  24  25  1   
 45  24  26  1   
 46  25  43  1   
 47  25  44  1   
 48  25  45  1   
 49  26  46  1   
 50  26  47  1   
 51  26  48  1   
@<TRIPOS>SUBSTRUCTURE
  1 ****  11 GROUP 4 **** **** 0

# MOE 2024.06 (io_trps.svl 2023.06)
