@<TRIPOS>MOLECULE
NONAME
53 56 1 0 0 
SMALL
USER_CHARGES


@<TRIPOS>ATOM
  1 O        1.1020    -0.0730     1.9680 O.2   1 <1>  -0.5700 
  2 C        1.6570    -0.5440     0.9940 C.2   1 <1>   0.7150 
  3 N        2.4660     0.2740     0.2280 N.am  1 <1>  -0.6600 
  4 C        1.5120    -1.9390     0.6840 C.2   1 <1>  -0.2370 
  5 C        3.0600     1.5070     0.8400 C.3   1 <1>   0.1400 
  6 C        2.8390    -0.0890    -1.1750 C.3   1 <1>   0.1400 
  7 N        2.6050    -2.7610     0.6800 N.pl3 1 <1>   0.0330 
  8 C        0.4220    -2.6950     0.3590 C.2   1 <1>  -0.1810 
  9 C        4.5990     1.4440     1.0310 C.3   1 <1>   0.4230 
 10 C        4.3500    -0.0180    -1.4770 C.3   1 <1>  -0.0800 
 11 C        2.2280    -4.0220     0.3230 C.ar  1 <1>  -0.1520 
 12 C        0.8490    -4.0230     0.1120 C.ar  1 <1>   0.0000 
 13 C       -1.0050    -2.1830     0.2830 C.3   1 <1>  -0.0590 
 14 N        5.3810     1.8990    -0.1770 N.4   1 <1>  -0.9590 
 15 C        5.1290     0.0720     1.5320 C.3   1 <1>   0.1200 
 16 C        5.2500    -0.9750    -0.6630 C.3   1 <1>   0.1200 
 17 C        4.8350     1.4330    -1.4860 C.3   1 <1>   0.3430 
 18 C        3.0060    -5.1730     0.1700 C.ar  1 <1>  -0.1430 
 19 C        0.2260    -5.2270    -0.2730 C.ar  1 <1>  -0.1430 
 20 C        5.5510     3.3870    -0.1890 C.3   1 <1>   0.2630 
 21 O        4.8990    -1.0310     0.6870 O.3   1 <1>  -0.5600 
 22 C        2.3770    -6.3340    -0.2080 C.ar  1 <1>  -0.1500 
 23 C        4.5030    -5.1270     0.4230 C.3   1 <1>  -0.0970 
 24 C        0.9950    -6.3580    -0.4270 C.ar  1 <1>  -0.1500 
 25 C       -1.2720    -5.2950    -0.5160 C.3   1 <1>  -0.0970 
 26 H        2.7860     2.3650     0.2540 H     1 <1>   0.0800 
 27 H        2.6320     1.6590     1.8160 H     1 <1>   0.0800 
 28 H        2.4920    -1.0820    -1.4100 H     1 <1>   0.0800 
 29 H        2.3110     0.5740    -1.8400 H     1 <1>   0.0800 
 30 H        3.5660    -2.4540     0.8850 H     1 <1>   0.2700 
 31 H        4.8210     2.1420     1.8220 H     1 <1>   0.0800 
 32 H        4.4410    -0.3390    -2.5000 H     1 <1>   0.0800 
 33 H       -1.6210    -2.7180     0.9820 H     1 <1>   0.0800 
 34 H       -1.3930    -2.3140    -0.7100 H     1 <1>   0.0800 
 35 H       -1.0470    -1.1380     0.5320 H     1 <1>   0.0800 
 36 H        6.3140     1.4750    -0.0770 H     1 <1>   0.4500 
 37 H        4.6450    -0.1600     2.4660 H     1 <1>   0.0800 
 38 H        6.1860     0.1280     1.7220 H     1 <1>   0.0800 
 39 H        6.2930    -0.7220    -0.7450 H     1 <1>   0.0800 
 40 H        5.1240    -1.9740    -1.0450 H     1 <1>   0.0800 
 41 H        4.0140     2.0650    -1.7830 H     1 <1>   0.0800 
 42 H        5.6040     1.5340    -2.2350 H     1 <1>   0.0800 
 43 H        4.5940     3.8740    -0.2890 H     1 <1>   0.0800 
 44 H        6.1760     3.6860    -1.0160 H     1 <1>   0.0800 
 45 H        6.0140     3.7210     0.7250 H     1 <1>   0.0800 
 46 H        2.9340    -7.2450    -0.3380 H     1 <1>   0.1500 
 47 H        4.9420    -6.0990     0.2880 H     1 <1>   0.0800 
 48 H        4.6920    -4.8050     1.4310 H     1 <1>   0.0800 
 49 H        4.9700    -4.4430    -0.2600 H     1 <1>   0.0800 
 50 H        0.5450    -7.2890    -0.7200 H     1 <1>   0.1500 
 51 H       -1.5700    -6.2880    -0.7970 H     1 <1>   0.0800 
 52 H       -1.5450    -4.6240    -1.3090 H     1 <1>   0.0800 
 53 H       -1.8000    -5.0250     0.3800 H     1 <1>   0.0800 
@<TRIPOS>BOND
  1   1   2  2   
  2   2   3  am  
  3   2   4  1   
  4   3   5  1   
  5   3   6  1   
  6   4   7  1   
  7   4   8  2   
  8   5   9  1   
  9   5  26  1   
 10   5  27  1   
 11   6  10  1   
 12   6  28  1   
 13   6  29  1   
 14   7  11  1   
 15   7  30  1   
 16   8  12  1   
 17   8  13  1   
 18   9  14  1   
 19   9  15  1   
 20   9  31  1   
 21  10  16  1   
 22  10  17  1   
 23  10  32  1   
 24  11  12  ar  
 25  11  18  ar  
 26  12  19  ar  
 27  13  33  1   
 28  13  34  1   
 29  13  35  1   
 30  14  17  1   
 31  14  20  1   
 32  14  36  1   
 33  15  21  1   
 34  15  37  1   
 35  15  38  1   
 36  16  21  1   
 37  16  39  1   
 38  16  40  1   
 39  17  41  1   
 40  17  42  1   
 41  18  22  ar  
 42  18  23  1   
 43  19  24  ar  
 44  19  25  1   
 45  20  43  1   
 46  20  44  1   
 47  20  45  1   
 48  22  24  ar  
 49  22  46  1   
 50  23  47  1   
 51  23  48  1   
 52  23  49  1   
 53  24  50  1   
 54  25  51  1   
 55  25  52  1   
 56  25  53  1   
@<TRIPOS>SUBSTRUCTURE
  1 ****   7 GROUP 4 **** **** 0

# MOE 2024.06 (io_trps.svl 2023.06)
