@<TRIPOS>MOLECULE
NONAME
45 46 1 0 0 
SMALL
USER_CHARGES


@<TRIPOS>ATOM
  1 S       -0.9240     0.7830     1.5770 S.o2  1 <1>   1.4470 
  2 O       -1.5920     2.0020     1.9880 O.2   1 <1>  -0.6500 
  3 O       -0.8990    -0.3310     2.4990 O.2   1 <1>  -0.6500 
  4 N       -1.6600     0.3000     0.1230 N.am  1 <1>  -0.8490 
  5 C        0.7710     1.2050     1.0800 C.ar  1 <1>  -0.0090 
  6 C       -1.0570    -0.8600    -0.5660 C.3   1 <1>   0.1960 
  7 C       -3.1240     0.2410     0.1660 C.3   1 <1>   0.1960 
  8 C        1.0720     2.4380     0.5210 C.ar  1 <1>  -0.1500 
  9 C        1.8100     0.2950     1.2170 C.ar  1 <1>  -0.1500 
 10 C       -1.5270    -2.2090    -0.0100 C.3   1 <1>  -0.1860 
 11 C       -3.6320    -1.0690     0.7740 C.3   1 <1>  -0.1600 
 12 C        2.3590     2.7520     0.1200 C.ar  1 <1>  -0.1500 
 13 C        3.0980     0.6030     0.8150 C.ar  1 <1>  -0.1500 
 14 C       -0.9770    -3.3420    -0.8490 C.2   1 <1>   0.9060 
 15 C       -3.0530    -2.2540     0.0080 C.3   1 <1>   0.2000 
 16 C        3.4000     1.8410     0.2560 C.ar  1 <1>  -0.1440 
 17 O       -0.1500    -3.0990    -1.7330 O.co2 1 <1>  -0.9000 
 18 O       -1.3870    -4.4890    -0.6270 O.co2 1 <1>  -0.9000 
 19 O       -3.4590    -3.4160     0.6230 O.3   1 <1>  -0.6800 
 20 C        4.8180     2.2290    -0.2160 C.3   1 <1>   0.1430 
 21 C        5.2970     3.4700     0.5520 C.3   1 <1>  -0.2400 
 22 C        4.7870     2.5380    -1.7200 C.3   1 <1>  -0.2400 
 23 C        5.8560     1.1150     0.0070 C.3   1 <1>  -0.2400 
 24 H       -1.3290    -0.8110    -1.6080 H     1 <1>   0.0800 
 25 H        0.0180    -0.8080    -0.5280 H     1 <1>   0.0800 
 26 H       -3.5150     1.0780     0.7200 H     1 <1>   0.0800 
 27 H       -3.4950     0.3210    -0.8420 H     1 <1>   0.0800 
 28 H        0.2850     3.1630     0.3980 H     1 <1>   0.1500 
 29 H        1.6060    -0.6750     1.6400 H     1 <1>   0.1500 
 30 H       -1.1460    -2.3390     0.9830 H     1 <1>   0.0800 
 31 H       -4.7040    -1.0970     0.7130 H     1 <1>   0.0800 
 32 H       -3.3470    -1.1250     1.8090 H     1 <1>   0.0800 
 33 H        2.5380     3.7220    -0.3070 H     1 <1>   0.1500 
 34 H        3.8480    -0.1540     0.9470 H     1 <1>   0.1500 
 35 H       -3.4280    -2.2710    -1.0020 H     1 <1>   0.0800 
 36 H       -2.8410    -4.1270     0.2810 H     1 <1>   0.4000 
 37 H        6.2980     3.7330     0.2620 H     1 <1>   0.0800 
 38 H        5.2860     3.2730     1.6090 H     1 <1>   0.0800 
 39 H        4.6620     4.3140     0.3600 H     1 <1>   0.0800 
 40 H        5.7730     2.7690    -2.0820 H     1 <1>   0.0800 
 41 H        4.1500     3.3760    -1.9310 H     1 <1>   0.0800 
 42 H        4.4150     1.6860    -2.2620 H     1 <1>   0.0800 
 43 H        6.8260     1.4270    -0.3360 H     1 <1>   0.0800 
 44 H        5.5800     0.2280    -0.5360 H     1 <1>   0.0800 
 45 H        5.9330     0.8760     1.0530 H     1 <1>   0.0800 
@<TRIPOS>BOND
  1   1   2  2   
  2   1   3  2   
  3   1   4  am  
  4   1   5  1   
  5   4   6  1   
  6   4   7  1   
  7   5   8  ar  
  8   5   9  ar  
  9   6  10  1   
 10   6  24  1   
 11   6  25  1   
 12   7  11  1   
 13   7  26  1   
 14   7  27  1   
 15   8  12  ar  
 16   8  28  1   
 17   9  13  ar  
 18   9  29  1   
 19  10  14  1   
 20  10  15  1   
 21  10  30  1   
 22  11  15  1   
 23  11  31  1   
 24  11  32  1   
 25  12  16  ar  
 26  12  33  1   
 27  13  16  ar  
 28  13  34  1   
 29  14  17  ar  
 30  14  18  ar  
 31  15  19  1   
 32  15  35  1   
 33  16  20  1   
 34  19  36  1   
 35  20  21  1   
 36  20  22  1   
 37  20  23  1   
 38  21  37  1   
 39  21  38  1   
 40  21  39  1   
 41  22  40  1   
 42  22  41  1   
 43  22  42  1   
 44  23  43  1   
 45  23  44  1   
 46  23  45  1   
@<TRIPOS>SUBSTRUCTURE
  1 ****   5 GROUP 4 **** **** 0

# MOE 2024.06 (io_trps.svl 2023.06)
