@<TRIPOS>MOLECULE
NONAME
56 60 1 0 0 
SMALL
USER_CHARGES


@<TRIPOS>ATOM
  1 N        1.3690     1.0920     1.6330 N.ar  1 <1>  -0.6200 
  2 C        0.7120     2.1590     2.0720 C.ar  1 <1>   0.7200 
  3 C        1.7660     1.1980     0.3900 C.ar  1 <1>   0.1660 
  4 N        0.4120     3.2710     1.4170 N.ar  1 <1>  -0.6200 
  5 N        0.2830     2.1010     3.3330 N.pl3 1 <1>  -0.9000 
  6 C        1.5320     2.2910    -0.3890 C.ar  1 <1>  -0.1430 
  7 C        2.5560     0.1410    -0.3420 C.3   1 <1>   0.1430 
  8 C        0.8320     3.3310     0.1730 C.ar  1 <1>   0.1600 
  9 C        2.1230     2.1290    -1.7670 C.3   1 <1>  -0.0170 
 10 C        3.7110    -0.3000     0.5720 C.3   1 <1>   0.3430 
 11 C        1.6540    -1.0610    -0.6890 C.3   1 <1>  -0.1600 
 12 C        3.0400     0.8990    -1.6090 C.3   1 <1>  -0.1600 
 13 N        4.4850    -1.4600    -0.0020 N.4   1 <1>  -0.9590 
 14 C        2.4690    -2.2700    -1.1830 C.3   1 <1>  -0.1600 
 15 C        3.5960    -2.6400    -0.2140 C.3   1 <1>   0.3430 
 16 C        5.6620    -1.8050     0.8470 C.3   1 <1>   0.4860 
 17 C        6.6300    -0.6460     0.8420 C.ar  1 <1>  -0.1430 
 18 C        7.4630    -0.4090    -0.2250 C.ar  1 <1>   0.1600 
 19 C        6.7150     0.2290     1.8980 C.ar  1 <1>   0.1600 
 20 N        8.2760     0.6140    -0.2590 N.ar  1 <1>  -0.6200 
 21 N        7.5210     1.2580     1.8830 N.ar  1 <1>  -0.6200 
 22 C        8.2890     1.4300     0.8010 C.ar  1 <1>   0.6200 
 23 C        9.1890     2.5760     0.7740 C.ar  1 <1>   0.0000 
 24 C       10.3370     2.5900    -0.0260 C.ar  1 <1>  -0.1500 
 25 C        8.9480     3.7180     1.5440 C.ar  1 <1>  -0.1500 
 26 C       11.1960     3.6750    -0.0620 C.ar  1 <1>  -0.1430 
 27 C        9.7980     4.8070     1.5150 C.ar  1 <1>  -0.1500 
 28 C       10.9220     4.7870     0.7120 C.ar  1 <1>  -0.1500 
 29 C       12.4310     3.6520    -0.9450 C.3   1 <1>  -0.0970 
 30 H       -0.4050     2.8100     3.5760 H     1 <1>   0.4000 
 31 H        0.1180     1.1740     3.7100 H     1 <1>   0.4000 
 32 H        0.6160     4.2190    -0.3980 H     1 <1>   0.1500 
 33 H        2.6760     3.0030    -2.0690 H     1 <1>   0.0800 
 34 H        1.3360     1.9340    -2.4760 H     1 <1>   0.0800 
 35 H        3.2960    -0.5800     1.5270 H     1 <1>   0.0800 
 36 H        4.3610     0.5450     0.7320 H     1 <1>   0.0800 
 37 H        0.9250    -0.7760    -1.4300 H     1 <1>   0.0800 
 38 H        1.1080    -1.3520     0.1940 H     1 <1>   0.0800 
 39 H        3.0230     0.2920    -2.4970 H     1 <1>   0.0800 
 40 H        4.0450     1.2560    -1.4590 H     1 <1>   0.0800 
 41 H        4.8360    -1.1610    -0.9210 H     1 <1>   0.4500 
 42 H        2.8810    -2.0740    -2.1570 H     1 <1>   0.0800 
 43 H        1.8090    -3.1160    -1.2870 H     1 <1>   0.0800 
 44 H        3.1690    -2.9510     0.7260 H     1 <1>   0.0800 
 45 H        4.1600    -3.4650    -0.6210 H     1 <1>   0.0800 
 46 H        6.1550    -2.6820     0.4580 H     1 <1>   0.0800 
 47 H        5.3430    -2.0160     1.8560 H     1 <1>   0.0800 
 48 H        7.4690    -1.0650    -1.0810 H     1 <1>   0.1500 
 49 H        6.1070     0.0970     2.7800 H     1 <1>   0.1500 
 50 H       10.5600     1.7300    -0.6320 H     1 <1>   0.1500 
 51 H        8.0790     3.7570     2.1780 H     1 <1>   0.1500 
 52 H        9.5860     5.6730     2.1190 H     1 <1>   0.1500 
 53 H       11.5800     5.6390     0.6920 H     1 <1>   0.1500 
 54 H       12.6980     2.6430    -1.2030 H     1 <1>   0.0800 
 55 H       13.2620     4.1020    -0.4330 H     1 <1>   0.0800 
 56 H       12.2410     4.2020    -1.8500 H     1 <1>   0.0800 
@<TRIPOS>BOND
  1   1   2  ar  
  2   1   3  ar  
  3   2   4  ar  
  4   2   5  1   
  5   3   6  ar  
  6   3   7  1   
  7   4   8  ar  
  8   5  30  1   
  9   5  31  1   
 10   6   8  ar  
 11   6   9  1   
 12   7  10  1   
 13   7  11  1   
 14   7  12  1   
 15   8  32  1   
 16   9  12  1   
 17   9  33  1   
 18   9  34  1   
 19  10  13  1   
 20  10  35  1   
 21  10  36  1   
 22  11  14  1   
 23  11  37  1   
 24  11  38  1   
 25  12  39  1   
 26  12  40  1   
 27  13  15  1   
 28  13  16  1   
 29  13  41  1   
 30  14  15  1   
 31  14  42  1   
 32  14  43  1   
 33  15  44  1   
 34  15  45  1   
 35  16  17  1   
 36  16  46  1   
 37  16  47  1   
 38  17  18  ar  
 39  17  19  ar  
 40  18  20  ar  
 41  18  48  1   
 42  19  21  ar  
 43  19  49  1   
 44  20  22  ar  
 45  21  22  ar  
 46  22  23  1   
 47  23  24  ar  
 48  23  25  ar  
 49  24  26  ar  
 50  24  50  1   
 51  25  27  ar  
 52  25  51  1   
 53  26  28  ar  
 54  26  29  1   
 55  27  28  ar  
 56  27  52  1   
 57  28  53  1   
 58  29  54  1   
 59  29  55  1   
 60  29  56  1   
@<TRIPOS>SUBSTRUCTURE
  1 ****  10 GROUP 4 **** **** 0

# MOE 2024.06 (io_trps.svl 2023.06)
