@<TRIPOS>MOLECULE
NONAME
40 42 1 0 0 
SMALL
USER_CHARGES


@<TRIPOS>ATOM
  1 F       -1.3070     2.9720     0.7270 F     1 <1>  -0.3400 
  2 C       -0.5540     2.2980    -0.1320 C.3   1 <1>   1.1640 
  3 F       -1.1990     2.3170    -1.2910 F     1 <1>  -0.3400 
  4 F       -0.5580     1.0370     0.2790 F     1 <1>  -0.3400 
  5 C        0.8590     2.8650    -0.2190 C.ar  1 <1>  -0.1440 
  6 C        1.6460     2.8530     0.9200 C.ar  1 <1>   0.1600 
  7 C        1.3960     3.3960    -1.3830 C.ar  1 <1>  -0.1500 
  8 N        2.8860     3.3090     0.9930 N.ar  1 <1>  -0.6200 
  9 C        2.6840     3.8710    -1.3180 C.ar  1 <1>  -0.1500 
 10 C        3.3990     3.8080    -0.1230 C.ar  1 <1>   0.4100 
 11 N        4.7010     4.2790    -0.0540 N.pl3 1 <1>  -0.8380 
 12 C        5.2100     4.7130     1.2920 C.3   1 <1>   0.2090 
 13 C        5.7100     3.6990    -0.9820 C.3   1 <1>   0.2090 
 14 C        6.5090     5.5610     1.2810 C.3   1 <1>   0.4230 
 15 C        6.6740     4.7810    -1.5150 C.3   1 <1>  -0.0800 
 16 N        6.5610     6.6510     0.2290 N.4   1 <1>  -0.9590 
 17 C        7.7810     4.6820     1.1800 C.3   1 <1>   0.1200 
 18 C        8.1520     4.4910    -1.1680 C.3   1 <1>   0.1200 
 19 C        6.2150     6.2130    -1.1660 C.3   1 <1>   0.3430 
 20 C        5.7820     7.8600     0.6190 C.3   1 <1>   0.2630 
 21 O        8.5500     5.0330     0.0590 O.3   1 <1>  -0.5600 
 22 H        1.2370     2.4440     1.8300 H     1 <1>   0.1500 
 23 H        0.8360     3.4400    -2.3030 H     1 <1>   0.1500 
 24 H        3.1450     4.3000    -2.1860 H     1 <1>   0.1500 
 25 H        4.4410     5.2960     1.7680 H     1 <1>   0.0800 
 26 H        5.3580     3.8420     1.9070 H     1 <1>   0.0800 
 27 H        6.2460     2.9140    -0.4760 H     1 <1>   0.0800 
 28 H        5.2080     3.2360    -1.8140 H     1 <1>   0.0800 
 29 H        6.5610     6.0290     2.2500 H     1 <1>   0.0800 
 30 H        6.6090     4.6970    -2.5850 H     1 <1>   0.0800 
 31 H        7.5720     6.8630     0.1840 H     1 <1>   0.4500 
 32 H        7.5570     3.6300     1.1500 H     1 <1>   0.0800 
 33 H        8.3930     4.8550     2.0480 H     1 <1>   0.0800 
 34 H        8.7900     4.9330    -1.9160 H     1 <1>   0.0800 
 35 H        8.3530     3.4320    -1.1540 H     1 <1>   0.0800 
 36 H        5.1470     6.2670    -1.3020 H     1 <1>   0.0800 
 37 H        6.6640     6.9000    -1.8640 H     1 <1>   0.0800 
 38 H        4.7310     7.6230     0.6660 H     1 <1>   0.0800 
 39 H        5.9260     8.6460    -0.1050 H     1 <1>   0.0800 
 40 H        6.1020     8.2190     1.5830 H     1 <1>   0.0800 
@<TRIPOS>BOND
  1   1   2  1   
  2   2   3  1   
  3   2   4  1   
  4   2   5  1   
  5   5   6  ar  
  6   5   7  ar  
  7   6   8  ar  
  8   6  22  1   
  9   7   9  ar  
 10   7  23  1   
 11   8  10  ar  
 12   9  10  ar  
 13   9  24  1   
 14  10  11  1   
 15  11  12  1   
 16  11  13  1   
 17  12  14  1   
 18  12  25  1   
 19  12  26  1   
 20  13  15  1   
 21  13  27  1   
 22  13  28  1   
 23  14  16  1   
 24  14  17  1   
 25  14  29  1   
 26  15  18  1   
 27  15  19  1   
 28  15  30  1   
 29  16  19  1   
 30  16  20  1   
 31  16  31  1   
 32  17  21  1   
 33  17  32  1   
 34  17  33  1   
 35  18  21  1   
 36  18  34  1   
 37  18  35  1   
 38  19  36  1   
 39  19  37  1   
 40  20  38  1   
 41  20  39  1   
 42  20  40  1   
@<TRIPOS>SUBSTRUCTURE
  1 ****  10 GROUP 4 **** **** 0

# MOE 2024.06 (io_trps.svl 2023.06)
