@<TRIPOS>MOLECULE
NONAME
40 41 1 0 0 
SMALL
USER_CHARGES


@<TRIPOS>ATOM
  1 O       -0.2380     0.1290     0.1140 O.2   1 <1>  -0.5700 
  2 C       -1.2880     0.7170    -0.0760 C.2   1 <1>   0.7800 
  3 O       -2.4530     0.0940     0.1150 O.3   1 <1>  -0.4300 
  4 N       -1.3140     2.0470    -0.4240 N.am  1 <1>  -0.4230 
  5 C       -2.6680    -1.2560     0.4580 C.3   1 <1>   0.2800 
  6 C       -2.4600     2.7480    -0.9220 C.2   1 <1>   0.0630 
  7 C       -0.1590     2.8810     0.0450 C.3   1 <1>   0.1400 
  8 C       -2.1020    -2.1730    -0.6330 C.3   1 <1>  -0.2400 
  9 C       -4.1870    -1.4160     0.5140 C.3   1 <1>  -0.2400 
 10 C       -2.0790    -1.5550     1.8420 C.3   1 <1>  -0.2400 
 11 C       -3.6310     2.3700    -1.5980 C.2   1 <1>   0.3510 
 12 C       -2.5800     4.0880    -0.8360 C.2   1 <1>  -0.3320 
 13 C       -0.1370     4.3430    -0.4800 C.3   1 <1>   0.0000 
 14 O       -3.9910     1.1570    -2.0250 O.3   1 <1>  -0.5120 
 15 N       -4.4270     3.3510    -1.8670 N.2   1 <1>  -0.7070 
 16 N       -3.7710     4.4290    -1.3820 N.pl3 1 <1>   0.3000 
 17 C       -1.5180     5.0080    -0.2770 C.3   1 <1>   0.0200 
 18 C        0.2510     4.3540    -1.9730 C.3   1 <1>  -0.2400 
 19 C        0.9280     5.1430     0.2900 C.3   1 <1>  -0.2400 
 20 H        0.7590     2.3950    -0.2370 H     1 <1>   0.0800 
 21 H       -0.1950     2.9000     1.1200 H     1 <1>   0.0800 
 22 H       -2.4830    -1.8810    -1.5950 H     1 <1>   0.0800 
 23 H       -2.3910    -3.1900    -0.4440 H     1 <1>   0.0800 
 24 H       -1.0290    -2.1360    -0.6520 H     1 <1>   0.0800 
 25 H       -4.6180    -1.1880    -0.4450 H     1 <1>   0.0800 
 26 H       -4.6040    -0.7530     1.2500 H     1 <1>   0.0800 
 27 H       -4.4500    -2.4250     0.7740 H     1 <1>   0.0800 
 28 H       -1.0050    -1.5260     1.8220 H     1 <1>   0.0800 
 29 H       -2.3700    -2.5390     2.1590 H     1 <1>   0.0800 
 30 H       -2.4400    -0.8430     2.5620 H     1 <1>   0.0800 
 31 H       -4.8490     1.2850    -2.4590 H     1 <1>   0.4500 
 32 H       -4.1500     5.3810    -1.4620 H     1 <1>   0.2700 
 33 H       -1.7090     5.1630     0.7710 H     1 <1>   0.0800 
 34 H       -1.5440     5.9620    -0.7740 H     1 <1>   0.0800 
 35 H       -0.4540     3.7910    -2.5600 H     1 <1>   0.0800 
 36 H        1.2220     3.9140    -2.1150 H     1 <1>   0.0800 
 37 H        0.2760     5.3600    -2.3540 H     1 <1>   0.0800 
 38 H        0.7040     5.1610     1.3420 H     1 <1>   0.0800 
 39 H        0.9710     6.1580    -0.0650 H     1 <1>   0.0800 
 40 H        1.9000     4.6990     0.1610 H     1 <1>   0.0800 
@<TRIPOS>BOND
  1   1   2  2   
  2   2   3  1   
  3   2   4  am  
  4   3   5  1   
  5   4   6  1   
  6   4   7  1   
  7   5   8  1   
  8   5   9  1   
  9   5  10  1   
 10   6  11  1   
 11   6  12  2   
 12   7  13  1   
 13   7  20  1   
 14   7  21  1   
 15   8  22  1   
 16   8  23  1   
 17   8  24  1   
 18   9  25  1   
 19   9  26  1   
 20   9  27  1   
 21  10  28  1   
 22  10  29  1   
 23  10  30  1   
 24  11  14  1   
 25  11  15  2   
 26  12  16  1   
 27  12  17  1   
 28  13  17  1   
 29  13  18  1   
 30  13  19  1   
 31  14  31  1   
 32  15  16  1   
 33  16  32  1   
 34  17  33  1   
 35  17  34  1   
 36  18  35  1   
 37  18  36  1   
 38  18  37  1   
 39  19  38  1   
 40  19  39  1   
 41  19  40  1   
@<TRIPOS>SUBSTRUCTURE
  1 ****   4 GROUP 4 **** **** 0

# MOE 2024.06 (io_trps.svl 2023.06)
