@<TRIPOS>MOLECULE
NONAME
51 53 1 0 0 
SMALL
USER_CHARGES


@<TRIPOS>ATOM
  1 CL      -0.2830     1.3610    -1.3130 Cl    1 <1>  -0.1770 
  2 C       -1.9470     1.4510    -0.7990 C.ar  1 <1>   0.1770 
  3 C       -2.2550     2.0470     0.4090 C.ar  1 <1>  -0.1500 
  4 C       -2.9390     0.9280    -1.6060 C.ar  1 <1>  -0.1500 
  5 C       -3.5770     2.1160     0.8110 C.ar  1 <1>  -0.1500 
  6 C       -4.2580     1.0050    -1.1930 C.ar  1 <1>  -0.1500 
  7 C       -4.6060     1.5940     0.0240 C.ar  1 <1>   0.0530 
  8 C       -5.9740     1.6920     0.4640 C.2   1 <1>   0.0870 
  9 O       -6.4090     2.8350     0.9340 O.3   1 <1>  -0.0190 
 10 C       -7.0110     0.8110     0.5400 C.2   1 <1>  -0.0860 
 11 N       -7.6610     2.7940     1.3030 N.2   1 <1>  -0.4100 
 12 C       -8.0470     1.5970     1.0600 C.2   1 <1>   0.3720 
 13 C       -7.0850    -0.5880     0.2420 C.2   1 <1>   0.7160 
 14 N       -9.3580     1.2150     1.3030 N.pl3 1 <1>  -0.8520 
 15 O       -6.2990    -1.1230    -0.5140 O.2   1 <1>  -0.5700 
 16 N       -8.0410    -1.3600     0.8170 N.am  1 <1>  -0.7300 
 17 C      -10.2720     1.4260     0.1430 C.3   1 <1>   0.2090 
 18 C       -8.3210    -2.7930     0.5120 C.3   1 <1>   0.2840 
 19 C      -10.8450     0.0970    -0.3490 C.3   1 <1>   0.1200 
 20 C       -9.8190    -3.1100     0.5250 C.ar  1 <1>   0.4770 
 21 O      -11.7560     0.3510    -1.3720 O.3   1 <1>  -0.5600 
 22 N      -10.4950    -2.7250     1.6010 N.ar  1 <1>  -0.6200 
 23 N      -10.3030    -3.7340    -0.5400 N.ar  1 <1>  -0.6200 
 24 C      -12.2840    -0.8060    -1.9340 C.3   1 <1>   0.0400 
 25 C      -11.7760    -3.0110     1.6100 C.ar  1 <1>   0.1670 
 26 C      -11.5850    -4.0140    -0.5110 C.ar  1 <1>   0.1670 
 27 C      -12.3740    -3.6670     0.5600 C.ar  1 <1>  -0.1500 
 28 C      -12.5650    -2.5830     2.8280 C.3   1 <1>  -0.0970 
 29 C      -12.1570    -4.7390    -1.7100 C.3   1 <1>  -0.0970 
 30 H       -1.4680     2.4490     1.0210 H     1 <1>   0.1500 
 31 H       -2.6800     0.4690    -2.5420 H     1 <1>   0.1500 
 32 H       -3.8210     2.5810     1.7510 H     1 <1>   0.1500 
 33 H       -5.0310     0.6020    -1.8250 H     1 <1>   0.1500 
 34 H       -9.6990     1.8120     2.0650 H     1 <1>   0.4000 
 35 H       -8.7680    -0.8840     1.3690 H     1 <1>   0.3700 
 36 H       -9.7470     1.9040    -0.6680 H     1 <1>   0.0800 
 37 H      -11.0840     2.0640     0.4470 H     1 <1>   0.0800 
 38 H       -7.8390    -3.4060     1.2500 H     1 <1>   0.0800 
 39 H       -7.9140    -3.0460    -0.4520 H     1 <1>   0.0800 
 40 H      -11.3610    -0.4040     0.4510 H     1 <1>   0.0800 
 41 H      -10.0600    -0.5240    -0.7400 H     1 <1>   0.0800 
 42 H      -12.9490    -0.5190    -2.7290 H     1 <1>   0.0800 
 43 H      -12.8290    -1.3480    -1.1810 H     1 <1>   0.0800 
 44 H      -11.4840    -1.4090    -2.3280 H     1 <1>   0.0800 
 45 H      -13.4210    -3.9000     0.5780 H     1 <1>   0.1500 
 46 H      -12.4980    -1.5170     2.9450 H     1 <1>   0.0800 
 47 H      -12.1560    -3.0530     3.7040 H     1 <1>   0.0800 
 48 H      -13.5990    -2.8590     2.7360 H     1 <1>   0.0800 
 49 H      -11.9880    -4.1580    -2.5980 H     1 <1>   0.0800 
 50 H      -13.2120    -4.9050    -1.5970 H     1 <1>   0.0800 
 51 H      -11.6660    -5.6890    -1.8220 H     1 <1>   0.0800 
@<TRIPOS>BOND
  1   1   2  1   
  2   2   3  ar  
  3   2   4  ar  
  4   3   5  ar  
  5   3  30  1   
  6   4   6  ar  
  7   4  31  1   
  8   5   7  ar  
  9   5  32  1   
 10   6   7  ar  
 11   6  33  1   
 12   7   8  1   
 13   8   9  1   
 14   8  10  2   
 15   9  11  1   
 16  10  12  1   
 17  10  13  1   
 18  11  12  2   
 19  12  14  1   
 20  13  15  2   
 21  13  16  am  
 22  14  17  1   
 23  14  34  1   
 24  16  18  1   
 25  16  35  1   
 26  17  19  1   
 27  17  36  1   
 28  17  37  1   
 29  18  20  1   
 30  18  38  1   
 31  18  39  1   
 32  19  21  1   
 33  19  40  1   
 34  19  41  1   
 35  20  22  ar  
 36  20  23  ar  
 37  21  24  1   
 38  22  25  ar  
 39  23  26  ar  
 40  24  42  1   
 41  24  43  1   
 42  24  44  1   
 43  25  27  ar  
 44  25  28  1   
 45  26  27  ar  
 46  26  29  1   
 47  27  45  1   
 48  28  46  1   
 49  28  47  1   
 50  28  48  1   
 51  29  49  1   
 52  29  50  1   
 53  29  51  1   
@<TRIPOS>SUBSTRUCTURE
  1 ****  13 GROUP 4 **** **** 0

# MOE 2024.06 (io_trps.svl 2023.06)
