@<TRIPOS>MOLECULE
NONAME
52 54 1 0 0 
SMALL
USER_CHARGES


@<TRIPOS>ATOM
  1 O       -4.1730    -0.4680    -1.5950 O.2   1 <1>  -0.5700 
  2 C       -3.5520     0.3680    -0.9780 C.2   1 <1>   0.5690 
  3 N       -3.0160     0.0740     0.2580 N.am  1 <1>  -0.6600 
  4 C       -3.4230     1.7250    -1.6600 C.3   1 <1>  -0.0990 
  5 C       -2.3330     1.0060     1.2050 C.3   1 <1>   0.1400 
  6 C       -3.0790    -1.3300     0.7520 C.3   1 <1>   0.1400 
  7 C       -2.1470     2.5150    -1.3340 C.3   1 <1>  -0.1600 
  8 C       -2.8670     2.4380     1.1370 C.3   1 <1>  -0.1600 
  9 C       -4.3860    -1.5550     1.5090 C.3   1 <1>  -0.0990 
 10 C       -2.2460     3.2640     0.0010 C.3   1 <1>  -0.1600 
 11 C       -4.6470    -3.0390     1.6400 C.2   1 <1>   0.5690 
 12 O       -4.3620    -3.5730     2.6850 O.2   1 <1>  -0.5700 
 13 N       -5.1720    -3.7440     0.5940 N.am  1 <1>  -0.6600 
 14 C       -5.5820    -3.2130    -0.7360 C.3   1 <1>   0.1400 
 15 C       -5.3730    -5.2130     0.6410 C.3   1 <1>   0.1400 
 16 C       -6.4820    -4.3040    -1.3120 C.3   1 <1>   0.2000 
 17 C       -5.8740    -5.5970    -0.7570 C.3   1 <1>  -0.0800 
 18 O       -7.7560    -4.1330    -0.7890 O.3   1 <1>  -0.6800 
 19 C       -6.8080    -6.8210    -0.7700 C.3   1 <1>  -0.0170 
 20 C       -6.0810    -8.0680    -0.2880 C.ar  1 <1>  -0.1440 
 21 C       -5.3040    -8.8290    -1.1370 C.ar  1 <1>  -0.1500 
 22 C       -6.1580    -8.5010     1.0210 C.ar  1 <1>  -0.1500 
 23 C       -4.6580    -9.9540    -0.6500 C.ar  1 <1>   0.1600 
 24 C       -5.4710    -9.6400     1.4060 C.ar  1 <1>   0.1600 
 25 N       -4.7210   -10.3770     0.6020 N.ar  1 <1>  -0.6200 
 26 H       -3.4340     1.5440    -2.7200 H     1 <1>   0.0800 
 27 H       -4.2940     2.3110    -1.4340 H     1 <1>   0.0800 
 28 H       -2.4920     0.6470     2.2080 H     1 <1>   0.0800 
 29 H       -1.2720     0.9910     1.0200 H     1 <1>   0.0800 
 30 H       -3.0210    -2.0020    -0.0870 H     1 <1>   0.0800 
 31 H       -2.2390    -1.5440     1.3900 H     1 <1>   0.0800 
 32 H       -1.3060     1.8420    -1.3250 H     1 <1>   0.0800 
 33 H       -1.9690     3.2350    -2.1140 H     1 <1>   0.0800 
 34 H       -3.9400     2.4150     1.0540 H     1 <1>   0.0800 
 35 H       -2.6350     2.9310     2.0640 H     1 <1>   0.0800 
 36 H       -5.2060    -1.0930     0.9940 H     1 <1>   0.0800 
 37 H       -4.3170    -1.1220     2.4890 H     1 <1>   0.0800 
 38 H       -2.8370     4.1540    -0.1340 H     1 <1>   0.0800 
 39 H       -1.2570     3.5780     0.2870 H     1 <1>   0.0800 
 40 H       -6.1000    -2.2710    -0.6670 H     1 <1>   0.0800 
 41 H       -4.7090    -3.0950    -1.3540 H     1 <1>   0.0800 
 42 H       -4.4530    -5.7170     0.8840 H     1 <1>   0.0800 
 43 H       -6.1100    -5.4390     1.3930 H     1 <1>   0.0800 
 44 H       -6.5430    -4.2810    -2.3860 H     1 <1>   0.0800 
 45 H       -5.0080    -5.8280    -1.3520 H     1 <1>   0.0800 
 46 H       -7.6730    -3.9580     0.1700 H     1 <1>   0.4000 
 47 H       -7.1680    -6.9840    -1.7710 H     1 <1>   0.0800 
 48 H       -7.6670    -6.6450    -0.1460 H     1 <1>   0.0800 
 49 H       -5.1960    -8.5600    -2.1710 H     1 <1>   0.1500 
 50 H       -6.7440    -7.9650     1.7450 H     1 <1>   0.1500 
 51 H       -4.0570   -10.5360    -1.3270 H     1 <1>   0.1500 
 52 H       -5.5410    -9.9620     2.4310 H     1 <1>   0.1500 
@<TRIPOS>BOND
  1   1   2  2   
  2   2   3  am  
  3   2   4  1   
  4   3   5  1   
  5   3   6  1   
  6   4   7  1   
  7   4  26  1   
  8   4  27  1   
  9   5   8  1   
 10   5  28  1   
 11   5  29  1   
 12   6   9  1   
 13   6  30  1   
 14   6  31  1   
 15   7  10  1   
 16   7  32  1   
 17   7  33  1   
 18   8  10  1   
 19   8  34  1   
 20   8  35  1   
 21   9  11  1   
 22   9  36  1   
 23   9  37  1   
 24  10  38  1   
 25  10  39  1   
 26  11  12  2   
 27  11  13  am  
 28  13  14  1   
 29  13  15  1   
 30  14  16  1   
 31  14  40  1   
 32  14  41  1   
 33  15  17  1   
 34  15  42  1   
 35  15  43  1   
 36  16  17  1   
 37  16  18  1   
 38  16  44  1   
 39  17  19  1   
 40  17  45  1   
 41  18  46  1   
 42  19  20  1   
 43  19  47  1   
 44  19  48  1   
 45  20  21  ar  
 46  20  22  ar  
 47  21  23  ar  
 48  21  49  1   
 49  22  24  ar  
 50  22  50  1   
 51  23  25  ar  
 52  23  51  1   
 53  24  25  ar  
 54  24  52  1   
@<TRIPOS>SUBSTRUCTURE
  1 ****  13 GROUP 4 **** **** 0

# MOE 2024.06 (io_trps.svl 2023.06)
