@<TRIPOS>MOLECULE
NONAME
48 50 1 0 0 
SMALL
USER_CHARGES


@<TRIPOS>ATOM
  1 CL      -1.8380    -1.3010     1.7290 Cl    1 <1>  -0.1770 
  2 C       -2.2900     0.2080     0.9600 C.ar  1 <1>   0.1770 
  3 C       -2.0330     1.4150     1.5920 C.ar  1 <1>   0.1770 
  4 C       -2.9200     0.1740    -0.2770 C.ar  1 <1>  -0.1440 
  5 CL      -1.2510     1.4510     3.1530 Cl    1 <1>  -0.1770 
  6 C       -2.4000     2.6070     0.9960 C.ar  1 <1>  -0.1500 
  7 C       -3.2850     1.3760    -0.8730 C.ar  1 <1>  -0.1500 
  8 C       -3.1940    -1.1490    -0.9690 C.3   1 <1>   0.4870 
  9 C       -3.0270     2.5830    -0.2390 C.ar  1 <1>  -0.1500 
 10 N       -4.1910    -1.9270    -0.1730 N.4   1 <1>  -0.9590 
 11 C       -4.2920    -3.3510    -0.6640 C.3   1 <1>   0.3430 
 12 C       -5.5160    -1.2370    -0.1620 C.3   1 <1>   0.3430 
 13 C       -5.3460    -4.2080     0.1100 C.3   1 <1>   0.4230 
 14 C       -6.5050    -2.0340     0.6950 C.3   1 <1>  -0.1600 
 15 N       -5.4500    -5.6720    -0.3180 N.4   1 <1>  -0.9590 
 16 C       -6.7270    -3.4960     0.2170 C.3   1 <1>   0.0000 
 17 C       -6.6860    -6.3650     0.1870 C.3   1 <1>   0.3430 
 18 C       -5.3320    -5.9150    -1.7970 C.3   1 <1>   0.2630 
 19 C       -7.5770    -4.2330     1.2910 C.3   1 <1>  -0.1600 
 20 C       -7.5320    -3.4840    -1.1150 C.3   1 <1>   0.1200 
 21 C       -7.1980    -5.7180     1.4750 C.3   1 <1>  -0.1600 
 22 O       -6.7530    -3.0610    -2.1840 O.3   1 <1>  -0.6800 
 23 H       -2.1950     3.5400     1.4940 H     1 <1>   0.1500 
 24 H       -3.7670     1.3950    -1.8370 H     1 <1>   0.1500 
 25 H       -2.2690    -1.6980    -1.0430 H     1 <1>   0.0800 
 26 H       -3.5660    -0.9740    -1.9650 H     1 <1>   0.0800 
 27 H       -3.3110     3.5120    -0.7090 H     1 <1>   0.1500 
 28 H       -3.8240    -1.9160     0.7930 H     1 <1>   0.4500 
 29 H       -4.5560    -3.3360    -1.7070 H     1 <1>   0.0800 
 30 H       -3.3280    -3.8230    -0.5700 H     1 <1>   0.0800 
 31 H       -5.4120    -0.2430     0.2450 H     1 <1>   0.0800 
 32 H       -5.8940    -1.1450    -1.1680 H     1 <1>   0.0800 
 33 H       -4.9790    -4.2320     1.1230 H     1 <1>   0.0800 
 34 H       -6.1440    -2.0180     1.7090 H     1 <1>   0.0800 
 35 H       -7.4470    -1.5100     0.6980 H     1 <1>   0.0800 
 36 H       -4.6640    -6.1700     0.1300 H     1 <1>   0.4500 
 37 H       -7.4650    -6.3110    -0.5550 H     1 <1>   0.0800 
 38 H       -6.4760    -7.4090     0.3630 H     1 <1>   0.0800 
 39 H       -6.1260    -5.4150    -2.3280 H     1 <1>   0.0800 
 40 H       -5.3960    -6.9710    -2.0080 H     1 <1>   0.0800 
 41 H       -4.3880    -5.5560    -2.1710 H     1 <1>   0.0800 
 42 H       -7.4780    -3.7610     2.2550 H     1 <1>   0.0800 
 43 H       -8.6230    -4.1640     1.0380 H     1 <1>   0.0800 
 44 H       -8.3770    -2.8180    -1.0360 H     1 <1>   0.0800 
 45 H       -7.9090    -4.4620    -1.3570 H     1 <1>   0.0800 
 46 H       -8.0620    -6.2600     1.8210 H     1 <1>   0.0800 
 47 H       -6.4460    -5.8170     2.2390 H     1 <1>   0.0800 
 48 H       -7.3200    -2.9100    -2.9760 H     1 <1>   0.4000 
@<TRIPOS>BOND
  1   1   2  1   
  2   2   3  ar  
  3   2   4  ar  
  4   3   5  1   
  5   3   6  ar  
  6   4   7  ar  
  7   4   8  1   
  8   6   9  ar  
  9   6  23  1   
 10   7   9  ar  
 11   7  24  1   
 12   8  10  1   
 13   8  25  1   
 14   8  26  1   
 15   9  27  1   
 16  10  11  1   
 17  10  12  1   
 18  10  28  1   
 19  11  13  1   
 20  11  29  1   
 21  11  30  1   
 22  12  14  1   
 23  12  31  1   
 24  12  32  1   
 25  13  15  1   
 26  13  16  1   
 27  13  33  1   
 28  14  16  1   
 29  14  34  1   
 30  14  35  1   
 31  15  17  1   
 32  15  18  1   
 33  15  36  1   
 34  16  19  1   
 35  16  20  1   
 36  17  21  1   
 37  17  37  1   
 38  17  38  1   
 39  18  39  1   
 40  18  40  1   
 41  18  41  1   
 42  19  21  1   
 43  19  42  1   
 44  19  43  1   
 45  20  22  1   
 46  20  44  1   
 47  20  45  1   
 48  21  46  1   
 49  21  47  1   
 50  22  48  1   
@<TRIPOS>SUBSTRUCTURE
  1 ****  10 GROUP 4 **** **** 0

# MOE 2024.06 (io_trps.svl 2023.06)
