@<TRIPOS>MOLECULE
NONAME
54 57 1 0 0 
SMALL
USER_CHARGES


@<TRIPOS>ATOM
  1 O        1.3540     0.1130     1.9940 O.3   1 <1>  -0.5600 
  2 C        1.8740     0.8930     0.9690 C.3   1 <1>   0.1200 
  3 C        1.0480    -1.1910     1.5930 C.3   1 <1>   0.1200 
  4 C        3.1920     0.2720     0.4810 C.3   1 <1>   0.1900 
  5 C        2.2940    -1.9340     1.0420 C.3   1 <1>   0.1900 
  6 N        2.9780    -1.1190    -0.0070 N.3   1 <1>  -0.8100 
  7 C        3.8040     1.1560    -0.6240 C.3   1 <1>   0.3430 
  8 C        1.8870    -3.3120     0.4730 C.3   1 <1>  -0.1600 
  9 C        4.2630    -1.6970    -0.4690 C.3   1 <1>   0.1100 
 10 N        5.0960     0.5850    -1.1500 N.4   1 <1>  -0.9590 
 11 C        1.0960    -4.1920     1.4560 C.3   1 <1>  -0.1600 
 12 C        4.9110    -0.8400    -1.5770 C.3   1 <1>   0.3430 
 13 C        5.6750     1.4290    -2.2290 C.3   1 <1>   0.4860 
 14 C        0.8740    -5.5940     0.8800 C.3   1 <1>  -0.2400 
 15 C        5.9380     2.8110    -1.6610 C.ar  1 <1>  -0.1440 
 16 C        6.8270     2.9670    -0.6090 C.ar  1 <1>  -0.1500 
 17 C        5.2800     3.9220    -2.1650 C.ar  1 <1>  -0.1500 
 18 C        7.0450     4.2090    -0.0230 C.ar  1 <1>  -0.0230 
 19 C        5.4990     5.1690    -1.6050 C.ar  1 <1>  -0.1500 
 20 N        7.9260     4.3230     1.0920 N.pl3 1 <1>   0.5930 
 21 C        6.3700     5.3110    -0.5390 C.ar  1 <1>  -0.1500 
 22 N        8.1080     3.3060     1.9760 N.2   1 <1>  -0.7070 
 23 C        8.6880     5.3850     1.4520 C.2   1 <1>  -0.3020 
 24 C        8.9540     3.7530     2.8510 C.2   1 <1>   0.1390 
 25 C        9.3560     5.0540     2.5750 C.2   1 <1>  -0.1500 
 26 H        1.1490     0.9530     0.1760 H     1 <1>   0.0800 
 27 H        2.0420     1.8780     1.3700 H     1 <1>   0.0800 
 28 H        0.6600    -1.7000     2.4570 H     1 <1>   0.0800 
 29 H        0.2740    -1.1470     0.8460 H     1 <1>   0.0800 
 30 H        3.8680     0.2590     1.3190 H     1 <1>   0.0800 
 31 H        2.9690    -2.0900     1.8670 H     1 <1>   0.0800 
 32 H        3.9770     2.1430    -0.2240 H     1 <1>   0.0800 
 33 H        3.0900     1.2420    -1.4250 H     1 <1>   0.0800 
 34 H        1.2990    -3.1650    -0.4170 H     1 <1>   0.0800 
 35 H        2.7690    -3.8620     0.2080 H     1 <1>   0.0800 
 36 H        4.9410    -1.8000     0.3610 H     1 <1>   0.0800 
 37 H        4.0980    -2.6740    -0.8850 H     1 <1>   0.0800 
 38 H        5.7590     0.6040    -0.3650 H     1 <1>   0.4500 
 39 H        1.6330    -4.2770     2.3860 H     1 <1>   0.0800 
 40 H        0.1330    -3.7570     1.6610 H     1 <1>   0.0800 
 41 H        4.2730    -0.8790    -2.4450 H     1 <1>   0.0800 
 42 H        5.8620    -1.2710    -1.8440 H     1 <1>   0.0800 
 43 H        6.6010     1.0040    -2.5800 H     1 <1>   0.0800 
 44 H        4.9900     1.4960    -3.0590 H     1 <1>   0.0800 
 45 H        1.8150    -6.0830     0.6970 H     1 <1>   0.0800 
 46 H        0.3260    -5.5400    -0.0450 H     1 <1>   0.0800 
 47 H        0.3110    -6.1920     1.5740 H     1 <1>   0.0800 
 48 H        7.3650     2.1200    -0.2170 H     1 <1>   0.1500 
 49 H        4.5930     3.8370    -2.9910 H     1 <1>   0.1500 
 50 H        4.9880     6.0330    -1.9970 H     1 <1>   0.1500 
 51 H        6.5160     6.2870    -0.1080 H     1 <1>   0.1500 
 52 H        8.7100     6.3000     0.8910 H     1 <1>   0.1500 
 53 H        9.3020     3.1770     3.6930 H     1 <1>   0.1500 
 54 H       10.0520     5.6380     3.1520 H     1 <1>   0.1500 
@<TRIPOS>BOND
  1   1   2  1   
  2   1   3  1   
  3   2   4  1   
  4   2  26  1   
  5   2  27  1   
  6   3   5  1   
  7   3  28  1   
  8   3  29  1   
  9   4   6  1   
 10   4   7  1   
 11   4  30  1   
 12   5   6  1   
 13   5   8  1   
 14   5  31  1   
 15   6   9  1   
 16   7  10  1   
 17   7  32  1   
 18   7  33  1   
 19   8  11  1   
 20   8  34  1   
 21   8  35  1   
 22   9  12  1   
 23   9  36  1   
 24   9  37  1   
 25  10  12  1   
 26  10  13  1   
 27  10  38  1   
 28  11  14  1   
 29  11  39  1   
 30  11  40  1   
 31  12  41  1   
 32  12  42  1   
 33  13  15  1   
 34  13  43  1   
 35  13  44  1   
 36  14  45  1   
 37  14  46  1   
 38  14  47  1   
 39  15  16  ar  
 40  15  17  ar  
 41  16  18  ar  
 42  16  48  1   
 43  17  19  ar  
 44  17  49  1   
 45  18  20  1   
 46  18  21  ar  
 47  19  21  ar  
 48  19  50  1   
 49  20  22  1   
 50  20  23  1   
 51  21  51  1   
 52  22  24  2   
 53  23  25  2   
 54  23  52  1   
 55  24  25  1   
 56  24  53  1   
 57  25  54  1   
@<TRIPOS>SUBSTRUCTURE
  1 ****   7 GROUP 4 **** **** 0

# MOE 2024.06 (io_trps.svl 2023.06)
