@<TRIPOS>MOLECULE
NONAME
40 41 1 0 0 
SMALL
USER_CHARGES


@<TRIPOS>ATOM
  1 F        2.4080     0.4800    -1.4390 F     1 <1>  -0.1900 
  2 C        2.7400    -0.1080    -0.3200 C.ar  1 <1>   0.1900 
  3 C        3.3380     0.6230     0.7120 C.ar  1 <1>   0.0860 
  4 C        2.4700    -1.4620    -0.2380 C.ar  1 <1>  -0.1500 
  5 C        3.6280     2.0490     0.6530 C.2   1 <1>   0.5440 
  6 C        3.6610    -0.1110     1.8590 C.ar  1 <1>  -0.1500 
  7 C        2.8030    -2.1470     0.9150 C.ar  1 <1>  -0.1500 
  8 O        4.4000     2.5490     1.4490 O.2   1 <1>  -0.5700 
  9 N        3.0560     2.8750    -0.2730 N.am  1 <1>  -0.7300 
 10 C        3.4000    -1.4670     1.9630 C.ar  1 <1>  -0.1500 
 11 C        3.2790     4.3340    -0.3730 C.3   1 <1>   0.1400 
 12 C        4.4620     4.6050    -1.2950 C.3   1 <1>  -0.0990 
 13 C        4.7560     6.0830    -1.3080 C.2   1 <1>   0.5690 
 14 O        4.1450     6.7970    -2.0650 O.2   1 <1>  -0.5700 
 15 N        5.6870     6.5650    -0.4550 N.am  1 <1>  -0.7300 
 16 C        6.1720     7.9710    -0.4320 C.3   1 <1>   0.2810 
 17 C        7.5690     8.0950     0.2140 C.2   1 <1>   0.5690 
 18 C        5.1340     8.8390     0.2970 C.3   1 <1>  -0.1600 
 19 O        8.3880     7.2210     0.0610 O.2   1 <1>  -0.5700 
 20 N        7.8810     9.1750     0.9750 N.am  1 <1>  -0.7300 
 21 C        5.6880    10.2510     0.5420 C.3   1 <1>  -0.1600 
 22 C        6.9440    10.2290     1.4230 C.3   1 <1>   0.1400 
 23 H        2.0080    -1.9710    -1.0650 H     1 <1>   0.1500 
 24 H        4.1270     0.3960     2.6880 H     1 <1>   0.1500 
 25 H        2.6020    -3.2020     0.9990 H     1 <1>   0.1500 
 26 H        2.4790     2.4580    -1.0100 H     1 <1>   0.3700 
 27 H        3.6640    -1.9960     2.8630 H     1 <1>   0.1500 
 28 H        3.4840     4.7330     0.6080 H     1 <1>   0.0800 
 29 H        2.3930     4.8130    -0.7530 H     1 <1>   0.0800 
 30 H        4.2320     4.2860    -2.2940 H     1 <1>   0.0800 
 31 H        5.3280     4.0720    -0.9470 H     1 <1>   0.0800 
 32 H        6.2790     5.9210     0.0780 H     1 <1>   0.3700 
 33 H        6.2600     8.3170    -1.4470 H     1 <1>   0.0800 
 34 H        4.8870     8.3860     1.2420 H     1 <1>   0.0800 
 35 H        4.2400     8.9000    -0.2990 H     1 <1>   0.0800 
 36 H        8.8150     9.1720     1.3910 H     1 <1>   0.3700 
 37 H        4.9360    10.8580     1.0170 H     1 <1>   0.0800 
 38 H        5.9270    10.7140    -0.4010 H     1 <1>   0.0800 
 39 H        7.4330    11.1880     1.3840 H     1 <1>   0.0800 
 40 H        6.6650    10.0300     2.4440 H     1 <1>   0.0800 
@<TRIPOS>BOND
  1   1   2  1   
  2   2   3  ar  
  3   2   4  ar  
  4   3   5  1   
  5   3   6  ar  
  6   4   7  ar  
  7   4  23  1   
  8   5   8  2   
  9   5   9  am  
 10   6  10  ar  
 11   6  24  1   
 12   7  10  ar  
 13   7  25  1   
 14   9  11  1   
 15   9  26  1   
 16  10  27  1   
 17  11  12  1   
 18  11  28  1   
 19  11  29  1   
 20  12  13  1   
 21  12  30  1   
 22  12  31  1   
 23  13  14  2   
 24  13  15  am  
 25  15  16  1   
 26  15  32  1   
 27  16  17  1   
 28  16  18  1   
 29  16  33  1   
 30  17  19  2   
 31  17  20  am  
 32  18  21  1   
 33  18  34  1   
 34  18  35  1   
 35  20  22  1   
 36  20  36  1   
 37  21  22  1   
 38  21  37  1   
 39  21  38  1   
 40  22  39  1   
 41  22  40  1   
@<TRIPOS>SUBSTRUCTURE
  1 ****  11 GROUP 4 **** **** 0

# MOE 2024.06 (io_trps.svl 2023.06)
