@<TRIPOS>MOLECULE
NONAME
45 48 1 0 0 
SMALL
USER_CHARGES


@<TRIPOS>ATOM
  1 O       -0.9980    -0.2750     2.6120 O.2   1 <1>  -0.5700 
  2 C       -1.1980     0.4840     1.6790 C.2   1 <1>   0.7160 
  3 N       -1.8450    -0.0230     0.5740 N.am  1 <1>  -0.6600 
  4 C       -0.7980     1.8580     1.8100 C.2   1 <1>  -0.0860 
  5 C       -2.5860     0.7750    -0.4340 C.3   1 <1>   0.1400 
  6 C       -2.1930    -1.4620     0.4310 C.3   1 <1>   0.1400 
  7 C       -0.4170     2.8250     0.9100 C.2   1 <1>  -0.0260 
  8 C       -0.6960     2.5030     3.0420 C.2   1 <1>   0.1390 
  9 C       -3.7750    -0.1060    -0.8100 C.3   1 <1>   0.2000 
 10 C       -3.2010    -1.5220    -0.7230 C.3   1 <1>  -0.0800 
 11 N       -0.2800     2.7890    -0.4610 N.2   1 <1>  -0.5760 
 12 N       -0.1340     3.9470     1.6500 N.pl3 1 <1>   0.6010 
 13 N       -0.3150     3.7420     2.9660 N.2   1 <1>  -0.7070 
 14 O       -4.7560     0.0590     0.1580 O.3   1 <1>  -0.6800 
 15 C       -4.2330    -2.6570    -0.5860 C.3   1 <1>   0.0210 
 16 C        0.1360     3.8750    -1.0320 C.2   1 <1>   0.3760 
 17 C        0.3020     5.0930     1.0260 C.2   1 <1>  -0.1810 
 18 C       -3.5430    -4.0020    -0.4630 C.2   1 <1>   0.1080 
 19 C        0.4450     5.0740    -0.3260 C.2   1 <1>  -0.1240 
 20 N       -2.7240    -4.4590    -1.3590 N.2   1 <1>  -0.7070 
 21 C       -3.6940    -4.8780     0.6060 C.2   1 <1>  -0.1500 
 22 C        0.9230     6.2910    -1.1020 C.3   1 <1>  -0.1020 
 23 N       -2.3270    -5.6520    -0.8800 N.pl3 1 <1>   0.3000 
 24 C       -2.9000    -5.9280     0.3110 C.2   1 <1>  -0.3320 
 25 C       -2.6500    -7.1980     1.1040 C.3   1 <1>  -0.0600 
 26 H       -2.9000     1.7310    -0.0520 H     1 <1>   0.0800 
 27 H       -1.9560     0.9180    -1.2940 H     1 <1>   0.0800 
 28 H       -1.3150    -2.0460     0.2110 H     1 <1>   0.0800 
 29 H       -2.6340    -1.8180     1.3470 H     1 <1>   0.0800 
 30 H       -0.9150     2.0150     3.9790 H     1 <1>   0.1500 
 31 H       -4.1950     0.1310    -1.7730 H     1 <1>   0.0800 
 32 H       -2.6360    -1.6990    -1.6220 H     1 <1>   0.0800 
 33 H       -4.3340    -0.0150     1.0390 H     1 <1>   0.4000 
 34 H       -4.8680    -2.6720    -1.4520 H     1 <1>   0.0800 
 35 H       -4.8530    -2.5030     0.2790 H     1 <1>   0.0800 
 36 H        0.2570     3.8800    -2.1010 H     1 <1>   0.0600 
 37 H        0.5030     5.9320     1.6630 H     1 <1>   0.1500 
 38 H       -4.3160    -4.7240     1.4700 H     1 <1>   0.1500 
 39 H        1.8320     6.0590    -1.6290 H     1 <1>   0.0800 
 40 H        1.1160     7.1150    -0.4380 H     1 <1>   0.0800 
 41 H        0.1760     6.5940    -1.8140 H     1 <1>   0.0800 
 42 H       -1.6660    -6.2520    -1.3870 H     1 <1>   0.2700 
 43 H       -3.2210    -7.1820     2.0150 H     1 <1>   0.0800 
 44 H       -1.6080    -7.2800     1.3550 H     1 <1>   0.0800 
 45 H       -2.9440    -8.0590     0.5310 H     1 <1>   0.0800 
@<TRIPOS>BOND
  1   1   2  2   
  2   2   3  am  
  3   2   4  1   
  4   3   5  1   
  5   3   6  1   
  6   4   7  2   
  7   4   8  1   
  8   5   9  1   
  9   5  26  1   
 10   5  27  1   
 11   6  10  1   
 12   6  28  1   
 13   6  29  1   
 14   7  11  1   
 15   7  12  1   
 16   8  13  2   
 17   8  30  1   
 18   9  10  1   
 19   9  14  1   
 20   9  31  1   
 21  10  15  1   
 22  10  32  1   
 23  11  16  2   
 24  12  13  1   
 25  12  17  1   
 26  14  33  1   
 27  15  18  1   
 28  15  34  1   
 29  15  35  1   
 30  16  19  1   
 31  16  36  1   
 32  17  19  2   
 33  17  37  1   
 34  18  20  2   
 35  18  21  1   
 36  19  22  1   
 37  20  23  1   
 38  21  24  2   
 39  21  38  1   
 40  22  39  1   
 41  22  40  1   
 42  22  41  1   
 43  23  24  1   
 44  23  42  1   
 45  24  25  1   
 46  25  43  1   
 47  25  44  1   
 48  25  45  1   
@<TRIPOS>SUBSTRUCTURE
  1 ****   3 GROUP 4 **** **** 0

# MOE 2024.06 (io_trps.svl 2023.06)
