@<TRIPOS>MOLECULE
NONAME
53 56 1 0 0 
SMALL
USER_CHARGES


@<TRIPOS>ATOM
  1 O        2.3570    -1.0750    -0.3980 O.2   1 <1>  -0.5700 
  2 C        1.4000    -1.8330    -0.3610 C.2   1 <1>   0.5440 
  3 N        0.2010    -1.2880     0.0730 N.am  1 <1>  -0.6600 
  4 C        1.5990    -3.2380    -0.7450 C.ar  1 <1>   0.3960 
  5 C        0.0930     0.0960     0.5860 C.3   1 <1>   0.1400 
  6 C       -1.0940    -1.9930     0.2050 C.3   1 <1>   0.1400 
  7 N        0.5680    -4.0270    -1.0940 N.ar  1 <1>  -0.6200 
  8 C        2.9080    -3.7350    -0.7350 C.ar  1 <1>   0.1600 
  9 C       -1.1900     0.1050     1.4060 C.3   1 <1>  -0.1600 
 10 C       -2.0690    -0.9550     0.7500 C.3   1 <1>  -0.1600 
 11 C        0.9060    -5.2690    -1.3970 C.ar  1 <1>   0.4100 
 12 N        3.2760    -4.9710    -1.0420 N.ar  1 <1>  -0.6200 
 13 N       -0.1240    -6.1400    -1.7280 N.pl3 1 <1>  -0.8380 
 14 C        2.2380    -5.7090    -1.3750 C.ar  1 <1>   0.1600 
 15 C       -0.3310    -7.3610    -0.9060 C.3   1 <1>   0.2090 
 16 C       -1.3470    -5.6440    -2.4210 C.3   1 <1>   0.2090 
 17 C       -1.4130    -7.0920     0.1400 C.3   1 <1>  -0.1600 
 18 C       -2.4640    -5.3900    -1.4060 C.3   1 <1>  -0.1600 
 19 C       -2.7180    -6.6150    -0.5160 C.3   1 <1>   0.0630 
 20 C       -3.7900    -6.3110     0.5390 C.ar  1 <1>  -0.1430 
 21 C       -5.0060    -6.9970     0.5700 C.ar  1 <1>   0.0820 
 22 C       -3.5490    -5.3250     1.4880 C.ar  1 <1>  -0.1500 
 23 O       -5.2280    -7.9610    -0.3640 O.3   1 <1>  -0.3620 
 24 C       -5.9510    -6.6830     1.5460 C.ar  1 <1>  -0.1500 
 25 C       -4.4910    -5.0180     2.4530 C.ar  1 <1>  -0.1500 
 26 C       -6.4250    -8.7060    -0.4040 C.3   1 <1>   0.0400 
 27 C       -5.6930    -5.6980     2.4810 C.ar  1 <1>  -0.1500 
 28 H        0.0170     0.7720    -0.2480 H     1 <1>   0.0800 
 29 H        0.9490     0.3570     1.1850 H     1 <1>   0.0800 
 30 H       -0.9850    -2.8130     0.8940 H     1 <1>   0.0800 
 31 H       -1.4240    -2.3600    -0.7520 H     1 <1>   0.0800 
 32 H        3.7010    -3.0640    -0.4520 H     1 <1>   0.1500 
 33 H       -1.6520     1.0760     1.4150 H     1 <1>   0.0800 
 34 H       -0.9590    -0.1840     2.4160 H     1 <1>   0.0800 
 35 H       -2.7720    -1.3910     1.4380 H     1 <1>   0.0800 
 36 H       -2.6100    -0.5210    -0.0730 H     1 <1>   0.0800 
 37 H        2.4230    -6.7290    -1.6550 H     1 <1>   0.1500 
 38 H        0.5830    -7.6420    -0.4120 H     1 <1>   0.0800 
 39 H       -0.6310    -8.1720    -1.5480 H     1 <1>   0.0800 
 40 H       -1.6650    -6.3820    -3.1380 H     1 <1>   0.0800 
 41 H       -1.1240    -4.7360    -2.9570 H     1 <1>   0.0800 
 42 H       -1.0440    -6.3530     0.8270 H     1 <1>   0.0800 
 43 H       -1.6040    -7.9930     0.6960 H     1 <1>   0.0800 
 44 H       -3.3680    -5.1340    -1.9280 H     1 <1>   0.0800 
 45 H       -2.1850    -4.5490    -0.8030 H     1 <1>   0.0800 
 46 H       -3.0520    -7.4080    -1.1610 H     1 <1>   0.0800 
 47 H       -2.6200    -4.7840     1.4850 H     1 <1>   0.1500 
 48 H       -6.8930    -7.1910     1.5960 H     1 <1>   0.1500 
 49 H       -4.2880    -4.2520     3.1810 H     1 <1>   0.1500 
 50 H       -6.3600    -9.3990    -1.2230 H     1 <1>   0.0800 
 51 H       -7.2500    -8.0330    -0.5590 H     1 <1>   0.0800 
 52 H       -6.5320    -9.2430     0.5220 H     1 <1>   0.0800 
 53 H       -6.4270    -5.4600     3.2310 H     1 <1>   0.1500 
@<TRIPOS>BOND
  1   1   2  2   
  2   2   3  am  
  3   2   4  1   
  4   3   5  1   
  5   3   6  1   
  6   4   7  ar  
  7   4   8  ar  
  8   5   9  1   
  9   5  28  1   
 10   5  29  1   
 11   6  10  1   
 12   6  30  1   
 13   6  31  1   
 14   7  11  ar  
 15   8  12  ar  
 16   8  32  1   
 17   9  10  1   
 18   9  33  1   
 19   9  34  1   
 20  10  35  1   
 21  10  36  1   
 22  11  13  1   
 23  11  14  ar  
 24  12  14  ar  
 25  13  15  1   
 26  13  16  1   
 27  14  37  1   
 28  15  17  1   
 29  15  38  1   
 30  15  39  1   
 31  16  18  1   
 32  16  40  1   
 33  16  41  1   
 34  17  19  1   
 35  17  42  1   
 36  17  43  1   
 37  18  19  1   
 38  18  44  1   
 39  18  45  1   
 40  19  20  1   
 41  19  46  1   
 42  20  21  ar  
 43  20  22  ar  
 44  21  23  1   
 45  21  24  ar  
 46  22  25  ar  
 47  22  47  1   
 48  23  26  1   
 49  24  27  ar  
 50  24  48  1   
 51  25  27  ar  
 52  25  49  1   
 53  26  50  1   
 54  26  51  1   
 55  26  52  1   
 56  27  53  1   
@<TRIPOS>SUBSTRUCTURE
  1 ****  18 GROUP 4 **** **** 0

# MOE 2024.06 (io_trps.svl 2023.06)
