@<TRIPOS>MOLECULE
NONAME
27 27 1 0 0 
SMALL
USER_CHARGES


@<TRIPOS>ATOM
  1 O       -0.1430    -0.0560     0.3210 O.2   1 <1>  -0.5700 
  2 C       -1.1550    -0.7250     0.2660 C.2   1 <1>   0.8060 
  3 O       -2.3260    -0.1090     0.0770 O.3   1 <1>  -0.4300 
  4 C       -1.1780    -2.1610     0.3920 C.2   1 <1>  -0.0860 
  5 C       -2.4080     1.2920    -0.0600 C.3   1 <1>   0.1200 
  6 C       -0.1960    -3.0910     0.5970 C.2   1 <1>  -0.3320 
  7 C       -2.3370    -2.9400     0.3100 C.2   1 <1>   0.1390 
  8 C       -3.8750     1.6610    -0.2620 C.3   1 <1>  -0.2400 
  9 N       -0.7850    -4.2980     0.6220 N.pl3 1 <1>   0.3000 
 10 C        1.3020    -2.8980     0.7740 C.3   1 <1>   0.0200 
 11 N       -2.1130    -4.2080     0.4460 N.2   1 <1>  -0.7070 
 12 C        2.0430    -3.2790    -0.5120 C.3   1 <1>  -0.1600 
 13 C        3.5570    -3.0920    -0.3650 C.3   1 <1>  -0.2400 
 14 H       -1.8150     1.5890    -0.9090 H     1 <1>   0.0800 
 15 H       -2.0150     1.7470     0.8330 H     1 <1>   0.0800 
 16 H       -3.3220    -2.5320     0.1500 H     1 <1>   0.1500 
 17 H       -4.2570     1.1920    -1.1510 H     1 <1>   0.0800 
 18 H       -3.9690     2.7270    -0.3690 H     1 <1>   0.0800 
 19 H       -4.4560     1.3510     0.5880 H     1 <1>   0.0800 
 20 H       -0.3150    -5.2020     0.7560 H     1 <1>   0.2700 
 21 H        1.6510    -3.5020     1.5940 H     1 <1>   0.0800 
 22 H        1.5150    -1.8710     1.0150 H     1 <1>   0.0800 
 23 H        1.6860    -2.6610    -1.3180 H     1 <1>   0.0800 
 24 H        1.8350    -4.3050    -0.7620 H     1 <1>   0.0800 
 25 H        3.7880    -2.0650    -0.1430 H     1 <1>   0.0800 
 26 H        4.0510    -3.3600    -1.2830 H     1 <1>   0.0800 
 27 H        3.9420    -3.7140     0.4240 H     1 <1>   0.0800 
@<TRIPOS>BOND
  1   1   2  2   
  2   2   3  1   
  3   2   4  1   
  4   3   5  1   
  5   4   6  2   
  6   4   7  1   
  7   5   8  1   
  8   5  14  1   
  9   5  15  1   
 10   6   9  1   
 11   6  10  1   
 12   7  11  2   
 13   7  16  1   
 14   8  17  1   
 15   8  18  1   
 16   8  19  1   
 17   9  11  1   
 18   9  20  1   
 19  10  12  1   
 20  10  21  1   
 21  10  22  1   
 22  12  13  1   
 23  12  23  1   
 24  12  24  1   
 25  13  25  1   
 26  13  26  1   
 27  13  27  1   
@<TRIPOS>SUBSTRUCTURE
  1 ****   4 GROUP 4 **** **** 0

# MOE 2024.06 (io_trps.svl 2023.06)
