@<TRIPOS>MOLECULE
NONAME
46 47 1 0 0 
SMALL
USER_CHARGES


@<TRIPOS>ATOM
  1 O       -0.8140    -0.4200    -0.6910 O.2   1 <1>  -0.5700 
  2 C       -1.5150     0.3670    -0.0870 C.2   1 <1>   0.5440 
  3 N       -2.4540    -0.1180     0.8030 N.am  1 <1>  -0.6600 
  4 C       -1.3450     1.7850    -0.3300 C.ar  1 <1>   0.0860 
  5 C       -2.3460    -1.5230     1.2980 C.3   1 <1>   0.3200 
  6 C       -3.4400     0.7500     1.5300 C.3   1 <1>   0.1400 
  7 C       -0.8840     2.6480     0.6650 C.ar  1 <1>  -0.1500 
  8 C       -1.6410     2.3360    -1.5760 C.ar  1 <1>  -0.1500 
  9 C       -3.3560    -2.4420     0.6360 C.2   1 <1>  -0.3320 
 10 C       -4.4140     1.4870     0.5940 C.3   1 <1>   0.1200 
 11 C       -0.7490     4.0060     0.4390 C.ar  1 <1>  -0.1500 
 12 C       -1.5100     3.6920    -1.8080 C.ar  1 <1>  -0.1500 
 13 N       -4.6240    -2.1180     0.3240 N.pl3 1 <1>   0.0330 
 14 C       -3.1970    -3.7270     0.2480 C.2   1 <1>   0.0770 
 15 O       -4.8960     0.6170    -0.3710 O.3   1 <1>  -0.6800 
 16 C       -1.0670     4.5400    -0.8060 C.ar  1 <1>   0.0830 
 17 C       -5.1550    -3.2280    -0.2280 C.2   1 <1>   0.0060 
 18 N       -4.3310    -4.2200    -0.2850 N.2   1 <1>  -0.5650 
 19 O       -0.9730     5.8530    -1.1210 O.3   1 <1>  -0.3620 
 20 C       -6.5780    -3.2810    -0.7390 C.3   1 <1>  -0.0600 
 21 C       -0.4180     6.8310    -0.2690 C.3   1 <1>   0.2000 
 22 C       -0.8990     8.1890    -0.7740 C.3   1 <1>  -0.2400 
 23 C        1.1080     6.7320    -0.3270 C.3   1 <1>  -0.2400 
 24 H       -2.5010    -1.5370     2.3630 H     1 <1>   0.0800 
 25 H       -1.3540    -1.9060     1.1200 H     1 <1>   0.0800 
 26 H       -2.9130     1.4680     2.1330 H     1 <1>   0.0800 
 27 H       -4.0220     0.1440     2.2030 H     1 <1>   0.0800 
 28 H       -0.6240     2.2410     1.6260 H     1 <1>   0.1500 
 29 H       -1.9760     1.6860    -2.3660 H     1 <1>   0.1500 
 30 H       -3.9290     2.3080     0.0960 H     1 <1>   0.0800 
 31 H       -5.2520     1.8740     1.1480 H     1 <1>   0.0800 
 32 H       -0.3910     4.6300     1.2360 H     1 <1>   0.1500 
 33 H       -1.7460     4.1050    -2.7730 H     1 <1>   0.1500 
 34 H       -5.0720    -1.1960     0.4130 H     1 <1>   0.2700 
 35 H       -2.3120    -4.3360     0.3260 H     1 <1>   0.1500 
 36 H       -4.1310     0.2140    -0.8410 H     1 <1>   0.4000 
 37 H       -7.2660    -3.1120     0.0680 H     1 <1>   0.0800 
 38 H       -6.7750    -4.2480    -1.1660 H     1 <1>   0.0800 
 39 H       -6.7250    -2.5320    -1.4960 H     1 <1>   0.0800 
 40 H       -0.7880     6.6750     0.7290 H     1 <1>   0.0800 
 41 H       -0.5690     8.3520    -1.7840 H     1 <1>   0.0800 
 42 H       -0.5070     8.9740    -0.1530 H     1 <1>   0.0800 
 43 H       -1.9730     8.2320    -0.7390 H     1 <1>   0.0800 
 44 H        1.4510     6.8740    -1.3360 H     1 <1>   0.0800 
 45 H        1.4410     5.7730     0.0250 H     1 <1>   0.0800 
 46 H        1.5480     7.4900     0.2950 H     1 <1>   0.0800 
@<TRIPOS>BOND
  1   1   2  2   
  2   2   3  am  
  3   2   4  1   
  4   3   5  1   
  5   3   6  1   
  6   4   7  ar  
  7   4   8  ar  
  8   5   9  1   
  9   5  24  1   
 10   5  25  1   
 11   6  10  1   
 12   6  26  1   
 13   6  27  1   
 14   7  11  ar  
 15   7  28  1   
 16   8  12  ar  
 17   8  29  1   
 18   9  13  1   
 19   9  14  2   
 20  10  15  1   
 21  10  30  1   
 22  10  31  1   
 23  11  16  ar  
 24  11  32  1   
 25  12  16  ar  
 26  12  33  1   
 27  13  17  1   
 28  13  34  1   
 29  14  18  1   
 30  14  35  1   
 31  15  36  1   
 32  16  19  1   
 33  17  18  2   
 34  17  20  1   
 35  19  21  1   
 36  20  37  1   
 37  20  38  1   
 38  20  39  1   
 39  21  22  1   
 40  21  23  1   
 41  21  40  1   
 42  22  41  1   
 43  22  42  1   
 44  22  43  1   
 45  23  44  1   
 46  23  45  1   
 47  23  46  1   
@<TRIPOS>SUBSTRUCTURE
  1 ****   4 GROUP 4 **** **** 0

# MOE 2024.06 (io_trps.svl 2023.06)
