@<TRIPOS>MOLECULE
NONAME
54 58 1 0 0 
SMALL
USER_CHARGES


@<TRIPOS>ATOM
  1 O       -0.7740     0.4690     0.4760 O.2   1 <1>  -0.5700 
  2 C       -1.6940     1.2290     0.2010 C.2   1 <1>   0.7160 
  3 N       -2.9560     0.6680     0.0510 N.am  1 <1>  -0.6600 
  4 C       -1.4500     2.6750     0.0800 C.2   1 <1>   0.4300 
  5 C       -3.1830    -0.7990     0.2340 C.3   1 <1>   0.1400 
  6 C       -4.2040     1.4790     0.0000 C.3   1 <1>   0.1400 
  7 N       -0.8580     3.4030     1.0100 N.2   1 <1>  -0.7070 
  8 N       -1.8380     3.3750    -1.0130 N.2   1 <1>  -0.5650 
  9 C       -3.5450    -1.1380     1.6890 C.3   1 <1>   0.1400 
 10 C       -4.5770     2.0270     1.3850 C.3   1 <1>  -0.1600 
 11 N       -0.8440     4.6080     0.4780 N.pl3 1 <1>   0.6010 
 12 C       -1.4500     4.5720    -0.7390 C.2   1 <1>   0.3120 
 13 N       -4.7130    -0.3350     2.1790 N.am  1 <1>  -0.6600 
 14 C       -4.3520     1.0600     2.5580 C.3   1 <1>   0.1400 
 15 C       -0.3480     5.7960     0.9710 C.2   1 <1>  -0.1810 
 16 N       -1.6150     5.6830    -1.5330 N.2   1 <1>  -0.5760 
 17 C       -6.0170    -0.7560     2.2600 C.2   1 <1>   0.5690 
 18 C       -0.4960     6.9030     0.1970 C.2   1 <1>  -0.1360 
 19 C       -1.1470     6.7940    -1.0650 C.2   1 <1>   0.3760 
 20 O       -6.8700    -0.0590     2.7590 O.2   1 <1>  -0.5700 
 21 C       -6.4630    -2.1050     1.7150 C.3   1 <1>  -0.0990 
 22 C       -7.7080    -1.9850     0.8240 C.3   1 <1>   0.0630 
 23 C       -8.0870    -3.3000     0.1780 C.ar  1 <1>  -0.1430 
 24 C       -7.4910    -1.0540    -0.3890 C.3   1 <1>  -0.1600 
 25 C       -8.3750    -3.1320    -1.1550 C.ar  1 <1>  -0.1430 
 26 C       -8.1710    -4.5530     0.7600 C.ar  1 <1>  -0.1500 
 27 C       -8.2410    -1.6890    -1.5700 C.3   1 <1>  -0.0170 
 28 C       -8.7420    -4.2060    -1.9440 C.ar  1 <1>  -0.1500 
 29 C       -8.5380    -5.6380    -0.0220 C.ar  1 <1>  -0.1500 
 30 C       -8.8210    -5.4650    -1.3690 C.ar  1 <1>  -0.1500 
 31 H       -2.2960    -1.3430    -0.0430 H     1 <1>   0.0800 
 32 H       -3.9710    -1.1270    -0.4200 H     1 <1>   0.0800 
 33 H       -5.0090     0.8600    -0.3550 H     1 <1>   0.0800 
 34 H       -4.1020     2.2880    -0.7030 H     1 <1>   0.0800 
 35 H       -2.6880    -0.9340     2.3090 H     1 <1>   0.0800 
 36 H       -3.7390    -2.1900     1.7800 H     1 <1>   0.0800 
 37 H       -5.6160     2.3040     1.3680 H     1 <1>   0.0800 
 38 H       -4.0210     2.9270     1.5730 H     1 <1>   0.0800 
 39 H       -4.9410     1.3750     3.4040 H     1 <1>   0.0800 
 40 H       -3.3180     1.0950     2.8560 H     1 <1>   0.0800 
 41 H        0.1240     5.7600     1.9360 H     1 <1>   0.1500 
 42 H       -0.1380     7.8710     0.5000 H     1 <1>   0.1500 
 43 H       -1.2490     7.6900    -1.6520 H     1 <1>   0.0600 
 44 H       -6.6850    -2.7390     2.5520 H     1 <1>   0.0800 
 45 H       -5.6930    -2.5740     1.1380 H     1 <1>   0.0800 
 46 H       -8.5470    -1.6340     1.4010 H     1 <1>   0.0800 
 47 H       -6.4460    -1.0220    -0.6370 H     1 <1>   0.0800 
 48 H       -7.8330    -0.0540    -0.1860 H     1 <1>   0.0800 
 49 H       -7.9590    -4.6890     1.8050 H     1 <1>   0.1500 
 50 H       -7.6930    -1.5890    -2.4900 H     1 <1>   0.0800 
 51 H       -9.2200    -1.2560    -1.6750 H     1 <1>   0.0800 
 52 H       -8.9650    -4.0670    -2.9860 H     1 <1>   0.1500 
 53 H       -8.6060    -6.6170     0.4180 H     1 <1>   0.1500 
 54 H       -9.1060    -6.3110    -1.9700 H     1 <1>   0.1500 
@<TRIPOS>BOND
  1   1   2  2   
  2   2   3  am  
  3   2   4  1   
  4   3   5  1   
  5   3   6  1   
  6   4   7  2   
  7   4   8  1   
  8   5   9  1   
  9   5  31  1   
 10   5  32  1   
 11   6  10  1   
 12   6  33  1   
 13   6  34  1   
 14   7  11  1   
 15   8  12  2   
 16   9  13  1   
 17   9  35  1   
 18   9  36  1   
 19  10  14  1   
 20  10  37  1   
 21  10  38  1   
 22  11  12  1   
 23  11  15  1   
 24  12  16  1   
 25  13  14  1   
 26  13  17  am  
 27  14  39  1   
 28  14  40  1   
 29  15  18  2   
 30  15  41  1   
 31  16  19  2   
 32  17  20  2   
 33  17  21  1   
 34  18  19  1   
 35  18  42  1   
 36  19  43  1   
 37  21  22  1   
 38  21  44  1   
 39  21  45  1   
 40  22  23  1   
 41  22  24  1   
 42  22  46  1   
 43  23  25  ar  
 44  23  26  ar  
 45  24  27  1   
 46  24  47  1   
 47  24  48  1   
 48  25  27  1   
 49  25  28  ar  
 50  26  29  ar  
 51  26  49  1   
 52  27  50  1   
 53  27  51  1   
 54  28  30  ar  
 55  28  52  1   
 56  29  30  ar  
 57  29  53  1   
 58  30  54  1   
@<TRIPOS>SUBSTRUCTURE
  1 ****   6 GROUP 4 **** **** 0

# MOE 2024.06 (io_trps.svl 2023.06)
