@<TRIPOS>MOLECULE
NONAME
44 46 1 0 0 
SMALL
USER_CHARGES


@<TRIPOS>ATOM
  1 O        0.2380     0.3280    -0.6380 O.3   1 <1>  -0.6800 
  2 C        1.5520     0.1630    -1.0600 C.3   1 <1>   0.2000 
  3 C        2.1550    -1.0340    -0.3180 C.3   1 <1>  -0.0800 
  4 C        2.3860     1.3720    -0.6000 C.3   1 <1>   0.1100 
  5 C        2.7480    -0.3690     0.9230 C.3   1 <1>   0.1100 
  6 C        3.2390    -1.7190    -1.1800 C.3   1 <1>  -0.0170 
  7 N        3.3340     0.8550     0.4000 N.3   1 <1>  -0.8100 
  8 C        3.9810    -2.8190    -0.4350 C.ar  1 <1>   0.1670 
  9 C        3.7040     1.8380     1.4290 C.3   1 <1>   0.2900 
 10 N        5.2040    -2.5370    -0.0090 N.ar  1 <1>  -0.6200 
 11 C        3.3640    -4.0530    -0.2350 C.ar  1 <1>   0.1600 
 12 C        4.6790     2.8550     0.8570 C.2   1 <1>   0.0060 
 13 C        5.7570    -3.5590     0.6220 C.ar  1 <1>   0.1600 
 14 N        3.9140    -5.0740     0.3990 N.ar  1 <1>  -0.6200 
 15 N        4.4990     4.1320     0.8970 N.2   1 <1>  -0.3380 
 16 N        5.8320     2.5360     0.2530 N.pl3 1 <1>   0.0480 
 17 C        5.1340    -4.7860     0.8200 C.ar  1 <1>   0.1600 
 18 N        5.5520     4.6950     0.3030 N.2   1 <1>  -0.3380 
 19 C        6.3240     3.7340    -0.0710 C.2   1 <1>   0.0360 
 20 C        6.4300     1.1980    -0.0140 C.3   1 <1>   0.1760 
 21 C        7.8460     1.1140     0.5660 C.3   1 <1>  -0.2400 
 22 C        6.4350     0.9140    -1.5190 C.3   1 <1>  -0.2400 
 23 H       -0.3160    -0.4170    -0.9370 H     1 <1>   0.4000 
 24 H        1.5530     0.0550    -2.1310 H     1 <1>   0.0800 
 25 H        1.4080    -1.7560    -0.0410 H     1 <1>   0.0800 
 26 H        1.7460     2.1290    -0.1770 H     1 <1>   0.0800 
 27 H        2.9360     1.7940    -1.4230 H     1 <1>   0.0800 
 28 H        3.4890    -0.9770     1.4150 H     1 <1>   0.0800 
 29 H        1.9600    -0.1290     1.6190 H     1 <1>   0.0800 
 30 H        3.9540    -0.9890    -1.5170 H     1 <1>   0.0800 
 31 H        2.7820    -2.1430    -2.0550 H     1 <1>   0.0800 
 32 H        2.8260     2.3370     1.8040 H     1 <1>   0.0800 
 33 H        4.1840     1.3350     2.2500 H     1 <1>   0.0800 
 34 H        2.3690    -4.2010    -0.6160 H     1 <1>   0.1500 
 35 H        6.7540    -3.4220     1.0020 H     1 <1>   0.1500 
 36 H        5.6660    -5.5580     1.3470 H     1 <1>   0.1500 
 37 H        7.2570     3.8650    -0.5850 H     1 <1>   0.1500 
 38 H        5.8280     0.4490     0.4700 H     1 <1>   0.0800 
 39 H        8.5050     1.8120     0.0810 H     1 <1>   0.0800 
 40 H        8.2380     0.1220     0.4230 H     1 <1>   0.0800 
 41 H        7.8260     1.3180     1.6220 H     1 <1>   0.0800 
 42 H        7.0720     1.6060    -2.0410 H     1 <1>   0.0800 
 43 H        5.4350     0.9890    -1.9060 H     1 <1>   0.0800 
 44 H        6.7900    -0.0860    -1.6990 H     1 <1>   0.0800 
@<TRIPOS>BOND
  1   1   2  1   
  2   1  23  1   
  3   2   3  1   
  4   2   4  1   
  5   2  24  1   
  6   3   5  1   
  7   3   6  1   
  8   3  25  1   
  9   4   7  1   
 10   4  26  1   
 11   4  27  1   
 12   5   7  1   
 13   5  28  1   
 14   5  29  1   
 15   6   8  1   
 16   6  30  1   
 17   6  31  1   
 18   7   9  1   
 19   8  10  ar  
 20   8  11  ar  
 21   9  12  1   
 22   9  32  1   
 23   9  33  1   
 24  10  13  ar  
 25  11  14  ar  
 26  11  34  1   
 27  12  15  2   
 28  12  16  1   
 29  13  17  ar  
 30  13  35  1   
 31  14  17  ar  
 32  15  18  1   
 33  16  19  1   
 34  16  20  1   
 35  17  36  1   
 36  18  19  2   
 37  19  37  1   
 38  20  21  1   
 39  20  22  1   
 40  20  38  1   
 41  21  39  1   
 42  21  40  1   
 43  21  41  1   
 44  22  42  1   
 45  22  43  1   
 46  22  44  1   
@<TRIPOS>SUBSTRUCTURE
  1 ****   7 GROUP 4 **** **** 0

# MOE 2024.06 (io_trps.svl 2023.06)
