@<TRIPOS>MOLECULE
NONAME
45 46 1 0 0 
SMALL
USER_CHARGES


@<TRIPOS>ATOM
  1 S        1.1290     1.0930     0.3460 S.o2  1 <1>   1.3330 
  2 O        2.2820     1.4630     1.1360 O.2   1 <1>  -0.6500 
  3 O        0.1190     0.2260     0.9090 O.2   1 <1>  -0.6500 
  4 N        1.7030     0.3720    -1.0790 N.am  1 <1>  -0.8490 
  5 C        0.3120     2.5630    -0.2720 C.3   1 <1>  -0.0550 
  6 C        1.8910    -1.0740    -0.9270 C.3   1 <1>   0.1160 
  7 C        2.9330     0.9850    -1.5910 C.3   1 <1>   0.1160 
  8 C       -0.6130     3.2690     0.7440 C.3   1 <1>  -0.0800 
  9 C       -1.2840     4.4670     0.0680 C.3   1 <1>   0.2000 
 10 C        0.1670     3.9130     1.8990 C.3   1 <1>   0.1400 
 11 O       -2.3870     4.8300     0.8220 O.3   1 <1>  -0.6800 
 12 C       -0.2390     5.5800     0.1660 C.3   1 <1>   0.1400 
 13 N        0.5340     5.2560     1.3930 N.am  1 <1>  -0.6600 
 14 C        1.6910     5.8880     1.7770 C.2   1 <1>   0.5440 
 15 O        2.1400     5.6630     2.8850 O.2   1 <1>  -0.5700 
 16 C        2.3780     6.7870     0.8820 C.ar  1 <1>   0.0860 
 17 C        3.0730     6.3230    -0.2450 C.ar  1 <1>   0.0820 
 18 C        2.3410     8.1630     1.1050 C.ar  1 <1>  -0.1500 
 19 O        3.2000     5.0060    -0.5250 O.3   1 <1>  -0.3630 
 20 C        3.6560     7.2160    -1.1300 C.ar  1 <1>  -0.1500 
 21 C        2.9380     9.0500     0.2280 C.ar  1 <1>  -0.1500 
 22 C        3.9100     4.2000     0.3980 C.3   1 <1>   0.0400 
 23 C        3.5920     8.5770    -0.8960 C.ar  1 <1>  -0.1500 
 24 H        1.0560     3.2510    -0.6250 H     1 <1>   0.0800 
 25 H       -0.2860     2.2740    -1.1140 H     1 <1>   0.0800 
 26 H        2.2360    -1.5050    -1.8510 H     1 <1>   0.0800 
 27 H        0.9560    -1.5420    -0.6670 H     1 <1>   0.0800 
 28 H        2.6080    -1.2790    -0.1500 H     1 <1>   0.0800 
 29 H        3.2000     0.5430    -2.5360 H     1 <1>   0.0800 
 30 H        3.7440     0.8400    -0.8950 H     1 <1>   0.0800 
 31 H        2.7900     2.0410    -1.7400 H     1 <1>   0.0800 
 32 H       -1.3420     2.5630     1.1060 H     1 <1>   0.0800 
 33 H       -1.6110     4.2780    -0.9400 H     1 <1>   0.0800 
 34 H        1.0410     3.3550     2.1880 H     1 <1>   0.0800 
 35 H       -0.4650     4.0280     2.7630 H     1 <1>   0.0800 
 36 H       -2.0850     5.1410     1.6990 H     1 <1>   0.4000 
 37 H       -0.6950     6.5530     0.2320 H     1 <1>   0.0800 
 38 H        0.4140     5.5460    -0.6880 H     1 <1>   0.0800 
 39 H        1.8320     8.5310     1.9790 H     1 <1>   0.1500 
 40 H        4.1680     6.8380    -1.9970 H     1 <1>   0.1500 
 41 H        2.8940    10.1090     0.4190 H     1 <1>   0.1500 
 42 H        4.2530     3.3190    -0.1130 H     1 <1>   0.0800 
 43 H        3.2590     3.9130     1.2030 H     1 <1>   0.0800 
 44 H        4.7510     4.7520     0.7790 H     1 <1>   0.0800 
 45 H        4.0520     9.2670    -1.5830 H     1 <1>   0.1500 
@<TRIPOS>BOND
  1   1   2  2   
  2   1   3  2   
  3   1   4  am  
  4   1   5  1   
  5   4   6  1   
  6   4   7  1   
  7   5   8  1   
  8   5  24  1   
  9   5  25  1   
 10   6  26  1   
 11   6  27  1   
 12   6  28  1   
 13   7  29  1   
 14   7  30  1   
 15   7  31  1   
 16   8   9  1   
 17   8  10  1   
 18   8  32  1   
 19   9  11  1   
 20   9  12  1   
 21   9  33  1   
 22  10  13  1   
 23  10  34  1   
 24  10  35  1   
 25  11  36  1   
 26  12  13  1   
 27  12  37  1   
 28  12  38  1   
 29  13  14  am  
 30  14  15  2   
 31  14  16  1   
 32  16  17  ar  
 33  16  18  ar  
 34  17  19  1   
 35  17  20  ar  
 36  18  21  ar  
 37  18  39  1   
 38  19  22  1   
 39  20  23  ar  
 40  20  40  1   
 41  21  23  ar  
 42  21  41  1   
 43  22  42  1   
 44  22  43  1   
 45  22  44  1   
 46  23  45  1   
@<TRIPOS>SUBSTRUCTURE
  1 ****  13 GROUP 4 **** **** 0

# MOE 2024.06 (io_trps.svl 2023.06)
