@<TRIPOS>MOLECULE
NONAME
53 55 1 0 0 
SMALL
USER_CHARGES


@<TRIPOS>ATOM
  1 O        1.4020     0.5240     2.4330 O.2   1 <1>  -0.5700 
  2 C        1.7950     0.0630     1.3840 C.2   1 <1>   0.7160 
  3 N        1.4950     0.7030     0.2000 N.am  1 <1>  -0.6600 
  4 C        2.7580    -1.0060     1.3590 C.2   1 <1>  -0.0860 
  5 C        1.4310     0.0130    -1.1260 C.3   1 <1>   0.1400 
  6 C        1.4880     2.1870     0.1360 C.3   1 <1>   0.1400 
  7 C        2.7600    -2.3070     0.9470 C.2   1 <1>  -0.3320 
  8 C        4.0800    -0.7850     1.7360 C.2   1 <1>   0.1390 
  9 C        2.8220    -0.2180    -1.7560 C.3   1 <1>   0.3430 
 10 C        2.9070     2.7140    -0.1390 C.3   1 <1>  -0.1600 
 11 N        4.0300    -2.7560     1.0330 N.pl3 1 <1>   0.3140 
 12 C        1.5730    -3.1550     0.5090 C.3   1 <1>  -0.0600 
 13 N        4.8570    -1.7850     1.4720 N.2   1 <1>  -0.7070 
 14 N        3.8720     0.6660    -1.1630 N.4   1 <1>  -0.9590 
 15 C        3.6200     2.1250    -1.3660 C.3   1 <1>   0.3430 
 16 C        4.5370    -4.1170     0.7420 C.3   1 <1>   0.0960 
 17 C        5.2550     0.2450    -1.5390 C.3   1 <1>   0.5230 
 18 C        4.9510    -4.2540    -0.7290 C.3   1 <1>  -0.2400 
 19 C        6.2550     0.8580    -0.5820 C.2   1 <1>   0.0060 
 20 N        6.7410     2.0420    -0.7100 N.2   1 <1>  -0.3380 
 21 N        6.7290     0.2510     0.5080 N.pl3 1 <1>   0.0330 
 22 N        7.5560     2.2390     0.3260 N.2   1 <1>  -0.3380 
 23 C        7.5370     1.1650     1.0380 C.2   1 <1>   0.0060 
 24 C        8.3170     0.9580     2.3250 C.3   1 <1>   0.0200 
 25 C        9.2270    -0.2730     2.2470 C.3   1 <1>  -0.2400 
 26 H        0.8340     0.6000    -1.8020 H     1 <1>   0.0800 
 27 H        0.9270    -0.9310    -1.0190 H     1 <1>   0.0800 
 28 H        1.1320     2.5900     1.0720 H     1 <1>   0.0800 
 29 H        0.8080     2.5160    -0.6320 H     1 <1>   0.0800 
 30 H        4.4180     0.1390     2.1820 H     1 <1>   0.1500 
 31 H        2.7630    -0.0730    -2.8230 H     1 <1>   0.0800 
 32 H        3.0920    -1.2470    -1.5820 H     1 <1>   0.0800 
 33 H        3.5200     2.5710     0.7330 H     1 <1>   0.0800 
 34 H        2.8350     3.7770    -0.2820 H     1 <1>   0.0800 
 35 H        0.6550    -2.6000     0.6050 H     1 <1>   0.0800 
 36 H        1.4910    -4.0260     1.1370 H     1 <1>   0.0800 
 37 H        1.6830    -3.4750    -0.5110 H     1 <1>   0.0800 
 38 H        3.8050     0.5280    -0.1470 H     1 <1>   0.4500 
 39 H        4.5560     2.6460    -1.4930 H     1 <1>   0.0800 
 40 H        3.0300     2.2860    -2.2530 H     1 <1>   0.0800 
 41 H        3.7740    -4.8340     0.9840 H     1 <1>   0.0800 
 42 H        5.3830    -4.3030     1.3790 H     1 <1>   0.0800 
 43 H        5.4800     0.5670    -2.5430 H     1 <1>   0.0800 
 44 H        5.3410    -0.8280    -1.4930 H     1 <1>   0.0800 
 45 H        4.1110    -4.0860    -1.3780 H     1 <1>   0.0800 
 46 H        5.3210    -5.2490    -0.9060 H     1 <1>   0.0800 
 47 H        5.7380    -3.5580    -0.9620 H     1 <1>   0.0800 
 48 H        6.4970    -0.6780     0.8930 H     1 <1>   0.2700 
 49 H        7.6290     0.8520     3.1460 H     1 <1>   0.0800 
 50 H        8.9180     1.8320     2.5110 H     1 <1>   0.0800 
 51 H        8.6470    -1.1700     2.1270 H     1 <1>   0.0800 
 52 H        9.8040    -0.3580     3.1510 H     1 <1>   0.0800 
 53 H        9.9040    -0.1780     1.4160 H     1 <1>   0.0800 
@<TRIPOS>BOND
  1   1   2  2   
  2   2   3  am  
  3   2   4  1   
  4   3   5  1   
  5   3   6  1   
  6   4   7  2   
  7   4   8  1   
  8   5   9  1   
  9   5  26  1   
 10   5  27  1   
 11   6  10  1   
 12   6  28  1   
 13   6  29  1   
 14   7  11  1   
 15   7  12  1   
 16   8  13  2   
 17   8  30  1   
 18   9  14  1   
 19   9  31  1   
 20   9  32  1   
 21  10  15  1   
 22  10  33  1   
 23  10  34  1   
 24  11  13  1   
 25  11  16  1   
 26  12  35  1   
 27  12  36  1   
 28  12  37  1   
 29  14  15  1   
 30  14  17  1   
 31  14  38  1   
 32  15  39  1   
 33  15  40  1   
 34  16  18  1   
 35  16  41  1   
 36  16  42  1   
 37  17  19  1   
 38  17  43  1   
 39  17  44  1   
 40  18  45  1   
 41  18  46  1   
 42  18  47  1   
 43  19  20  2   
 44  19  21  1   
 45  20  22  1   
 46  21  23  1   
 47  21  48  1   
 48  22  23  2   
 49  23  24  1   
 50  24  25  1   
 51  24  49  1   
 52  24  50  1   
 53  25  51  1   
 54  25  52  1   
 55  25  53  1   
@<TRIPOS>SUBSTRUCTURE
  1 ****   8 GROUP 4 **** **** 0

# MOE 2024.06 (io_trps.svl 2023.06)
