@<TRIPOS>MOLECULE
NONAME
42 44 1 0 0 
SMALL
USER_CHARGES


@<TRIPOS>ATOM
  1 O        0.4160     0.2760    -0.2950 O.3   1 <1>  -0.5600 
  2 C        0.3740     1.6110     0.1260 C.3   1 <1>   0.2950 
  3 C        1.5830    -0.4000     0.0820 C.3   1 <1>   0.2000 
  4 C       -0.9920     2.1750    -0.2790 C.3   1 <1>  -0.1950 
  5 C        1.5330     2.4170    -0.4940 C.3   1 <1>   0.2090 
  6 C        2.8290     0.2760    -0.5370 C.3   1 <1>   0.2090 
  7 C        1.4060    -1.8590    -0.3580 C.3   1 <1>  -0.1600 
  8 C       -1.6240     3.2960     0.4870 C.3   1 <1>  -0.2000 
  9 C       -2.2140     1.9150     0.5430 C.3   1 <1>  -0.2000 
 10 N        2.8560     1.7490    -0.2650 N.pl3 1 <1>  -0.8380 
 11 C        2.5420    -2.7770     0.1200 C.3   1 <1>  -0.1600 
 12 C        4.0260     2.4550    -0.0800 C.ar  1 <1>   0.7200 
 13 C        2.2690    -4.2360    -0.2650 C.3   1 <1>  -0.1600 
 14 N        5.1610     1.7560    -0.0540 N.ar  1 <1>  -0.6200 
 15 N        3.9240     3.7770     0.0550 N.ar  1 <1>  -0.6200 
 16 C        3.4010    -5.1520     0.2070 C.3   1 <1>  -0.2400 
 17 C        6.2650     2.4390     0.1210 C.ar  1 <1>   0.1600 
 18 C        5.0440     4.4350     0.2290 C.ar  1 <1>   0.1600 
 19 C        6.2620     3.8040     0.2700 C.ar  1 <1>  -0.1500 
 20 H        0.4650     1.6260     1.1990 H     1 <1>   0.0800 
 21 H        1.6560    -0.3610     1.1550 H     1 <1>   0.0800 
 22 H       -1.1180     2.1850    -1.3480 H     1 <1>   0.1000 
 23 H        1.5190     3.4030    -0.0660 H     1 <1>   0.0800 
 24 H        1.3700     2.5140    -1.5520 H     1 <1>   0.0800 
 25 H        2.8300     0.1170    -1.6010 H     1 <1>   0.0800 
 26 H        3.7060    -0.1950    -0.1330 H     1 <1>   0.0800 
 27 H        0.4760    -2.2190     0.0490 H     1 <1>   0.0800 
 28 H        1.3390    -1.8980    -1.4310 H     1 <1>   0.0800 
 29 H       -1.1360     3.6780     1.3670 H     1 <1>   0.1000 
 30 H       -2.1520     4.0610    -0.0560 H     1 <1>   0.1000 
 31 H       -3.1400     1.7180     0.0310 H     1 <1>   0.1000 
 32 H       -2.1120     1.3350     1.4450 H     1 <1>   0.1000 
 33 H        3.4750    -2.4700    -0.3210 H     1 <1>   0.0800 
 34 H        2.6360    -2.7040     1.1910 H     1 <1>   0.0800 
 35 H        1.3430    -4.5600     0.1780 H     1 <1>   0.0800 
 36 H        2.1720    -4.3150    -1.3350 H     1 <1>   0.0800 
 37 H        3.5010    -5.1050     1.2770 H     1 <1>   0.0800 
 38 H        4.3340    -4.8590    -0.2420 H     1 <1>   0.0800 
 39 H        3.1920    -6.1690    -0.0730 H     1 <1>   0.0800 
 40 H        7.1950     1.8980     0.1460 H     1 <1>   0.1500 
 41 H        4.9880     5.5040     0.3410 H     1 <1>   0.1500 
 42 H        7.1730     4.3540     0.4130 H     1 <1>   0.1500 
@<TRIPOS>BOND
  1   1   2  1   
  2   1   3  1   
  3   2   4  1   
  4   2   5  1   
  5   2  20  1   
  6   3   6  1   
  7   3   7  1   
  8   3  21  1   
  9   4   8  1   
 10   4   9  1   
 11   4  22  1   
 12   5  10  1   
 13   5  23  1   
 14   5  24  1   
 15   6  10  1   
 16   6  25  1   
 17   6  26  1   
 18   7  11  1   
 19   7  27  1   
 20   7  28  1   
 21   8   9  1   
 22   8  29  1   
 23   8  30  1   
 24   9  31  1   
 25   9  32  1   
 26  10  12  1   
 27  11  13  1   
 28  11  33  1   
 29  11  34  1   
 30  12  14  ar  
 31  12  15  ar  
 32  13  16  1   
 33  13  35  1   
 34  13  36  1   
 35  14  17  ar  
 36  15  18  ar  
 37  16  37  1   
 38  16  38  1   
 39  16  39  1   
 40  17  19  ar  
 41  17  40  1   
 42  18  19  ar  
 43  18  41  1   
 44  19  42  1   
@<TRIPOS>SUBSTRUCTURE
  1 ****   6 GROUP 4 **** **** 0

# MOE 2024.06 (io_trps.svl 2023.06)
