@<TRIPOS>MOLECULE
NONAME
33 33 1 0 0 
SMALL
USER_CHARGES


@<TRIPOS>ATOM
  1 SI      -0.1800     0.2040     0.3080 Si    1 <1>   0.3220 
  2 C       -1.1400     1.7330     0.3030 C.3   1 <1>  -0.2410 
  3 C        0.4740    -0.1200    -1.3390 C.3   1 <1>  -0.3210 
  4 C       -1.2410    -1.1650     0.8000 C.3   1 <1>  -0.3210 
  5 C        1.1880     0.3380     1.4740 C.3   1 <1>  -0.3200 
  6 C       -0.3360     2.9650    -0.1020 C.3   1 <1>   0.1200 
  7 O       -1.1920     4.0560    -0.0630 O.3   1 <1>  -0.5600 
  8 C       -0.5770     5.2660    -0.4140 C.3   1 <1>   0.3760 
  9 N       -1.5460     6.3940    -0.3650 N.pl3 1 <1>   0.3140 
 10 N       -1.2090     7.6260    -0.8350 N.2   1 <1>  -0.7070 
 11 C       -2.8060     6.3940     0.1290 C.2   1 <1>  -0.3020 
 12 C       -2.2520     8.3460    -0.6170 C.2   1 <1>   0.3720 
 13 C       -3.2910     7.6440    -0.0210 C.2   1 <1>  -0.1500 
 14 N       -2.2430     9.6610    -0.9940 N.pl3 1 <1>  -0.8830 
 15 H       -1.5520     1.9300     1.2760 H     1 <1>   0.0800 
 16 H       -1.9710     1.6610    -0.3760 H     1 <1>   0.0800 
 17 H       -0.3040    -0.1940    -2.0770 H     1 <1>   0.0800 
 18 H        1.0230    -1.0430    -1.3810 H     1 <1>   0.0800 
 19 H        1.1450     0.6490    -1.6760 H     1 <1>   0.0800 
 20 H       -2.0730    -1.2930     0.1320 H     1 <1>   0.0800 
 21 H       -1.6550    -1.0250     1.7820 H     1 <1>   0.0800 
 22 H       -0.7150    -2.1010     0.8180 H     1 <1>   0.0800 
 23 H        1.8780     1.1180     1.2130 H     1 <1>   0.0800 
 24 H        1.7600    -0.5700     1.5290 H     1 <1>   0.0800 
 25 H        0.8500     0.5460     2.4730 H     1 <1>   0.0800 
 26 H        0.0460     2.8580    -1.1040 H     1 <1>   0.0800 
 27 H        0.4740     3.1340     0.5880 H     1 <1>   0.0800 
 28 H       -0.1910     5.1840    -1.4140 H     1 <1>   0.0800 
 29 H        0.2230     5.4650     0.2750 H     1 <1>   0.0800 
 30 H       -3.2650     5.5170     0.5490 H     1 <1>   0.1500 
 31 H       -4.2470     8.0520     0.2470 H     1 <1>   0.1500 
 32 H       -2.8040     9.7520    -1.8390 H     1 <1>   0.4000 
 33 H       -1.2760     9.8430    -1.2660 H     1 <1>   0.4000 
@<TRIPOS>BOND
  1   1   2  1   
  2   1   3  1   
  3   1   4  1   
  4   1   5  1   
  5   2   6  1   
  6   2  15  1   
  7   2  16  1   
  8   3  17  1   
  9   3  18  1   
 10   3  19  1   
 11   4  20  1   
 12   4  21  1   
 13   4  22  1   
 14   5  23  1   
 15   5  24  1   
 16   5  25  1   
 17   6   7  1   
 18   6  26  1   
 19   6  27  1   
 20   7   8  1   
 21   8   9  1   
 22   8  28  1   
 23   8  29  1   
 24   9  10  1   
 25   9  11  1   
 26  10  12  2   
 27  11  13  2   
 28  11  30  1   
 29  12  13  1   
 30  12  14  1   
 31  13  31  1   
 32  14  32  1   
 33  14  33  1   
@<TRIPOS>SUBSTRUCTURE
  1 ****   7 GROUP 4 **** **** 0

# MOE 2024.06 (io_trps.svl 2023.06)
