@<TRIPOS>MOLECULE
NONAME
49 51 1 0 0 
SMALL
USER_CHARGES


@<TRIPOS>ATOM
  1 O        1.5620    -0.7270    -2.4030 O.2   1 <1>  -0.5700 
  2 C        1.9280    -0.7920    -1.2560 C.2   1 <1>   0.5690 
  3 N        2.5110     0.2920    -0.6260 N.am  1 <1>  -0.6600 
  4 C        1.7160    -2.1280    -0.5770 C.3   1 <1>   0.1570 
  5 C        2.9480     0.3230     0.8090 C.3   1 <1>   0.1400 
  6 C        2.5540     1.6130    -1.3270 C.3   1 <1>   0.1400 
  7 N        0.5970    -2.0260     0.3600 N.pl3 1 <1>   0.3140 
  8 C        4.4480     0.0060     0.9580 C.3   1 <1>   0.3430 
  9 C        3.8940     2.3370    -1.1580 C.3   1 <1>  -0.1600 
 10 N        0.7320    -2.2590     1.6470 N.2   1 <1>  -0.4180 
 11 C       -0.6530    -1.6620     0.1480 C.2   1 <1>   0.0360 
 12 N        5.3520     1.0280     0.3440 N.4   1 <1>  -0.9590 
 13 C        5.0980     1.4010    -1.0770 C.3   1 <1>   0.3430 
 14 N       -0.4170    -2.0360     2.1760 N.2   1 <1>   0.0000 
 15 N       -1.2950    -1.6580     1.2520 N.2   1 <1>  -0.3380 
 16 C        6.7910     0.7300     0.5670 C.3   1 <1>   0.5240 
 17 C        7.4850     2.0790     0.6630 C.2   1 <1>   0.0460 
 18 N        6.8570     3.0930     1.3000 N.2   1 <1>  -0.5650 
 19 C        8.6820     2.4790     0.1760 C.2   1 <1>  -0.3320 
 20 C        7.6820     4.0840     1.1970 C.2   1 <1>   0.0060 
 21 N        8.8120     3.7740     0.5250 N.pl3 1 <1>   0.0330 
 22 C        9.7530     1.7390    -0.6080 C.3   1 <1>  -0.0600 
 23 C        7.4270     5.4670     1.7680 C.3   1 <1>   0.0200 
 24 C        7.1210     6.4790     0.6590 C.3   1 <1>  -0.2400 
 25 H        2.6000    -2.4270    -0.0510 H     1 <1>   0.0800 
 26 H        1.4800    -2.8750    -1.3120 H     1 <1>   0.0800 
 27 H        2.3920    -0.3880     1.3870 H     1 <1>   0.0800 
 28 H        2.7370     1.2890     1.2360 H     1 <1>   0.0800 
 29 H        1.7550     2.2360    -0.9600 H     1 <1>   0.0800 
 30 H        2.3820     1.4730    -2.3820 H     1 <1>   0.0800 
 31 H        4.6390    -0.9580     0.5160 H     1 <1>   0.0800 
 32 H        4.6720    -0.0680     2.0100 H     1 <1>   0.0800 
 33 H        3.8640     2.9910    -0.3050 H     1 <1>   0.0800 
 34 H        4.0200     2.9710    -2.0180 H     1 <1>   0.0800 
 35 H       -1.0530    -1.4040    -0.8160 H     1 <1>   0.1500 
 36 H        5.2780     1.9190     0.8750 H     1 <1>   0.4500 
 37 H        5.9570     1.9300    -1.4590 H     1 <1>   0.0800 
 38 H        4.9390     0.5250    -1.6850 H     1 <1>   0.0800 
 39 H        7.2010     0.1380    -0.2330 H     1 <1>   0.0800 
 40 H        6.9230     0.2120     1.5020 H     1 <1>   0.0800 
 41 H        9.5970     4.4030     0.3300 H     1 <1>   0.2700 
 42 H        9.4670     0.7180    -0.7850 H     1 <1>   0.0800 
 43 H       10.6800     1.7400    -0.0600 H     1 <1>   0.0800 
 44 H        9.9160     2.2170    -1.5590 H     1 <1>   0.0800 
 45 H        8.2850     5.7880     2.3320 H     1 <1>   0.0800 
 46 H        6.5910     5.4190     2.4440 H     1 <1>   0.0800 
 47 H        7.9570     6.5720    -0.0110 H     1 <1>   0.0800 
 48 H        6.9140     7.4430     1.0880 H     1 <1>   0.0800 
 49 H        6.2600     6.1610     0.0980 H     1 <1>   0.0800 
@<TRIPOS>BOND
  1   1   2  2   
  2   2   3  am  
  3   2   4  1   
  4   3   5  1   
  5   3   6  1   
  6   4   7  1   
  7   4  25  1   
  8   4  26  1   
  9   5   8  1   
 10   5  27  1   
 11   5  28  1   
 12   6   9  1   
 13   6  29  1   
 14   6  30  1   
 15   7  10  1   
 16   7  11  1   
 17   8  12  1   
 18   8  31  1   
 19   8  32  1   
 20   9  13  1   
 21   9  33  1   
 22   9  34  1   
 23  10  14  2   
 24  11  15  2   
 25  11  35  1   
 26  12  13  1   
 27  12  16  1   
 28  12  36  1   
 29  13  37  1   
 30  13  38  1   
 31  14  15  1   
 32  16  17  1   
 33  16  39  1   
 34  16  40  1   
 35  17  18  1   
 36  17  19  2   
 37  18  20  2   
 38  19  21  1   
 39  19  22  1   
 40  20  21  1   
 41  20  23  1   
 42  21  41  1   
 43  22  42  1   
 44  22  43  1   
 45  22  44  1   
 46  23  24  1   
 47  23  45  1   
 48  23  46  1   
 49  24  47  1   
 50  24  48  1   
 51  24  49  1   
@<TRIPOS>SUBSTRUCTURE
  1 ****  12 GROUP 4 **** **** 0

# MOE 2024.06 (io_trps.svl 2023.06)
