@<TRIPOS>MOLECULE
NONAME
45 48 1 0 0 
SMALL
USER_CHARGES


@<TRIPOS>ATOM
  1 O       -0.3690     0.7460    -1.6550 O.2   1 <1>  -0.5700 
  2 C       -0.7550     1.5090    -0.8070 C.2   1 <1>   0.4230 
  3 C       -2.1370     1.7410    -0.4840 C.ar  1 <1>   0.0860 
  4 C        0.2810     2.2690    -0.0110 C.3   1 <1>  -0.0990 
  5 C       -2.4740     2.7550     0.4180 C.ar  1 <1>   0.0830 
  6 C       -3.1740     0.9800    -1.0270 C.ar  1 <1>  -0.1500 
  7 C       -0.2440     3.6640     0.3470 C.3   1 <1>   0.2800 
  8 O       -1.5250     3.5550     0.9520 O.3   1 <1>  -0.3630 
  9 C       -3.7910     2.9770     0.7820 C.ar  1 <1>  -0.1500 
 10 C       -4.4900     1.2080    -0.6710 C.ar  1 <1>  -0.1500 
 11 C        0.6730     4.4390     1.3010 C.3   1 <1>   0.1100 
 12 C       -0.3530     4.6210    -0.8350 C.3   1 <1>  -0.1600 
 13 C       -4.8010     2.2060     0.2390 C.ar  1 <1>  -0.1500 
 14 N        0.4980     5.8810     1.0190 N.3   1 <1>  -0.8100 
 15 C       -0.3430     5.9970    -0.1830 C.3   1 <1>   0.1100 
 16 C        1.7930     6.5870     0.8760 C.3   1 <1>   0.2530 
 17 C        1.6410     8.1050     0.7840 C.ar  1 <1>   0.1670 
 18 N        2.4700     8.7560    -0.0090 N.ar  1 <1>  -0.6200 
 19 C        0.6790     8.7700     1.5080 C.ar  1 <1>  -0.1500 
 20 C        2.3120    10.0700    -0.0600 C.ar  1 <1>   0.4770 
 21 C        0.6060    10.1340     1.3750 C.ar  1 <1>   0.1600 
 22 N        1.4210    10.8030     0.5900 N.ar  1 <1>  -0.6200 
 23 C        3.2670    10.8260    -0.9690 C.3   1 <1>  -0.0170 
 24 C        4.5520    11.2460    -0.2400 C.3   1 <1>  -0.2400 
 25 H        1.1870     2.3500    -0.5840 H     1 <1>   0.0800 
 26 H        0.5000     1.7210     0.8860 H     1 <1>   0.0800 
 27 H       -2.9350     0.2010    -1.7310 H     1 <1>   0.1500 
 28 H       -4.0180     3.7580     1.4860 H     1 <1>   0.1500 
 29 H       -5.2760     0.6090    -1.0990 H     1 <1>   0.1500 
 30 H        1.6940     4.1530     1.1170 H     1 <1>   0.0800 
 31 H        0.4320     4.2220     2.3280 H     1 <1>   0.0800 
 32 H       -1.2340     4.4620    -1.4300 H     1 <1>   0.0800 
 33 H        0.5120     4.5350    -1.4680 H     1 <1>   0.0800 
 34 H       -5.8260     2.3800     0.5190 H     1 <1>   0.1500 
 35 H       -1.3440     6.2480     0.1290 H     1 <1>   0.0800 
 36 H        0.0070     6.7570    -0.8630 H     1 <1>   0.0800 
 37 H        2.3010     6.2310    -0.0030 H     1 <1>   0.0800 
 38 H        2.4120     6.3710     1.7290 H     1 <1>   0.0800 
 39 H        0.0060     8.2360     2.1530 H     1 <1>   0.1500 
 40 H       -0.1350    10.6890     1.9240 H     1 <1>   0.1500 
 41 H        2.7690    11.7000    -1.3490 H     1 <1>   0.0800 
 42 H        3.5170    10.2010    -1.8080 H     1 <1>   0.0800 
 43 H        4.3100    11.8840     0.5920 H     1 <1>   0.0800 
 44 H        5.2030    11.7780    -0.9100 H     1 <1>   0.0800 
 45 H        5.0660    10.3770     0.1300 H     1 <1>   0.0800 
@<TRIPOS>BOND
  1   1   2  2   
  2   2   3  1   
  3   2   4  1   
  4   3   5  ar  
  5   3   6  ar  
  6   4   7  1   
  7   4  25  1   
  8   4  26  1   
  9   5   8  1   
 10   5   9  ar  
 11   6  10  ar  
 12   6  27  1   
 13   7   8  1   
 14   7  11  1   
 15   7  12  1   
 16   9  13  ar  
 17   9  28  1   
 18  10  13  ar  
 19  10  29  1   
 20  11  14  1   
 21  11  30  1   
 22  11  31  1   
 23  12  15  1   
 24  12  32  1   
 25  12  33  1   
 26  13  34  1   
 27  14  15  1   
 28  14  16  1   
 29  15  35  1   
 30  15  36  1   
 31  16  17  1   
 32  16  37  1   
 33  16  38  1   
 34  17  18  ar  
 35  17  19  ar  
 36  18  20  ar  
 37  19  21  ar  
 38  19  39  1   
 39  20  22  ar  
 40  20  23  1   
 41  21  22  ar  
 42  21  40  1   
 43  23  24  1   
 44  23  41  1   
 45  23  42  1   
 46  24  43  1   
 47  24  44  1   
 48  24  45  1   
@<TRIPOS>SUBSTRUCTURE
  1 ****  15 GROUP 4 **** **** 0

# MOE 2024.06 (io_trps.svl 2023.06)
