@<TRIPOS>MOLECULE
NONAME
53 54 1 0 0 
SMALL
USER_CHARGES


@<TRIPOS>ATOM
  1 O       -0.7730     0.8080    -1.1240 O.2   1 <1>  -0.5700 
  2 C       -0.7210     2.0130    -1.0450 C.2   1 <1>   0.5690 
  3 N       -1.4560     2.7470    -0.1440 N.am  1 <1>  -0.6600 
  4 C        0.2210     2.7340    -2.0100 C.3   1 <1>   0.1810 
  5 C       -1.3160     4.2440    -0.0860 C.3   1 <1>   0.3640 
  6 C       -2.2900     2.1540     0.9420 C.3   1 <1>   0.2200 
  7 O        0.6910     3.9500    -1.4880 O.3   1 <1>  -0.5600 
  8 C       -2.6850     4.9110    -0.2190 C.ar  1 <1>  -0.1440 
  9 C       -0.3500     4.8430    -1.1380 C.3   1 <1>   0.2610 
 10 C       -1.4080     1.3750     1.9180 C.3   1 <1>  -0.2400 
 11 C       -3.4170     1.2890     0.3760 C.3   1 <1>  -0.2400 
 12 C       -3.5780     4.5290    -1.2120 C.ar  1 <1>  -0.1500 
 13 C       -3.0480     5.9240     0.6580 C.ar  1 <1>  -0.1500 
 14 C        0.1890     6.1890    -0.6300 C.2   1 <1>   0.5690 
 15 C       -4.8120     5.1440    -1.3230 C.ar  1 <1>  -0.1500 
 16 C       -4.2820     6.5410     0.5480 C.ar  1 <1>  -0.1500 
 17 O       -0.2490     7.1860    -1.1610 O.2   1 <1>  -0.5700 
 18 N        1.1120     6.2930     0.3940 N.am  1 <1>  -0.6600 
 19 C       -5.1650     6.1500    -0.4420 C.ar  1 <1>  -0.1500 
 20 C        1.5580     7.6370     0.8600 C.3   1 <1>   0.1400 
 21 C        1.8620     5.1510     0.9980 C.3   1 <1>   0.0600 
 22 C        2.7030     8.1420    -0.0130 C.3   1 <1>  -0.0990 
 23 C        3.0560     9.5520     0.3850 C.2   1 <1>   0.5690 
 24 O        3.8170     9.7220     1.3060 O.2   1 <1>  -0.5700 
 25 N        2.4890    10.5800    -0.2970 N.am  1 <1>  -0.7300 
 26 C        2.7270    12.0200    -0.0310 C.3   1 <1>   0.0600 
 27 H       -0.2860     2.9270    -2.9380 H     1 <1>   0.0800 
 28 H        1.0750     2.1110    -2.2030 H     1 <1>   0.0800 
 29 H       -0.9280     4.4820     0.8880 H     1 <1>   0.0800 
 30 H       -2.7550     2.9520     1.4980 H     1 <1>   0.0800 
 31 H       -0.9020     5.0430    -2.0380 H     1 <1>   0.0800 
 32 H       -0.9730     0.5160     1.4390 H     1 <1>   0.0800 
 33 H       -1.9990     1.0320     2.7470 H     1 <1>   0.0800 
 34 H       -0.6240     2.0060     2.2960 H     1 <1>   0.0800 
 35 H       -3.0310     0.4130    -0.1110 H     1 <1>   0.0800 
 36 H       -4.0050     1.8540    -0.3230 H     1 <1>   0.0800 
 37 H       -4.0610     0.9680     1.1740 H     1 <1>   0.0800 
 38 H       -3.3190     3.7450    -1.9020 H     1 <1>   0.1500 
 39 H       -2.3710     6.2480     1.4310 H     1 <1>   0.1500 
 40 H       -5.4980     4.8400    -2.0940 H     1 <1>   0.1500 
 41 H       -4.5540     7.3270     1.2310 H     1 <1>   0.1500 
 42 H       -6.1250     6.6300    -0.5280 H     1 <1>   0.1500 
 43 H        0.7320     8.3280     0.8030 H     1 <1>   0.0800 
 44 H        1.8730     7.5900     1.8890 H     1 <1>   0.0800 
 45 H        2.0030     5.3190     2.0520 H     1 <1>   0.0800 
 46 H        2.8260     5.0660     0.5260 H     1 <1>   0.0800 
 47 H        1.3380     4.2220     0.8750 H     1 <1>   0.0800 
 48 H        2.4140     8.1250    -1.0480 H     1 <1>   0.0800 
 49 H        3.5680     7.5180     0.1170 H     1 <1>   0.0800 
 50 H        1.8250    10.3660    -1.0470 H     1 <1>   0.3700 
 51 H        3.4340    12.1400     0.7730 H     1 <1>   0.0800 
 52 H        1.8030    12.4970     0.2450 H     1 <1>   0.0800 
 53 H        3.1230    12.4920    -0.9130 H     1 <1>   0.0800 
@<TRIPOS>BOND
  1   1   2  2   
  2   2   3  am  
  3   2   4  1   
  4   3   5  1   
  5   3   6  1   
  6   4   7  1   
  7   4  27  1   
  8   4  28  1   
  9   5   8  1   
 10   5   9  1   
 11   5  29  1   
 12   6  10  1   
 13   6  11  1   
 14   6  30  1   
 15   7   9  1   
 16   8  12  ar  
 17   8  13  ar  
 18   9  14  1   
 19   9  31  1   
 20  10  32  1   
 21  10  33  1   
 22  10  34  1   
 23  11  35  1   
 24  11  36  1   
 25  11  37  1   
 26  12  15  ar  
 27  12  38  1   
 28  13  16  ar  
 29  13  39  1   
 30  14  17  2   
 31  14  18  am  
 32  15  19  ar  
 33  15  40  1   
 34  16  19  ar  
 35  16  41  1   
 36  18  20  1   
 37  18  21  1   
 38  19  42  1   
 39  20  22  1   
 40  20  43  1   
 41  20  44  1   
 42  21  45  1   
 43  21  46  1   
 44  21  47  1   
 45  22  23  1   
 46  22  48  1   
 47  22  49  1   
 48  23  24  2   
 49  23  25  am  
 50  25  26  1   
 51  25  50  1   
 52  26  51  1   
 53  26  52  1   
 54  26  53  1   
@<TRIPOS>SUBSTRUCTURE
  1 ****  14 GROUP 4 **** **** 0

# MOE 2024.06 (io_trps.svl 2023.06)
