@<TRIPOS>MOLECULE
NONAME
58 62 1 0 0 
SMALL
USER_CHARGES


@<TRIPOS>ATOM
  1 N       -0.5530    -0.7750     1.0930 N.ar  1 <1>  -0.1790 
  2 C       -0.8760    -1.9430     1.6580 C.ar  1 <1>   0.4610 
  3 C        0.6650    -0.4860     0.5060 C.ar  1 <1>   0.3610 
  4 N       -2.1240    -2.1460     2.1630 N.pl3 1 <1>  -0.8380 
  5 C        0.1440    -2.9340     1.6660 C.ar  1 <1>  -0.1500 
  6 C        1.6700    -1.4740     0.5010 C.ar  1 <1>   0.0000 
  7 C        0.8920     0.7640    -0.0820 C.ar  1 <1>  -0.1500 
  8 C       -2.5220    -3.4140     2.8970 C.3   1 <1>   0.2090 
  9 C       -3.2710    -1.1770     2.0980 C.3   1 <1>   0.2090 
 10 C        1.3720    -2.7280     1.1150 C.ar  1 <1>  -0.1430 
 11 C        2.8990    -1.1660    -0.1090 C.ar  1 <1>  -0.1500 
 12 C        2.1030     1.0250    -0.6680 C.ar  1 <1>  -0.1430 
 13 C       -3.0900    -4.4870     1.9390 C.3   1 <1>   0.3430 
 14 C       -4.2000    -1.4970     0.9160 C.3   1 <1>  -0.1600 
 15 C        2.4260    -3.8290     1.1500 C.3   1 <1>  -0.0970 
 16 C        3.0950     0.0660    -0.6790 C.ar  1 <1>  -0.1430 
 17 C        2.5620     2.2880    -1.3580 C.3   1 <1>  -0.0170 
 18 N       -3.6270    -3.8670     0.6880 N.4   1 <1>  -0.9590 
 19 C       -4.7560    -2.9270     0.8810 C.3   1 <1>   0.3430 
 20 C        4.3330     0.5760    -1.3770 C.3   1 <1>  -0.0170 
 21 C        3.8460     1.8520    -2.0830 C.3   1 <1>  -0.1600 
 22 C       -3.7660    -4.8190    -0.4530 C.3   1 <1>   0.4860 
 23 C       -2.3830    -5.0070    -1.0800 C.ar  1 <1>   0.1670 
 24 N       -1.5740    -3.9450    -1.0690 N.ar  1 <1>  -0.6200 
 25 C       -2.0380    -6.2420    -1.6100 C.ar  1 <1>  -0.1500 
 26 C       -0.3870    -4.1300    -1.6330 C.ar  1 <1>   0.1600 
 27 C       -0.7950    -6.4140    -2.1780 C.ar  1 <1>  -0.1500 
 28 C        0.0440    -5.3220    -2.1870 C.ar  1 <1>  -0.1500 
 29 H       -1.2430    -0.0350     1.0990 H     1 <1>   0.4570 
 30 H       -0.0640    -3.8840     2.1150 H     1 <1>   0.1500 
 31 H        0.1310     1.5240    -0.0830 H     1 <1>   0.1500 
 32 H       -3.2710    -3.1860     3.6360 H     1 <1>   0.0800 
 33 H       -1.6910    -3.8210     3.4470 H     1 <1>   0.0800 
 34 H       -2.9150    -0.1650     2.0090 H     1 <1>   0.0800 
 35 H       -3.8330    -1.2150     3.0180 H     1 <1>   0.0800 
 36 H        3.6960    -1.8870    -0.1340 H     1 <1>   0.1500 
 37 H       -3.8530    -5.0620     2.4400 H     1 <1>   0.0800 
 38 H       -2.2890    -5.1610     1.6800 H     1 <1>   0.0800 
 39 H       -3.6970    -1.2870    -0.0110 H     1 <1>   0.0800 
 40 H       -5.0380    -0.8240     0.9680 H     1 <1>   0.0800 
 41 H        2.0580    -4.7100     1.6450 H     1 <1>   0.0800 
 42 H        3.2990    -3.4900     1.6810 H     1 <1>   0.0800 
 43 H        2.7130    -4.1040     0.1500 H     1 <1>   0.0800 
 44 H        2.7860     3.0410    -0.6220 H     1 <1>   0.0800 
 45 H        1.8270     2.6610    -2.0500 H     1 <1>   0.0800 
 46 H       -2.8310    -3.2850     0.3590 H     1 <1>   0.4500 
 47 H       -5.4500    -3.0120     0.0600 H     1 <1>   0.0800 
 48 H       -5.2840    -3.1520     1.7940 H     1 <1>   0.0800 
 49 H        4.7230    -0.1400    -2.0790 H     1 <1>   0.0800 
 50 H        5.0860     0.8150    -0.6450 H     1 <1>   0.0800 
 51 H        4.5940     2.6250    -2.0750 H     1 <1>   0.0800 
 52 H        3.6040     1.6120    -3.1030 H     1 <1>   0.0800 
 53 H       -4.4190    -4.4030    -1.2010 H     1 <1>   0.0800 
 54 H       -4.1690    -5.7620    -0.1230 H     1 <1>   0.0800 
 55 H       -2.7260    -7.0700    -1.5920 H     1 <1>   0.1500 
 56 H        0.2870    -3.2890    -1.6610 H     1 <1>   0.1500 
 57 H       -0.4910    -7.3580    -2.6020 H     1 <1>   0.1500 
 58 H        1.0240    -5.3940    -2.6250 H     1 <1>   0.1500 
@<TRIPOS>BOND
  1   1   2  ar  
  2   1   3  ar  
  3   1  29  1   
  4   2   4  1   
  5   2   5  ar  
  6   3   6  ar  
  7   3   7  ar  
  8   4   8  1   
  9   4   9  1   
 10   5  10  ar  
 11   5  30  1   
 12   6  10  ar  
 13   6  11  ar  
 14   7  12  ar  
 15   7  31  1   
 16   8  13  1   
 17   8  32  1   
 18   8  33  1   
 19   9  14  1   
 20   9  34  1   
 21   9  35  1   
 22  10  15  1   
 23  11  16  ar  
 24  11  36  1   
 25  12  16  ar  
 26  12  17  1   
 27  13  18  1   
 28  13  37  1   
 29  13  38  1   
 30  14  19  1   
 31  14  39  1   
 32  14  40  1   
 33  15  41  1   
 34  15  42  1   
 35  15  43  1   
 36  16  20  1   
 37  17  21  1   
 38  17  44  1   
 39  17  45  1   
 40  18  19  1   
 41  18  22  1   
 42  18  46  1   
 43  19  47  1   
 44  19  48  1   
 45  20  21  1   
 46  20  49  1   
 47  20  50  1   
 48  21  51  1   
 49  21  52  1   
 50  22  23  1   
 51  22  53  1   
 52  22  54  1   
 53  23  24  ar  
 54  23  25  ar  
 55  24  26  ar  
 56  25  27  ar  
 57  25  55  1   
 58  26  28  ar  
 59  26  56  1   
 60  27  28  ar  
 61  27  57  1   
 62  28  58  1   
@<TRIPOS>SUBSTRUCTURE
  1 ****   2 GROUP 4 **** **** 0

# MOE 2024.06 (io_trps.svl 2023.06)
