@<TRIPOS>MOLECULE
NONAME
58 61 1 0 0 
SMALL
USER_CHARGES


@<TRIPOS>ATOM
  1 O        1.6020    -0.8550     0.9440 O.co2 1 <1>  -0.9000 
  2 C        1.6110     0.2600     0.3950 C.2   1 <1>   0.9060 
  3 O        0.6470     1.0210     0.4700 O.co2 1 <1>  -0.9000 
  4 C        2.8580     0.6910    -0.4020 C.3   1 <1>  -0.1060 
  5 C        4.1070     0.0500     0.2400 C.3   1 <1>   0.4230 
  6 C        3.0330     2.2350    -0.3610 C.3   1 <1>  -0.1600 
  7 C        2.7460     0.2420    -1.8790 C.3   1 <1>  -0.1600 
  8 N        4.0350    -1.4510     0.1270 N.4   1 <1>  -0.9590 
  9 C        4.2960     0.5830     1.6840 C.3   1 <1>   0.2090 
 10 C        3.2490     2.7580     1.0660 C.3   1 <1>   0.2090 
 11 C        2.7880    -1.2890    -2.0060 C.3   1 <1>  -0.1600 
 12 C        3.9930    -1.8990    -1.2870 C.3   1 <1>   0.3430 
 13 C        5.0390    -2.1930     0.9330 C.3   1 <1>   0.2630 
 14 N        4.4270     2.0710     1.6670 N.pl3 1 <1>  -0.8380 
 15 C        5.6750     2.6510     1.5680 C.ar  1 <1>   0.4100 
 16 N        6.6050     1.9960     0.8790 N.ar  1 <1>  -0.6200 
 17 C        5.9140     3.8750     2.1860 C.ar  1 <1>  -0.1500 
 18 C        7.7920     2.5720     0.8120 C.ar  1 <1>   0.1600 
 19 C        7.1510     4.4670     2.1040 C.ar  1 <1>  -0.1500 
 20 C        8.1220     3.7910     1.3860 C.ar  1 <1>  -0.1430 
 21 C        9.5160     4.3690     1.2410 C.3   1 <1>   0.4860 
 22 N        9.6680     5.0000    -0.1000 N.4   1 <1>  -0.9590 
 23 C       11.0420     5.5540    -0.3480 C.3   1 <1>   0.3430 
 24 C        8.6180     6.0300    -0.4200 C.3   1 <1>   0.3430 
 25 C       11.1410     6.2070    -1.7470 C.3   1 <1>   0.1200 
 26 C        8.8220     6.6140    -1.8380 C.3   1 <1>   0.1200 
 27 O        9.9450     6.0500    -2.4630 O.3   1 <1>  -0.5600 
 28 H        4.9680     0.3800    -0.3140 H     1 <1>   0.0800 
 29 H        2.1550     2.7070    -0.7670 H     1 <1>   0.0800 
 30 H        3.8710     2.5350    -0.9640 H     1 <1>   0.0800 
 31 H        1.8220     0.6100    -2.2940 H     1 <1>   0.0800 
 32 H        3.5560     0.6640    -2.4500 H     1 <1>   0.0800 
 33 H        3.0710    -1.6280     0.5220 H     1 <1>   0.4500 
 34 H        5.1860     0.1690     2.1200 H     1 <1>   0.0800 
 35 H        3.4570     0.3120     2.3020 H     1 <1>   0.0800 
 36 H        2.3750     2.5690     1.6690 H     1 <1>   0.0800 
 37 H        3.4080     3.8220     1.0400 H     1 <1>   0.0800 
 38 H        2.8220    -1.5600    -3.0460 H     1 <1>   0.0800 
 39 H        1.8860    -1.7120    -1.5970 H     1 <1>   0.0800 
 40 H        4.9000    -1.5980    -1.7860 H     1 <1>   0.0800 
 41 H        3.9200    -2.9730    -1.3270 H     1 <1>   0.0800 
 42 H        6.0360    -1.9350     0.6170 H     1 <1>   0.0800 
 43 H        4.8950    -3.2540     0.8150 H     1 <1>   0.0800 
 44 H        4.9280    -1.9520     1.9770 H     1 <1>   0.0800 
 45 H        5.1130     4.3340     2.7360 H     1 <1>   0.1500 
 46 H        8.5440     2.0310     0.2630 H     1 <1>   0.1500 
 47 H        7.3370     5.4100     2.5910 H     1 <1>   0.1500 
 48 H       10.2440     3.5840     1.3640 H     1 <1>   0.0800 
 49 H        9.6800     5.1030     2.0130 H     1 <1>   0.0800 
 50 H        9.5380     4.2810    -0.8270 H     1 <1>   0.4500 
 51 H       11.2850     6.2920     0.3980 H     1 <1>   0.0800 
 52 H       11.7760     4.7680    -0.2790 H     1 <1>   0.0800 
 53 H        7.6360     5.5890    -0.3650 H     1 <1>   0.0800 
 54 H        8.6540     6.8320     0.2980 H     1 <1>   0.0800 
 55 H       11.9290     5.7460    -2.3180 H     1 <1>   0.0800 
 56 H       11.3580     7.2590    -1.6650 H     1 <1>   0.0800 
 57 H        8.9490     7.6820    -1.7970 H     1 <1>   0.0800 
 58 H        7.9650     6.4010    -2.4530 H     1 <1>   0.0800 
@<TRIPOS>BOND
  1   1   2  ar  
  2   2   3  ar  
  3   2   4  1   
  4   4   5  1   
  5   4   6  1   
  6   4   7  1   
  7   5   8  1   
  8   5   9  1   
  9   5  28  1   
 10   6  10  1   
 11   6  29  1   
 12   6  30  1   
 13   7  11  1   
 14   7  31  1   
 15   7  32  1   
 16   8  12  1   
 17   8  13  1   
 18   8  33  1   
 19   9  14  1   
 20   9  34  1   
 21   9  35  1   
 22  10  14  1   
 23  10  36  1   
 24  10  37  1   
 25  11  12  1   
 26  11  38  1   
 27  11  39  1   
 28  12  40  1   
 29  12  41  1   
 30  13  42  1   
 31  13  43  1   
 32  13  44  1   
 33  14  15  1   
 34  15  16  ar  
 35  15  17  ar  
 36  16  18  ar  
 37  17  19  ar  
 38  17  45  1   
 39  18  20  ar  
 40  18  46  1   
 41  19  20  ar  
 42  19  47  1   
 43  20  21  1   
 44  21  22  1   
 45  21  48  1   
 46  21  49  1   
 47  22  23  1   
 48  22  24  1   
 49  22  50  1   
 50  23  25  1   
 51  23  51  1   
 52  23  52  1   
 53  24  26  1   
 54  24  53  1   
 55  24  54  1   
 56  25  27  1   
 57  25  55  1   
 58  25  56  1   
 59  26  27  1   
 60  26  57  1   
 61  26  58  1   
@<TRIPOS>SUBSTRUCTURE
  1 ****  16 GROUP 4 **** **** 0

# MOE 2024.06 (io_trps.svl 2023.06)
