@<TRIPOS>MOLECULE
NONAME
46 48 1 0 0 
SMALL
USER_CHARGES


@<TRIPOS>ATOM
  1 O       -2.2430    -0.1870    -2.7190 O.2   1 <1>  -0.5700 
  2 C       -2.2530    -0.6280    -1.5990 C.2   1 <1>   0.5690 
  3 N       -2.0560     0.1620    -0.5010 N.am  1 <1>  -0.6600 
  4 C       -2.5430    -2.0980    -1.4380 C.3   1 <1>  -0.0190 
  5 C       -2.1180    -0.3590     0.8940 C.3   1 <1>   0.2200 
  6 C       -1.7040     1.6090    -0.6410 C.3   1 <1>   0.0600 
  7 C       -1.3880    -2.8550    -0.7480 C.3   1 <1>   0.1200 
  8 C       -3.9410    -2.2540    -0.8310 C.3   1 <1>   0.3430 
  9 C       -1.0230    -1.4270     1.1320 C.3   1 <1>   0.1200 
 10 C       -3.5550    -0.8310     1.2500 C.3   1 <1>   0.3430 
 11 O       -1.3770    -2.6950     0.6450 O.3   1 <1>  -0.5600 
 12 N       -3.9590    -2.1570     0.6660 N.4   1 <1>  -0.9590 
 13 C       -5.2070    -2.7020     1.2570 C.3   1 <1>   0.5240 
 14 C       -5.3630    -4.1300     0.7870 C.2   1 <1>  -0.1810 
 15 C       -4.5420    -5.2010     1.1280 C.2   1 <1>   0.1080 
 16 C       -6.2830    -4.6510    -0.0580 C.2   1 <1>  -0.3320 
 17 N       -4.9050    -6.2890     0.5350 N.2   1 <1>  -0.7070 
 18 C       -3.3480    -5.1940     2.0600 C.3   1 <1>  -0.0590 
 19 N       -5.9860    -5.9650    -0.1870 N.pl3 1 <1>   0.3140 
 20 C       -7.4540    -3.9850    -0.7670 C.3   1 <1>  -0.0600 
 21 C       -6.6950    -6.9770    -0.9820 C.3   1 <1>   0.0160 
 22 H       -2.6030    -2.4920    -2.4370 H     1 <1>   0.0800 
 23 H       -1.8900     0.4650     1.5480 H     1 <1>   0.0800 
 24 H       -2.4460     2.2200    -0.1570 H     1 <1>   0.0800 
 25 H       -1.6560     1.8970    -1.6780 H     1 <1>   0.0800 
 26 H       -0.7430     1.7980    -0.1970 H     1 <1>   0.0800 
 27 H       -0.4340    -2.5430    -1.1420 H     1 <1>   0.0800 
 28 H       -1.4940    -3.9110    -0.9360 H     1 <1>   0.0800 
 29 H       -4.3070    -3.2260    -1.1230 H     1 <1>   0.0800 
 30 H       -4.6020    -1.5170    -1.2580 H     1 <1>   0.0800 
 31 H       -0.8650    -1.5400     2.1910 H     1 <1>   0.0800 
 32 H       -0.0880    -1.1260     0.6900 H     1 <1>   0.0800 
 33 H       -4.2520    -0.0680     0.9420 H     1 <1>   0.0800 
 34 H       -3.6110    -0.9050     2.3240 H     1 <1>   0.0800 
 35 H       -3.2000    -2.8110     0.9400 H     1 <1>   0.4500 
 36 H       -5.1540    -2.6860     2.3330 H     1 <1>   0.0800 
 37 H       -6.0560    -2.1180     0.9420 H     1 <1>   0.0800 
 38 H       -3.3810    -4.3610     2.7350 H     1 <1>   0.0800 
 39 H       -2.4400    -5.1600     1.4860 H     1 <1>   0.0800 
 40 H       -3.3480    -6.1010     2.6380 H     1 <1>   0.0800 
 41 H       -7.5100    -2.9390    -0.5280 H     1 <1>   0.0800 
 42 H       -8.3780    -4.4480    -0.4660 H     1 <1>   0.0800 
 43 H       -7.3510    -4.0860    -1.8330 H     1 <1>   0.0800 
 44 H       -6.6910    -6.6860    -2.0140 H     1 <1>   0.0800 
 45 H       -7.7040    -7.0630    -0.6250 H     1 <1>   0.0800 
 46 H       -6.1960    -7.9230    -0.8730 H     1 <1>   0.0800 
@<TRIPOS>BOND
  1   1   2  2   
  2   2   3  am  
  3   2   4  1   
  4   3   5  1   
  5   3   6  1   
  6   4   7  1   
  7   4   8  1   
  8   4  22  1   
  9   5   9  1   
 10   5  10  1   
 11   5  23  1   
 12   6  24  1   
 13   6  25  1   
 14   6  26  1   
 15   7  11  1   
 16   7  27  1   
 17   7  28  1   
 18   8  12  1   
 19   8  29  1   
 20   8  30  1   
 21   9  11  1   
 22   9  31  1   
 23   9  32  1   
 24  10  12  1   
 25  10  33  1   
 26  10  34  1   
 27  12  13  1   
 28  12  35  1   
 29  13  14  1   
 30  13  36  1   
 31  13  37  1   
 32  14  15  1   
 33  14  16  2   
 34  15  17  2   
 35  15  18  1   
 36  16  19  1   
 37  16  20  1   
 38  17  19  1   
 39  18  38  1   
 40  18  39  1   
 41  18  40  1   
 42  19  21  1   
 43  20  41  1   
 44  20  42  1   
 45  20  43  1   
 46  21  44  1   
 47  21  45  1   
 48  21  46  1   
@<TRIPOS>SUBSTRUCTURE
  1 ****  12 GROUP 4 **** **** 0

# MOE 2024.06 (io_trps.svl 2023.06)
