@<TRIPOS>MOLECULE
NONAME
57 60 1 0 0 
SMALL
USER_CHARGES


@<TRIPOS>ATOM
  1 O       -3.7360     1.2660     1.6570 O.2   1 <1>  -0.5700 
  2 C       -3.1580     1.1600     0.5960 C.2   1 <1>   0.6900 
  3 N       -2.7680    -0.0510     0.0980 N.am  1 <1>  -0.6600 
  4 N       -2.8880     2.2840    -0.0770 N.am  1 <1>  -0.8000 
  5 C       -2.8400    -1.2800     0.9420 C.3   1 <1>   0.1400 
  6 C       -2.5840    -0.3260    -1.3510 C.3   1 <1>   0.1400 
  7 C       -4.0250    -2.1480     0.4910 C.3   1 <1>  -0.0190 
  8 C       -3.7480    -1.1910    -1.8510 C.3   1 <1>  -0.1600 
  9 C       -4.1180    -3.4310     1.3190 C.2   1 <1>   0.5690 
 10 C       -3.9120    -2.4710    -1.0150 C.3   1 <1>  -0.1600 
 11 O       -3.0880    -3.8770     1.7740 O.2   1 <1>  -0.5700 
 12 N       -5.3200    -4.0710     1.5160 N.am  1 <1>  -0.6600 
 13 C       -5.4000    -5.3270     2.3150 C.3   1 <1>   0.1400 
 14 C       -6.6360    -3.6810     0.9340 C.3   1 <1>   0.1400 
 15 C       -5.8650    -6.4720     1.4110 C.3   1 <1>  -0.1600 
 16 C       -7.1220    -4.7910     0.0000 C.3   1 <1>  -0.1600 
 17 C       -7.2000    -6.1560     0.7130 C.3   1 <1>   0.4240 
 18 O       -8.1080    -6.0000     1.7830 O.3   1 <1>  -0.5600 
 19 C       -7.6300    -7.3050    -0.2450 C.ar  1 <1>  -0.1430 
 20 C       -9.4640    -6.1550     1.5160 C.3   1 <1>   0.1200 
 21 C       -6.8560    -7.6830    -1.3510 C.ar  1 <1>   0.0820 
 22 C       -8.8200    -7.9930    -0.0120 C.ar  1 <1>  -0.1430 
 23 C       -9.7090    -7.6100     1.1520 C.3   1 <1>  -0.0170 
 24 O       -5.7020    -7.0130    -1.6110 O.3   1 <1>  -0.3620 
 25 C       -7.2730    -8.7270    -2.1750 C.ar  1 <1>  -0.1500 
 26 C       -9.2210    -9.0320    -0.8360 C.ar  1 <1>  -0.1500 
 27 C       -4.7400    -7.4840    -2.5290 C.3   1 <1>   0.0400 
 28 C       -8.4480    -9.4010    -1.9170 C.ar  1 <1>  -0.1500 
 29 H       -3.0880     3.1580     0.4030 H     1 <1>   0.3700 
 30 H       -2.1280     2.2970    -0.7490 H     1 <1>   0.3700 
 31 H       -2.9550    -1.0200     1.9810 H     1 <1>   0.0800 
 32 H       -1.9200    -1.8280     0.8400 H     1 <1>   0.0800 
 33 H       -1.6520    -0.8460    -1.4930 H     1 <1>   0.0800 
 34 H       -2.5500     0.5880    -1.9170 H     1 <1>   0.0800 
 35 H       -4.9020    -1.5570     0.6730 H     1 <1>   0.0800 
 36 H       -3.5800    -1.4520    -2.8810 H     1 <1>   0.0800 
 37 H       -4.6530    -0.6100    -1.8040 H     1 <1>   0.0800 
 38 H       -4.7850    -3.0060    -1.3420 H     1 <1>   0.0800 
 39 H       -3.0590    -3.1090    -1.1700 H     1 <1>   0.0800 
 40 H       -6.0970    -5.1870     3.1240 H     1 <1>   0.0800 
 41 H       -4.4440    -5.5730     2.7440 H     1 <1>   0.0800 
 42 H       -6.5750    -2.7620     0.3840 H     1 <1>   0.0800 
 43 H       -7.3430    -3.5390     1.7350 H     1 <1>   0.0800 
 44 H       -5.9770    -7.3700     1.9890 H     1 <1>   0.0800 
 45 H       -5.0880    -6.6500     0.6950 H     1 <1>   0.0800 
 46 H       -6.4390    -4.8420    -0.8240 H     1 <1>   0.0800 
 47 H       -8.0800    -4.5360    -0.4100 H     1 <1>   0.0800 
 48 H       -9.7490    -5.4980     0.7130 H     1 <1>   0.0800 
 49 H      -10.0080    -5.8900     2.4050 H     1 <1>   0.0800 
 50 H      -10.7440    -7.7390     0.8920 H     1 <1>   0.0800 
 51 H       -9.4900    -8.2350     2.0000 H     1 <1>   0.0800 
 52 H       -6.6980    -9.0300    -3.0290 H     1 <1>   0.1500 
 53 H      -10.1390    -9.5590    -0.6390 H     1 <1>   0.1500 
 54 H       -3.8750    -6.8510    -2.4590 H     1 <1>   0.0800 
 55 H       -5.1500    -7.4340    -3.5220 H     1 <1>   0.0800 
 56 H       -4.4750    -8.4940    -2.2690 H     1 <1>   0.0800 
 57 H       -8.7630   -10.2080    -2.5550 H     1 <1>   0.1500 
@<TRIPOS>BOND
  1   1   2  2   
  2   2   3  am  
  3   2   4  am  
  4   3   5  1   
  5   3   6  1   
  6   4  29  1   
  7   4  30  1   
  8   5   7  1   
  9   5  31  1   
 10   5  32  1   
 11   6   8  1   
 12   6  33  1   
 13   6  34  1   
 14   7   9  1   
 15   7  10  1   
 16   7  35  1   
 17   8  10  1   
 18   8  36  1   
 19   8  37  1   
 20   9  11  2   
 21   9  12  am  
 22  10  38  1   
 23  10  39  1   
 24  12  13  1   
 25  12  14  1   
 26  13  15  1   
 27  13  40  1   
 28  13  41  1   
 29  14  16  1   
 30  14  42  1   
 31  14  43  1   
 32  15  17  1   
 33  15  44  1   
 34  15  45  1   
 35  16  17  1   
 36  16  46  1   
 37  16  47  1   
 38  17  18  1   
 39  17  19  1   
 40  18  20  1   
 41  19  21  ar  
 42  19  22  ar  
 43  20  23  1   
 44  20  48  1   
 45  20  49  1   
 46  21  24  1   
 47  21  25  ar  
 48  22  23  1   
 49  22  26  ar  
 50  23  50  1   
 51  23  51  1   
 52  24  27  1   
 53  25  28  ar  
 54  25  52  1   
 55  26  28  ar  
 56  26  53  1   
 57  27  54  1   
 58  27  55  1   
 59  27  56  1   
 60  28  57  1   
@<TRIPOS>SUBSTRUCTURE
  1 ****  16 GROUP 4 **** **** 0

# MOE 2024.06 (io_trps.svl 2023.06)
