@<TRIPOS>MOLECULE
NONAME
62 65 1 0 0 
SMALL
USER_CHARGES


@<TRIPOS>ATOM
  1 O       -1.0200     4.1080     2.9780 O.2   1 <1>  -0.5700 
  2 C       -0.8160     4.0650     1.7790 C.2   1 <1>   0.5440 
  3 N       -1.7790     4.5340     0.9080 N.am  1 <1>  -0.6600 
  4 C        0.4380     3.5250     1.2920 C.ar  1 <1>   0.0860 
  5 C       -3.0680     5.1040     1.3770 C.3   1 <1>   0.1400 
  6 C       -1.6620     4.4840    -0.5710 C.3   1 <1>   0.1400 
  7 C        0.6360     2.1510     1.1000 C.ar  1 <1>  -0.1440 
  8 C        1.4830     4.3930     0.9850 C.ar  1 <1>  -0.1500 
  9 C       -4.2170     4.2540     0.8310 C.3   1 <1>  -0.1600 
 10 C       -2.7980     3.6280    -1.1350 C.3   1 <1>  -0.1600 
 11 C        1.8390     1.6800     0.5980 C.ar  1 <1>  -0.1500 
 12 C       -0.4690     1.1620     1.4480 C.3   1 <1>  -0.0970 
 13 C        2.6790     3.9130     0.4870 C.ar  1 <1>   0.0830 
 14 C       -4.2000     4.1310    -0.7090 C.3   1 <1>   0.2800 
 15 C        2.8610     2.5580     0.2880 C.ar  1 <1>  -0.1500 
 16 O        3.6790     4.7570     0.1930 O.3   1 <1>  -0.5330 
 17 O       -4.3580     5.4440    -1.2010 O.3   1 <1>  -0.5600 
 18 C       -5.3790     3.2050    -1.1870 C.3   1 <1>   0.2000 
 19 C       -4.7840     5.6000    -2.5180 C.3   1 <1>   0.1200 
 20 O       -4.9810     2.3680    -2.2430 O.3   1 <1>  -0.6800 
 21 C       -6.6320     4.0240    -1.6250 C.3   1 <1>   0.3000 
 22 C       -6.2050     5.0430    -2.7030 C.3   1 <1>  -0.1600 
 23 N       -7.1710     4.8220    -0.4990 N.am  1 <1>  -0.7300 
 24 C       -7.7640     3.1530    -2.1970 C.3   1 <1>  -0.2400 
 25 C       -7.8280     4.5320     0.6520 C.2   1 <1>   0.5770 
 26 O       -8.0480     5.4400     1.4120 O.2   1 <1>  -0.5700 
 27 C       -8.2630     3.1160     1.0310 C.3   1 <1>   0.0530 
 28 C       -9.7640     2.8140     0.7700 C.3   1 <1>   0.0000 
 29 C       -8.5600     2.8550     2.5360 C.3   1 <1>   0.0000 
 30 C       -9.7360     1.9610     2.0650 C.3   1 <1>   0.0000 
 31 H       -3.1120     5.1230     2.4520 H     1 <1>   0.0800 
 32 H       -3.1580     6.1160     1.0220 H     1 <1>   0.0800 
 33 H       -1.7290     5.4860    -0.9610 H     1 <1>   0.0800 
 34 H       -0.7160     4.0710    -0.8740 H     1 <1>   0.0800 
 35 H        1.3400     5.4460     1.1420 H     1 <1>   0.1500 
 36 H       -5.1380     4.6880     1.1630 H     1 <1>   0.0800 
 37 H       -4.1450     3.2760     1.2730 H     1 <1>   0.0800 
 38 H       -2.6660     2.6200    -0.7870 H     1 <1>   0.0800 
 39 H       -2.7100     3.6050    -2.2040 H     1 <1>   0.0800 
 40 H        1.9910     0.6250     0.4480 H     1 <1>   0.1500 
 41 H       -0.1540     0.1490     1.2720 H     1 <1>   0.0800 
 42 H       -1.3430     1.3560     0.8530 H     1 <1>   0.0800 
 43 H       -0.7320     1.2590     2.4870 H     1 <1>   0.0800 
 44 H        3.7970     2.1990    -0.1020 H     1 <1>   0.1500 
 45 H        3.4810     5.6830     0.4170 H     1 <1>   0.4500 
 46 H       -5.6490     2.5390    -0.3900 H     1 <1>   0.0800 
 47 H       -4.7630     6.6520    -2.7450 H     1 <1>   0.0800 
 48 H       -4.0830     5.1020    -3.1640 H     1 <1>   0.0800 
 49 H       -4.6950     2.9020    -3.0070 H     1 <1>   0.4000 
 50 H       -6.9110     5.8540    -2.7440 H     1 <1>   0.0800 
 51 H       -6.2290     4.5810    -3.6740 H     1 <1>   0.0800 
 52 H       -6.8250     5.7850    -0.5230 H     1 <1>   0.3700 
 53 H       -7.4800     2.7390    -3.1470 H     1 <1>   0.0800 
 54 H       -8.6560     3.7370    -2.3390 H     1 <1>   0.0800 
 55 H       -7.9780     2.3210    -1.5570 H     1 <1>   0.0800 
 56 H       -7.6190     2.3460     0.6450 H     1 <1>   0.0000 
 57 H      -10.3930     3.6840     0.8620 H     1 <1>   0.0000 
 58 H       -9.9510     2.2410    -0.1200 H     1 <1>   0.0000 
 59 H       -7.7830     2.3130     3.0450 H     1 <1>   0.0000 
 60 H       -8.9060     3.7180     3.0790 H     1 <1>   0.0000 
 61 H       -9.4380     0.9420     1.8860 H     1 <1>   0.0000 
 62 H      -10.6230     2.0530     2.6660 H     1 <1>   0.0000 
@<TRIPOS>BOND
  1   1   2  2   
  2   2   3  am  
  3   2   4  1   
  4   3   5  1   
  5   3   6  1   
  6   4   7  ar  
  7   4   8  ar  
  8   5   9  1   
  9   5  31  1   
 10   5  32  1   
 11   6  10  1   
 12   6  33  1   
 13   6  34  1   
 14   7  11  ar  
 15   7  12  1   
 16   8  13  ar  
 17   8  35  1   
 18   9  14  1   
 19   9  36  1   
 20   9  37  1   
 21  10  14  1   
 22  10  38  1   
 23  10  39  1   
 24  11  15  ar  
 25  11  40  1   
 26  12  41  1   
 27  12  42  1   
 28  12  43  1   
 29  13  15  ar  
 30  13  16  1   
 31  14  17  1   
 32  14  18  1   
 33  15  44  1   
 34  16  45  1   
 35  17  19  1   
 36  18  20  1   
 37  18  21  1   
 38  18  46  1   
 39  19  22  1   
 40  19  47  1   
 41  19  48  1   
 42  20  49  1   
 43  21  22  1   
 44  21  23  1   
 45  21  24  1   
 46  22  50  1   
 47  22  51  1   
 48  23  25  am  
 49  23  52  1   
 50  24  53  1   
 51  24  54  1   
 52  24  55  1   
 53  25  26  2   
 54  25  27  1   
 55  27  28  1   
 56  27  29  1   
 57  27  56  1   
 58  28  30  1   
 59  28  57  1   
 60  28  58  1   
 61  29  30  1   
 62  29  59  1   
 63  29  60  1   
 64  30  61  1   
 65  30  62  1   
@<TRIPOS>SUBSTRUCTURE
  1 ****   9 GROUP 4 **** **** 0

# MOE 2024.06 (io_trps.svl 2023.06)
