@<TRIPOS>MOLECULE
NONAME
52 55 1 0 0 
SMALL
USER_CHARGES


@<TRIPOS>ATOM
  1 O        2.5720    -1.8290     3.2310 O.2   1 <1>  -0.5700 
  2 C        2.8370    -1.8200     2.0490 C.2   1 <1>   0.9370 
  3 N        3.5220    -0.7250     1.5050 N.pl3 1 <1>  -0.5760 
  4 C        2.4640    -2.8900     1.2070 C.2   1 <1>  -0.1360 
  5 C        3.8120    -0.7060     0.1780 C.cat 1 <1>   0.7390 
  6 C        3.9060     0.3300     2.2990 C.2   1 <1>   0.1910 
  7 C        2.7530    -2.8590    -0.1080 C.2   1 <1>   0.2030 
  8 N        3.4260    -1.7550    -0.5890 N.pl3 1 <1>  -0.6450 
  9 C        4.5030     0.3920    -0.3820 C.2   1 <1>  -0.1680 
 10 C        4.5740     1.4010     1.7800 C.2   1 <1>  -0.1500 
 11 C        2.3940    -3.9750    -1.0940 C.3   1 <1>   0.2480 
 12 C        4.8820     1.4400     0.4170 C.2   1 <1>  -0.1500 
 13 C        4.8440     0.4420    -1.8710 C.3   1 <1>  -0.1020 
 14 N        1.4300    -4.9180    -0.5160 N.3   1 <1>  -0.8100 
 15 C        1.6280    -6.2640    -1.1290 C.3   1 <1>   0.1100 
 16 C        0.0340    -4.4240    -0.5450 C.3   1 <1>   0.1100 
 17 C        0.4750    -7.2520    -0.8700 C.3   1 <1>  -0.1060 
 18 C       -0.8010    -5.1080    -1.6250 C.3   1 <1>  -0.1600 
 19 C        0.8090    -8.5770    -1.5700 C.2   1 <1>   0.9060 
 20 C       -0.8420    -6.6310    -1.4310 C.3   1 <1>   0.2000 
 21 C        0.3000    -7.5460     0.6480 C.3   1 <1>  -0.0650 
 22 O       -0.1140    -9.3720    -1.8090 O.co2 1 <1>  -0.9000 
 23 O        1.9730    -8.8260    -1.9080 O.co2 1 <1>  -0.9000 
 24 O       -1.1760    -7.1520    -2.6650 O.3   1 <1>  -0.6800 
 25 C        1.5580    -8.0780     1.3540 C.3   1 <1>  -0.1950 
 26 C        1.6600    -8.0260     2.8450 C.3   1 <1>  -0.2000 
 27 C        2.5460    -7.1590     1.9970 C.3   1 <1>  -0.2000 
 28 H        1.9510    -3.7090     1.6750 H     1 <1>   0.1500 
 29 H        3.6690     0.3030     3.3540 H     1 <1>   0.1500 
 30 H        3.6650    -1.7120    -1.5830 H     1 <1>   0.4500 
 31 H        4.8710     2.2240     2.4090 H     1 <1>   0.1500 
 32 H        3.3020    -4.5000    -1.3420 H     1 <1>   0.0800 
 33 H        1.9880    -3.5660    -2.0030 H     1 <1>   0.0800 
 34 H        5.4110     2.2970     0.0280 H     1 <1>   0.1500 
 35 H        5.4790    -0.3830    -2.1440 H     1 <1>   0.0800 
 36 H        5.3690     1.3510    -2.1130 H     1 <1>   0.0800 
 37 H        3.9480     0.4170    -2.4670 H     1 <1>   0.0800 
 38 H        1.7300    -6.1660    -2.1980 H     1 <1>   0.0800 
 39 H        2.5490    -6.6870    -0.7640 H     1 <1>   0.0800 
 40 H       -0.4190    -4.6220     0.4110 H     1 <1>   0.0800 
 41 H        0.0100    -3.3580    -0.6930 H     1 <1>   0.0800 
 42 H       -0.3780    -4.8700    -2.5850 H     1 <1>   0.0800 
 43 H       -1.8050    -4.7280    -1.5990 H     1 <1>   0.0800 
 44 H       -1.6530    -6.8890    -0.7720 H     1 <1>   0.0800 
 45 H       -0.0360    -6.6660     1.1600 H     1 <1>   0.0800 
 46 H       -0.4710    -8.2900     0.7560 H     1 <1>   0.0800 
 47 H       -0.9730    -8.1340    -2.6160 H     1 <1>   0.4000 
 48 H        1.9510    -8.9630     0.8770 H     1 <1>   0.1000 
 49 H        0.8660    -7.5650     3.4060 H     1 <1>   0.1000 
 50 H        2.0900    -8.8710     3.3540 H     1 <1>   0.1000 
 51 H        3.5890    -7.4020     1.9010 H     1 <1>   0.1000 
 52 H        2.3590    -6.1020     1.9540 H     1 <1>   0.1000 
@<TRIPOS>BOND
  1   1   2  2   
  2   2   3  1   
  3   2   4  1   
  4   3   5  ar  
  5   3   6  1   
  6   4   7  2   
  7   4  28  1   
  8   5   8  ar  
  9   5   9  1   
 10   6  10  2   
 11   6  29  1   
 12   7   8  1   
 13   7  11  1   
 14   8  30  1   
 15   9  12  2   
 16   9  13  1   
 17  10  12  1   
 18  10  31  1   
 19  11  14  1   
 20  11  32  1   
 21  11  33  1   
 22  12  34  1   
 23  13  35  1   
 24  13  36  1   
 25  13  37  1   
 26  14  15  1   
 27  14  16  1   
 28  15  17  1   
 29  15  38  1   
 30  15  39  1   
 31  16  18  1   
 32  16  40  1   
 33  16  41  1   
 34  17  19  1   
 35  17  20  1   
 36  17  21  1   
 37  18  20  1   
 38  18  42  1   
 39  18  43  1   
 40  19  22  ar  
 41  19  23  ar  
 42  20  24  1   
 43  20  44  1   
 44  21  25  1   
 45  21  45  1   
 46  21  46  1   
 47  24  47  1   
 48  25  26  1   
 49  25  27  1   
 50  25  48  1   
 51  26  27  1   
 52  26  49  1   
 53  26  50  1   
 54  27  51  1   
 55  27  52  1   
@<TRIPOS>SUBSTRUCTURE
  1 ****  14 GROUP 4 **** **** 0

# MOE 2024.06 (io_trps.svl 2023.06)
