@<TRIPOS>MOLECULE
NONAME
42 45 1 0 0 
SMALL
USER_CHARGES


@<TRIPOS>ATOM
  1 O        1.8840     1.2930     2.0440 O.2   1 <1>  -0.5700 
  2 C        3.0300     0.9590     1.8360 C.2   1 <1>   0.7800 
  3 O        3.8680     0.6680     2.8210 O.3   1 <1>  -0.4300 
  4 N        3.6310     0.8910     0.6290 N.am  1 <1>  -0.6600 
  5 C        5.1490     0.3510     2.3110 C.3   1 <1>   0.1200 
  6 C        5.0740     0.6820     0.8130 C.3   1 <1>   0.2200 
  7 C        3.1450     1.5280    -0.6230 C.3   1 <1>   0.1400 
  8 C        5.8630     1.9580     0.4480 C.3   1 <1>   0.2090 
  9 C        3.9760     2.7800    -0.9630 C.3   1 <1>   0.2090 
 10 N        5.4460     2.5010    -0.8860 N.pl3 1 <1>  -0.8380 
 11 C        6.3070     3.3480    -1.5660 C.ar  1 <1>   0.4100 
 12 N        7.1230     4.0790    -0.8260 N.ar  1 <1>  -0.6200 
 13 C        6.2940     3.4180    -2.9680 C.ar  1 <1>   0.1600 
 14 C        7.9260     4.8920    -1.5350 C.ar  1 <1>   0.3960 
 15 N        7.0610     4.2030    -3.6950 N.ar  1 <1>  -0.6200 
 16 C        8.8920     5.7720    -0.8720 C.2   1 <1>   0.5440 
 17 C        7.8730     4.9240    -2.9330 C.ar  1 <1>   0.1600 
 18 O        9.9230     6.0640    -1.4570 O.2   1 <1>  -0.5700 
 19 N        8.7050     6.3250     0.3820 N.am  1 <1>  -0.6600 
 20 C        9.7130     7.1910     1.0320 C.3   1 <1>   0.1400 
 21 C        7.4740     6.2410     1.2000 C.3   1 <1>   0.1400 
 22 C        9.1500     7.4760     2.4200 C.3   1 <1>  -0.1600 
 23 C        7.6400     7.3190     2.2640 C.3   1 <1>  -0.1600 
 24 H        5.3210    -0.7000     2.4660 H     1 <1>   0.0800 
 25 H        5.8910     0.9280     2.8330 H     1 <1>   0.0800 
 26 H        5.4170    -0.1460     0.2170 H     1 <1>   0.0800 
 27 H        2.1090     1.7990    -0.5140 H     1 <1>   0.0800 
 28 H        3.2230     0.8200    -1.4280 H     1 <1>   0.0800 
 29 H        6.9160     1.7350     0.4360 H     1 <1>   0.0800 
 30 H        5.6940     2.7130     1.1980 H     1 <1>   0.0800 
 31 H        3.7300     3.5620    -0.2650 H     1 <1>   0.0800 
 32 H        3.7130     3.1240    -1.9480 H     1 <1>   0.0800 
 33 H        5.6060     2.7770    -3.4860 H     1 <1>   0.1500 
 34 H        8.5450     5.5900    -3.4460 H     1 <1>   0.1500 
 35 H        9.8090     8.1020     0.4660 H     1 <1>   0.0800 
 36 H       10.6680     6.6960     1.0810 H     1 <1>   0.0800 
 37 H        7.4240     5.2670     1.6570 H     1 <1>   0.0800 
 38 H        6.5950     6.4070     0.6010 H     1 <1>   0.0800 
 39 H        9.4280     8.4540     2.7710 H     1 <1>   0.0800 
 40 H        9.5260     6.7370     3.1060 H     1 <1>   0.0800 
 41 H        7.1560     7.0490     3.1860 H     1 <1>   0.0800 
 42 H        7.2130     8.2370     1.8990 H     1 <1>   0.0800 
@<TRIPOS>BOND
  1   1   2  2   
  2   2   3  1   
  3   2   4  am  
  4   3   5  1   
  5   4   6  1   
  6   4   7  1   
  7   5   6  1   
  8   5  24  1   
  9   5  25  1   
 10   6   8  1   
 11   6  26  1   
 12   7   9  1   
 13   7  27  1   
 14   7  28  1   
 15   8  10  1   
 16   8  29  1   
 17   8  30  1   
 18   9  10  1   
 19   9  31  1   
 20   9  32  1   
 21  10  11  1   
 22  11  12  ar  
 23  11  13  ar  
 24  12  14  ar  
 25  13  15  ar  
 26  13  33  1   
 27  14  16  1   
 28  14  17  ar  
 29  15  17  ar  
 30  16  18  2   
 31  16  19  am  
 32  17  34  1   
 33  19  20  1   
 34  19  21  1   
 35  20  22  1   
 36  20  35  1   
 37  20  36  1   
 38  21  23  1   
 39  21  37  1   
 40  21  38  1   
 41  22  23  1   
 42  22  39  1   
 43  22  40  1   
 44  23  41  1   
 45  23  42  1   
@<TRIPOS>SUBSTRUCTURE
  1 ****  12 GROUP 4 **** **** 0

# MOE 2024.06 (io_trps.svl 2023.06)
