@<TRIPOS>MOLECULE
NONAME
43 44 1 0 0 
SMALL
USER_CHARGES


@<TRIPOS>ATOM
  1 S       -0.0960     0.1340     0.4600 S.o2  1 <1>   1.3330 
  2 O       -0.7090     1.4380     0.5610 O.2   1 <1>  -0.6500 
  3 O        0.1030    -0.6570     1.6540 O.2   1 <1>  -0.6500 
  4 N       -0.9960    -0.7970    -0.6370 N.am  1 <1>  -0.8490 
  5 C        1.4690     0.3280    -0.3920 C.3   1 <1>  -0.0550 
  6 C       -2.4330    -0.5140    -0.5630 C.3   1 <1>   0.1160 
  7 C       -0.7660    -2.2400    -0.5060 C.3   1 <1>   0.1160 
  8 C        2.4510     1.2620     0.3400 C.3   1 <1>  -0.0800 
  9 C        3.6900     1.5270    -0.5030 C.3   1 <1>   0.2200 
 10 C        3.0200     0.6320     1.6230 C.3   1 <1>   0.1200 
 11 N        4.1780     2.8900    -0.2050 N.am  1 <1>  -0.7300 
 12 C        4.6730     0.5090     0.0530 C.3   1 <1>   0.1200 
 13 O        4.3880     0.4500     1.4130 O.3   1 <1>  -0.5600 
 14 C        4.2590     3.9140    -1.1020 C.2   1 <1>   0.5440 
 15 O        3.9910     3.6900    -2.2650 O.2   1 <1>  -0.5700 
 16 C        4.6630     5.2380    -0.6800 C.ar  1 <1>   0.0860 
 17 C        4.3520     5.7190     0.5880 C.ar  1 <1>   0.1600 
 18 C        5.3710     6.0920    -1.5120 C.ar  1 <1>  -0.1500 
 19 N        4.6890     6.9020     1.0720 N.ar  1 <1>  -0.6200 
 20 C        5.7280     7.3330    -1.0300 C.ar  1 <1>  -0.1500 
 21 C        5.3810     7.7170     0.2640 C.ar  1 <1>   0.1670 
 22 C        5.7990     9.1220     0.7910 C.3   1 <1>   1.1630 
 23 F        6.5950     9.0580     1.8540 F     1 <1>  -0.3400 
 24 F        6.4650     9.8420    -0.1100 F     1 <1>  -0.3400 
 25 F        4.7600     9.8720     1.1480 F     1 <1>  -0.3400 
 26 H        1.9230    -0.6330    -0.5360 H     1 <1>   0.0800 
 27 H        1.2670     0.7440    -1.3610 H     1 <1>   0.0800 
 28 H       -2.9690    -1.1090    -1.2820 H     1 <1>   0.0800 
 29 H       -2.6160     0.5250    -0.7850 H     1 <1>   0.0800 
 30 H       -2.8070    -0.7270     0.4250 H     1 <1>   0.0800 
 31 H       -1.2870    -2.7700    -1.2850 H     1 <1>   0.0800 
 32 H       -1.1140    -2.5920     0.4510 H     1 <1>   0.0800 
 33 H        0.2850    -2.4590    -0.5920 H     1 <1>   0.0800 
 34 H        1.9370     2.1820     0.5650 H     1 <1>   0.0800 
 35 H        3.5270     1.3990    -1.5610 H     1 <1>   0.0800 
 36 H        2.5890    -0.3290     1.8440 H     1 <1>   0.0800 
 37 H        2.8960     1.2820     2.4730 H     1 <1>   0.0800 
 38 H        4.5590     2.9820     0.7400 H     1 <1>   0.3700 
 39 H        5.7000     0.7960    -0.0940 H     1 <1>   0.0800 
 40 H        4.4990    -0.4670    -0.3670 H     1 <1>   0.0800 
 41 H        3.7820     5.0840     1.2440 H     1 <1>   0.1500 
 42 H        5.6290     5.7820    -2.5120 H     1 <1>   0.1500 
 43 H        6.2800     7.9950    -1.6760 H     1 <1>   0.1500 
@<TRIPOS>BOND
  1   1   2  2   
  2   1   3  2   
  3   1   4  am  
  4   1   5  1   
  5   4   6  1   
  6   4   7  1   
  7   5   8  1   
  8   5  26  1   
  9   5  27  1   
 10   6  28  1   
 11   6  29  1   
 12   6  30  1   
 13   7  31  1   
 14   7  32  1   
 15   7  33  1   
 16   8   9  1   
 17   8  10  1   
 18   8  34  1   
 19   9  11  1   
 20   9  12  1   
 21   9  35  1   
 22  10  13  1   
 23  10  36  1   
 24  10  37  1   
 25  11  14  am  
 26  11  38  1   
 27  12  13  1   
 28  12  39  1   
 29  12  40  1   
 30  14  15  2   
 31  14  16  1   
 32  16  17  ar  
 33  16  18  ar  
 34  17  19  ar  
 35  17  41  1   
 36  18  20  ar  
 37  18  42  1   
 38  19  21  ar  
 39  20  21  ar  
 40  20  43  1   
 41  21  22  1   
 42  22  23  1   
 43  22  24  1   
 44  22  25  1   
@<TRIPOS>SUBSTRUCTURE
  1 ****  11 GROUP 4 **** **** 0

# MOE 2024.06 (io_trps.svl 2023.06)
