@<TRIPOS>MOLECULE
NONAME
55 58 1 0 0 
SMALL
USER_CHARGES


@<TRIPOS>ATOM
  1 O        0.4980     0.6500    -1.3750 O.2   1 <1>  -0.5700 
  2 C        1.0300     1.5890    -0.8320 C.2   1 <1>   0.5690 
  3 N        0.3370     2.7250    -0.5020 N.am  1 <1>  -0.6600 
  4 C        2.5190     1.4730    -0.5360 C.3   1 <1>  -0.0190 
  5 C        0.9900     3.9260     0.0990 C.3   1 <1>   0.2200 
  6 C       -1.1360     2.8280    -0.7050 C.3   1 <1>   0.0600 
  7 C        3.2960     2.4580    -1.4240 C.3   1 <1>   0.2090 
  8 C        2.8810     1.5150     0.9730 C.3   1 <1>  -0.1600 
  9 C        2.0470     4.5440    -0.8460 C.3   1 <1>   0.2090 
 10 C        1.5140     3.6520     1.5280 C.3   1 <1>  -0.1600 
 11 N        3.3790     3.8370    -0.8470 N.pl3 1 <1>  -0.8380 
 12 C        1.8450     2.1900     1.8890 C.3   1 <1>  -0.1600 
 13 C        4.5390     4.4570    -0.4780 C.ar  1 <1>   0.4100 
 14 N        4.5380     5.7760    -0.4130 N.ar  1 <1>  -0.6200 
 15 C        5.7070     3.7280    -0.1680 C.ar  1 <1>  -0.1500 
 16 C        5.6570     6.4030    -0.0830 C.ar  1 <1>   0.7710 
 17 C        6.8410     4.3850     0.1740 C.ar  1 <1>   0.2180 
 18 N        6.7850     5.7350     0.2040 N.ar  1 <1>  -0.1790 
 19 N        5.6660     7.7570    -0.0290 N.pl3 1 <1>  -0.8380 
 20 C        8.1490     3.6880     0.5250 C.3   1 <1>  -0.0170 
 21 C        6.8070     8.6670     0.2660 C.3   1 <1>   0.2090 
 22 C        4.4430     8.5560    -0.3210 C.3   1 <1>   0.2090 
 23 C        9.2610     4.0070    -0.4830 C.3   1 <1>  -0.2400 
 24 C        6.3180    10.0540    -0.1280 C.3   1 <1>  -0.1600 
 25 C        4.8050     9.9890     0.0380 C.3   1 <1>  -0.1600 
 26 H        2.8060     0.4980    -0.8880 H     1 <1>   0.0800 
 27 H        0.2300     4.6830     0.1950 H     1 <1>   0.0800 
 28 H       -1.3530     3.6180    -1.4020 H     1 <1>   0.0800 
 29 H       -1.6170     3.0380     0.2340 H     1 <1>   0.0800 
 30 H       -1.5360     1.9080    -1.0940 H     1 <1>   0.0800 
 31 H        2.8170     2.5130    -2.3880 H     1 <1>   0.0800 
 32 H        4.2790     2.0660    -1.6030 H     1 <1>   0.0800 
 33 H        2.9810     0.4980     1.3130 H     1 <1>   0.0800 
 34 H        3.8360     1.9820     1.1150 H     1 <1>   0.0800 
 35 H        2.1680     5.5680    -0.5450 H     1 <1>   0.0800 
 36 H        1.6530     4.5640    -1.8470 H     1 <1>   0.0800 
 37 H        2.3780     4.2650     1.7100 H     1 <1>   0.0800 
 38 H        0.7600     3.9880     2.2170 H     1 <1>   0.0800 
 39 H        2.2180     2.1670     2.8980 H     1 <1>   0.0800 
 40 H        0.9370     1.6110     1.8870 H     1 <1>   0.0800 
 41 H        5.6840     2.6570    -0.1950 H     1 <1>   0.1500 
 42 H        7.5830     6.3060     0.4460 H     1 <1>   0.4570 
 43 H        8.4620     3.9780     1.5140 H     1 <1>   0.0800 
 44 H        7.9940     2.6220     0.5400 H     1 <1>   0.0800 
 45 H        7.0190     8.6470     1.3230 H     1 <1>   0.0800 
 46 H        7.6870     8.4050    -0.2970 H     1 <1>   0.0800 
 47 H        4.2110     8.4800    -1.3710 H     1 <1>   0.0800 
 48 H        3.6010     8.2100     0.2560 H     1 <1>   0.0800 
 49 H        9.5080     5.0530    -0.4830 H     1 <1>   0.0800 
 50 H        8.9610     3.7200    -1.4770 H     1 <1>   0.0800 
 51 H       10.1500     3.4540    -0.2310 H     1 <1>   0.0800 
 52 H        6.7630    10.8250     0.4760 H     1 <1>   0.0800 
 53 H        6.5640    10.2360    -1.1610 H     1 <1>   0.0800 
 54 H        4.2920    10.6990    -0.5870 H     1 <1>   0.0800 
 55 H        4.5380    10.1720     1.0640 H     1 <1>   0.0800 
@<TRIPOS>BOND
  1   1   2  2   
  2   2   3  am  
  3   2   4  1   
  4   3   5  1   
  5   3   6  1   
  6   4   7  1   
  7   4   8  1   
  8   4  26  1   
  9   5   9  1   
 10   5  10  1   
 11   5  27  1   
 12   6  28  1   
 13   6  29  1   
 14   6  30  1   
 15   7  11  1   
 16   7  31  1   
 17   7  32  1   
 18   8  12  1   
 19   8  33  1   
 20   8  34  1   
 21   9  11  1   
 22   9  35  1   
 23   9  36  1   
 24  10  12  1   
 25  10  37  1   
 26  10  38  1   
 27  11  13  1   
 28  12  39  1   
 29  12  40  1   
 30  13  14  ar  
 31  13  15  ar  
 32  14  16  ar  
 33  15  17  ar  
 34  15  41  1   
 35  16  18  ar  
 36  16  19  1   
 37  17  18  ar  
 38  17  20  1   
 39  18  42  1   
 40  19  21  1   
 41  19  22  1   
 42  20  23  1   
 43  20  43  1   
 44  20  44  1   
 45  21  24  1   
 46  21  45  1   
 47  21  46  1   
 48  22  25  1   
 49  22  47  1   
 50  22  48  1   
 51  23  49  1   
 52  23  50  1   
 53  23  51  1   
 54  24  25  1   
 55  24  52  1   
 56  24  53  1   
 57  25  54  1   
 58  25  55  1   
@<TRIPOS>SUBSTRUCTURE
  1 ****  13 GROUP 4 **** **** 0

# MOE 2024.06 (io_trps.svl 2023.06)
