@<TRIPOS>MOLECULE
NONAME
43 45 1 0 0 
SMALL
USER_CHARGES


@<TRIPOS>ATOM
  1 CL      -1.9970     0.7830    -1.3660 Cl    1 <1>  -0.1230 
  2 C       -3.0700     0.8390     0.0230 C.2   1 <1>   0.1230 
  3 C       -3.5240    -0.2680     0.7450 C.2   1 <1>   0.2030 
  4 C       -3.6200     1.9410     0.5640 C.2   1 <1>  -0.3320 
  5 N       -4.3380     0.1520     1.7050 N.2   1 <1>  -0.7070 
  6 C       -3.0970    -1.6280     0.4430 C.2   1 <1>   0.7160 
  7 N       -4.3760     1.4920     1.5880 N.pl3 1 <1>   0.3000 
  8 C       -3.4880     3.4040     0.1760 C.3   1 <1>  -0.0600 
  9 O       -1.9070    -1.8860     0.5450 O.2   1 <1>  -0.5700 
 10 N       -3.9410    -2.6590     0.0250 N.am  1 <1>  -0.6600 
 11 C       -5.3410    -2.5250    -0.4760 C.3   1 <1>   0.2200 
 12 C       -3.4460    -4.0680     0.0000 C.3   1 <1>   0.0600 
 13 C       -6.3360    -2.3010     0.6590 C.3   1 <1>  -0.1600 
 14 C       -5.5440    -1.4180    -1.5120 C.3   1 <1>  -0.1600 
 15 C       -7.4270    -1.3690     0.1150 C.3   1 <1>  -0.0800 
 16 C       -6.9100    -0.7830    -1.2190 C.3   1 <1>  -0.0800 
 17 C       -7.8630    -0.3260     1.1620 C.3   1 <1>   0.1400 
 18 C       -6.8610     0.7560    -1.2430 C.3   1 <1>  -0.0990 
 19 N       -8.5920     0.7930     0.5150 N.am  1 <1>  -0.6600 
 20 C       -8.1130     1.3540    -0.6360 C.2   1 <1>   0.5690 
 21 C       -9.8090     1.2920     1.2090 C.3   1 <1>   0.0600 
 22 O       -8.6270     2.3040    -1.1750 O.2   1 <1>  -0.5700 
 23 H       -4.9310     2.0840     2.2200 H     1 <1>   0.2700 
 24 H       -2.8320     3.5070    -0.6710 H     1 <1>   0.0800 
 25 H       -3.0790     3.9710     0.9930 H     1 <1>   0.0800 
 26 H       -4.4490     3.8090    -0.0880 H     1 <1>   0.0800 
 27 H       -5.6240    -3.4450    -0.9620 H     1 <1>   0.0800 
 28 H       -4.1940    -4.7280     0.4010 H     1 <1>   0.0800 
 29 H       -2.5540    -4.1760     0.5940 H     1 <1>   0.0800 
 30 H       -3.2230    -4.3540    -1.0130 H     1 <1>   0.0800 
 31 H       -6.7620    -3.2380     0.9700 H     1 <1>   0.0800 
 32 H       -5.8450    -1.8660     1.5070 H     1 <1>   0.0800 
 33 H       -4.7670    -0.6820    -1.4760 H     1 <1>   0.0800 
 34 H       -5.5400    -1.8420    -2.5000 H     1 <1>   0.0800 
 35 H       -8.2900    -1.9720    -0.1130 H     1 <1>   0.0800 
 36 H       -7.5990    -1.0920    -1.9880 H     1 <1>   0.0800 
 37 H       -7.0010     0.0810     1.6610 H     1 <1>   0.0800 
 38 H       -8.4850    -0.7980     1.9030 H     1 <1>   0.0800 
 39 H       -6.7500     1.1040    -2.2530 H     1 <1>   0.0800 
 40 H       -6.0270     1.1120    -0.6730 H     1 <1>   0.0800 
 41 H      -10.5390     0.5040     1.2730 H     1 <1>   0.0800 
 42 H      -10.2400     2.1170     0.6680 H     1 <1>   0.0800 
 43 H       -9.5530     1.6240     2.1990 H     1 <1>   0.0800 
@<TRIPOS>BOND
  1   1   2  1   
  2   2   3  1   
  3   2   4  2   
  4   3   5  2   
  5   3   6  1   
  6   4   7  1   
  7   4   8  1   
  8   5   7  1   
  9   6   9  2   
 10   6  10  am  
 11   7  23  1   
 12   8  24  1   
 13   8  25  1   
 14   8  26  1   
 15  10  11  1   
 16  10  12  1   
 17  11  13  1   
 18  11  14  1   
 19  11  27  1   
 20  12  28  1   
 21  12  29  1   
 22  12  30  1   
 23  13  15  1   
 24  13  31  1   
 25  13  32  1   
 26  14  16  1   
 27  14  33  1   
 28  14  34  1   
 29  15  16  1   
 30  15  17  1   
 31  15  35  1   
 32  16  18  1   
 33  16  36  1   
 34  17  19  1   
 35  17  37  1   
 36  17  38  1   
 37  18  20  1   
 38  18  39  1   
 39  18  40  1   
 40  19  20  am  
 41  19  21  1   
 42  20  22  2   
 43  21  41  1   
 44  21  42  1   
 45  21  43  1   
@<TRIPOS>SUBSTRUCTURE
  1 ****   5 GROUP 4 **** **** 0

# MOE 2024.06 (io_trps.svl 2023.06)
