@<TRIPOS>MOLECULE
NONAME
43 45 1 0 0 
SMALL
USER_CHARGES


@<TRIPOS>ATOM
  1 O       -2.0750     0.4070    -1.7800 O.2   1 <1>  -0.5700 
  2 C       -1.8610     0.4060    -0.5820 C.2   1 <1>   0.7160 
  3 N       -1.8480    -0.7960     0.0600 N.am  1 <1>  -0.7300 
  4 C       -1.6490     1.6220     0.1780 C.2   1 <1>  -0.0860 
  5 C       -2.0770    -2.1180    -0.5650 C.3   1 <1>   0.2200 
  6 C       -1.3050     2.8960    -0.2220 C.2   1 <1>  -0.3320 
  7 C       -1.7810     1.7100     1.5810 C.2   1 <1>  -0.1500 
  8 C       -3.4820    -2.6290    -0.2750 C.3   1 <1>  -0.0800 
  9 C       -1.2450    -3.1590     0.1720 C.3   1 <1>   0.1200 
 10 N       -1.2310     3.7220     0.8520 N.pl3 1 <1>   0.0480 
 11 C       -1.0280     3.3920    -1.6350 C.3   1 <1>  -0.0600 
 12 C       -1.5220     2.9860     1.9520 C.2   1 <1>  -0.3020 
 13 C       -3.3350    -3.2710     1.1090 C.3   1 <1>   0.1200 
 14 C       -4.6130    -1.5890    -0.3750 C.3   1 <1>  -0.0170 
 15 O       -1.9650    -3.4480     1.3320 O.3   1 <1>  -0.5600 
 16 C       -0.8980     5.1570     0.8550 C.3   1 <1>   0.0160 
 17 C       -5.9680    -2.2360    -0.1330 C.ar  1 <1>  -0.1430 
 18 C       -6.6220    -2.9430    -1.1210 C.ar  1 <1>  -0.1500 
 19 C       -6.6130    -2.1520     1.0850 C.ar  1 <1>  -0.1500 
 20 C       -7.8510    -3.5210    -0.8500 C.ar  1 <1>   0.1600 
 21 C       -7.8420    -2.7670     1.2520 C.ar  1 <1>   0.1600 
 22 N       -8.4760    -3.4520     0.3140 N.ar  1 <1>  -0.6200 
 23 H       -1.6520    -0.8200     1.0600 H     1 <1>   0.3700 
 24 H       -1.8530    -2.0870    -1.6180 H     1 <1>   0.0800 
 25 H       -2.0470     0.8970     2.2330 H     1 <1>   0.1500 
 26 H       -3.6920    -3.4200    -0.9730 H     1 <1>   0.0800 
 27 H       -0.2630    -2.8040     0.4300 H     1 <1>   0.0800 
 28 H       -1.1690    -4.0650    -0.4040 H     1 <1>   0.0800 
 29 H       -1.0290     2.5840    -2.3420 H     1 <1>   0.0800 
 30 H       -0.0640     3.8670    -1.6790 H     1 <1>   0.0800 
 31 H       -1.7820     4.0990    -1.9310 H     1 <1>   0.0800 
 32 H       -1.5310     3.4090     2.9400 H     1 <1>   0.1500 
 33 H       -3.8260    -4.2280     1.1590 H     1 <1>   0.0800 
 34 H       -3.7100    -2.6290     1.8870 H     1 <1>   0.0800 
 35 H       -4.6010    -1.1410    -1.3540 H     1 <1>   0.0800 
 36 H       -4.4660    -0.7990     0.3410 H     1 <1>   0.0800 
 37 H       -1.0030     5.5490     1.8500 H     1 <1>   0.0800 
 38 H       -1.5660     5.6770     0.1940 H     1 <1>   0.0800 
 39 H        0.1150     5.2850     0.5230 H     1 <1>   0.0800 
 40 H       -6.1880    -3.0480    -2.0980 H     1 <1>   0.1500 
 41 H       -6.1730    -1.6150     1.9050 H     1 <1>   0.1500 
 42 H       -8.3470    -4.0680    -1.6340 H     1 <1>   0.1500 
 43 H       -8.3310    -2.6910     2.2080 H     1 <1>   0.1500 
@<TRIPOS>BOND
  1   1   2  2   
  2   2   3  am  
  3   2   4  1   
  4   3   5  1   
  5   3  23  1   
  6   4   6  2   
  7   4   7  1   
  8   5   8  1   
  9   5   9  1   
 10   5  24  1   
 11   6  10  1   
 12   6  11  1   
 13   7  12  2   
 14   7  25  1   
 15   8  13  1   
 16   8  14  1   
 17   8  26  1   
 18   9  15  1   
 19   9  27  1   
 20   9  28  1   
 21  10  12  1   
 22  10  16  1   
 23  11  29  1   
 24  11  30  1   
 25  11  31  1   
 26  12  32  1   
 27  13  15  1   
 28  13  33  1   
 29  13  34  1   
 30  14  17  1   
 31  14  35  1   
 32  14  36  1   
 33  16  37  1   
 34  16  38  1   
 35  16  39  1   
 36  17  18  ar  
 37  17  19  ar  
 38  18  20  ar  
 39  18  40  1   
 40  19  21  ar  
 41  19  41  1   
 42  20  22  ar  
 43  20  42  1   
 44  21  22  ar  
 45  21  43  1   
@<TRIPOS>SUBSTRUCTURE
  1 ****   3 GROUP 4 **** **** 0

# MOE 2024.06 (io_trps.svl 2023.06)
