@<TRIPOS>MOLECULE
NONAME
39 41 1 0 0 
SMALL
USER_CHARGES


@<TRIPOS>ATOM
  1 CL      -1.5950    -0.7540    -1.9180 Cl    1 <1>  -0.1230 
  2 C       -1.9320    -2.1400    -0.8950 C.2   1 <1>   0.1230 
  3 C       -2.0450    -2.1210     0.4860 C.2   1 <1>   0.1390 
  4 C       -2.1320    -3.4130    -1.2770 C.2   1 <1>  -0.3020 
  5 N       -2.3020    -3.3100     0.9520 N.2   1 <1>  -0.7070 
  6 N       -2.3520    -4.1080    -0.1400 N.pl3 1 <1>   0.3140 
  7 C       -2.6300    -5.5480    -0.0310 C.3   1 <1>   0.0960 
  8 C       -4.1020    -5.7590     0.3270 C.3   1 <1>   0.1400 
  9 N       -4.4040    -7.2060     0.4510 N.am  1 <1>  -0.7300 
 10 C       -4.4760    -8.0720    -0.5960 C.2   1 <1>   0.6300 
 11 O       -4.1940    -7.7140    -1.7170 O.2   1 <1>  -0.5700 
 12 C       -4.9150    -9.5160    -0.3170 C.3   1 <1>   0.0850 
 13 C       -6.4260    -9.6040    -0.1580 C.2   1 <1>  -0.0450 
 14 C       -4.1360   -10.7080    -0.8120 C.3   1 <1>  -0.1900 
 15 C       -4.0610   -10.3310     0.6310 C.3   1 <1>  -0.2000 
 16 S       -7.4020    -9.3220    -1.5930 S.3   1 <1>  -0.0800 
 17 C       -7.2160    -9.8650     0.9010 C.2   1 <1>  -0.1500 
 18 C       -2.8770   -10.5200    -1.6700 C.3   1 <1>  -0.1450 
 19 C       -4.8740   -12.0010    -1.1870 C.3   1 <1>  -0.1450 
 20 C       -8.8850    -9.5730    -0.6900 C.2   1 <1>  -0.1100 
 21 C       -8.6160    -9.8480     0.5990 C.2   1 <1>  -0.1500 
 22 H       -1.9360    -1.2410     1.0960 H     1 <1>   0.1500 
 23 H       -2.1310    -3.8490    -2.2590 H     1 <1>   0.1500 
 24 H       -2.0000    -5.9560     0.7370 H     1 <1>   0.0800 
 25 H       -2.4020    -6.0160    -0.9710 H     1 <1>   0.0800 
 26 H       -4.7240    -5.3380    -0.4450 H     1 <1>   0.0800 
 27 H       -4.3240    -5.2680     1.2600 H     1 <1>   0.0800 
 28 H       -4.7120    -7.5300     1.3700 H     1 <1>   0.3700 
 29 H       -4.5380   -10.9700     1.3530 H     1 <1>   0.1000 
 30 H       -3.1460    -9.9050     1.0050 H     1 <1>   0.1000 
 31 H       -6.8750   -10.0740     1.8990 H     1 <1>   0.1500 
 32 H       -2.3070    -9.6650    -1.3500 H     1 <1>   0.0800 
 33 H       -3.1550   -10.3720    -2.6990 H     1 <1>   0.0800 
 34 H       -2.2450   -11.3870    -1.6040 H     1 <1>   0.0800 
 35 H       -5.7080   -12.1830    -0.5330 H     1 <1>   0.0800 
 36 H       -4.2090   -12.8430    -1.1210 H     1 <1>   0.0800 
 37 H       -5.2440   -11.9320    -2.1950 H     1 <1>   0.0800 
 38 H       -9.8120    -9.4880    -1.2300 H     1 <1>   0.1500 
 39 H       -9.3490   -10.0430     1.3620 H     1 <1>   0.1500 
@<TRIPOS>BOND
  1   1   2  1   
  2   2   3  1   
  3   2   4  2   
  4   3   5  2   
  5   3  22  1   
  6   4   6  1   
  7   4  23  1   
  8   5   6  1   
  9   6   7  1   
 10   7   8  1   
 11   7  24  1   
 12   7  25  1   
 13   8   9  1   
 14   8  26  1   
 15   8  27  1   
 16   9  10  am  
 17   9  28  1   
 18  10  11  2   
 19  10  12  1   
 20  12  13  1   
 21  12  14  1   
 22  12  15  1   
 23  13  16  1   
 24  13  17  2   
 25  14  15  1   
 26  14  18  1   
 27  14  19  1   
 28  15  29  1   
 29  15  30  1   
 30  16  20  1   
 31  17  21  1   
 32  17  31  1   
 33  18  32  1   
 34  18  33  1   
 35  18  34  1   
 36  19  35  1   
 37  19  36  1   
 38  19  37  1   
 39  20  21  2   
 40  20  38  1   
 41  21  39  1   
@<TRIPOS>SUBSTRUCTURE
  1 ****   9 GROUP 4 **** **** 0

# MOE 2024.06 (io_trps.svl 2023.06)
