@<TRIPOS>MOLECULE
NONAME
42 43 1 0 0 
SMALL
USER_CHARGES


@<TRIPOS>ATOM
  1 O       -1.6830    -0.2770    -0.8590 O.2   1 <1>  -0.5700 
  2 C       -2.1540     0.4800    -0.0290 C.2   1 <1>   0.5440 
  3 N       -2.8990    -0.0510     1.0000 N.am  1 <1>  -0.6600 
  4 C       -1.9570     1.9110    -0.1610 C.ar  1 <1>   0.0860 
  5 C       -3.0010    -1.5290     1.1870 C.3   1 <1>   0.3200 
  6 C       -3.7880     0.7750     1.8710 C.3   1 <1>   0.1400 
  7 C       -1.0000     2.6060     0.5830 C.ar  1 <1>  -0.1440 
  8 C       -2.7510     2.6360    -1.0450 C.ar  1 <1>  -0.1500 
  9 C       -4.0690    -2.1060     0.2760 C.2   1 <1>   0.0060 
 10 C       -5.1720     0.9470     1.2330 C.3   1 <1>   0.1200 
 11 C       -0.8760     3.9770     0.4430 C.ar  1 <1>  -0.1500 
 12 C       -0.0830     1.8660     1.5480 C.3   1 <1>  -0.0960 
 13 C       -2.6300     4.0070    -1.1860 C.ar  1 <1>  -0.1430 
 14 N       -5.1570    -2.6900     0.6690 N.2   1 <1>  -0.5650 
 15 N       -3.9460    -2.0350    -1.0650 N.pl3 1 <1>   0.0330 
 16 O       -5.9980     1.6350     2.1100 O.3   1 <1>  -0.6800 
 17 C       -1.6830     4.6870    -0.4320 C.ar  1 <1>  -0.1440 
 18 C       -3.5400     4.7350    -2.1660 C.3   1 <1>  -0.0970 
 19 C       -5.7750    -3.0190    -0.4830 C.2   1 <1>   0.0770 
 20 C       -5.0500    -2.6250    -1.5530 C.2   1 <1>  -0.3020 
 21 C       -1.5080     6.1950    -0.5450 C.3   1 <1>  -0.0970 
 22 H       -3.2410    -1.7570     2.2100 H     1 <1>   0.0800 
 23 H       -2.0550    -1.9890     0.9600 H     1 <1>   0.0800 
 24 H       -3.3520     1.7470     2.0240 H     1 <1>   0.0800 
 25 H       -3.8900     0.2980     2.8290 H     1 <1>   0.0800 
 26 H       -3.4780     2.1000    -1.6290 H     1 <1>   0.1500 
 27 H       -5.6310    -0.0030     1.0200 H     1 <1>   0.0800 
 28 H       -5.0980     1.5250     0.3300 H     1 <1>   0.0800 
 29 H       -0.1380     4.5040     1.0230 H     1 <1>   0.1500 
 30 H       -0.6560     1.4430     2.3530 H     1 <1>   0.0800 
 31 H        0.6550     2.5280     1.9660 H     1 <1>   0.0800 
 32 H        0.4300     1.0730     1.0330 H     1 <1>   0.0800 
 33 H       -3.1570    -1.5860    -1.5540 H     1 <1>   0.2700 
 34 H       -6.3320     1.0370     2.8070 H     1 <1>   0.4000 
 35 H       -4.1970     4.0480    -2.6680 H     1 <1>   0.0800 
 36 H       -2.9520     5.2420    -2.9080 H     1 <1>   0.0800 
 37 H       -4.1430     5.4550    -1.6420 H     1 <1>   0.0800 
 38 H       -6.7240    -3.5300    -0.4820 H     1 <1>   0.1500 
 39 H       -5.2520    -2.7280    -2.6040 H     1 <1>   0.1500 
 40 H       -0.7390     6.5470     0.1190 H     1 <1>   0.0800 
 41 H       -2.4260     6.6930    -0.2900 H     1 <1>   0.0800 
 42 H       -1.2320     6.4590    -1.5500 H     1 <1>   0.0800 
@<TRIPOS>BOND
  1   1   2  2   
  2   2   3  am  
  3   2   4  1   
  4   3   5  1   
  5   3   6  1   
  6   4   7  ar  
  7   4   8  ar  
  8   5   9  1   
  9   5  22  1   
 10   5  23  1   
 11   6  10  1   
 12   6  24  1   
 13   6  25  1   
 14   7  11  ar  
 15   7  12  1   
 16   8  13  ar  
 17   8  26  1   
 18   9  14  2   
 19   9  15  1   
 20  10  16  1   
 21  10  27  1   
 22  10  28  1   
 23  11  17  ar  
 24  11  29  1   
 25  12  30  1   
 26  12  31  1   
 27  12  32  1   
 28  13  17  ar  
 29  13  18  1   
 30  14  19  1   
 31  15  20  1   
 32  15  33  1   
 33  16  34  1   
 34  17  21  1   
 35  18  35  1   
 36  18  36  1   
 37  18  37  1   
 38  19  20  2   
 39  19  38  1   
 40  20  39  1   
 41  21  40  1   
 42  21  41  1   
 43  21  42  1   
@<TRIPOS>SUBSTRUCTURE
  1 ****   2 GROUP 4 **** **** 0

# MOE 2024.06 (io_trps.svl 2023.06)
