@<TRIPOS>MOLECULE
NONAME
51 54 1 0 0 
SMALL
USER_CHARGES


@<TRIPOS>ATOM
  1 O       -3.1090     0.7920    -1.8790 O.2   1 <1>  -0.5700 
  2 C       -2.4250     0.7780    -0.8830 C.2   1 <1>   0.5690 
  3 N       -2.0710    -0.3900    -0.2920 N.am  1 <1>  -0.7300 
  4 C       -1.9670     2.0910    -0.2480 C.3   1 <1>  -0.0190 
  5 C       -2.4980    -1.7210    -0.7730 C.3   1 <1>   0.2200 
  6 C       -3.1600     2.8610     0.3510 C.3   1 <1>  -0.1600 
  7 C       -1.2030     2.9730    -1.2550 C.3   1 <1>  -0.1600 
  8 C       -3.8050    -2.0920    -0.0950 C.3   1 <1>  -0.0800 
  9 C       -1.5560    -2.7980    -0.2500 C.3   1 <1>   0.1200 
 10 C       -2.7140     4.1860     0.9860 C.3   1 <1>  -0.1600 
 11 C       -0.7570     4.2970    -0.6190 C.3   1 <1>  -0.1600 
 12 C       -3.3290    -2.7150     1.2210 C.3   1 <1>   0.1200 
 13 C       -4.6220    -3.0790    -0.9520 C.3   1 <1>  -0.0170 
 14 O       -2.0000    -3.1130     1.0350 O.3   1 <1>  -0.5600 
 15 C       -1.9500     5.0540    -0.0220 C.3   1 <1>  -0.1600 
 16 C       -5.9920    -3.3470    -0.3390 C.ar  1 <1>  -0.1440 
 17 C       -7.0460    -2.4040    -0.4040 C.ar  1 <1>   0.0000 
 18 C       -6.2400    -4.5270     0.3000 C.ar  1 <1>  -0.1500 
 19 C       -8.2730    -2.7470     0.2150 C.ar  1 <1>   0.3100 
 20 C       -6.9570    -1.1460    -1.0460 C.ar  1 <1>  -0.1500 
 21 C       -7.4940    -4.7690     0.8730 C.ar  1 <1>   0.1600 
 22 N       -8.4800    -3.9300     0.8480 N.ar  1 <1>  -0.6200 
 23 C       -9.3340    -1.8280     0.1760 C.ar  1 <1>  -0.1500 
 24 C       -8.0120    -0.2740    -1.0660 C.ar  1 <1>  -0.1500 
 25 C       -9.2160    -0.6160    -0.4470 C.ar  1 <1>  -0.1500 
 26 H       -1.5730    -0.3960     0.6000 H     1 <1>   0.3700 
 27 H       -1.2920     1.8530     0.5540 H     1 <1>   0.0800 
 28 H       -2.5610    -1.7190    -1.8480 H     1 <1>   0.0800 
 29 H       -3.8760     3.0640    -0.4280 H     1 <1>   0.0800 
 30 H       -3.6470     2.2520     1.0930 H     1 <1>   0.0800 
 31 H       -0.3430     2.4400    -1.6210 H     1 <1>   0.0800 
 32 H       -1.8410     3.1830    -2.0980 H     1 <1>   0.0800 
 33 H       -4.4010    -1.2180     0.0970 H     1 <1>   0.0800 
 34 H       -0.5310    -2.4730    -0.2110 H     1 <1>   0.0800 
 35 H       -1.6320    -3.6890    -0.8470 H     1 <1>   0.0800 
 36 H       -3.5780     4.7230     1.3400 H     1 <1>   0.0800 
 37 H       -2.0820     3.9830     1.8330 H     1 <1>   0.0800 
 38 H       -0.0360     4.0980     0.1560 H     1 <1>   0.0800 
 39 H       -0.2790     4.9100    -1.3640 H     1 <1>   0.0800 
 40 H       -3.9120    -3.5680     1.5190 H     1 <1>   0.0800 
 41 H       -3.3390    -1.9830     2.0110 H     1 <1>   0.0800 
 42 H       -4.0830    -4.0040    -1.0540 H     1 <1>   0.0800 
 43 H       -4.7540    -2.6830    -1.9440 H     1 <1>   0.0800 
 44 H       -1.6030     5.9500     0.4630 H     1 <1>   0.0800 
 45 H       -2.6170     5.3460    -0.8160 H     1 <1>   0.0800 
 46 H       -5.4900    -5.2920     0.3830 H     1 <1>   0.1500 
 47 H       -6.0430    -0.8580    -1.5330 H     1 <1>   0.1500 
 48 H       -7.6460    -5.7120     1.3690 H     1 <1>   0.1500 
 49 H      -10.2510    -2.1140     0.6570 H     1 <1>   0.1500 
 50 H       -7.9260     0.6810    -1.5570 H     1 <1>   0.1500 
 51 H      -10.0380     0.0790    -0.4680 H     1 <1>   0.1500 
@<TRIPOS>BOND
  1   1   2  2   
  2   2   3  am  
  3   2   4  1   
  4   3   5  1   
  5   3  26  1   
  6   4   6  1   
  7   4   7  1   
  8   4  27  1   
  9   5   8  1   
 10   5   9  1   
 11   5  28  1   
 12   6  10  1   
 13   6  29  1   
 14   6  30  1   
 15   7  11  1   
 16   7  31  1   
 17   7  32  1   
 18   8  12  1   
 19   8  13  1   
 20   8  33  1   
 21   9  14  1   
 22   9  34  1   
 23   9  35  1   
 24  10  15  1   
 25  10  36  1   
 26  10  37  1   
 27  11  15  1   
 28  11  38  1   
 29  11  39  1   
 30  12  14  1   
 31  12  40  1   
 32  12  41  1   
 33  13  16  1   
 34  13  42  1   
 35  13  43  1   
 36  15  44  1   
 37  15  45  1   
 38  16  17  ar  
 39  16  18  ar  
 40  17  19  ar  
 41  17  20  ar  
 42  18  21  ar  
 43  18  46  1   
 44  19  22  ar  
 45  19  23  ar  
 46  20  24  ar  
 47  20  47  1   
 48  21  22  ar  
 49  21  48  1   
 50  23  25  ar  
 51  23  49  1   
 52  24  25  ar  
 53  24  50  1   
 54  25  51  1   
@<TRIPOS>SUBSTRUCTURE
  1 ****   8 GROUP 4 **** **** 0

# MOE 2024.06 (io_trps.svl 2023.06)
