@<TRIPOS>MOLECULE
NONAME
56 59 1 0 0 
SMALL
USER_CHARGES


@<TRIPOS>ATOM
  1 O        2.0720    -0.0260     2.1920 O.2   1 <1>  -0.5700 
  2 C        2.6370    -1.0090     1.7490 C.2   1 <1>   0.5440 
  3 N        3.9420    -0.8530     1.3430 N.am  1 <1>  -0.6600 
  4 C        1.9440    -2.2640     1.5750 C.ar  1 <1>   0.0860 
  5 C        4.7920     0.2700     1.8940 C.3   1 <1>   0.1400 
  6 C        4.4210    -1.4660     0.0660 C.3   1 <1>   0.1400 
  7 C        0.8150    -2.3980     0.7270 C.ar  1 <1>   0.0000 
  8 C        2.3950    -3.3990     2.1950 C.ar  1 <1>  -0.1500 
  9 C        4.7670     1.5410     1.0040 C.3   1 <1>   0.4230 
 10 C        4.5070    -0.4670    -1.1170 C.3   1 <1>  -0.0800 
 11 C        0.2620    -3.6850     0.5390 C.ar  1 <1>   0.3100 
 12 C        0.2250    -1.3140     0.0450 C.ar  1 <1>  -0.1500 
 13 C        1.7750    -4.6270     1.9710 C.ar  1 <1>   0.1660 
 14 N        3.4950     1.5140     0.1920 N.4   1 <1>  -0.9590 
 15 C        6.0860     1.6910     0.2010 C.3   1 <1>   0.1200 
 16 C        5.9470    -0.0190    -1.4100 C.3   1 <1>   0.1200 
 17 C        3.5610     0.7520    -1.0960 C.3   1 <1>   0.3430 
 18 N        0.7660    -4.7760     1.1770 N.ar  1 <1>  -0.6200 
 19 C       -0.8400    -3.8480    -0.3390 C.ar  1 <1>  -0.1430 
 20 C       -0.8370    -1.4930    -0.7940 C.ar  1 <1>  -0.1500 
 21 C        2.2880    -5.8690     2.6690 C.3   1 <1>  -0.0970 
 22 C        2.9690     2.9220    -0.0530 C.3   1 <1>   0.2370 
 23 O        6.5650     0.4600    -0.2660 O.3   1 <1>  -0.5600 
 24 C       -1.3790    -2.7650    -1.0000 C.ar  1 <1>  -0.1430 
 25 C       -1.4000    -5.2640    -0.5170 C.3   1 <1>  -0.0970 
 26 C        3.9040     3.8250    -0.8580 C.2   1 <1>   0.9060 
 27 C       -2.5620    -2.8730    -1.9550 C.3   1 <1>  -0.0970 
 28 O        3.9290     3.6840    -2.0840 O.co2 1 <1>  -0.9000 
 29 O        4.7040     4.5240    -0.2320 O.co2 1 <1>  -0.9000 
 30 H        4.4220     0.5390     2.8680 H     1 <1>   0.0800 
 31 H        5.8010    -0.0750     2.0350 H     1 <1>   0.0800 
 32 H        5.3860    -1.9140     0.2360 H     1 <1>   0.0800 
 33 H        3.7560    -2.2640    -0.2170 H     1 <1>   0.0800 
 34 H        3.2410    -3.3490     2.8560 H     1 <1>   0.1500 
 35 H        4.7190     2.3960     1.6580 H     1 <1>   0.0800 
 36 H        4.2250    -1.0220    -1.9930 H     1 <1>   0.0800 
 37 H        0.6050    -0.3200     0.1900 H     1 <1>   0.1500 
 38 H        2.8350     1.0130     0.8170 H     1 <1>   0.4500 
 39 H        6.8400     2.0760     0.8630 H     1 <1>   0.0800 
 40 H        6.0010     2.3810    -0.6200 H     1 <1>   0.0800 
 41 H        5.9830     0.7410    -2.1740 H     1 <1>   0.0800 
 42 H        6.5290    -0.8600    -1.7470 H     1 <1>   0.0800 
 43 H        2.5660     0.4200    -1.3410 H     1 <1>   0.0800 
 44 H        3.8710     1.4210    -1.8840 H     1 <1>   0.0800 
 45 H       -1.2680    -0.6470    -1.3000 H     1 <1>   0.1500 
 46 H        3.0860    -5.6360     3.3500 H     1 <1>   0.0800 
 47 H        2.6460    -6.5690     1.9370 H     1 <1>   0.0800 
 48 H        1.4860    -6.3260     3.2200 H     1 <1>   0.0800 
 49 H        2.0370     2.8740    -0.5850 H     1 <1>   0.0800 
 50 H        2.7940     3.4110     0.8880 H     1 <1>   0.0800 
 51 H       -2.2340    -5.3120    -1.1890 H     1 <1>   0.0800 
 52 H       -1.7200    -5.6460     0.4360 H     1 <1>   0.0800 
 53 H       -0.6290    -5.9100    -0.8980 H     1 <1>   0.0800 
 54 H       -2.8190    -1.9170    -2.3730 H     1 <1>   0.0800 
 55 H       -3.4220    -3.2510    -1.4320 H     1 <1>   0.0800 
 56 H       -2.3210    -3.5380    -2.7660 H     1 <1>   0.0800 
@<TRIPOS>BOND
  1   1   2  2   
  2   2   3  am  
  3   2   4  1   
  4   3   5  1   
  5   3   6  1   
  6   4   7  ar  
  7   4   8  ar  
  8   5   9  1   
  9   5  30  1   
 10   5  31  1   
 11   6  10  1   
 12   6  32  1   
 13   6  33  1   
 14   7  11  ar  
 15   7  12  ar  
 16   8  13  ar  
 17   8  34  1   
 18   9  14  1   
 19   9  15  1   
 20   9  35  1   
 21  10  16  1   
 22  10  17  1   
 23  10  36  1   
 24  11  18  ar  
 25  11  19  ar  
 26  12  20  ar  
 27  12  37  1   
 28  13  18  ar  
 29  13  21  1   
 30  14  17  1   
 31  14  22  1   
 32  14  38  1   
 33  15  23  1   
 34  15  39  1   
 35  15  40  1   
 36  16  23  1   
 37  16  41  1   
 38  16  42  1   
 39  17  43  1   
 40  17  44  1   
 41  19  24  ar  
 42  19  25  1   
 43  20  24  ar  
 44  20  45  1   
 45  21  46  1   
 46  21  47  1   
 47  21  48  1   
 48  22  26  1   
 49  22  49  1   
 50  22  50  1   
 51  24  27  1   
 52  25  51  1   
 53  25  52  1   
 54  25  53  1   
 55  26  28  ar  
 56  26  29  ar  
 57  27  54  1   
 58  27  55  1   
 59  27  56  1   
@<TRIPOS>SUBSTRUCTURE
  1 ****   2 GROUP 4 **** **** 0

# MOE 2024.06 (io_trps.svl 2023.06)
