@<TRIPOS>MOLECULE
NONAME
44 45 1 0 0 
SMALL
USER_CHARGES


@<TRIPOS>ATOM
  1 O       -1.1120    -3.3010     1.1000 O.2   1 <1>  -0.5700 
  2 C       -0.1310    -2.6520     0.7810 C.2   1 <1>   0.6900 
  3 N        0.8450    -2.3500     1.6920 N.am  1 <1>  -0.6600 
  4 N        0.0310    -2.2780    -0.5110 N.am  1 <1>  -0.7300 
  5 C        0.8930    -3.0250     3.0180 C.3   1 <1>   0.0600 
  6 C        1.8610    -1.2810     1.4970 C.3   1 <1>   0.0600 
  7 C       -0.8940    -2.6650    -1.6280 C.3   1 <1>   0.2010 
  8 C       -0.7890    -4.1350    -2.0490 C.2   1 <1>   0.5690 
  9 O       -0.8090    -4.4250    -3.2210 O.2   1 <1>  -0.5700 
 10 N       -0.6930    -5.0760    -1.0810 N.am  1 <1>  -0.7300 
 11 C       -0.6840    -6.5420    -1.2370 C.3   1 <1>   0.2200 
 12 C       -1.6770    -7.1800    -0.2760 C.3   1 <1>  -0.0800 
 13 C        0.6320    -7.0960    -0.7000 C.3   1 <1>   0.1200 
 14 C       -0.8840    -7.2260     1.0320 C.3   1 <1>   0.1200 
 15 C       -3.0450    -6.4810    -0.1540 C.3   1 <1>  -0.0170 
 16 O        0.4700    -7.2340     0.6820 O.3   1 <1>  -0.5600 
 17 C       -3.9270    -7.1820     0.8670 C.ar  1 <1>  -0.1440 
 18 C       -4.5970    -8.3530     0.5760 C.ar  1 <1>  -0.1500 
 19 C       -4.0980    -6.6810     2.1410 C.ar  1 <1>  -0.1500 
 20 C       -5.3810    -8.9510     1.5480 C.ar  1 <1>   0.1600 
 21 C       -4.9050    -7.3580     3.0400 C.ar  1 <1>   0.1600 
 22 N       -5.5500    -8.4830     2.7750 N.ar  1 <1>  -0.6200 
 23 H        0.9800    -2.0360    -0.7860 H     1 <1>   0.3700 
 24 H        1.9050    -3.3090     3.2480 H     1 <1>   0.0800 
 25 H        0.2850    -3.9130     3.0150 H     1 <1>   0.0800 
 26 H        0.5280    -2.3570     3.7780 H     1 <1>   0.0800 
 27 H        1.9770    -0.7190     2.4080 H     1 <1>   0.0800 
 28 H        1.5570    -0.6020     0.7210 H     1 <1>   0.0800 
 29 H        2.8060    -1.7240     1.2350 H     1 <1>   0.0800 
 30 H       -1.9080    -2.4800    -1.3190 H     1 <1>   0.0800 
 31 H       -0.6920    -2.0460    -2.4830 H     1 <1>   0.0800 
 32 H       -0.6790    -4.7430    -0.1040 H     1 <1>   0.3700 
 33 H       -0.8530    -6.8150    -2.2650 H     1 <1>   0.0800 
 34 H       -1.8400    -8.1960    -0.5890 H     1 <1>   0.0800 
 35 H        1.4660    -6.4470    -0.9040 H     1 <1>   0.0800 
 36 H        0.8210    -8.0750    -1.1040 H     1 <1>   0.0800 
 37 H       -1.1070    -8.1040     1.6120 H     1 <1>   0.0800 
 38 H       -1.0580    -6.3430     1.6230 H     1 <1>   0.0800 
 39 H       -3.5340    -6.4800    -1.1120 H     1 <1>   0.0800 
 40 H       -2.9210    -5.4540     0.1460 H     1 <1>   0.0800 
 41 H       -4.5180    -8.8030    -0.3960 H     1 <1>   0.1500 
 42 H       -3.6110    -5.7710     2.4430 H     1 <1>   0.1500 
 43 H       -5.8970    -9.8640     1.3040 H     1 <1>   0.1500 
 44 H       -5.0260    -6.9520     4.0290 H     1 <1>   0.1500 
@<TRIPOS>BOND
  1   1   2  2   
  2   2   3  am  
  3   2   4  am  
  4   3   5  1   
  5   3   6  1   
  6   4   7  1   
  7   4  23  1   
  8   5  24  1   
  9   5  25  1   
 10   5  26  1   
 11   6  27  1   
 12   6  28  1   
 13   6  29  1   
 14   7   8  1   
 15   7  30  1   
 16   7  31  1   
 17   8   9  2   
 18   8  10  am  
 19  10  11  1   
 20  10  32  1   
 21  11  12  1   
 22  11  13  1   
 23  11  33  1   
 24  12  14  1   
 25  12  15  1   
 26  12  34  1   
 27  13  16  1   
 28  13  35  1   
 29  13  36  1   
 30  14  16  1   
 31  14  37  1   
 32  14  38  1   
 33  15  17  1   
 34  15  39  1   
 35  15  40  1   
 36  17  18  ar  
 37  17  19  ar  
 38  18  20  ar  
 39  18  41  1   
 40  19  21  ar  
 41  19  42  1   
 42  20  22  ar  
 43  20  43  1   
 44  21  22  ar  
 45  21  44  1   
@<TRIPOS>SUBSTRUCTURE
  1 ****  10 GROUP 4 **** **** 0

# MOE 2024.06 (io_trps.svl 2023.06)
