@<TRIPOS>MOLECULE
NONAME
54 57 1 0 0 
SMALL
USER_CHARGES


@<TRIPOS>ATOM
  1 O        0.4860    -3.9380    -2.6810 O.2   1 <1>  -0.5700 
  2 C        1.6490    -4.0630    -2.3970 C.2   1 <1>   0.5690 
  3 N        2.5870    -4.2910    -3.3410 N.am  1 <1>  -0.7300 
  4 C        2.1090    -3.9830    -0.9580 C.3   1 <1>  -0.0990 
  5 C        4.0190    -4.4820    -3.0290 C.3   1 <1>   0.1400 
  6 C        3.4030    -3.1540    -0.8510 C.3   1 <1>  -0.0800 
  7 C        4.4590    -3.4860    -1.9360 C.3   1 <1>  -0.0800 
  8 C        4.1020    -3.3060     0.5080 C.3   1 <1>  -0.1600 
  9 C        5.7060    -3.9540    -1.1780 C.3   1 <1>  -0.1600 
 10 C        5.5920    -3.2720     0.1820 C.3   1 <1>   0.2200 
 11 N        6.4400    -3.8940     1.2440 N.am  1 <1>  -0.6600 
 12 C        7.3680    -3.1620     1.9610 C.2   1 <1>   0.5440 
 13 C        6.3660    -5.3790     1.4220 C.3   1 <1>   0.0600 
 14 O        8.1640    -3.7530     2.6690 O.2   1 <1>  -0.5700 
 15 C        7.4260    -1.7160     1.9300 C.ar  1 <1>   0.0860 
 16 C        7.9560    -0.9910     0.8530 C.ar  1 <1>   0.0820 
 17 C        6.9330    -0.9900     3.0140 C.ar  1 <1>  -0.1500 
 18 O        8.4490    -1.5980    -0.2460 O.3   1 <1>  -0.3630 
 19 C        7.9540     0.3950     0.8590 C.ar  1 <1>  -0.1500 
 20 C        6.9410     0.3930     3.0250 C.ar  1 <1>  -0.1500 
 21 C        9.6140    -2.3920    -0.1280 C.3   1 <1>   0.2630 
 22 C        7.4500     1.0890     1.9420 C.ar  1 <1>  -0.1500 
 23 C        9.4680    -3.6020    -1.0370 C.ar  1 <1>  -0.1440 
 24 C        9.3990    -3.4430    -2.4130 C.ar  1 <1>  -0.1500 
 25 C        9.3990    -4.8770    -0.4970 C.ar  1 <1>  -0.1500 
 26 C        9.2640    -4.5450    -3.2400 C.ar  1 <1>  -0.1500 
 27 C        9.2650    -5.9800    -1.3220 C.ar  1 <1>  -0.1500 
 28 C        9.1970    -5.8150    -2.6940 C.ar  1 <1>  -0.1500 
 29 H        2.2730    -4.3800    -4.3090 H     1 <1>   0.3700 
 30 H        1.3350    -3.5420    -0.3570 H     1 <1>   0.0800 
 31 H        2.2750    -4.9870    -0.6140 H     1 <1>   0.0800 
 32 H        4.1570    -5.4940    -2.6890 H     1 <1>   0.0800 
 33 H        4.6110    -4.3370    -3.9160 H     1 <1>   0.0800 
 34 H        3.1340    -2.1170    -0.9790 H     1 <1>   0.0800 
 35 H        4.7100    -2.5610    -2.4290 H     1 <1>   0.0800 
 36 H        3.8370    -4.2450     0.9570 H     1 <1>   0.0800 
 37 H        3.8370    -2.5080     1.1780 H     1 <1>   0.0800 
 38 H        6.6100    -3.6640    -1.6820 H     1 <1>   0.0800 
 39 H        5.6820    -5.0220    -1.0710 H     1 <1>   0.0800 
 40 H        5.8620    -2.2420     0.0400 H     1 <1>   0.0800 
 41 H        5.3670    -5.7380     1.2620 H     1 <1>   0.0800 
 42 H        6.6650    -5.6510     2.4200 H     1 <1>   0.0800 
 43 H        7.0280    -5.8570     0.7230 H     1 <1>   0.0800 
 44 H        6.5390    -1.5290     3.8590 H     1 <1>   0.1500 
 45 H        8.3490     0.9270     0.0120 H     1 <1>   0.1500 
 46 H        6.5530     0.9290     3.8750 H     1 <1>   0.1500 
 47 H       10.4530    -1.7930    -0.4320 H     1 <1>   0.0800 
 48 H        9.7550    -2.6900     0.8950 H     1 <1>   0.0800 
 49 H        7.4530     2.1660     1.9460 H     1 <1>   0.1500 
 50 H        9.4470    -2.4570    -2.8410 H     1 <1>   0.1500 
 51 H        9.4470    -5.0130     0.5710 H     1 <1>   0.1500 
 52 H        9.2120    -4.4140    -4.3060 H     1 <1>   0.1500 
 53 H        9.2160    -6.9660    -0.8930 H     1 <1>   0.1500 
 54 H        9.0950    -6.6730    -3.3350 H     1 <1>   0.1500 
@<TRIPOS>BOND
  1   1   2  2   
  2   2   3  am  
  3   2   4  1   
  4   3   5  1   
  5   3  29  1   
  6   4   6  1   
  7   4  30  1   
  8   4  31  1   
  9   5   7  1   
 10   5  32  1   
 11   5  33  1   
 12   6   7  1   
 13   6   8  1   
 14   6  34  1   
 15   7   9  1   
 16   7  35  1   
 17   8  10  1   
 18   8  36  1   
 19   8  37  1   
 20   9  10  1   
 21   9  38  1   
 22   9  39  1   
 23  10  11  1   
 24  10  40  1   
 25  11  12  am  
 26  11  13  1   
 27  12  14  2   
 28  12  15  1   
 29  13  41  1   
 30  13  42  1   
 31  13  43  1   
 32  15  16  ar  
 33  15  17  ar  
 34  16  18  1   
 35  16  19  ar  
 36  17  20  ar  
 37  17  44  1   
 38  18  21  1   
 39  19  22  ar  
 40  19  45  1   
 41  20  22  ar  
 42  20  46  1   
 43  21  23  1   
 44  21  47  1   
 45  21  48  1   
 46  22  49  1   
 47  23  24  ar  
 48  23  25  ar  
 49  24  26  ar  
 50  24  50  1   
 51  25  27  ar  
 52  25  51  1   
 53  26  28  ar  
 54  26  52  1   
 55  27  28  ar  
 56  27  53  1   
 57  28  54  1   
@<TRIPOS>SUBSTRUCTURE
  1 ****  10 GROUP 4 **** **** 0

# MOE 2024.06 (io_trps.svl 2023.06)
