@<TRIPOS>MOLECULE
NONAME
45 47 1 0 0 
SMALL
USER_CHARGES


@<TRIPOS>ATOM
  1 S       -0.4370    -0.9450    -1.2880 S.3   1 <1>  -0.3320 
  2 C       -1.8470    -1.3410    -0.2430 C.ar  1 <1>   0.1020 
  3 C       -0.3060     0.8980    -1.3310 C.3   1 <1>  -0.0100 
  4 C       -2.1000    -2.6830    -0.0300 C.ar  1 <1>  -0.1500 
  5 C       -2.6500    -0.3660     0.3240 C.ar  1 <1>  -0.1500 
  6 C       -3.1780    -3.0670     0.7540 C.ar  1 <1>  -0.1430 
  7 C       -3.7200    -0.7490     1.1150 C.ar  1 <1>  -0.1500 
  8 C       -3.9830    -2.0930     1.3290 C.ar  1 <1>  -0.1500 
  9 C       -3.4760    -4.5370     0.9730 C.3   1 <1>   0.4860 
 10 N       -3.9810    -5.1090    -0.3060 N.4   1 <1>  -0.9590 
 11 C       -5.3300    -4.5440    -0.6380 C.3   1 <1>   0.3430 
 12 C       -4.1470    -6.5920    -0.1980 C.3   1 <1>   0.3430 
 13 C       -6.3420    -5.5860    -0.1580 C.3   1 <1>   0.2000 
 14 C       -5.6240    -6.8970    -0.4750 C.3   1 <1>  -0.0800 
 15 O       -6.4910    -5.4500     1.2200 O.3   1 <1>  -0.6800 
 16 C       -6.1280    -8.1520     0.2620 C.3   1 <1>  -0.0170 
 17 C       -5.2260    -9.3350    -0.0490 C.ar  1 <1>  -0.1430 
 18 C       -5.2350    -9.9540    -1.2840 C.ar  1 <1>  -0.1500 
 19 C       -4.3460    -9.8480     0.8840 C.ar  1 <1>  -0.1500 
 20 C       -4.3730   -11.0100    -1.5260 C.ar  1 <1>   0.1600 
 21 C       -3.5260   -10.9100     0.5400 C.ar  1 <1>   0.1600 
 22 N       -3.5120   -11.4930    -0.6470 N.ar  1 <1>  -0.6200 
 23 H        0.5470     1.1480    -1.9350 H     1 <1>   0.0800 
 24 H       -0.1740     1.2460    -0.3230 H     1 <1>   0.0800 
 25 H       -1.2080     1.2870    -1.7680 H     1 <1>   0.0800 
 26 H       -1.4410    -3.4040    -0.4810 H     1 <1>   0.1500 
 27 H       -2.4590     0.6780     0.1650 H     1 <1>   0.1500 
 28 H       -4.3480     0.0020     1.5650 H     1 <1>   0.1500 
 29 H       -4.8200    -2.3660     1.9500 H     1 <1>   0.1500 
 30 H       -4.2140    -4.6540     1.7500 H     1 <1>   0.0800 
 31 H       -2.5730    -5.0410     1.2760 H     1 <1>   0.0800 
 32 H       -3.3110    -4.8530    -1.0420 H     1 <1>   0.4500 
 33 H       -5.5030    -3.5860    -0.1750 H     1 <1>   0.0800 
 34 H       -5.4180    -4.4360    -1.7070 H     1 <1>   0.0800 
 35 H       -3.5140    -7.1130    -0.8980 H     1 <1>   0.0800 
 36 H       -3.9010    -6.9170     0.8000 H     1 <1>   0.0800 
 37 H       -7.3040    -5.4810    -0.6320 H     1 <1>   0.0800 
 38 H       -5.7150    -7.0760    -1.5330 H     1 <1>   0.0800 
 39 H       -7.3100    -5.8910     1.5330 H     1 <1>   0.4000 
 40 H       -7.1340    -8.3810    -0.0440 H     1 <1>   0.0800 
 41 H       -6.1400    -7.9930     1.3270 H     1 <1>   0.0800 
 42 H       -5.9030    -9.6330    -2.0620 H     1 <1>   0.1500 
 43 H       -4.2870    -9.4440     1.8780 H     1 <1>   0.1500 
 44 H       -4.3910   -11.4840    -2.4940 H     1 <1>   0.1500 
 45 H       -2.8460   -11.3030     1.2780 H     1 <1>   0.1500 
@<TRIPOS>BOND
  1   1   2  1   
  2   1   3  1   
  3   2   4  ar  
  4   2   5  ar  
  5   3  23  1   
  6   3  24  1   
  7   3  25  1   
  8   4   6  ar  
  9   4  26  1   
 10   5   7  ar  
 11   5  27  1   
 12   6   8  ar  
 13   6   9  1   
 14   7   8  ar  
 15   7  28  1   
 16   8  29  1   
 17   9  10  1   
 18   9  30  1   
 19   9  31  1   
 20  10  11  1   
 21  10  12  1   
 22  10  32  1   
 23  11  13  1   
 24  11  33  1   
 25  11  34  1   
 26  12  14  1   
 27  12  35  1   
 28  12  36  1   
 29  13  14  1   
 30  13  15  1   
 31  13  37  1   
 32  14  16  1   
 33  14  38  1   
 34  15  39  1   
 35  16  17  1   
 36  16  40  1   
 37  16  41  1   
 38  17  18  ar  
 39  17  19  ar  
 40  18  20  ar  
 41  18  42  1   
 42  19  21  ar  
 43  19  43  1   
 44  20  22  ar  
 45  20  44  1   
 46  21  22  ar  
 47  21  45  1   
@<TRIPOS>SUBSTRUCTURE
  1 ****  10 GROUP 4 **** **** 0

# MOE 2024.06 (io_trps.svl 2023.06)
