@<TRIPOS>MOLECULE
NONAME
51 53 1 0 0 
SMALL
USER_CHARGES


@<TRIPOS>ATOM
  1 O        1.2800    -0.1360    -2.5720 O.2   1 <1>  -0.5700 
  2 C        1.7870    -0.6810    -1.6170 C.2   1 <1>   0.5690 
  3 N        2.4640     0.0380    -0.6620 N.am  1 <1>  -0.6600 
  4 C        1.6410    -2.2100    -1.5290 C.3   1 <1>   0.1710 
  5 C        3.0800    -0.5430     0.5700 C.3   1 <1>   0.1400 
  6 C        2.5770     1.5260    -0.7280 C.3   1 <1>   0.1400 
  7 N        0.9380    -2.7180    -0.3160 N.3   1 <1>  -0.8100 
  8 C        4.4860     0.0430     0.8170 C.3   1 <1>   0.2000 
  9 C        4.0140     1.9860    -0.4110 C.3   1 <1>   0.2000 
 10 C       -0.4010    -2.1280    -0.1590 C.3   1 <1>   0.1100 
 11 C        0.7490    -4.1780    -0.3300 C.3   1 <1>   0.1100 
 12 O        4.4430     1.4380     0.8010 O.3   1 <1>  -0.5600 
 13 C        5.0460    -0.3690     2.1760 C.3   1 <1>  -0.2400 
 14 C        4.1130     3.5030    -0.2730 C.3   1 <1>  -0.2400 
 15 C       -1.1160    -3.0910     0.7770 C.3   1 <1>   0.2000 
 16 C       -0.6490    -4.4500     0.2520 C.3   1 <1>  -0.0800 
 17 O       -0.6030    -2.8820     2.0440 O.3   1 <1>  -0.6800 
 18 C       -0.6760    -5.5950     1.2830 C.3   1 <1>   0.0200 
 19 C       -0.3260    -6.9440     0.6770 C.2   1 <1>  -0.0400 
 20 O       -0.0900    -7.9490     1.4760 O.3   1 <1>  -0.0190 
 21 C       -0.1910    -7.3860    -0.5840 C.2   1 <1>  -0.1500 
 22 N        0.1990    -9.0360     0.8210 N.2   1 <1>  -0.4100 
 23 C        0.1440    -8.7280    -0.4230 C.2   1 <1>   0.1080 
 24 C        0.4080    -9.7000    -1.5510 C.3   1 <1>  -0.0590 
 25 H        2.6250    -2.6390    -1.5680 H     1 <1>   0.0800 
 26 H        1.1110    -2.5360    -2.4070 H     1 <1>   0.0800 
 27 H        2.4490    -0.3200     1.4120 H     1 <1>   0.0800 
 28 H        3.1610    -1.6110     0.4930 H     1 <1>   0.0800 
 29 H        2.3010     1.8810    -1.7050 H     1 <1>   0.0800 
 30 H        1.8990     1.9590    -0.0150 H     1 <1>   0.0800 
 31 H        5.1570    -0.2820     0.0400 H     1 <1>   0.0800 
 32 H        4.6810     1.6530    -1.1880 H     1 <1>   0.0800 
 33 H       -0.3530    -1.1310     0.2470 H     1 <1>   0.0800 
 34 H       -0.9100    -2.1010    -1.1090 H     1 <1>   0.0800 
 35 H        0.8100    -4.5690    -1.3320 H     1 <1>   0.0800 
 36 H        1.5170    -4.6370     0.2690 H     1 <1>   0.0800 
 37 H        4.4040    -0.0180     2.9650 H     1 <1>   0.0800 
 38 H        6.0270     0.0490     2.3060 H     1 <1>   0.0800 
 39 H        5.1190    -1.4390     2.2370 H     1 <1>   0.0800 
 40 H        3.4780     3.8470     0.5240 H     1 <1>   0.0800 
 41 H        3.8090     3.9770    -1.1880 H     1 <1>   0.0800 
 42 H        5.1290     3.7840    -0.0630 H     1 <1>   0.0800 
 43 H       -2.1860    -2.9700     0.8020 H     1 <1>   0.0800 
 44 H       -1.2970    -4.7150    -0.5640 H     1 <1>   0.0800 
 45 H        0.3640    -2.7610     1.9280 H     1 <1>   0.4000 
 46 H       -1.6540    -5.6600     1.7250 H     1 <1>   0.0800 
 47 H        0.0240    -5.3890     2.0740 H     1 <1>   0.0800 
 48 H       -0.3070    -6.8730    -1.5200 H     1 <1>   0.1500 
 49 H       -0.4260    -9.7130    -2.2270 H     1 <1>   0.0800 
 50 H        0.5500   -10.6900    -1.1550 H     1 <1>   0.0800 
 51 H        1.2940    -9.4090    -2.0840 H     1 <1>   0.0800 
@<TRIPOS>BOND
  1   1   2  2   
  2   2   3  am  
  3   2   4  1   
  4   3   5  1   
  5   3   6  1   
  6   4   7  1   
  7   4  25  1   
  8   4  26  1   
  9   5   8  1   
 10   5  27  1   
 11   5  28  1   
 12   6   9  1   
 13   6  29  1   
 14   6  30  1   
 15   7  10  1   
 16   7  11  1   
 17   8  12  1   
 18   8  13  1   
 19   8  31  1   
 20   9  12  1   
 21   9  14  1   
 22   9  32  1   
 23  10  15  1   
 24  10  33  1   
 25  10  34  1   
 26  11  16  1   
 27  11  35  1   
 28  11  36  1   
 29  13  37  1   
 30  13  38  1   
 31  13  39  1   
 32  14  40  1   
 33  14  41  1   
 34  14  42  1   
 35  15  16  1   
 36  15  17  1   
 37  15  43  1   
 38  16  18  1   
 39  16  44  1   
 40  17  45  1   
 41  18  19  1   
 42  18  46  1   
 43  18  47  1   
 44  19  20  1   
 45  19  21  2   
 46  20  22  1   
 47  21  23  1   
 48  21  48  1   
 49  22  23  2   
 50  23  24  1   
 51  24  49  1   
 52  24  50  1   
 53  24  51  1   
@<TRIPOS>SUBSTRUCTURE
  1 ****   7 GROUP 4 **** **** 0

# MOE 2024.06 (io_trps.svl 2023.06)
