@<TRIPOS>MOLECULE
NONAME
47 49 1 0 0 
SMALL
USER_CHARGES


@<TRIPOS>ATOM
  1 S        0.2620     0.0960     1.6170 S.o2  1 <1>   1.4470 
  2 O        0.6230     1.4170     2.0900 O.2   1 <1>  -0.6500 
  3 O       -0.2080    -0.8910     2.5660 O.2   1 <1>  -0.6500 
  4 N       -0.9710     0.3120     0.4730 N.am  1 <1>  -0.8490 
  5 C        1.6120    -0.6130     0.6350 C.ar  1 <1>  -0.0090 
  6 C       -2.2610     0.5840     1.1250 C.3   1 <1>   0.1960 
  7 C       -0.6510     1.3740    -0.4850 C.3   1 <1>   0.1960 
  8 C        1.3980    -1.7250    -0.1680 C.ar  1 <1>  -0.1500 
  9 C        2.8880    -0.0620     0.6590 C.ar  1 <1>  -0.1500 
 10 C       -3.4170     0.5720     0.1050 C.3   1 <1>   0.0000 
 11 C       -1.7070     1.4240    -1.5940 C.3   1 <1>  -0.1600 
 12 C        2.4140    -2.2730    -0.9320 C.ar  1 <1>  -0.1430 
 13 C        3.9180    -0.5960    -0.0980 C.ar  1 <1>  -0.1430 
 14 C       -4.7630     0.8090     0.8160 C.3   1 <1>   0.2000 
 15 C       -3.1210     1.6040    -1.0180 C.3   1 <1>  -0.1600 
 16 C       -3.6440    -0.8310    -0.4890 C.3   1 <1>  -0.1600 
 17 C        3.6750    -1.7030    -0.8910 C.ar  1 <1>  -0.1500 
 18 C        2.1510    -3.4900    -1.7990 C.3   1 <1>  -0.0970 
 19 C        5.3040     0.0230    -0.0530 C.3   1 <1>  -0.0970 
 20 O       -5.0360     2.1470     1.0320 O.3   1 <1>  -0.6800 
 21 C       -5.8370     0.1860    -0.0760 C.3   1 <1>  -0.1600 
 22 C       -5.1140    -0.8690    -0.9240 C.3   1 <1>  -0.1600 
 23 H       -2.4540    -0.1670     1.8730 H     1 <1>   0.0800 
 24 H       -2.2240     1.5390     1.6240 H     1 <1>   0.0800 
 25 H       -0.6080     2.3250     0.0210 H     1 <1>   0.0800 
 26 H        0.3120     1.1870    -0.9310 H     1 <1>   0.0800 
 27 H        0.4140    -2.1640    -0.1900 H     1 <1>   0.1500 
 28 H        3.0730     0.7970     1.2810 H     1 <1>   0.1500 
 29 H       -1.4830     2.2420    -2.2550 H     1 <1>   0.0800 
 30 H       -1.6450     0.5200    -2.1730 H     1 <1>   0.0800 
 31 H       -4.7650     0.3130     1.7730 H     1 <1>   0.0800 
 32 H       -3.8470     1.5320    -1.8090 H     1 <1>   0.0800 
 33 H       -3.1730     2.5990    -0.6130 H     1 <1>   0.0800 
 34 H       -2.9790    -1.0650    -1.3000 H     1 <1>   0.0800 
 35 H       -3.4950    -1.5700     0.2800 H     1 <1>   0.0800 
 36 H        4.4710    -2.1260    -1.4780 H     1 <1>   0.1500 
 37 H        2.7650    -3.4620    -2.6820 H     1 <1>   0.0800 
 38 H        1.1200    -3.5210    -2.1040 H     1 <1>   0.0800 
 39 H        2.3770    -4.3850    -1.2470 H     1 <1>   0.0800 
 40 H        5.7860    -0.0690    -1.0090 H     1 <1>   0.0800 
 41 H        5.9010    -0.4770     0.6870 H     1 <1>   0.0800 
 42 H        5.2440     1.0670     0.1970 H     1 <1>   0.0800 
 43 H       -5.1200     2.6050     0.1760 H     1 <1>   0.4000 
 44 H       -6.6030    -0.2670     0.5290 H     1 <1>   0.0800 
 45 H       -6.2820     0.9230    -0.7220 H     1 <1>   0.0800 
 46 H       -5.5320    -1.8500    -0.7760 H     1 <1>   0.0800 
 47 H       -5.1930    -0.6120    -1.9660 H     1 <1>   0.0800 
@<TRIPOS>BOND
  1   1   2  2   
  2   1   3  2   
  3   1   4  am  
  4   1   5  1   
  5   4   6  1   
  6   4   7  1   
  7   5   8  ar  
  8   5   9  ar  
  9   6  10  1   
 10   6  23  1   
 11   6  24  1   
 12   7  11  1   
 13   7  25  1   
 14   7  26  1   
 15   8  12  ar  
 16   8  27  1   
 17   9  13  ar  
 18   9  28  1   
 19  10  14  1   
 20  10  15  1   
 21  10  16  1   
 22  11  15  1   
 23  11  29  1   
 24  11  30  1   
 25  12  17  ar  
 26  12  18  1   
 27  13  17  ar  
 28  13  19  1   
 29  14  20  1   
 30  14  21  1   
 31  14  31  1   
 32  15  32  1   
 33  15  33  1   
 34  16  22  1   
 35  16  34  1   
 36  16  35  1   
 37  17  36  1   
 38  18  37  1   
 39  18  38  1   
 40  18  39  1   
 41  19  40  1   
 42  19  41  1   
 43  19  42  1   
 44  20  43  1   
 45  21  22  1   
 46  21  44  1   
 47  21  45  1   
 48  22  46  1   
 49  22  47  1   
@<TRIPOS>SUBSTRUCTURE
  1 ****   4 GROUP 4 **** **** 0

# MOE 2024.06 (io_trps.svl 2023.06)
