@<TRIPOS>MOLECULE
NONAME
25 25 1 0 0 
SMALL
USER_CHARGES


@<TRIPOS>ATOM
  1 BR       0.1880    -0.2330    -0.1700 Br    1 <1>  -0.1110 
  2 C       -1.4050     0.8440    -0.1280 C.ar  1 <1>   0.1110 
  3 C       -1.2720     2.2160    -0.1050 C.ar  1 <1>  -0.1500 
  4 C       -2.6330     0.2100    -0.1240 C.ar  1 <1>  -0.1500 
  5 C       -2.4280     2.9880    -0.0770 C.ar  1 <1>   0.0820 
  6 C       -3.7940     0.9770    -0.0920 C.ar  1 <1>  -0.1440 
  7 O       -2.4280     4.3430    -0.0530 O.3   1 <1>  -0.3620 
  8 C       -3.6700     2.3650    -0.0720 C.ar  1 <1>  -0.1500 
  9 C       -5.1770     0.3060    -0.0910 C.3   1 <1>   1.1640 
 10 C       -1.2310     5.0800    -0.0420 C.3   1 <1>   0.1200 
 11 F       -5.6210     0.0850    -1.3210 F     1 <1>  -0.3400 
 12 F       -6.1040     1.0380     0.5160 F     1 <1>  -0.3400 
 13 F       -5.1750    -0.8710     0.5230 F     1 <1>  -0.3400 
 14 C       -1.6190     6.5610    -0.0050 C.3   1 <1>   0.3430 
 15 N       -0.4240     7.4560     0.0130 N.4   1 <1>  -0.8530 
 16 H       -0.2850     2.6360    -0.1110 H     1 <1>   0.1500 
 17 H       -2.6700    -0.8670    -0.1450 H     1 <1>   0.1500 
 18 H       -4.5500     2.9860    -0.0530 H     1 <1>   0.1500 
 19 H       -0.6860     4.8410    -0.9390 H     1 <1>   0.0800 
 20 H       -0.6760     4.7990     0.8360 H     1 <1>   0.0800 
 21 H       -2.2160     6.7380     0.8760 H     1 <1>   0.0800 
 22 H       -2.2220     6.7800    -0.8720 H     1 <1>   0.0800 
 23 H        0.1610     7.2910     0.8410 H     1 <1>   0.4500 
 24 H       -0.7180     8.4410     0.0370 H     1 <1>   0.4500 
 25 H        0.1560     7.3310    -0.8260 H     1 <1>   0.4500 
@<TRIPOS>BOND
  1   1   2  1   
  2   2   3  ar  
  3   2   4  ar  
  4   3   5  ar  
  5   3  16  1   
  6   4   6  ar  
  7   4  17  1   
  8   5   7  1   
  9   5   8  ar  
 10   6   8  ar  
 11   6   9  1   
 12   7  10  1   
 13   8  18  1   
 14   9  11  1   
 15   9  12  1   
 16   9  13  1   
 17  10  14  1   
 18  10  19  1   
 19  10  20  1   
 20  14  15  1   
 21  14  21  1   
 22  14  22  1   
 23  15  23  1   
 24  15  24  1   
 25  15  25  1   
@<TRIPOS>SUBSTRUCTURE
  1 ****   8 GROUP 4 **** **** 0

# MOE 2024.06 (io_trps.svl 2023.06)
