@<TRIPOS>MOLECULE
NONAME
22 22 1 0 0 
SMALL
USER_CHARGES


@<TRIPOS>ATOM
  1 O       -0.1050     0.5210     0.3890 O.2   1 <1>  -0.5700 
  2 C       -0.8960     1.3920     0.1350 C.2   1 <1>   0.5690 
  3 N       -0.5830     2.6710    -0.0990 N.am  1 <1>  -0.7300 
  4 C       -2.3800     1.1880     0.0270 C.3   1 <1>  -0.0990 
  5 C       -1.7280     3.5260    -0.4180 C.3   1 <1>   0.2200 
  6 C       -2.9280     2.6270    -0.0560 C.3   1 <1>  -0.1600 
  7 C       -1.6730     4.8610     0.3580 C.3   1 <1>  -0.0800 
  8 C       -2.8900     5.7430     0.0340 C.3   1 <1>  -0.2400 
  9 C       -0.3910     5.6520     0.0470 C.3   1 <1>  -0.2400 
 10 H        0.3780     3.0110    -0.1030 H     1 <1>   0.3700 
 11 H       -2.5920     0.6360    -0.8700 H     1 <1>   0.0800 
 12 H       -2.7560     0.6620     0.8850 H     1 <1>   0.0800 
 13 H       -1.7220     3.7180    -1.4780 H     1 <1>   0.0800 
 14 H       -3.3150     2.9070     0.9070 H     1 <1>   0.0800 
 15 H       -3.7160     2.7170    -0.7820 H     1 <1>   0.0800 
 16 H       -1.6890     4.6430     1.4130 H     1 <1>   0.0800 
 17 H       -2.9220     5.9740    -1.0160 H     1 <1>   0.0800 
 18 H       -2.8380     6.6660     0.5840 H     1 <1>   0.0800 
 19 H       -3.8060     5.2510     0.3060 H     1 <1>   0.0800 
 20 H       -0.3150     5.8520    -1.0080 H     1 <1>   0.0800 
 21 H        0.4810     5.1050     0.3580 H     1 <1>   0.0800 
 22 H       -0.3940     6.5900     0.5740 H     1 <1>   0.0800 
@<TRIPOS>BOND
  1   1   2  2   
  2   2   3  am  
  3   2   4  1   
  4   3   5  1   
  5   3  10  1   
  6   4   6  1   
  7   4  11  1   
  8   4  12  1   
  9   5   6  1   
 10   5   7  1   
 11   5  13  1   
 12   6  14  1   
 13   6  15  1   
 14   7   8  1   
 15   7   9  1   
 16   7  16  1   
 17   8  17  1   
 18   8  18  1   
 19   8  19  1   
 20   9  20  1   
 21   9  21  1   
 22   9  22  1   
@<TRIPOS>SUBSTRUCTURE
  1 ****   5 GROUP 4 **** **** 0

# MOE 2024.06 (io_trps.svl 2023.06)
