@<TRIPOS>MOLECULE
NONAME
39 41 1 0 0 
SMALL
USER_CHARGES


@<TRIPOS>ATOM
  1 O        0.8940    -0.4490    -1.5570 O.2   1 <1>  -0.5760 
  2 C        2.0090    -0.2180    -1.1510 C.2   1 <1>   0.6850 
  3 N        2.4800     1.0760    -0.9760 N.am  1 <1>  -0.4430 
  4 N        2.8230    -1.2730    -0.8550 N.am  1 <1>  -0.4970 
  5 C        3.7720     1.2290    -0.4920 C.2   1 <1>   0.4190 
  6 C        1.6240     2.2570    -1.2870 C.3   1 <1>   0.0500 
  7 C        4.0970    -1.1400    -0.3810 C.2   1 <1>   0.6980 
  8 N        4.4340     2.3910    -0.2340 N.pl3 1 <1>  -0.7050 
  9 C        4.5880     0.1930    -0.1910 C.2   1 <1>   0.2680 
 10 O        4.7460    -2.1390    -0.1430 O.2   1 <1>  -0.5760 
 11 C        5.6440     2.0790     0.2220 C.cat 1 <1>   1.0680 
 12 N        5.7930     0.7560     0.2670 N.pl3 1 <1>  -0.7690 
 13 N        6.5690     2.9430     0.5880 N.pl3 1 <1>  -0.7190 
 14 C        6.9700    -0.0660     0.6750 C.3   1 <1>   0.2650 
 15 C        6.7160     4.3710     0.3080 C.3   1 <1>   0.4200 
 16 C        8.2110     4.6090     0.1100 C.2   1 <1>  -0.0050 
 17 C        6.1670     5.1450     1.5030 C.3   1 <1>  -0.2490 
 18 N        9.1050     3.7010     0.3390 N.2   1 <1>  -0.3460 
 19 N        8.7730     5.7470    -0.3220 N.pl3 1 <1>   0.0370 
 20 N       10.2890     4.2350     0.0590 N.2   1 <1>  -0.3460 
 21 C       10.0720     5.4440    -0.3280 C.2   1 <1>   0.0260 
 22 C        8.1690     7.0380    -0.7070 C.3   1 <1>   0.0050 
 23 H        2.4480    -2.2080    -0.9950 H     1 <1>   0.3620 
 24 H        0.7200     1.9540    -1.7890 H     1 <1>   0.0700 
 25 H        2.1530     2.9360    -1.9310 H     1 <1>   0.0700 
 26 H        1.3530     2.7610    -0.3750 H     1 <1>   0.0700 
 27 H        4.0620     3.3310    -0.3260 H     1 <1>   0.4430 
 28 H        7.4900     2.5810     0.8580 H     1 <1>   0.4430 
 29 H        6.7140    -0.6740     1.5270 H     1 <1>   0.0700 
 30 H        7.8090     0.5580     0.9330 H     1 <1>   0.0700 
 31 H        7.2610    -0.7160    -0.1340 H     1 <1>   0.0700 
 32 H        6.1830     4.6320    -0.5910 H     1 <1>   0.0700 
 33 H        6.7300     4.9100     2.3900 H     1 <1>   0.0700 
 34 H        5.1310     4.9140     1.6680 H     1 <1>   0.0700 
 35 H        6.2490     6.2020     1.3290 H     1 <1>   0.0700 
 36 H       10.8380     6.1380    -0.6240 H     1 <1>   0.1400 
 37 H        7.2710     6.8680    -1.2720 H     1 <1>   0.0700 
 38 H        8.8640     7.5940    -1.3100 H     1 <1>   0.0700 
 39 H        7.9400     7.6030     0.1780 H     1 <1>   0.0700 
@<TRIPOS>BOND
  1   1   2  2   
  2   2   3  am  
  3   2   4  am  
  4   3   5  1   
  5   3   6  1   
  6   4   7  am  
  7   4  23  1   
  8   5   8  1   
  9   5   9  2   
 10   6  24  1   
 11   6  25  1   
 12   6  26  1   
 13   7   9  1   
 14   7  10  2   
 15   8  11  ar  
 16   8  27  1   
 17   9  12  1   
 18  11  12  ar  
 19  11  13  ar  
 20  12  14  1   
 21  13  15  1   
 22  13  28  1   
 23  14  29  1   
 24  14  30  1   
 25  14  31  1   
 26  15  16  1   
 27  15  17  1   
 28  15  32  1   
 29  16  18  2   
 30  16  19  1   
 31  17  33  1   
 32  17  34  1   
 33  17  35  1   
 34  18  20  1   
 35  19  21  1   
 36  19  22  1   
 37  20  21  2   
 38  21  36  1   
 39  22  37  1   
 40  22  38  1   
 41  22  39  1   
@<TRIPOS>SUBSTRUCTURE
  1 ****  11 GROUP 4 **** **** 0

# MOE 2024.06 (io_trps.svl 2023.06)
