@<TRIPOS>MOLECULE
NONAME
48 49 1 0 0 
SMALL
USER_CHARGES


@<TRIPOS>ATOM
  1 O       -1.2580     4.1440     1.3360 O.2   1 <1>  -0.5700 
  2 C       -1.3760     3.6930     0.2070 C.2   1 <1>   0.5440 
  3 N       -2.6350     3.6940    -0.3700 N.am  1 <1>  -0.6600 
  4 C       -0.1940     3.1960    -0.4900 C.ar  1 <1>   0.3960 
  5 C       -3.8630     3.9470     0.4390 C.3   1 <1>   0.0600 
  6 C       -2.8790     3.6390    -1.8410 C.3   1 <1>   0.0600 
  7 N        0.9230     3.9380    -0.4890 N.ar  1 <1>  -0.6200 
  8 C       -0.2480     1.9600    -1.1340 C.ar  1 <1>   0.1600 
  9 C        1.9460     3.3940    -1.1260 C.ar  1 <1>   0.4100 
 10 N        0.7470     1.4060    -1.8090 N.ar  1 <1>  -0.6200 
 11 N        3.1210     4.1500    -1.0860 N.pl3 1 <1>  -0.8380 
 12 C        1.8320     2.1530    -1.7820 C.ar  1 <1>   0.1600 
 13 C        3.3810     5.0460     0.0850 C.3   1 <1>   0.2090 
 14 C        4.2350     3.9700    -2.0580 C.3   1 <1>   0.2090 
 15 C        2.6920     6.4120    -0.1180 C.3   1 <1>   0.3430 
 16 C        3.8410     4.6160    -3.3810 C.3   1 <1>  -0.2400 
 17 N        2.0820     6.9780     1.1350 N.4   1 <1>  -0.9590 
 18 C        0.8120     6.2370     1.4840 C.3   1 <1>   0.3430 
 19 C        1.7760     8.4390     0.9730 C.3   1 <1>   0.3430 
 20 C        0.0580     6.8900     2.6580 C.3   1 <1>   0.1200 
 21 C        1.0240     8.9960     2.1960 C.3   1 <1>   0.1200 
 22 O       -0.1390     8.2580     2.4250 O.3   1 <1>  -0.5600 
 23 H       -3.6690     3.7870     1.4860 H     1 <1>   0.0800 
 24 H       -4.6490     3.2780     0.1340 H     1 <1>   0.0800 
 25 H       -4.1870     4.9630     0.3000 H     1 <1>   0.0800 
 26 H       -1.9640     3.7680    -2.3920 H     1 <1>   0.0800 
 27 H       -3.5560     4.4270    -2.1260 H     1 <1>   0.0800 
 28 H       -3.3190     2.6920    -2.1020 H     1 <1>   0.0800 
 29 H       -1.1680     1.4030    -1.0840 H     1 <1>   0.1500 
 30 H        2.6890     1.7670    -2.2960 H     1 <1>   0.1500 
 31 H        4.4390     5.1870     0.2200 H     1 <1>   0.0800 
 32 H        2.9990     4.5670     0.9690 H     1 <1>   0.0800 
 33 H        4.4490     2.9250    -2.2000 H     1 <1>   0.0800 
 34 H        5.1350     4.4330    -1.6900 H     1 <1>   0.0800 
 35 H        1.9170     6.2850    -0.8570 H     1 <1>   0.0800 
 36 H        3.4190     7.1000    -0.5150 H     1 <1>   0.0800 
 37 H        2.9640     4.1430    -3.7860 H     1 <1>   0.0800 
 38 H        4.6410     4.5040    -4.0910 H     1 <1>   0.0800 
 39 H        3.6490     5.6640    -3.2460 H     1 <1>   0.0800 
 40 H        2.7310     6.8700     1.9220 H     1 <1>   0.4500 
 41 H        1.0300     5.2110     1.7320 H     1 <1>   0.0800 
 42 H        0.1520     6.2200     0.6320 H     1 <1>   0.0800 
 43 H        1.1580     8.5870     0.1020 H     1 <1>   0.0800 
 44 H        2.6880     8.9940     0.8320 H     1 <1>   0.0800 
 45 H        0.5990     6.7690     3.5800 H     1 <1>   0.0800 
 46 H       -0.9100     6.4320     2.7680 H     1 <1>   0.0800 
 47 H        0.7320    10.0160     2.0190 H     1 <1>   0.0800 
 48 H        1.6360     8.9630     3.0810 H     1 <1>   0.0800 
@<TRIPOS>BOND
  1   1   2  2   
  2   2   3  am  
  3   2   4  1   
  4   3   5  1   
  5   3   6  1   
  6   4   7  ar  
  7   4   8  ar  
  8   5  23  1   
  9   5  24  1   
 10   5  25  1   
 11   6  26  1   
 12   6  27  1   
 13   6  28  1   
 14   7   9  ar  
 15   8  10  ar  
 16   8  29  1   
 17   9  11  1   
 18   9  12  ar  
 19  10  12  ar  
 20  11  13  1   
 21  11  14  1   
 22  12  30  1   
 23  13  15  1   
 24  13  31  1   
 25  13  32  1   
 26  14  16  1   
 27  14  33  1   
 28  14  34  1   
 29  15  17  1   
 30  15  35  1   
 31  15  36  1   
 32  16  37  1   
 33  16  38  1   
 34  16  39  1   
 35  17  18  1   
 36  17  19  1   
 37  17  40  1   
 38  18  20  1   
 39  18  41  1   
 40  18  42  1   
 41  19  21  1   
 42  19  43  1   
 43  19  44  1   
 44  20  22  1   
 45  20  45  1   
 46  20  46  1   
 47  21  22  1   
 48  21  47  1   
 49  21  48  1   
@<TRIPOS>SUBSTRUCTURE
  1 ****   7 GROUP 4 **** **** 0

# MOE 2024.06 (io_trps.svl 2023.06)
