@<TRIPOS>MOLECULE
NONAME
51 54 1 0 0 
SMALL
USER_CHARGES


@<TRIPOS>ATOM
  1 F        1.3560    -2.4100    -3.0120 F     1 <1>  -0.3400 
  2 C        1.7950    -1.4280    -2.2300 C.3   1 <1>   1.1640 
  3 F        0.7750    -1.0920    -1.4450 F     1 <1>  -0.3400 
  4 F        1.9830    -0.3850    -3.0380 F     1 <1>  -0.3400 
  5 C        3.0730    -1.8130    -1.4380 C.ar  1 <1>   0.1660 
  6 N        3.0240    -2.8020    -0.5540 N.ar  1 <1>  -0.6200 
  7 C        4.2540    -1.1420    -1.6460 C.ar  1 <1>  -0.1500 
  8 C        4.1480    -3.0890     0.0950 C.ar  1 <1>   0.7200 
  9 C        5.3650    -1.5180    -0.9220 C.ar  1 <1>   0.4100 
 10 N        5.3200    -2.4930    -0.0520 N.ar  1 <1>  -0.6200 
 11 N        4.0820    -4.1060     1.0170 N.pl3 1 <1>  -0.8380 
 12 N        6.5650    -0.8680    -1.1080 N.pl3 1 <1>  -0.8380 
 13 C        5.2730    -4.6570     1.6970 C.3   1 <1>   0.2090 
 14 C        2.9200    -5.0120     1.1560 C.3   1 <1>   0.2090 
 15 C        7.4420    -0.6050     0.0730 C.3   1 <1>   0.2090 
 16 C        7.2720    -1.0760    -2.3900 C.3   1 <1>   0.2090 
 17 C        4.7380    -5.8130     2.5330 C.3   1 <1>  -0.1600 
 18 C        3.4860    -6.2760     1.7930 C.3   1 <1>  -0.1600 
 19 C        7.7630     0.8910     0.1840 C.3   1 <1>   0.1400 
 20 C        7.9540     0.2110    -2.8530 C.3   1 <1>  -0.1600 
 21 N        8.7580     1.4350    -0.8040 N.am  1 <1>  -0.6600 
 22 C        9.1530     0.6080    -1.9850 C.3   1 <1>   0.1400 
 23 C        9.4640     2.5840    -0.4940 C.2   1 <1>   0.7150 
 24 O       10.5560     2.7550    -1.0090 O.2   1 <1>  -0.5700 
 25 C        8.9280     3.5720     0.4220 C.2   1 <1>   0.0550 
 26 O        9.7060     4.1660     1.3240 O.3   1 <1>  -0.2800 
 27 C        7.6640     4.0640     0.5620 C.2   1 <1>  -0.1500 
 28 C        8.9820     5.0080     2.0250 C.2   1 <1>  -0.0100 
 29 C        7.7000     4.9930     1.6030 C.2   1 <1>  -0.1500 
 30 H        4.3480    -0.3320    -2.3430 H     1 <1>   0.1500 
 31 H        5.7450    -3.9070     2.3080 H     1 <1>   0.0800 
 32 H        5.9690    -5.0130     0.9560 H     1 <1>   0.0800 
 33 H        2.4690    -5.2240     0.2000 H     1 <1>   0.0800 
 34 H        2.1940    -4.5500     1.8030 H     1 <1>   0.0800 
 35 H        8.3440    -1.1890     0.0200 H     1 <1>   0.0800 
 36 H        6.9250    -0.8920     0.9720 H     1 <1>   0.0800 
 37 H        6.5670    -1.3910    -3.1410 H     1 <1>   0.0800 
 38 H        7.9980    -1.8640    -2.2740 H     1 <1>   0.0800 
 39 H        4.4700    -5.4400     3.5060 H     1 <1>   0.0800 
 40 H        5.4660    -6.5960     2.6420 H     1 <1>   0.0800 
 41 H        3.7570    -6.9640     1.0110 H     1 <1>   0.0800 
 42 H        2.7720    -6.7470     2.4440 H     1 <1>   0.0800 
 43 H        8.1420     1.0670     1.1760 H     1 <1>   0.0800 
 44 H        6.8390     1.4320     0.0880 H     1 <1>   0.0800 
 45 H        7.2460     1.0170    -2.9150 H     1 <1>   0.0800 
 46 H        8.3220     0.0300    -3.8460 H     1 <1>   0.0800 
 47 H        9.8260     1.1760    -2.6050 H     1 <1>   0.0800 
 48 H        9.6900    -0.2640    -1.6540 H     1 <1>   0.0800 
 49 H        6.7920     3.8090    -0.0130 H     1 <1>   0.1500 
 50 H        9.4560     5.5810     2.8030 H     1 <1>   0.1500 
 51 H        6.8660     5.5650     1.9690 H     1 <1>   0.1500 
@<TRIPOS>BOND
  1   1   2  1   
  2   2   3  1   
  3   2   4  1   
  4   2   5  1   
  5   5   6  ar  
  6   5   7  ar  
  7   6   8  ar  
  8   7   9  ar  
  9   7  30  1   
 10   8  10  ar  
 11   8  11  1   
 12   9  10  ar  
 13   9  12  1   
 14  11  13  1   
 15  11  14  1   
 16  12  15  1   
 17  12  16  1   
 18  13  17  1   
 19  13  31  1   
 20  13  32  1   
 21  14  18  1   
 22  14  33  1   
 23  14  34  1   
 24  15  19  1   
 25  15  35  1   
 26  15  36  1   
 27  16  20  1   
 28  16  37  1   
 29  16  38  1   
 30  17  18  1   
 31  17  39  1   
 32  17  40  1   
 33  18  41  1   
 34  18  42  1   
 35  19  21  1   
 36  19  43  1   
 37  19  44  1   
 38  20  22  1   
 39  20  45  1   
 40  20  46  1   
 41  21  22  1   
 42  21  23  am  
 43  22  47  1   
 44  22  48  1   
 45  23  24  2   
 46  23  25  1   
 47  25  26  1   
 48  25  27  2   
 49  26  28  1   
 50  27  29  1   
 51  27  49  1   
 52  28  29  2   
 53  28  50  1   
 54  29  51  1   
@<TRIPOS>SUBSTRUCTURE
  1 ****  12 GROUP 4 **** **** 0

# MOE 2024.06 (io_trps.svl 2023.06)
