@<TRIPOS>MOLECULE
NONAME
42 43 1 0 0 
SMALL
USER_CHARGES


@<TRIPOS>ATOM
  1 CL       1.7290     2.1340    -0.4070 Cl    1 <1>  -0.1770 
  2 C        0.2480     2.5500    -1.2390 C.ar  1 <1>   0.1770 
  3 C       -0.7220     3.3250    -0.6160 C.ar  1 <1>  -0.1440 
  4 C        0.0780     2.0810    -2.5290 C.ar  1 <1>  -0.1500 
  5 C       -1.8780     3.6290    -1.3210 C.ar  1 <1>  -0.1500 
  6 C       -0.5480     3.8410     0.8030 C.3   1 <1>   0.2140 
  7 C       -1.0810     2.3890    -3.2200 C.ar  1 <1>  -0.1500 
  8 C       -2.0570     3.1630    -2.6140 C.ar  1 <1>  -0.1500 
  9 S       -0.0760     5.5900     0.7110 S.3   1 <1>  -0.4600 
 10 C        0.3620     6.0010     2.4420 C.3   1 <1>   0.1310 
 11 C        0.8050     7.4510     2.6010 C.2   1 <1>   0.5690 
 12 O        0.9760     7.8790     3.7170 O.2   1 <1>  -0.5700 
 13 N        0.9980     8.2190     1.4970 N.am  1 <1>  -0.7300 
 14 C        1.4340     9.6280     1.4850 C.3   1 <1>   0.1400 
 15 C        2.7350     9.7410     0.6930 C.3   1 <1>  -0.1600 
 16 C        3.2550    11.1820     0.6830 C.3   1 <1>   0.0210 
 17 C        4.5300    11.2810    -0.1310 C.2   1 <1>  -0.1810 
 18 C        5.7830    10.7910     0.2210 C.2   1 <1>   0.1390 
 19 C        4.7180    11.8520    -1.3380 C.2   1 <1>  -0.3020 
 20 N        6.6780    11.0330    -0.6870 N.2   1 <1>  -0.7070 
 21 N        6.0180    11.6910    -1.6530 N.pl3 1 <1>   0.3140 
 22 C        6.6970    12.1440    -2.8710 C.3   1 <1>   0.0160 
 23 H        0.8460     1.4830    -2.9840 H     1 <1>   0.1500 
 24 H       -2.6420     4.2360    -0.8680 H     1 <1>   0.1500 
 25 H        0.2240     3.3220     1.3420 H     1 <1>   0.0800 
 26 H       -1.4710     3.7860     1.3530 H     1 <1>   0.0800 
 27 H       -1.2230     2.0290    -4.2240 H     1 <1>   0.1500 
 28 H       -2.9570     3.4060    -3.1510 H     1 <1>   0.1500 
 29 H        1.1600     5.3440     2.7360 H     1 <1>   0.0800 
 30 H       -0.5060     5.8170     3.0470 H     1 <1>   0.0800 
 31 H        0.8150     7.7850     0.5850 H     1 <1>   0.3700 
 32 H        1.5860     9.9700     2.4960 H     1 <1>   0.0800 
 33 H        0.6650    10.2320     1.0330 H     1 <1>   0.0800 
 34 H        2.5700     9.4200    -0.3210 H     1 <1>   0.0800 
 35 H        3.4770     9.1020     1.1390 H     1 <1>   0.0800 
 36 H        3.4510    11.5120     1.6880 H     1 <1>   0.0800 
 37 H        2.5130    11.8340     0.2540 H     1 <1>   0.0800 
 38 H        5.9980    10.2680     1.1370 H     1 <1>   0.1500 
 39 H        4.0150    12.3530    -1.9780 H     1 <1>   0.1500 
 40 H        5.9990    12.6580    -3.5040 H     1 <1>   0.0800 
 41 H        7.0960    11.2890    -3.3830 H     1 <1>   0.0800 
 42 H        7.4980    12.8040    -2.5950 H     1 <1>   0.0800 
@<TRIPOS>BOND
  1   1   2  1   
  2   2   3  ar  
  3   2   4  ar  
  4   3   5  ar  
  5   3   6  1   
  6   4   7  ar  
  7   4  23  1   
  8   5   8  ar  
  9   5  24  1   
 10   6   9  1   
 11   6  25  1   
 12   6  26  1   
 13   7   8  ar  
 14   7  27  1   
 15   8  28  1   
 16   9  10  1   
 17  10  11  1   
 18  10  29  1   
 19  10  30  1   
 20  11  12  2   
 21  11  13  am  
 22  13  14  1   
 23  13  31  1   
 24  14  15  1   
 25  14  32  1   
 26  14  33  1   
 27  15  16  1   
 28  15  34  1   
 29  15  35  1   
 30  16  17  1   
 31  16  36  1   
 32  16  37  1   
 33  17  18  1   
 34  17  19  2   
 35  18  20  2   
 36  18  38  1   
 37  19  21  1   
 38  19  39  1   
 39  20  21  1   
 40  21  22  1   
 41  22  40  1   
 42  22  41  1   
 43  22  42  1   
@<TRIPOS>SUBSTRUCTURE
  1 ****  13 GROUP 4 **** **** 0

# MOE 2024.06 (io_trps.svl 2023.06)
