@<TRIPOS>MOLECULE
NONAME
46 49 1 0 0 
SMALL
USER_CHARGES


@<TRIPOS>ATOM
  1 F        0.5970     0.1130     1.1790 F     1 <1>  -0.1900 
  2 C        1.6450     0.8300     0.8270 C.ar  1 <1>   0.1900 
  3 C        2.7000     0.2910     0.0880 C.ar  1 <1>   0.4100 
  4 C        1.6870     2.1460     1.1930 C.ar  1 <1>   0.1600 
  5 N        3.7090     1.0730    -0.2550 N.ar  1 <1>  -0.6200 
  6 N        2.7690    -1.0360    -0.3380 N.pl3 1 <1>  -0.8380 
  7 N        2.7000     2.9240     0.8630 N.ar  1 <1>  -0.6200 
  8 C        3.6510     2.3280     0.1520 C.ar  1 <1>   0.7200 
  9 C        2.1840    -2.1630     0.4280 C.3   1 <1>   0.2090 
 10 C        3.8630    -1.5210    -1.2150 C.3   1 <1>   0.2090 
 11 N        4.7180     3.0700    -0.2270 N.pl3 1 <1>  -0.8690 
 12 C        3.0800    -3.3580     0.1260 C.3   1 <1>  -0.1600 
 13 C        3.7130    -3.0350    -1.2230 C.3   1 <1>  -0.1600 
 14 C        4.6140     4.5200    -0.5360 C.3   1 <1>   0.2090 
 15 C        4.7690     5.3550     0.7410 C.3   1 <1>   0.1400 
 16 N        5.2530     6.7270     0.4230 N.am  1 <1>  -0.3600 
 17 N        6.5580     7.0940     0.9500 N.am  1 <1>  -0.4300 
 18 C        4.4130     7.7050    -0.0550 C.2   1 <1>   0.5440 
 19 C        6.9700     8.3850     1.0110 C.2   1 <1>   0.5440 
 20 O        3.3390     7.3880    -0.5460 O.2   1 <1>  -0.5700 
 21 C        4.8130     9.0990     0.0440 C.ar  1 <1>   0.0860 
 22 O        8.1090     8.6040     1.3850 O.2   1 <1>  -0.5700 
 23 C        6.0670     9.4350     0.5870 C.ar  1 <1>   0.0860 
 24 C        3.9710    10.1290    -0.3800 C.ar  1 <1>  -0.1500 
 25 C        6.4210    10.7820     0.6880 C.ar  1 <1>  -0.1500 
 26 C        4.3400    11.4550    -0.2730 C.ar  1 <1>  -0.1500 
 27 C        5.5700    11.7840     0.2650 C.ar  1 <1>  -0.1500 
 28 H        0.8800     2.5700     1.7620 H     1 <1>   0.1500 
 29 H        1.1840    -2.3460     0.0720 H     1 <1>   0.0800 
 30 H        2.1630    -1.9510     1.4830 H     1 <1>   0.0800 
 31 H        4.8130    -1.2430    -0.7900 H     1 <1>   0.0800 
 32 H        3.7720    -1.1030    -2.2030 H     1 <1>   0.0800 
 33 H        5.2850     2.5340    -0.8820 H     1 <1>   0.4000 
 34 H        2.5260    -4.2790     0.1110 H     1 <1>   0.0800 
 35 H        3.8440    -3.4190     0.8820 H     1 <1>   0.0800 
 36 H        4.6570    -3.5290    -1.3660 H     1 <1>   0.0800 
 37 H        3.0440    -3.3130    -2.0180 H     1 <1>   0.0800 
 38 H        3.6620     4.7330    -0.9940 H     1 <1>   0.0800 
 39 H        5.3950     4.7780    -1.2290 H     1 <1>   0.0800 
 40 H        5.4700     4.8750     1.4000 H     1 <1>   0.0800 
 41 H        3.8180     5.4180     1.2420 H     1 <1>   0.0800 
 42 H        7.2990     6.3860     0.9720 H     1 <1>   0.3700 
 43 H        3.0090     9.8810    -0.7980 H     1 <1>   0.1500 
 44 H        7.3800    11.0420     1.1040 H     1 <1>   0.1500 
 45 H        3.6720    12.2330    -0.6060 H     1 <1>   0.1500 
 46 H        5.8630    12.8180     0.3520 H     1 <1>   0.1500 
@<TRIPOS>BOND
  1   1   2  1   
  2   2   3  ar  
  3   2   4  ar  
  4   3   5  ar  
  5   3   6  1   
  6   4   7  ar  
  7   4  28  1   
  8   5   8  ar  
  9   6   9  1   
 10   6  10  1   
 11   7   8  ar  
 12   8  11  1   
 13   9  12  1   
 14   9  29  1   
 15   9  30  1   
 16  10  13  1   
 17  10  31  1   
 18  10  32  1   
 19  11  14  1   
 20  11  33  1   
 21  12  13  1   
 22  12  34  1   
 23  12  35  1   
 24  13  36  1   
 25  13  37  1   
 26  14  15  1   
 27  14  38  1   
 28  14  39  1   
 29  15  16  1   
 30  15  40  1   
 31  15  41  1   
 32  16  17  1   
 33  16  18  am  
 34  17  19  am  
 35  17  42  1   
 36  18  20  2   
 37  18  21  1   
 38  19  22  2   
 39  19  23  1   
 40  21  23  ar  
 41  21  24  ar  
 42  23  25  ar  
 43  24  26  ar  
 44  24  43  1   
 45  25  27  ar  
 46  25  44  1   
 47  26  27  ar  
 48  26  45  1   
 49  27  46  1   
@<TRIPOS>SUBSTRUCTURE
  1 ****  14 GROUP 4 **** **** 0

# MOE 2024.06 (io_trps.svl 2023.06)
