@<TRIPOS>MOLECULE
NONAME
59 61 1 0 0 
SMALL
USER_CHARGES


@<TRIPOS>ATOM
  1 O        0.2710     0.6910    -0.0100 O.2   1 <1>  -0.5700 
  2 C        0.1590     1.8890    -0.1210 C.2   1 <1>   0.5690 
  3 N       -0.9970     2.5510     0.1940 N.am  1 <1>  -0.6600 
  4 C        1.3570     2.6700    -0.6640 C.3   1 <1>   0.1810 
  5 C       -1.1130     4.0410     0.0510 C.3   1 <1>   0.3640 
  6 C       -2.1680     1.8560     0.8050 C.3   1 <1>   0.0600 
  7 O        1.3200     4.0400    -0.3450 O.3   1 <1>  -0.5600 
  8 C       -2.4110     4.3730    -0.7040 C.ar  1 <1>  -0.1430 
  9 C        0.1010     4.6770    -0.6820 C.3   1 <1>   0.2610 
 10 C       -3.4220     5.1690    -0.1630 C.ar  1 <1>  -0.1430 
 11 C       -2.5830     3.8470    -1.9810 C.ar  1 <1>  -0.1500 
 12 C        0.2130     6.1870    -0.4130 C.2   1 <1>   0.5690 
 13 C       -4.5550     5.4420    -0.9170 C.ar  1 <1>  -0.1500 
 14 C       -3.3510     5.7570     1.2400 C.3   1 <1>  -0.0960 
 15 C       -3.7170     4.1220    -2.7220 C.ar  1 <1>  -0.1500 
 16 O       -0.1800     6.6220     0.6490 O.2   1 <1>  -0.5700 
 17 N        0.7810     7.0330    -1.3450 N.am  1 <1>  -0.6600 
 18 C       -4.7040     4.9250    -2.1900 C.ar  1 <1>  -0.1500 
 19 C        0.8410     8.5020    -1.0980 C.3   1 <1>   0.1400 
 20 C        1.3340     6.5810    -2.6540 C.3   1 <1>   0.0600 
 21 C        1.8870     8.8470    -0.0170 C.3   1 <1>  -0.0800 
 22 C        1.9830    10.3660     0.1910 C.3   1 <1>  -0.1600 
 23 C        3.2850     8.2780    -0.3160 C.3   1 <1>  -0.1600 
 24 C        3.0020    10.7110     1.2780 C.3   1 <1>   0.3430 
 25 C        4.2800     8.6550     0.7800 C.3   1 <1>   0.3430 
 26 N        4.3350    10.1400     0.9250 N.4   1 <1>  -0.9590 
 27 C        5.3640    10.5320     1.9340 C.3   1 <1>   0.2630 
 28 H        1.3940     2.5690    -1.7330 H     1 <1>   0.0800 
 29 H        2.2600     2.2630    -0.2460 H     1 <1>   0.0800 
 30 H       -1.1460     4.4440     1.0450 H     1 <1>   0.0800 
 31 H       -2.4640     2.3610     1.7070 H     1 <1>   0.0800 
 32 H       -1.9230     0.8360     1.0470 H     1 <1>   0.0800 
 33 H       -2.9940     1.8540     0.1150 H     1 <1>   0.0800 
 34 H       -0.0410     4.5410    -1.7360 H     1 <1>   0.0800 
 35 H       -1.8330     3.2060    -2.4090 H     1 <1>   0.1500 
 36 H       -5.3360     6.0620    -0.5140 H     1 <1>   0.1500 
 37 H       -4.3030     6.1600     1.5360 H     1 <1>   0.0800 
 38 H       -2.6310     6.5530     1.2750 H     1 <1>   0.0800 
 39 H       -3.0820     5.0030     1.9560 H     1 <1>   0.0800 
 40 H       -3.8330     3.7080    -3.7090 H     1 <1>   0.1500 
 41 H       -5.5890     5.1460    -2.7610 H     1 <1>   0.1500 
 42 H        1.0700     9.0160    -2.0150 H     1 <1>   0.0800 
 43 H       -0.1310     8.8350    -0.7720 H     1 <1>   0.0800 
 44 H        2.1140     7.2460    -2.9800 H     1 <1>   0.0800 
 45 H        0.5520     6.5730    -3.3940 H     1 <1>   0.0800 
 46 H        1.7550     5.5940    -2.5690 H     1 <1>   0.0800 
 47 H        1.5450     8.4200     0.9110 H     1 <1>   0.0800 
 48 H        1.0210    10.7450     0.4890 H     1 <1>   0.0800 
 49 H        2.2550    10.8560    -0.7280 H     1 <1>   0.0800 
 50 H        3.6400     8.6270    -1.2690 H     1 <1>   0.0800 
 51 H        3.2350     7.2030    -0.3600 H     1 <1>   0.0800 
 52 H        2.6690    10.3050     2.2200 H     1 <1>   0.0800 
 53 H        3.0730    11.7830     1.3770 H     1 <1>   0.0800 
 54 H        5.2550     8.2690     0.5280 H     1 <1>   0.0800 
 55 H        3.9690     8.2080     1.7110 H     1 <1>   0.0800 
 56 H        4.6040    10.5280     0.0100 H     1 <1>   0.4500 
 57 H        5.1070    10.1370     2.9040 H     1 <1>   0.0800 
 58 H        5.4290    11.6050     2.0050 H     1 <1>   0.0800 
 59 H        6.3310    10.1480     1.6510 H     1 <1>   0.0800 
@<TRIPOS>BOND
  1   1   2  2   
  2   2   3  am  
  3   2   4  1   
  4   3   5  1   
  5   3   6  1   
  6   4   7  1   
  7   4  28  1   
  8   4  29  1   
  9   5   8  1   
 10   5   9  1   
 11   5  30  1   
 12   6  31  1   
 13   6  32  1   
 14   6  33  1   
 15   7   9  1   
 16   8  10  ar  
 17   8  11  ar  
 18   9  12  1   
 19   9  34  1   
 20  10  13  ar  
 21  10  14  1   
 22  11  15  ar  
 23  11  35  1   
 24  12  16  2   
 25  12  17  am  
 26  13  18  ar  
 27  13  36  1   
 28  14  37  1   
 29  14  38  1   
 30  14  39  1   
 31  15  18  ar  
 32  15  40  1   
 33  17  19  1   
 34  17  20  1   
 35  18  41  1   
 36  19  21  1   
 37  19  42  1   
 38  19  43  1   
 39  20  44  1   
 40  20  45  1   
 41  20  46  1   
 42  21  22  1   
 43  21  23  1   
 44  21  47  1   
 45  22  24  1   
 46  22  48  1   
 47  22  49  1   
 48  23  25  1   
 49  23  50  1   
 50  23  51  1   
 51  24  26  1   
 52  24  52  1   
 53  24  53  1   
 54  25  26  1   
 55  25  54  1   
 56  25  55  1   
 57  26  27  1   
 58  26  56  1   
 59  27  57  1   
 60  27  58  1   
 61  27  59  1   
@<TRIPOS>SUBSTRUCTURE
  1 ****  12 GROUP 4 **** **** 0

# MOE 2024.06 (io_trps.svl 2023.06)
