@<TRIPOS>MOLECULE
NONAME
47 48 1 0 0 
SMALL
USER_CHARGES


@<TRIPOS>ATOM
  1 O       -0.0590     0.8920    -1.4790 O.3   1 <1>  -0.3630 
  2 C       -0.6060     0.6350    -0.2620 C.ar  1 <1>   0.0830 
  3 C       -0.6600     1.7270    -2.4530 C.3   1 <1>   0.1200 
  4 C        0.1870    -0.0550     0.6500 C.ar  1 <1>  -0.1440 
  5 C       -1.8720     1.0780     0.1120 C.ar  1 <1>  -0.1500 
  6 C        0.4490     2.4050    -3.2710 C.3   1 <1>   0.2090 
  7 C       -0.2770    -0.2510     1.9390 C.ar  1 <1>  -0.1500 
  8 C        1.5480    -0.6210     0.2570 C.3   1 <1>  -0.0960 
  9 C       -2.3270     0.8800     1.4040 C.ar  1 <1>  -0.1440 
 10 N        1.1550     3.5290    -2.5680 N.pl3 1 <1>  -0.8690 
 11 C       -1.5220     0.2190     2.3160 C.ar  1 <1>  -0.1500 
 12 C       -3.7040     1.3650     1.8230 C.3   1 <1>  -0.0970 
 13 C        1.5200     3.8110    -1.3080 C.ar  1 <1>   0.7710 
 14 N        2.0990     4.9780    -1.1350 N.ar  1 <1>  -0.6200 
 15 N        1.3040     2.9590    -0.2980 N.ar  1 <1>  -0.1790 
 16 C        2.4730     5.3110     0.0880 C.ar  1 <1>   0.4100 
 17 C        1.6190     3.2760     0.9760 C.ar  1 <1>   0.2110 
 18 N        3.1170     6.4990     0.2140 N.pl3 1 <1>  -0.8380 
 19 C        2.2110     4.4740     1.2060 C.ar  1 <1>  -0.1430 
 20 C        4.4760     6.6190     0.8110 C.3   1 <1>   0.1290 
 21 C        2.6930     7.6980    -0.5640 C.3   1 <1>   0.1290 
 22 C        2.5380     4.9050     2.6350 C.3   1 <1>  -0.0970 
 23 H       -1.2670     2.4830    -1.9900 H     1 <1>   0.0800 
 24 H       -1.2720     1.1030    -3.0820 H     1 <1>   0.0800 
 25 H       -2.5240     1.5720    -0.5820 H     1 <1>   0.1500 
 26 H       -0.0080     2.8130    -4.1570 H     1 <1>   0.0800 
 27 H        1.1650     1.6670    -3.5950 H     1 <1>   0.0800 
 28 H        0.3190    -0.7830     2.6620 H     1 <1>   0.1500 
 29 H        1.4700    -1.1490    -0.6780 H     1 <1>   0.0800 
 30 H        1.8990    -1.3190     0.9960 H     1 <1>   0.0800 
 31 H        2.2760     0.1610     0.1540 H     1 <1>   0.0800 
 32 H        1.4480     4.2720    -3.2130 H     1 <1>   0.4000 
 33 H       -1.8700     0.0540     3.3220 H     1 <1>   0.1500 
 34 H       -4.0270     2.1830     1.2050 H     1 <1>   0.0800 
 35 H       -3.6890     1.6990     2.8450 H     1 <1>   0.0800 
 36 H       -4.4150     0.5630     1.7340 H     1 <1>   0.0800 
 37 H        0.8580     2.0720    -0.5450 H     1 <1>   0.4570 
 38 H        1.3770     2.5720     1.7570 H     1 <1>   0.1500 
 39 H        4.8680     5.6470     1.0550 H     1 <1>   0.0800 
 40 H        4.4320     7.2190     1.7030 H     1 <1>   0.0800 
 41 H        5.1460     7.0840     0.1080 H     1 <1>   0.0800 
 42 H        1.6740     7.5890    -0.8940 H     1 <1>   0.0800 
 43 H        3.3250     7.8170    -1.4260 H     1 <1>   0.0800 
 44 H        2.7600     8.5790     0.0510 H     1 <1>   0.0800 
 45 H        2.2460     5.9300     2.7860 H     1 <1>   0.0800 
 46 H        3.5920     4.8150     2.8240 H     1 <1>   0.0800 
 47 H        2.0140     4.3010     3.3540 H     1 <1>   0.0800 
@<TRIPOS>BOND
  1   1   2  1   
  2   1   3  1   
  3   2   4  ar  
  4   2   5  ar  
  5   3   6  1   
  6   3  23  1   
  7   3  24  1   
  8   4   7  ar  
  9   4   8  1   
 10   5   9  ar  
 11   5  25  1   
 12   6  10  1   
 13   6  26  1   
 14   6  27  1   
 15   7  11  ar  
 16   7  28  1   
 17   8  29  1   
 18   8  30  1   
 19   8  31  1   
 20   9  11  ar  
 21   9  12  1   
 22  10  13  1   
 23  10  32  1   
 24  11  33  1   
 25  12  34  1   
 26  12  35  1   
 27  12  36  1   
 28  13  14  ar  
 29  13  15  ar  
 30  14  16  ar  
 31  15  17  ar  
 32  15  37  1   
 33  16  18  1   
 34  16  19  ar  
 35  17  19  ar  
 36  17  38  1   
 37  18  20  1   
 38  18  21  1   
 39  19  22  1   
 40  20  39  1   
 41  20  40  1   
 42  20  41  1   
 43  21  42  1   
 44  21  43  1   
 45  21  44  1   
 46  22  45  1   
 47  22  46  1   
 48  22  47  1   
@<TRIPOS>SUBSTRUCTURE
  1 ****  15 GROUP 4 **** **** 0

# MOE 2024.06 (io_trps.svl 2023.06)
