@<TRIPOS>MOLECULE
NONAME
41 43 1 0 0 
SMALL
USER_CHARGES


@<TRIPOS>ATOM
  1 S        1.5060     0.2850    -1.0800 S.o2  1 <1>   1.3330 
  2 O        1.1190     0.7860    -2.3790 O.2   1 <1>  -0.6500 
  3 O        2.4810    -0.7800    -0.9870 O.2   1 <1>  -0.6500 
  4 N        0.0840    -0.2440    -0.3140 N.am  1 <1>  -0.8490 
  5 C        2.0390     1.6630    -0.0530 C.3   1 <1>  -0.0550 
  6 C       -0.1680    -1.6720    -0.5360 C.3   1 <1>   0.1160 
  7 C       -1.1050     0.5300    -0.6890 C.3   1 <1>   0.1160 
  8 C        2.8060     1.3260     1.2450 C.3   1 <1>  -0.0800 
  9 C        4.1980     0.7380     0.9970 C.3   1 <1>   0.2890 
 10 C        2.1490     0.3250     2.2030 C.3   1 <1>   0.1200 
 11 N        5.2190     1.6960     1.4720 N.pl3 1 <1>  -0.8530 
 12 C        4.1980    -0.5340     1.8440 C.3   1 <1>   0.1200 
 13 O        3.2090    -0.3410     2.8050 O.3   1 <1>  -0.5600 
 14 C        5.6750     2.7310     0.7170 C.2   1 <1>   0.4620 
 15 S        6.8160     3.8480     1.4650 S.3   1 <1>  -0.0800 
 16 N        5.3610     3.0130    -0.4920 N.2   1 <1>  -0.5650 
 17 C        6.8620     4.7700    -0.0210 C.ar  1 <1>   0.0400 
 18 C        6.0200     4.1520    -0.9280 C.ar  1 <1>   0.2270 
 19 C        7.5850     5.9130    -0.3020 C.ar  1 <1>  -0.1500 
 20 C        5.8990     4.7150    -2.1910 C.ar  1 <1>  -0.1500 
 21 C        7.4490     6.4610    -1.5670 C.ar  1 <1>  -0.1500 
 22 C        6.6110     5.8630    -2.5050 C.ar  1 <1>  -0.1500 
 23 H        2.6790     2.2900    -0.6450 H     1 <1>   0.0800 
 24 H        1.1820     2.2540     0.2010 H     1 <1>   0.0800 
 25 H       -1.0690    -1.9760    -0.0320 H     1 <1>   0.0800 
 26 H        0.6480    -2.2570    -0.1460 H     1 <1>   0.0800 
 27 H       -0.2650    -1.8750    -1.5900 H     1 <1>   0.0800 
 28 H       -1.9510     0.2150    -0.1030 H     1 <1>   0.0800 
 29 H       -1.3310     0.3920    -1.7340 H     1 <1>   0.0800 
 30 H       -0.9400     1.5780    -0.5090 H     1 <1>   0.0800 
 31 H        2.9120     2.2460     1.7920 H     1 <1>   0.0800 
 32 H        4.3850     0.5000    -0.0370 H     1 <1>   0.0800 
 33 H        1.5590    -0.4160     1.6970 H     1 <1>   0.0800 
 34 H        1.5590     0.8070     2.9620 H     1 <1>   0.0800 
 35 H        5.4230     1.6660     2.4740 H     1 <1>   0.4000 
 36 H        5.1430    -0.7180     2.3230 H     1 <1>   0.0800 
 37 H        3.9150    -1.3820     1.2450 H     1 <1>   0.0800 
 38 H        8.2260     6.3550     0.4400 H     1 <1>   0.1500 
 39 H        5.2510     4.2460    -2.9090 H     1 <1>   0.1500 
 40 H        7.9940     7.3510    -1.8290 H     1 <1>   0.1500 
 41 H        6.5160     6.2980    -3.4860 H     1 <1>   0.1500 
@<TRIPOS>BOND
  1   1   2  2   
  2   1   3  2   
  3   1   4  am  
  4   1   5  1   
  5   4   6  1   
  6   4   7  1   
  7   5   8  1   
  8   5  23  1   
  9   5  24  1   
 10   6  25  1   
 11   6  26  1   
 12   6  27  1   
 13   7  28  1   
 14   7  29  1   
 15   7  30  1   
 16   8   9  1   
 17   8  10  1   
 18   8  31  1   
 19   9  11  1   
 20   9  12  1   
 21   9  32  1   
 22  10  13  1   
 23  10  33  1   
 24  10  34  1   
 25  11  14  1   
 26  11  35  1   
 27  12  13  1   
 28  12  36  1   
 29  12  37  1   
 30  14  15  1   
 31  14  16  2   
 32  15  17  1   
 33  16  18  1   
 34  17  18  ar  
 35  17  19  ar  
 36  18  20  ar  
 37  19  21  ar  
 38  19  38  1   
 39  20  22  ar  
 40  20  39  1   
 41  21  22  ar  
 42  21  40  1   
 43  22  41  1   
@<TRIPOS>SUBSTRUCTURE
  1 ****   9 GROUP 4 **** **** 0

# MOE 2024.06 (io_trps.svl 2023.06)
