@<TRIPOS>MOLECULE
NONAME
56 59 1 0 0 
SMALL
USER_CHARGES


@<TRIPOS>ATOM
  1 O        0.9880     0.3330    -0.3960 O.2   1 <1>  -0.5700 
  2 C        2.0650    -0.2320    -0.2380 C.2   1 <1>   0.6160 
  3 N        3.1590     0.4280     0.3110 N.am  1 <1>  -0.2980 
  4 C        2.2700    -1.5780    -0.6200 C.2   1 <1>  -0.1360 
  5 N        4.3970    -0.1330     0.4810 N.2   1 <1>  -0.5120 
  6 C        3.0220     1.8490     0.7230 C.3   1 <1>   0.1400 
  7 C        3.4960    -2.1350    -0.4500 C.2   1 <1>  -0.1360 
  8 C        4.5660    -1.3740     0.1070 C.2   1 <1>   0.3490 
  9 C        3.0270     2.7640    -0.5070 C.3   1 <1>   0.2090 
 10 C        5.8650    -1.9880     0.2640 C.ar  1 <1>   0.0860 
 11 N        3.4720     4.1480    -0.1530 N.pl3 1 <1>  -0.8690 
 12 C        6.5440    -1.9210     1.4810 C.ar  1 <1>  -0.1500 
 13 C        6.4910    -2.6600    -0.7880 C.ar  1 <1>  -0.1500 
 14 C        4.7610     4.5240     0.0170 C.ar  1 <1>   0.4100 
 15 C        7.7870    -2.5050     1.6470 C.ar  1 <1>  -0.1500 
 16 C        7.7340    -3.2450    -0.6280 C.ar  1 <1>  -0.1500 
 17 N        5.6550     3.5630    -0.0180 N.ar  1 <1>  -0.6200 
 18 C        5.1170     5.8810     0.2220 C.ar  1 <1>  -0.1430 
 19 C        8.3840    -3.1690     0.5910 C.ar  1 <1>  -0.1500 
 20 C        6.9260     3.8740     0.1360 C.ar  1 <1>   0.7710 
 21 C        6.4440     6.1760     0.3490 C.ar  1 <1>   0.2180 
 22 C        3.9970     6.9260     0.2940 C.3   1 <1>  -0.0970 
 23 N        7.3210     5.1430     0.3060 N.ar  1 <1>  -0.1790 
 24 N        7.8510     2.8840     0.1260 N.pl3 1 <1>  -0.8380 
 25 C        7.0430     7.5640     0.5400 C.3   1 <1>  -0.0970 
 26 C        7.4380     1.4520     0.0340 C.3   1 <1>   0.2090 
 27 C        9.3340     2.9850     0.1440 C.3   1 <1>   0.2090 
 28 C        8.7280     0.6520     0.1540 C.3   1 <1>  -0.1600 
 29 C        9.8220     1.6120    -0.2960 C.3   1 <1>  -0.1600 
 30 H        1.4300    -2.1030    -1.0330 H     1 <1>   0.1500 
 31 H        3.8510     2.0970     1.3610 H     1 <1>   0.0800 
 32 H        2.1100     1.9780     1.2770 H     1 <1>   0.0800 
 33 H        3.6900    -3.1560    -0.7220 H     1 <1>   0.1500 
 34 H        2.0430     2.7960    -0.9410 H     1 <1>   0.0800 
 35 H        3.7060     2.3610    -1.2410 H     1 <1>   0.0800 
 36 H        2.7170     4.8360    -0.1100 H     1 <1>   0.4000 
 37 H        6.0840    -1.4020     2.3050 H     1 <1>   0.1500 
 38 H        6.0020    -2.7200    -1.7440 H     1 <1>   0.1500 
 39 H        8.2890    -2.4430     2.5970 H     1 <1>   0.1500 
 40 H        8.2000    -3.7600    -1.4510 H     1 <1>   0.1500 
 41 H        9.3510    -3.6260     0.7180 H     1 <1>   0.1500 
 42 H        3.2320     6.5990     0.9770 H     1 <1>   0.0800 
 43 H        3.5540     7.0550    -0.6780 H     1 <1>   0.0800 
 44 H        4.3370     7.8820     0.6430 H     1 <1>   0.0800 
 45 H        8.3170     5.2670     0.4180 H     1 <1>   0.4570 
 46 H        6.4020     8.3290     0.1410 H     1 <1>   0.0800 
 47 H        7.9850     7.6460     0.0280 H     1 <1>   0.0800 
 48 H        7.1990     7.7580     1.5870 H     1 <1>   0.0800 
 49 H        6.9700     1.2700    -0.9200 H     1 <1>   0.0800 
 50 H        6.7460     1.1950     0.8200 H     1 <1>   0.0800 
 51 H        9.6680     3.1800     1.1500 H     1 <1>   0.0800 
 52 H        9.6940     3.7470    -0.5260 H     1 <1>   0.0800 
 53 H        8.6940    -0.2440    -0.4400 H     1 <1>   0.0800 
 54 H        8.8740     0.3790     1.1840 H     1 <1>   0.0800 
 55 H       10.7800     1.3680     0.1300 H     1 <1>   0.0800 
 56 H        9.9020     1.5930    -1.3700 H     1 <1>   0.0800 
@<TRIPOS>BOND
  1   1   2  2   
  2   2   3  am  
  3   2   4  1   
  4   3   5  1   
  5   3   6  1   
  6   4   7  2   
  7   4  30  1   
  8   5   8  2   
  9   6   9  1   
 10   6  31  1   
 11   6  32  1   
 12   7   8  1   
 13   7  33  1   
 14   8  10  1   
 15   9  11  1   
 16   9  34  1   
 17   9  35  1   
 18  10  12  ar  
 19  10  13  ar  
 20  11  14  1   
 21  11  36  1   
 22  12  15  ar  
 23  12  37  1   
 24  13  16  ar  
 25  13  38  1   
 26  14  17  ar  
 27  14  18  ar  
 28  15  19  ar  
 29  15  39  1   
 30  16  19  ar  
 31  16  40  1   
 32  17  20  ar  
 33  18  21  ar  
 34  18  22  1   
 35  19  41  1   
 36  20  23  ar  
 37  20  24  1   
 38  21  23  ar  
 39  21  25  1   
 40  22  42  1   
 41  22  43  1   
 42  22  44  1   
 43  23  45  1   
 44  24  26  1   
 45  24  27  1   
 46  25  46  1   
 47  25  47  1   
 48  25  48  1   
 49  26  28  1   
 50  26  49  1   
 51  26  50  1   
 52  27  29  1   
 53  27  51  1   
 54  27  52  1   
 55  28  29  1   
 56  28  53  1   
 57  28  54  1   
 58  29  55  1   
 59  29  56  1   
@<TRIPOS>SUBSTRUCTURE
  1 ****  26 GROUP 4 **** **** 0

# MOE 2024.06 (io_trps.svl 2023.06)
