@<TRIPOS>MOLECULE
NONAME
45 47 1 0 0 
SMALL
USER_CHARGES


@<TRIPOS>ATOM
  1 F        0.4400    -0.8940    -0.9210 F     1 <1>  -0.1900 
  2 C        0.1300    -2.0390    -0.3660 C.ar  1 <1>   0.1900 
  3 C        1.0220    -3.1170    -0.3500 C.ar  1 <1>   0.0820 
  4 C       -1.1290    -2.1270     0.1980 C.ar  1 <1>  -0.1500 
  5 O        2.2810    -3.1560    -0.8690 O.3   1 <1>  -0.3630 
  6 C        0.6010    -4.2910     0.2550 C.ar  1 <1>  -0.1500 
  7 C       -1.5270    -3.3130     0.7910 C.ar  1 <1>  -0.1500 
  8 C        2.9200    -2.0230    -1.4160 C.3   1 <1>   0.0400 
  9 C       -0.6650    -4.4010     0.8160 C.ar  1 <1>  -0.1430 
 10 C       -1.1040    -5.7080     1.4500 C.3   1 <1>   0.4870 
 11 N       -1.3020    -6.7160     0.3720 N.4   1 <1>  -0.9590 
 12 C       -2.4720    -6.3410    -0.4870 C.3   1 <1>   0.3430 
 13 C       -1.6080    -8.0600     0.9590 C.3   1 <1>   0.3430 
 14 C       -3.6460    -7.1790     0.0250 C.3   1 <1>   0.2000 
 15 C       -2.9800    -8.4930     0.4220 C.3   1 <1>  -0.0800 
 16 O       -4.1430    -6.5790     1.1780 O.3   1 <1>  -0.6800 
 17 C       -2.8490    -9.4570    -0.7750 C.3   1 <1>  -0.0170 
 18 C       -1.9790   -10.6510    -0.4180 C.ar  1 <1>  -0.1430 
 19 C       -2.3760   -11.5900     0.5140 C.ar  1 <1>  -0.1500 
 20 C       -0.7440   -10.8570    -1.0030 C.ar  1 <1>  -0.1500 
 21 C       -1.5350   -12.6460     0.8240 C.ar  1 <1>   0.1600 
 22 C        0.0190   -11.9490    -0.6230 C.ar  1 <1>   0.1600 
 23 N       -0.3440   -12.8380     0.2840 N.ar  1 <1>  -0.6200 
 24 H       -1.7850    -1.2740     0.1700 H     1 <1>   0.1500 
 25 H        1.2940    -5.1150     0.2770 H     1 <1>   0.1500 
 26 H       -2.5100    -3.3730     1.2310 H     1 <1>   0.1500 
 27 H        3.9200    -2.3030    -1.6940 H     1 <1>   0.0800 
 28 H        2.9530    -1.2450    -0.6730 H     1 <1>   0.0800 
 29 H        2.3780    -1.7000    -2.2870 H     1 <1>   0.0800 
 30 H       -2.0220    -5.5640     1.9980 H     1 <1>   0.0800 
 31 H       -0.3440    -6.0420     2.1380 H     1 <1>   0.0800 
 32 H       -0.4460    -6.7350    -0.1950 H     1 <1>   0.4500 
 33 H       -2.6980    -5.2880    -0.4450 H     1 <1>   0.0800 
 34 H       -2.2660    -6.6120    -1.5090 H     1 <1>   0.0800 
 35 H       -0.8440    -8.7780     0.7080 H     1 <1>   0.0800 
 36 H       -1.6640    -7.9840     2.0340 H     1 <1>   0.0800 
 37 H       -4.4430    -7.2750    -0.6940 H     1 <1>   0.0800 
 38 H       -3.5370    -8.9920     1.1960 H     1 <1>   0.0800 
 39 H       -5.0110    -6.9610     1.4310 H     1 <1>   0.4000 
 40 H       -2.4260    -8.9540    -1.6270 H     1 <1>   0.0800 
 41 H       -3.8250    -9.8120    -1.0630 H     1 <1>   0.0800 
 42 H       -3.3300   -11.5200     1.0050 H     1 <1>   0.1500 
 43 H       -0.3620   -10.1910    -1.7550 H     1 <1>   0.1500 
 44 H       -1.8580   -13.3710     1.5530 H     1 <1>   0.1500 
 45 H        0.9790   -12.0990    -1.0890 H     1 <1>   0.1500 
@<TRIPOS>BOND
  1   1   2  1   
  2   2   3  ar  
  3   2   4  ar  
  4   3   5  1   
  5   3   6  ar  
  6   4   7  ar  
  7   4  24  1   
  8   5   8  1   
  9   6   9  ar  
 10   6  25  1   
 11   7   9  ar  
 12   7  26  1   
 13   8  27  1   
 14   8  28  1   
 15   8  29  1   
 16   9  10  1   
 17  10  11  1   
 18  10  30  1   
 19  10  31  1   
 20  11  12  1   
 21  11  13  1   
 22  11  32  1   
 23  12  14  1   
 24  12  33  1   
 25  12  34  1   
 26  13  15  1   
 27  13  35  1   
 28  13  36  1   
 29  14  15  1   
 30  14  16  1   
 31  14  37  1   
 32  15  17  1   
 33  15  38  1   
 34  16  39  1   
 35  17  18  1   
 36  17  40  1   
 37  17  41  1   
 38  18  19  ar  
 39  18  20  ar  
 40  19  21  ar  
 41  19  42  1   
 42  20  22  ar  
 43  20  43  1   
 44  21  23  ar  
 45  21  44  1   
 46  22  23  ar  
 47  22  45  1   
@<TRIPOS>SUBSTRUCTURE
  1 ****  11 GROUP 4 **** **** 0

# MOE 2024.06 (io_trps.svl 2023.06)
