@<TRIPOS>MOLECULE
NONAME
48 51 1 0 0 
SMALL
USER_CHARGES


@<TRIPOS>ATOM
  1 O       -1.9230    -2.7910     1.1780 O.2   1 <1>  -0.5700 
  2 C       -0.7950    -3.1770     1.0190 C.2   1 <1>   0.5690 
  3 N       -0.4500    -4.4650     1.2220 N.am  1 <1>  -0.7300 
  4 C        0.2970    -2.2220     0.5880 C.3   1 <1>  -0.0990 
  5 C        0.9250    -4.9750     1.0680 C.3   1 <1>   0.1400 
  6 C        1.1900    -2.8760    -0.4860 C.3   1 <1>  -0.0800 
  7 C        1.5790    -4.3460    -0.1830 C.3   1 <1>  -0.0800 
  8 C        2.5010    -2.1140    -0.7290 C.3   1 <1>  -0.1600 
  9 C        3.1130    -4.3730    -0.1460 C.3   1 <1>  -0.1600 
 10 C        3.5230    -3.2020    -1.0370 C.3   1 <1>   0.4230 
 11 N        4.9280    -2.7490    -0.8530 N.4   1 <1>  -0.9590 
 12 C        5.3370    -2.3900     0.5380 C.3   1 <1>   0.5230 
 13 C        5.9070    -3.6990    -1.4670 C.3   1 <1>   0.2630 
 14 C        6.5760    -1.5250     0.4390 C.2   1 <1>  -0.0400 
 15 O        6.5100    -0.4740    -0.3750 O.3   1 <1>  -0.2800 
 16 C        7.7890    -1.6190     1.0200 C.2   1 <1>  -0.1810 
 17 C        7.6940     0.1390    -0.3290 C.ar  1 <1>   0.1400 
 18 C        8.5460    -0.5320     0.5290 C.ar  1 <1>   0.0000 
 19 C        8.3430    -2.6300     2.0100 C.3   1 <1>  -0.0590 
 20 C        8.0860     1.2810    -1.0150 C.ar  1 <1>  -0.1500 
 21 C        9.8430    -0.0520     0.7160 C.ar  1 <1>  -0.1500 
 22 C        9.3700     1.7480    -0.8240 C.ar  1 <1>  -0.1500 
 23 C       10.2450     1.0820     0.0390 C.ar  1 <1>  -0.1500 
 24 H       -1.1840    -5.0990     1.5500 H     1 <1>   0.3700 
 25 H       -0.1490    -1.3220     0.2050 H     1 <1>   0.0800 
 26 H        0.8670    -1.9710     1.4630 H     1 <1>   0.0800 
 27 H        1.4780    -4.7200     1.9560 H     1 <1>   0.0800 
 28 H        0.9060    -6.0490     0.9760 H     1 <1>   0.0800 
 29 H        0.6230    -2.8840    -1.4040 H     1 <1>   0.0800 
 30 H        1.2610    -4.9360    -1.0280 H     1 <1>   0.0800 
 31 H        2.7660    -1.5680     0.1570 H     1 <1>   0.0800 
 32 H        2.3970    -1.4280    -1.5510 H     1 <1>   0.0800 
 33 H        3.4910    -5.3100    -0.5160 H     1 <1>   0.0800 
 34 H        3.4430    -4.2210     0.8650 H     1 <1>   0.0800 
 35 H        3.3790    -3.4990    -2.0640 H     1 <1>   0.0800 
 36 H        5.0330    -1.8540    -1.3580 H     1 <1>   0.4500 
 37 H        4.5640    -1.8220     1.0260 H     1 <1>   0.0800 
 38 H        5.5400    -3.2740     1.1190 H     1 <1>   0.0800 
 39 H        5.8900    -4.6450    -0.9510 H     1 <1>   0.0800 
 40 H        6.9060    -3.2930    -1.4120 H     1 <1>   0.0800 
 41 H        5.6660    -3.8660    -2.5040 H     1 <1>   0.0800 
 42 H        9.2050    -3.1170     1.5910 H     1 <1>   0.0800 
 43 H        7.6100    -3.3750     2.2580 H     1 <1>   0.0800 
 44 H        8.6410    -2.1270     2.9130 H     1 <1>   0.0800 
 45 H        7.3960     1.7780    -1.6720 H     1 <1>   0.1500 
 46 H       10.5130    -0.5650     1.3820 H     1 <1>   0.1500 
 47 H        9.7080     2.6310    -1.3390 H     1 <1>   0.1500 
 48 H       11.2420     1.4650     0.1730 H     1 <1>   0.1500 
@<TRIPOS>BOND
  1   1   2  2   
  2   2   3  am  
  3   2   4  1   
  4   3   5  1   
  5   3  24  1   
  6   4   6  1   
  7   4  25  1   
  8   4  26  1   
  9   5   7  1   
 10   5  27  1   
 11   5  28  1   
 12   6   7  1   
 13   6   8  1   
 14   6  29  1   
 15   7   9  1   
 16   7  30  1   
 17   8  10  1   
 18   8  31  1   
 19   8  32  1   
 20   9  10  1   
 21   9  33  1   
 22   9  34  1   
 23  10  11  1   
 24  10  35  1   
 25  11  12  1   
 26  11  13  1   
 27  11  36  1   
 28  12  14  1   
 29  12  37  1   
 30  12  38  1   
 31  13  39  1   
 32  13  40  1   
 33  13  41  1   
 34  14  15  1   
 35  14  16  2   
 36  15  17  1   
 37  16  18  1   
 38  16  19  1   
 39  17  18  ar  
 40  17  20  ar  
 41  18  21  ar  
 42  19  42  1   
 43  19  43  1   
 44  19  44  1   
 45  20  22  ar  
 46  20  45  1   
 47  21  23  ar  
 48  21  46  1   
 49  22  23  ar  
 50  22  47  1   
 51  23  48  1   
@<TRIPOS>SUBSTRUCTURE
  1 ****  12 GROUP 4 **** **** 0

# MOE 2024.06 (io_trps.svl 2023.06)
