@<TRIPOS>MOLECULE
NONAME
53 56 1 0 0 
SMALL
USER_CHARGES


@<TRIPOS>ATOM
  1 O       -0.4070     1.7690    -2.3880 O.2   1 <1>  -0.5700 
  2 C       -0.6700     2.8760    -1.9760 C.2   1 <1>   0.5690 
  3 N       -1.3620     3.1060    -0.8180 N.am  1 <1>  -0.5090 
  4 C       -0.2350     4.0740    -2.8120 C.3   1 <1>   0.1810 
  5 C       -1.8730     4.4730    -0.4830 C.3   1 <1>   0.3640 
  6 C       -1.7850     2.0230     0.1000 C.3   1 <1>   0.0490 
  7 O       -0.0590     5.2190    -2.0180 O.3   1 <1>  -0.5600 
  8 C       -3.3930     4.5030    -0.6560 C.ar  1 <1>  -0.1440 
  9 C       -1.2200     5.6230    -1.3020 C.3   1 <1>   0.2610 
 10 C       -1.3220     2.0740     1.5230 C.3   1 <1>  -0.2000 
 11 C       -0.7750     1.0370     0.5950 C.3   1 <1>  -0.2000 
 12 C       -4.1780     5.1550     0.2860 C.ar  1 <1>   0.1600 
 13 C       -4.0230     3.8970    -1.7300 C.ar  1 <1>  -0.1500 
 14 C       -0.8820     6.7780    -0.3540 C.2   1 <1>   0.5690 
 15 N       -5.4990     5.2410     0.2460 N.ar  1 <1>  -0.6200 
 16 C       -5.3970     3.9810    -1.7870 C.ar  1 <1>  -0.1500 
 17 O       -1.7480     7.2040     0.3740 O.2   1 <1>  -0.5700 
 18 N        0.3890     7.2570    -0.3430 N.am  1 <1>  -0.7300 
 19 C       -6.0770     4.6530    -0.7870 C.ar  1 <1>   0.1600 
 20 C        1.0230     8.2360     0.5600 C.3   1 <1>   0.3000 
 21 C        1.0200     7.6720     1.9840 C.3   1 <1>  -0.1600 
 22 C        2.5160     8.2240     0.2210 C.3   1 <1>  -0.1600 
 23 C        0.3310     9.6060     0.3790 C.3   1 <1>  -0.1600 
 24 C        2.1120     6.5940     2.0040 C.3   1 <1>  -0.1600 
 25 C        3.0790     6.9500     0.8670 C.3   1 <1>  -0.1600 
 26 C        0.9460    10.8030     1.1270 C.3   1 <1>  -0.2400 
 27 H       -0.9690     4.2830    -3.5690 H     1 <1>   0.0800 
 28 H        0.7050     3.8560    -3.2860 H     1 <1>   0.0800 
 29 H       -1.6530     4.6430     0.5570 H     1 <1>   0.0800 
 30 H       -2.7810     1.6670    -0.1080 H     1 <1>   0.1000 
 31 H       -1.9260     5.9930    -2.0230 H     1 <1>   0.0800 
 32 H       -0.6560     2.8540     1.8460 H     1 <1>   0.1000 
 33 H       -1.9940     1.7530     2.2990 H     1 <1>   0.1000 
 34 H       -1.0810     0.0140     0.7260 H     1 <1>   0.1000 
 35 H        0.2380     1.1220     0.2440 H     1 <1>   0.1000 
 36 H       -3.6990     5.6400     1.1210 H     1 <1>   0.1500 
 37 H       -3.4780     3.3710    -2.4950 H     1 <1>   0.1500 
 38 H       -5.9400     3.5270    -2.5960 H     1 <1>   0.1500 
 39 H        1.0510     6.7820    -0.9610 H     1 <1>   0.3700 
 40 H       -7.1510     4.7110    -0.8400 H     1 <1>   0.1500 
 41 H        1.3000     8.4440     2.6760 H     1 <1>   0.0800 
 42 H        0.0580     7.2930     2.2780 H     1 <1>   0.0800 
 43 H        2.6980     8.2700    -0.8380 H     1 <1>   0.0800 
 44 H        3.0010     9.0630     0.6840 H     1 <1>   0.0800 
 45 H        0.3160     9.8420    -0.6710 H     1 <1>   0.0800 
 46 H       -0.6910     9.5140     0.7030 H     1 <1>   0.0800 
 47 H        2.6110     6.5680     2.9570 H     1 <1>   0.0800 
 48 H        1.6730     5.6290     1.8150 H     1 <1>   0.0800 
 49 H        3.1020     6.1490     0.1490 H     1 <1>   0.0800 
 50 H        4.0770     7.1150     1.2360 H     1 <1>   0.0800 
 51 H        1.9350    11.0210     0.7680 H     1 <1>   0.0800 
 52 H        0.9850    10.6230     2.1850 H     1 <1>   0.0800 
 53 H        0.3380    11.6750     0.9630 H     1 <1>   0.0800 
@<TRIPOS>BOND
  1   1   2  2   
  2   2   3  am  
  3   2   4  1   
  4   3   5  1   
  5   3   6  1   
  6   4   7  1   
  7   4  27  1   
  8   4  28  1   
  9   5   8  1   
 10   5   9  1   
 11   5  29  1   
 12   6  10  1   
 13   6  11  1   
 14   6  30  1   
 15   7   9  1   
 16   8  12  ar  
 17   8  13  ar  
 18   9  14  1   
 19   9  31  1   
 20  10  11  1   
 21  10  32  1   
 22  10  33  1   
 23  11  34  1   
 24  11  35  1   
 25  12  15  ar  
 26  12  36  1   
 27  13  16  ar  
 28  13  37  1   
 29  14  17  2   
 30  14  18  am  
 31  15  19  ar  
 32  16  19  ar  
 33  16  38  1   
 34  18  20  1   
 35  18  39  1   
 36  19  40  1   
 37  20  21  1   
 38  20  22  1   
 39  20  23  1   
 40  21  24  1   
 41  21  41  1   
 42  21  42  1   
 43  22  25  1   
 44  22  43  1   
 45  22  44  1   
 46  23  26  1   
 47  23  45  1   
 48  23  46  1   
 49  24  25  1   
 50  24  47  1   
 51  24  48  1   
 52  25  49  1   
 53  25  50  1   
 54  26  51  1   
 55  26  52  1   
 56  26  53  1   
@<TRIPOS>SUBSTRUCTURE
  1 ****   9 GROUP 4 **** **** 0

# MOE 2024.06 (io_trps.svl 2023.06)
