@<TRIPOS>MOLECULE
NONAME
64 67 1 0 0 
SMALL
USER_CHARGES


@<TRIPOS>ATOM
  1 O       -1.7110    -0.4020    -0.8800 O.3   1 <1>  -0.3630 
  2 C       -2.3780     0.6460    -0.3310 C.ar  1 <1>   0.0820 
  3 C       -0.8540    -0.2500    -1.9910 C.3   1 <1>   0.1200 
  4 C       -3.1450     0.4020     0.7820 C.ar  1 <1>  -0.1440 
  5 C       -2.3250     1.9400    -0.8770 C.ar  1 <1>  -0.1500 
  6 C       -0.2820    -1.6240    -2.3420 C.3   1 <1>  -0.1600 
  7 C       -3.8880     1.4340     1.4070 C.ar  1 <1>   0.0000 
  8 C       -3.1930    -1.0100     1.3250 C.3   1 <1>   0.4870 
  9 C       -3.0500     2.9460    -0.3070 C.ar  1 <1>  -0.1500 
 10 C        0.6560    -1.5400    -3.5510 C.3   1 <1>  -0.2400 
 11 C       -3.8500     2.7250     0.8300 C.ar  1 <1>   0.0000 
 12 C       -4.6690     1.2590     2.5760 C.ar  1 <1>  -0.1500 
 13 N       -4.4530    -1.6700     0.8520 N.4   1 <1>  -0.9590 
 14 C       -4.6090     3.7610     1.4080 C.ar  1 <1>  -0.1500 
 15 C       -5.3910     2.2860     3.1180 C.ar  1 <1>  -0.1500 
 16 C       -4.6940    -2.9810     1.5590 C.3   1 <1>   0.3430 
 17 C       -4.4110    -1.8010    -0.6410 C.3   1 <1>   0.3430 
 18 C       -5.3660     3.5500     2.5240 C.ar  1 <1>  -0.1500 
 19 C       -5.8920    -3.8190     0.9930 C.3   1 <1>   0.4230 
 20 C       -5.6780    -2.5010    -1.1230 C.3   1 <1>  -0.1600 
 21 N       -6.1360    -5.1610     1.6920 N.4   1 <1>  -0.9590 
 22 C       -5.8090    -3.9400    -0.5540 C.3   1 <1>   0.0000 
 23 C       -6.9580    -6.1350     0.8880 C.3   1 <1>   0.3430 
 24 C       -4.9230    -5.8820     2.2140 C.3   1 <1>   0.2630 
 25 C       -7.1220    -4.5610    -1.1080 C.3   1 <1>  -0.1600 
 26 C       -4.5860    -4.8210    -0.9530 C.3   1 <1>   0.1200 
 27 C       -7.8910    -5.4040    -0.0740 C.3   1 <1>  -0.1600 
 28 O       -4.1550    -4.5350    -2.2340 O.3   1 <1>  -0.6800 
 29 H       -1.4240     0.1430    -2.8160 H     1 <1>   0.0800 
 30 H       -0.0660     0.4340    -1.7240 H     1 <1>   0.0800 
 31 H       -1.7240     2.1530    -1.7420 H     1 <1>   0.1500 
 32 H        0.2660    -2.0080    -1.5000 H     1 <1>   0.0800 
 33 H       -1.0880    -2.3000    -2.5720 H     1 <1>   0.0800 
 34 H       -3.1590    -0.9760     2.4010 H     1 <1>   0.0800 
 35 H       -2.3320    -1.5620     0.9820 H     1 <1>   0.0800 
 36 H       -3.0180     3.9380    -0.7230 H     1 <1>   0.1500 
 37 H        1.4830    -0.8830    -3.3430 H     1 <1>   0.0800 
 38 H        0.1310    -1.1740    -4.4160 H     1 <1>   0.0800 
 39 H        1.0480    -2.5160    -3.7800 H     1 <1>   0.0800 
 40 H       -4.6980     0.3100     3.0730 H     1 <1>   0.1500 
 41 H       -5.1970    -0.9850     1.0590 H     1 <1>   0.4500 
 42 H       -4.5800     4.7360     0.9530 H     1 <1>   0.1500 
 43 H       -5.9830     2.1480     4.0070 H     1 <1>   0.1500 
 44 H       -3.8000    -3.5750     1.4740 H     1 <1>   0.0800 
 45 H       -4.8690    -2.7880     2.6040 H     1 <1>   0.0800 
 46 H       -4.3470    -0.8240    -1.0970 H     1 <1>   0.0800 
 47 H       -3.5410    -2.3620    -0.9480 H     1 <1>   0.0800 
 48 H       -5.9430     4.3490     2.9610 H     1 <1>   0.1500 
 49 H       -6.7710    -3.2240     1.1800 H     1 <1>   0.0800 
 50 H       -6.5300    -1.9010    -0.8530 H     1 <1>   0.0800 
 51 H       -5.6580    -2.5260    -2.2000 H     1 <1>   0.0800 
 52 H       -6.7270    -4.9520     2.5130 H     1 <1>   0.4500 
 53 H       -6.3090    -6.7750     0.3110 H     1 <1>   0.0800 
 54 H       -7.5350    -6.7630     1.5480 H     1 <1>   0.0800 
 55 H       -4.2600    -6.1470     1.4070 H     1 <1>   0.0800 
 56 H       -5.2190    -6.7900     2.7180 H     1 <1>   0.0800 
 57 H       -4.3870    -5.2710     2.9220 H     1 <1>   0.0800 
 58 H       -7.7930    -3.7930    -1.4590 H     1 <1>   0.0800 
 59 H       -6.8980    -5.1710    -1.9680 H     1 <1>   0.0800 
 60 H       -4.8130    -5.8730    -0.9090 H     1 <1>   0.0800 
 61 H       -3.7420    -4.6350    -0.3140 H     1 <1>   0.0800 
 62 H       -8.4990    -6.1260    -0.5940 H     1 <1>   0.0800 
 63 H       -8.5650    -4.7810     0.4900 H     1 <1>   0.0800 
 64 H       -4.6890    -4.9910    -2.9200 H     1 <1>   0.4000 
@<TRIPOS>BOND
  1   1   2  1   
  2   1   3  1   
  3   2   4  ar  
  4   2   5  ar  
  5   3   6  1   
  6   3  29  1   
  7   3  30  1   
  8   4   7  ar  
  9   4   8  1   
 10   5   9  ar  
 11   5  31  1   
 12   6  10  1   
 13   6  32  1   
 14   6  33  1   
 15   7  11  ar  
 16   7  12  ar  
 17   8  13  1   
 18   8  34  1   
 19   8  35  1   
 20   9  11  ar  
 21   9  36  1   
 22  10  37  1   
 23  10  38  1   
 24  10  39  1   
 25  11  14  ar  
 26  12  15  ar  
 27  12  40  1   
 28  13  16  1   
 29  13  17  1   
 30  13  41  1   
 31  14  18  ar  
 32  14  42  1   
 33  15  18  ar  
 34  15  43  1   
 35  16  19  1   
 36  16  44  1   
 37  16  45  1   
 38  17  20  1   
 39  17  46  1   
 40  17  47  1   
 41  18  48  1   
 42  19  21  1   
 43  19  22  1   
 44  19  49  1   
 45  20  22  1   
 46  20  50  1   
 47  20  51  1   
 48  21  23  1   
 49  21  24  1   
 50  21  52  1   
 51  22  25  1   
 52  22  26  1   
 53  23  27  1   
 54  23  53  1   
 55  23  54  1   
 56  24  55  1   
 57  24  56  1   
 58  24  57  1   
 59  25  27  1   
 60  25  58  1   
 61  25  59  1   
 62  26  28  1   
 63  26  60  1   
 64  26  61  1   
 65  27  62  1   
 66  27  63  1   
 67  28  64  1   
@<TRIPOS>SUBSTRUCTURE
  1 ****  13 GROUP 4 **** **** 0

# MOE 2024.06 (io_trps.svl 2023.06)
