@<TRIPOS>MOLECULE
NONAME
45 47 1 0 0 
SMALL
USER_CHARGES


@<TRIPOS>ATOM
  1 F       -1.6650    -5.7910     3.7490 F     1 <1>  -0.3400 
  2 C       -2.9770    -5.6850     3.5760 C.3   1 <1>   1.1640 
  3 F       -3.4240    -4.9400     4.5800 F     1 <1>  -0.3400 
  4 F       -3.4760    -6.9010     3.7620 F     1 <1>  -0.3400 
  5 C       -3.3570    -5.1240     2.1960 C.ar  1 <1>  -0.1440 
  6 C       -2.5310    -5.3160     1.0930 C.ar  1 <1>  -0.1500 
  7 C       -4.5440    -4.4210     2.0190 C.ar  1 <1>  -0.1500 
  8 C       -2.8820    -4.8220    -0.1510 C.ar  1 <1>  -0.1500 
  9 C       -4.8950    -3.9270     0.7750 C.ar  1 <1>  -0.1500 
 10 C       -4.0700    -4.1290    -0.3190 C.ar  1 <1>  -0.1430 
 11 C       -4.4940    -3.6170    -1.6910 C.3   1 <1>   0.0440 
 12 C       -5.5240    -4.5450    -2.3110 C.2   1 <1>   0.5690 
 13 O       -6.5950    -4.1050    -2.6500 O.2   1 <1>  -0.5700 
 14 N       -5.2190    -5.8600    -2.4300 N.am  1 <1>  -0.7300 
 15 C       -6.1710    -6.9340    -2.7900 C.3   1 <1>   0.2200 
 16 C       -6.5420    -7.7590    -1.5620 C.3   1 <1>  -0.0800 
 17 C       -5.4350    -7.9800    -3.6160 C.3   1 <1>   0.1200 
 18 C       -5.3950    -8.7720    -1.4650 C.3   1 <1>   0.1200 
 19 C       -6.7860    -6.9640    -0.2640 C.3   1 <1>  -0.0170 
 20 O       -4.7160    -8.7350    -2.6880 O.3   1 <1>  -0.5600 
 21 C       -7.1420    -7.8810     0.8940 C.ar  1 <1>  -0.1430 
 22 C       -8.4010    -8.4270     1.0350 C.ar  1 <1>  -0.1500 
 23 C       -6.2210    -8.2090     1.8690 C.ar  1 <1>  -0.1500 
 24 C       -8.6690    -9.2570     2.1120 C.ar  1 <1>   0.1600 
 25 C       -6.5920    -9.0480     2.9070 C.ar  1 <1>   0.1600 
 26 N       -7.7940    -9.5820     3.0500 N.ar  1 <1>  -0.6200 
 27 H       -1.6030    -5.8550     1.1940 H     1 <1>   0.1500 
 28 H       -5.2100    -4.2540     2.8500 H     1 <1>   0.1500 
 29 H       -2.2240    -4.9850    -0.9880 H     1 <1>   0.1500 
 30 H       -5.8220    -3.3900     0.6600 H     1 <1>   0.1500 
 31 H       -3.6490    -3.5490    -2.3490 H     1 <1>   0.0800 
 32 H       -4.9190    -2.6340    -1.5970 H     1 <1>   0.0800 
 33 H       -4.3260    -6.2110    -2.0760 H     1 <1>   0.3700 
 34 H       -7.0280    -6.5310    -3.3020 H     1 <1>   0.0800 
 35 H       -7.4370    -8.3100    -1.7910 H     1 <1>   0.0800 
 36 H       -4.7630    -7.5470    -4.3350 H     1 <1>   0.0800 
 37 H       -6.1300    -8.6370    -4.1100 H     1 <1>   0.0800 
 38 H       -5.7580    -9.7710    -1.2960 H     1 <1>   0.0800 
 39 H       -4.6910    -8.5070    -0.6950 H     1 <1>   0.0800 
 40 H       -7.5810    -6.2560    -0.4210 H     1 <1>   0.0800 
 41 H       -5.9070    -6.4070     0.0020 H     1 <1>   0.0800 
 42 H       -9.1740    -8.2150     0.3210 H     1 <1>   0.1500 
 43 H       -5.2200    -7.8210     1.8330 H     1 <1>   0.1500 
 44 H       -9.6560    -9.6750     2.2060 H     1 <1>   0.1500 
 45 H       -5.8590    -9.2910     3.6580 H     1 <1>   0.1500 
@<TRIPOS>BOND
  1   1   2  1   
  2   2   3  1   
  3   2   4  1   
  4   2   5  1   
  5   5   6  ar  
  6   5   7  ar  
  7   6   8  ar  
  8   6  27  1   
  9   7   9  ar  
 10   7  28  1   
 11   8  10  ar  
 12   8  29  1   
 13   9  10  ar  
 14   9  30  1   
 15  10  11  1   
 16  11  12  1   
 17  11  31  1   
 18  11  32  1   
 19  12  13  2   
 20  12  14  am  
 21  14  15  1   
 22  14  33  1   
 23  15  16  1   
 24  15  17  1   
 25  15  34  1   
 26  16  18  1   
 27  16  19  1   
 28  16  35  1   
 29  17  20  1   
 30  17  36  1   
 31  17  37  1   
 32  18  20  1   
 33  18  38  1   
 34  18  39  1   
 35  19  21  1   
 36  19  40  1   
 37  19  41  1   
 38  21  22  ar  
 39  21  23  ar  
 40  22  24  ar  
 41  22  42  1   
 42  23  25  ar  
 43  23  43  1   
 44  24  26  ar  
 45  24  44  1   
 46  25  26  ar  
 47  25  45  1   
@<TRIPOS>SUBSTRUCTURE
  1 ****  19 GROUP 4 **** **** 0

# MOE 2024.06 (io_trps.svl 2023.06)
