@<TRIPOS>MOLECULE
NONAME
54 56 1 0 0 
SMALL
USER_CHARGES


@<TRIPOS>ATOM
  1 O        0.0760     0.5530    -1.1120 O.2   1 <1>  -0.5700 
  2 C        0.0080     1.7130    -0.7780 C.2   1 <1>   0.5690 
  3 N       -1.1290     2.2570    -0.2430 N.am  1 <1>  -0.6600 
  4 C        1.2400     2.5930    -0.9990 C.3   1 <1>   0.1810 
  5 C       -1.1920     3.7030     0.1610 C.3   1 <1>   0.3640 
  6 C       -2.3300     1.4310     0.0750 C.3   1 <1>   0.0600 
  7 O        1.2430     3.7530    -0.2050 O.3   1 <1>  -0.5600 
  8 C       -2.4710     4.3260    -0.4250 C.ar  1 <1>  -0.1430 
  9 C        0.0530     4.5170    -0.2910 C.3   1 <1>   0.2610 
 10 C       -3.4710     4.8940     0.3660 C.ar  1 <1>  -0.1430 
 11 C       -2.6380     4.3110    -1.8060 C.ar  1 <1>  -0.1500 
 12 C        0.2020     5.8330     0.4930 C.2   1 <1>   0.5690 
 13 C       -4.5870     5.4550    -0.2390 C.ar  1 <1>  -0.1500 
 14 C       -3.4050     4.9260     1.8880 C.3   1 <1>  -0.0960 
 15 C       -3.7540     4.8690    -2.4000 C.ar  1 <1>  -0.1500 
 16 O       -0.2400     5.8880     1.6200 O.2   1 <1>  -0.5700 
 17 N        0.8240     6.9280    -0.0700 N.am  1 <1>  -0.6600 
 18 C       -4.7300     5.4470    -1.6130 C.ar  1 <1>  -0.1500 
 19 C        0.8370     8.2470     0.6200 C.3   1 <1>   0.1400 
 20 C        1.6580     6.8940    -1.3030 C.3   1 <1>   0.1400 
 21 C        2.2740     8.6210     0.9940 C.3   1 <1>  -0.1600 
 22 C        3.1040     7.2530    -0.9490 C.3   1 <1>  -0.1600 
 23 C        3.2060     8.6110    -0.2330 C.3   1 <1>  -0.0800 
 24 C        4.6720     8.8940     0.1470 C.3   1 <1>  -0.1600 
 25 C        4.8760    10.2900     0.7400 C.3   1 <1>   0.1200 
 26 O        6.2300    10.4900     0.9230 O.3   1 <1>  -0.6800 
 27 H        1.2910     2.8840    -2.0310 H     1 <1>   0.0800 
 28 H        2.1220     2.0300    -0.7540 H     1 <1>   0.0800 
 29 H       -1.2240     3.7220     1.2340 H     1 <1>   0.0800 
 30 H       -2.6240     1.5900     1.0970 H     1 <1>   0.0800 
 31 H       -2.1210     0.3840    -0.0630 H     1 <1>   0.0800 
 32 H       -3.1450     1.7060    -0.5730 H     1 <1>   0.0800 
 33 H       -0.0800     4.7740    -1.3230 H     1 <1>   0.0800 
 34 H       -1.8970     3.8520    -2.4370 H     1 <1>   0.1500 
 35 H       -5.3590     5.9050     0.3600 H     1 <1>   0.1500 
 36 H       -4.3540     5.2080     2.3080 H     1 <1>   0.0800 
 37 H       -2.6750     5.6430     2.2150 H     1 <1>   0.0800 
 38 H       -3.1520     3.9580     2.2800 H     1 <1>   0.0800 
 39 H       -3.8650     4.8500    -3.4700 H     1 <1>   0.1500 
 40 H       -5.6010     5.8860    -2.0680 H     1 <1>   0.1500 
 41 H        0.4250     8.9900    -0.0400 H     1 <1>   0.0800 
 42 H        0.2280     8.2210     1.5070 H     1 <1>   0.0800 
 43 H        1.6470     5.9220    -1.7610 H     1 <1>   0.0800 
 44 H        1.2670     7.6050    -2.0110 H     1 <1>   0.0800 
 45 H        2.2590     9.5950     1.4460 H     1 <1>   0.0800 
 46 H        2.6260     7.9200     1.7320 H     1 <1>   0.0800 
 47 H        3.5030     6.4750    -0.3200 H     1 <1>   0.0800 
 48 H        3.6880     7.2740    -1.8520 H     1 <1>   0.0800 
 49 H        2.8770     9.3760    -0.9170 H     1 <1>   0.0800 
 50 H        5.2770     8.8150    -0.7400 H     1 <1>   0.0800 
 51 H        5.0060     8.1530     0.8520 H     1 <1>   0.0800 
 52 H        4.3900    10.3940     1.6950 H     1 <1>   0.0800 
 53 H        4.5180    11.0520     0.0680 H     1 <1>   0.0800 
 54 H        6.5990     9.8040     1.5110 H     1 <1>   0.4000 
@<TRIPOS>BOND
  1   1   2  2   
  2   2   3  am  
  3   2   4  1   
  4   3   5  1   
  5   3   6  1   
  6   4   7  1   
  7   4  27  1   
  8   4  28  1   
  9   5   8  1   
 10   5   9  1   
 11   5  29  1   
 12   6  30  1   
 13   6  31  1   
 14   6  32  1   
 15   7   9  1   
 16   8  10  ar  
 17   8  11  ar  
 18   9  12  1   
 19   9  33  1   
 20  10  13  ar  
 21  10  14  1   
 22  11  15  ar  
 23  11  34  1   
 24  12  16  2   
 25  12  17  am  
 26  13  18  ar  
 27  13  35  1   
 28  14  36  1   
 29  14  37  1   
 30  14  38  1   
 31  15  18  ar  
 32  15  39  1   
 33  17  19  1   
 34  17  20  1   
 35  18  40  1   
 36  19  21  1   
 37  19  41  1   
 38  19  42  1   
 39  20  22  1   
 40  20  43  1   
 41  20  44  1   
 42  21  23  1   
 43  21  45  1   
 44  21  46  1   
 45  22  23  1   
 46  22  47  1   
 47  22  48  1   
 48  23  24  1   
 49  23  49  1   
 50  24  25  1   
 51  24  50  1   
 52  24  51  1   
 53  25  26  1   
 54  25  52  1   
 55  25  53  1   
 56  26  54  1   
@<TRIPOS>SUBSTRUCTURE
  1 ****  12 GROUP 4 **** **** 0

# MOE 2024.06 (io_trps.svl 2023.06)
