@<TRIPOS>MOLECULE
NONAME
51 53 1 0 0 
SMALL
USER_CHARGES


@<TRIPOS>ATOM
  1 O        1.6450    -1.4320     1.8530 O.2   1 <1>  -0.5700 
  2 C        1.7920    -1.3010     0.6580 C.2   1 <1>   0.6900 
  3 N        1.2220    -2.1400    -0.2210 N.am  1 <1>  -0.7300 
  4 N        2.5410    -0.3030     0.1910 N.am  1 <1>  -0.8000 
  5 C        0.2140    -3.1660     0.1620 C.3   1 <1>   0.2010 
  6 C       -0.6380    -3.6480    -1.0200 C.2   1 <1>   0.5690 
  7 O       -0.4730    -3.1110    -2.0960 O.2   1 <1>  -0.5700 
  8 N       -1.5510    -4.6630    -0.8580 N.am  1 <1>  -0.6600 
  9 C       -2.3350    -5.1400    -2.0380 C.3   1 <1>   0.1400 
 10 C       -1.8280    -5.3280     0.4530 C.3   1 <1>   0.1400 
 11 C       -2.8430    -6.5610    -1.8070 C.3   1 <1>  -0.1600 
 12 C       -3.3030    -5.7210     0.5620 C.3   1 <1>  -0.1600 
 13 C       -3.7980    -6.6120    -0.5990 C.3   1 <1>   0.4240 
 14 O       -5.0110    -6.0230    -1.0030 O.3   1 <1>  -0.5600 
 15 C       -4.0000    -8.0630    -0.1110 C.ar  1 <1>  -0.1430 
 16 C       -5.9430    -6.8250    -1.6610 C.3   1 <1>   0.1200 
 17 C       -5.2460    -8.6750    -0.1520 C.ar  1 <1>  -0.1430 
 18 C       -2.9290    -8.7920     0.3880 C.ar  1 <1>  -0.1500 
 19 C       -6.4310    -7.9070    -0.7030 C.3   1 <1>  -0.0170 
 20 C       -5.4100    -9.9720     0.3060 C.ar  1 <1>  -0.1500 
 21 C       -3.0690   -10.0930     0.8430 C.ar  1 <1>   0.0830 
 22 C       -4.3370   -10.6980     0.8160 C.ar  1 <1>   0.0830 
 23 O       -1.9080   -10.6560     1.2870 O.3   1 <1>  -0.3630 
 24 O       -4.5080   -11.9660     1.2940 O.3   1 <1>  -0.3620 
 25 C       -1.7280   -12.0520     1.3680 C.3   1 <1>   0.0400 
 26 C       -5.7860   -12.5290     1.4940 C.3   1 <1>   0.0400 
 27 H        1.1580    -1.8710    -1.2060 H     1 <1>   0.3700 
 28 H        3.0430     0.2690     0.8670 H     1 <1>   0.3700 
 29 H        2.8630    -0.2790    -0.7720 H     1 <1>   0.3700 
 30 H       -0.4370    -2.7480     0.9090 H     1 <1>   0.0800 
 31 H        0.7280    -4.0070     0.5900 H     1 <1>   0.0800 
 32 H       -1.7140    -5.1190    -2.9180 H     1 <1>   0.0800 
 33 H       -3.1670    -4.4740    -2.1980 H     1 <1>   0.0800 
 34 H       -1.5890    -4.6710     1.2700 H     1 <1>   0.0800 
 35 H       -1.2070    -6.2040     0.5370 H     1 <1>   0.0800 
 36 H       -1.9930    -7.1970    -1.6420 H     1 <1>   0.0800 
 37 H       -3.3340    -6.9240    -2.6890 H     1 <1>   0.0800 
 38 H       -3.8770    -4.8110     0.5940 H     1 <1>   0.0800 
 39 H       -3.4610    -6.2240     1.4970 H     1 <1>   0.0800 
 40 H       -5.4890    -7.2600    -2.5330 H     1 <1>   0.0800 
 41 H       -6.7610    -6.1970    -1.9660 H     1 <1>   0.0800 
 42 H       -1.9490    -8.3580     0.4320 H     1 <1>   0.1500 
 43 H       -7.0940    -8.5700    -1.2280 H     1 <1>   0.0800 
 44 H       -6.9750    -7.4510     0.1050 H     1 <1>   0.0800 
 45 H       -6.3910   -10.4010     0.2580 H     1 <1>   0.1500 
 46 H       -0.6780   -12.2490     1.4880 H     1 <1>   0.0800 
 47 H       -2.0870   -12.5050     0.4610 H     1 <1>   0.0800 
 48 H       -2.2670   -12.4230     2.2210 H     1 <1>   0.0800 
 49 H       -5.6580   -13.4860     1.9660 H     1 <1>   0.0800 
 50 H       -6.2660   -12.6550     0.5400 H     1 <1>   0.0800 
 51 H       -6.3570   -11.8800     2.1340 H     1 <1>   0.0800 
@<TRIPOS>BOND
  1   1   2  2   
  2   2   3  am  
  3   2   4  am  
  4   3   5  1   
  5   3  27  1   
  6   4  28  1   
  7   4  29  1   
  8   5   6  1   
  9   5  30  1   
 10   5  31  1   
 11   6   7  2   
 12   6   8  am  
 13   8   9  1   
 14   8  10  1   
 15   9  11  1   
 16   9  32  1   
 17   9  33  1   
 18  10  12  1   
 19  10  34  1   
 20  10  35  1   
 21  11  13  1   
 22  11  36  1   
 23  11  37  1   
 24  12  13  1   
 25  12  38  1   
 26  12  39  1   
 27  13  14  1   
 28  13  15  1   
 29  14  16  1   
 30  15  17  ar  
 31  15  18  ar  
 32  16  19  1   
 33  16  40  1   
 34  16  41  1   
 35  17  19  1   
 36  17  20  ar  
 37  18  21  ar  
 38  18  42  1   
 39  19  43  1   
 40  19  44  1   
 41  20  22  ar  
 42  20  45  1   
 43  21  22  ar  
 44  21  23  1   
 45  22  24  1   
 46  23  25  1   
 47  24  26  1   
 48  25  46  1   
 49  25  47  1   
 50  25  48  1   
 51  26  49  1   
 52  26  50  1   
 53  26  51  1   
@<TRIPOS>SUBSTRUCTURE
  1 ****  12 GROUP 4 **** **** 0

# MOE 2024.06 (io_trps.svl 2023.06)
