@<TRIPOS>MOLECULE
NONAME
44 46 1 0 0 
SMALL
USER_CHARGES


@<TRIPOS>ATOM
  1 N       -1.1830     0.2310    -1.2950 N.ar  1 <1>  -0.6200 
  2 C       -1.7730     0.6600    -0.1960 C.ar  1 <1>   0.4100 
  3 C       -0.2970     1.0530    -1.8220 C.ar  1 <1>   0.4700 
  4 N       -2.7260    -0.1490     0.3850 N.pl3 1 <1>  -0.8380 
  5 C       -1.4490     1.8890     0.3470 C.ar  1 <1>  -0.1500 
  6 N        0.0790     2.2450    -1.3930 N.ar  1 <1>  -0.6200 
  7 C       -2.6090    -1.6400     0.2800 C.3   1 <1>   0.2090 
  8 C       -4.1010     0.3660     0.6210 C.3   1 <1>   0.2090 
  9 C       -0.5100     2.6610    -0.2850 C.ar  1 <1>   0.1670 
 10 C       -3.4590    -2.2300    -0.8560 C.3   1 <1>   0.2090 
 11 C       -4.9110     0.3250    -0.6800 C.3   1 <1>  -0.1600 
 12 C       -0.1180     4.0280     0.2820 C.3   1 <1>   0.0640 
 13 N       -4.9210    -2.2050    -0.5230 N.pl3 1 <1>  -0.8380 
 14 C       -5.6870    -0.9820    -0.8940 C.3   1 <1>   0.2090 
 15 C       -0.4350     5.1550    -0.7110 C.3   1 <1>  -0.2400 
 16 C        1.3660     4.0620     0.6710 C.3   1 <1>  -0.2400 
 17 C       -5.5370    -3.2940     0.0570 C.ar  1 <1>   0.7200 
 18 N       -4.7500    -4.1830     0.6660 N.ar  1 <1>  -0.6200 
 19 N       -6.8640    -3.3670    -0.0400 N.ar  1 <1>  -0.6200 
 20 C       -5.3480    -5.2130     1.2120 C.ar  1 <1>   0.1600 
 21 C       -7.4340    -4.4090     0.5140 C.ar  1 <1>   0.1600 
 22 C       -6.7100    -5.3780     1.1630 C.ar  1 <1>  -0.1500 
 23 H        0.1840     0.7070    -2.7210 H     1 <1>   0.1500 
 24 H       -1.9270     2.2070     1.2500 H     1 <1>   0.1500 
 25 H       -2.9010    -2.0920     1.2120 H     1 <1>   0.0800 
 26 H       -1.5790    -1.8990     0.1070 H     1 <1>   0.0800 
 27 H       -4.0430     1.3830     0.9660 H     1 <1>   0.0800 
 28 H       -4.5850    -0.2160     1.3880 H     1 <1>   0.0800 
 29 H       -3.1490    -3.2460    -1.0260 H     1 <1>   0.0800 
 30 H       -3.2720    -1.6860    -1.7650 H     1 <1>   0.0800 
 31 H       -4.2690     0.5150    -1.5210 H     1 <1>   0.0800 
 32 H       -5.6320     1.1210    -0.6550 H     1 <1>   0.0800 
 33 H       -0.6940     4.2060     1.1740 H     1 <1>   0.0800 
 34 H       -5.9890    -1.0580    -1.9250 H     1 <1>   0.0800 
 35 H       -6.5810    -0.9310    -0.2970 H     1 <1>   0.0800 
 36 H        0.1440     5.0340    -1.6100 H     1 <1>   0.0800 
 37 H       -0.2070     6.1130    -0.2790 H     1 <1>   0.0800 
 38 H       -1.4780     5.1330    -0.9720 H     1 <1>   0.0800 
 39 H        1.9830     3.9180    -0.1980 H     1 <1>   0.0800 
 40 H        1.5790     3.2760     1.3730 H     1 <1>   0.0800 
 41 H        1.6170     5.0060     1.1210 H     1 <1>   0.0800 
 42 H       -4.7360    -5.9450     1.7110 H     1 <1>   0.1500 
 43 H       -8.5050    -4.4920     0.4470 H     1 <1>   0.1500 
 44 H       -7.1880    -6.2260     1.6130 H     1 <1>   0.1500 
@<TRIPOS>BOND
  1   1   2  ar  
  2   1   3  ar  
  3   2   4  1   
  4   2   5  ar  
  5   3   6  ar  
  6   3  23  1   
  7   4   7  1   
  8   4   8  1   
  9   5   9  ar  
 10   5  24  1   
 11   6   9  ar  
 12   7  10  1   
 13   7  25  1   
 14   7  26  1   
 15   8  11  1   
 16   8  27  1   
 17   8  28  1   
 18   9  12  1   
 19  10  13  1   
 20  10  29  1   
 21  10  30  1   
 22  11  14  1   
 23  11  31  1   
 24  11  32  1   
 25  12  15  1   
 26  12  16  1   
 27  12  33  1   
 28  13  14  1   
 29  13  17  1   
 30  14  34  1   
 31  14  35  1   
 32  15  36  1   
 33  15  37  1   
 34  15  38  1   
 35  16  39  1   
 36  16  40  1   
 37  16  41  1   
 38  17  18  ar  
 39  17  19  ar  
 40  18  20  ar  
 41  19  21  ar  
 42  20  22  ar  
 43  20  42  1   
 44  21  22  ar  
 45  21  43  1   
 46  22  44  1   
@<TRIPOS>SUBSTRUCTURE
  1 ****   4 GROUP 4 **** **** 0

# MOE 2024.06 (io_trps.svl 2023.06)
