@<TRIPOS>MOLECULE
NONAME
48 50 1 0 0 
SMALL
USER_CHARGES


@<TRIPOS>ATOM
  1 O        1.7380     2.5550    -0.4370 O.co2 1 <1>  -0.9000 
  2 C        1.7700     1.4520     0.1150 C.2   1 <1>   0.9060 
  3 O        1.6740     1.3640     1.3410 O.co2 1 <1>  -0.9000 
  4 C        2.3190     0.2440    -0.6720 C.3   1 <1>  -0.1060 
  5 C        3.6330    -0.1480     0.0330 C.3   1 <1>   0.4230 
  6 C        2.6750     0.6280    -2.1450 C.3   1 <1>  -0.1600 
  7 C        1.3300    -0.9510    -0.6940 C.3   1 <1>  -0.1600 
  8 N        3.3350    -0.6860     1.4100 N.4   1 <1>  -0.9590 
  9 C        4.6270     1.0620     0.0160 C.3   1 <1>   0.3430 
 10 C        3.8560     1.6080    -2.3230 C.3   1 <1>   0.3430 
 11 C        1.1590    -1.6040     0.6870 C.3   1 <1>  -0.1600 
 12 C        2.4950    -1.9140     1.3660 C.3   1 <1>   0.3430 
 13 C        4.4860    -0.8280     2.3490 C.3   1 <1>   0.2630 
 14 N        4.3080     2.1330    -1.0090 N.4   1 <1>  -0.9590 
 15 C        5.2740     3.2600    -1.0930 C.3   1 <1>   0.5240 
 16 C        5.8260     3.5570     0.2830 C.2   1 <1>  -0.1810 
 17 C        7.0830     3.4200     0.7360 C.2   1 <1>  -0.0400 
 18 C        5.1240     4.0110     1.4030 C.2   1 <1>   0.1080 
 19 O        7.0880     3.7410     2.0000 O.3   1 <1>  -0.0190 
 20 C        8.3850     2.9890     0.0890 C.3   1 <1>  -0.0600 
 21 N        5.9080     4.0920     2.4160 N.2   1 <1>  -0.4100 
 22 C        3.6500     4.3670     1.4850 C.3   1 <1>  -0.0590 
 23 H        4.0860    -0.9400    -0.5380 H     1 <1>   0.0800 
 24 H        1.8050     1.0690    -2.6050 H     1 <1>   0.0800 
 25 H        2.8990    -0.2550    -2.7180 H     1 <1>   0.0800 
 26 H        0.3690    -0.6150    -1.0490 H     1 <1>   0.0800 
 27 H        1.6810    -1.7040    -1.3780 H     1 <1>   0.0800 
 28 H        2.6830     0.0520     1.7990 H     1 <1>   0.4500 
 29 H        5.6230     0.6920    -0.1510 H     1 <1>   0.0800 
 30 H        4.5990     1.5190     0.9920 H     1 <1>   0.0800 
 31 H        3.5340     2.4260    -2.9490 H     1 <1>   0.0800 
 32 H        4.6720     1.1060    -2.8170 H     1 <1>   0.0800 
 33 H        0.5980    -2.5160     0.5830 H     1 <1>   0.0800 
 34 H        0.5830    -0.9580     1.3280 H     1 <1>   0.0800 
 35 H        3.0080    -2.6910     0.8240 H     1 <1>   0.0800 
 36 H        2.3050    -2.2640     2.3680 H     1 <1>   0.0800 
 37 H        5.1970    -1.5450     1.9710 H     1 <1>   0.0800 
 38 H        4.1350    -1.1660     3.3110 H     1 <1>   0.0800 
 39 H        4.9800     0.1200     2.4900 H     1 <1>   0.0800 
 40 H        3.4260     2.5900    -0.6510 H     1 <1>   0.4500 
 41 H        6.0860     2.9980    -1.7490 H     1 <1>   0.0800 
 42 H        4.7840     4.1370    -1.4860 H     1 <1>   0.0800 
 43 H        8.2440     2.7510    -0.9480 H     1 <1>   0.0800 
 44 H        8.7790     2.1280     0.5980 H     1 <1>   0.0800 
 45 H        9.1040     3.7860     0.1660 H     1 <1>   0.0800 
 46 H        3.2530     4.6280     0.5220 H     1 <1>   0.0800 
 47 H        3.5170     5.2060     2.1440 H     1 <1>   0.0800 
 48 H        3.0890     3.5400     1.8800 H     1 <1>   0.0800 
@<TRIPOS>BOND
  1   1   2  ar  
  2   2   3  ar  
  3   2   4  1   
  4   4   5  1   
  5   4   6  1   
  6   4   7  1   
  7   5   8  1   
  8   5   9  1   
  9   5  23  1   
 10   6  10  1   
 11   6  24  1   
 12   6  25  1   
 13   7  11  1   
 14   7  26  1   
 15   7  27  1   
 16   8  12  1   
 17   8  13  1   
 18   8  28  1   
 19   9  14  1   
 20   9  29  1   
 21   9  30  1   
 22  10  14  1   
 23  10  31  1   
 24  10  32  1   
 25  11  12  1   
 26  11  33  1   
 27  11  34  1   
 28  12  35  1   
 29  12  36  1   
 30  13  37  1   
 31  13  38  1   
 32  13  39  1   
 33  14  15  1   
 34  14  40  1   
 35  15  16  1   
 36  15  41  1   
 37  15  42  1   
 38  16  17  2   
 39  16  18  1   
 40  17  19  1   
 41  17  20  1   
 42  18  21  2   
 43  18  22  1   
 44  19  21  1   
 45  20  43  1   
 46  20  44  1   
 47  20  45  1   
 48  22  46  1   
 49  22  47  1   
 50  22  48  1   
@<TRIPOS>SUBSTRUCTURE
  1 ****   9 GROUP 4 **** **** 0

# MOE 2024.06 (io_trps.svl 2023.06)
