@<TRIPOS>MOLECULE
NONAME
54 57 1 0 0 
SMALL
USER_CHARGES


@<TRIPOS>ATOM
  1 O        0.8780     1.0880    -0.9020 O.3   1 <1>  -0.6800 
  2 C        0.4350     2.1530    -0.1450 C.3   1 <1>   0.2000 
  3 C       -0.4620     3.0350    -1.0120 C.3   1 <1>  -0.1600 
  4 C        1.6550     2.9260     0.3510 C.3   1 <1>  -0.1600 
  5 C       -0.8860     4.2840    -0.2390 C.3   1 <1>   0.2090 
  6 C        1.2190     4.1740     1.1190 C.3   1 <1>   0.2090 
  7 N        0.3180     4.9960     0.2700 N.pl3 1 <1>  -0.8380 
  8 C        0.2350     6.3510     0.5290 C.ar  1 <1>   0.4100 
  9 N       -0.9360     6.8350     0.9010 N.ar  1 <1>  -0.6200 
 10 C        1.3340     7.1690     0.4150 C.ar  1 <1>  -0.1500 
 11 C       -0.9570     8.1280     1.1520 C.ar  1 <1>   0.4700 
 12 C        1.2000     8.5050     0.7130 C.ar  1 <1>   0.4100 
 13 N        0.0310     8.9980     1.0850 N.ar  1 <1>  -0.6200 
 14 N        2.2710     9.3780     0.6420 N.pl3 1 <1>  -0.8380 
 15 C        2.0120    10.8420     0.5310 C.3   1 <1>   0.3900 
 16 C        3.5830     8.9990     1.2410 C.3   1 <1>   0.1290 
 17 C        3.1920    11.5460    -0.1180 C.2   1 <1>  -0.1810 
 18 C        3.7080    11.2600    -1.3750 C.2   1 <1>   0.1390 
 19 C        3.9710    12.5470     0.3450 C.2   1 <1>  -0.3020 
 20 N        4.7200    12.0140    -1.6740 N.2   1 <1>  -0.7070 
 21 N        4.8940    12.8330    -0.6070 N.pl3 1 <1>   0.5930 
 22 C        5.9350    13.7980    -0.5110 C.ar  1 <1>  -0.0230 
 23 C        5.6730    15.1700    -0.4500 C.ar  1 <1>  -0.1440 
 24 C        7.2560    13.3610    -0.4710 C.ar  1 <1>  -0.1500 
 25 C        6.7250    16.0640    -0.3280 C.ar  1 <1>  -0.1500 
 26 C        4.2510    15.7120    -0.5260 C.3   1 <1>  -0.0970 
 27 C        8.2990    14.2600    -0.3520 C.ar  1 <1>  -0.1500 
 28 C        8.0330    15.6150    -0.2770 C.ar  1 <1>  -0.1500 
 29 H        0.1220     0.6030    -1.2800 H     1 <1>   0.4000 
 30 H       -0.1200     1.7610     0.6910 H     1 <1>   0.0800 
 31 H       -1.3410     2.4930    -1.3080 H     1 <1>   0.0800 
 32 H        0.0700     3.3450    -1.8940 H     1 <1>   0.0800 
 33 H        2.2620     3.2280    -0.4830 H     1 <1>   0.0800 
 34 H        2.2430     2.2990     0.9970 H     1 <1>   0.0800 
 35 H       -1.5150     4.0160     0.5930 H     1 <1>   0.0800 
 36 H       -1.4450     4.9380    -0.8880 H     1 <1>   0.0800 
 37 H        2.0850     4.7450     1.4050 H     1 <1>   0.0800 
 38 H        0.6920     3.8890     2.0140 H     1 <1>   0.0800 
 39 H        2.2690     6.7700     0.0860 H     1 <1>   0.1500 
 40 H       -1.9100     8.5270     1.4530 H     1 <1>   0.1500 
 41 H        1.8350    11.2460     1.5120 H     1 <1>   0.0800 
 42 H        1.1340    11.0110    -0.0680 H     1 <1>   0.0800 
 43 H        3.5240     8.0310     1.7080 H     1 <1>   0.0800 
 44 H        3.8700     9.7180     1.9890 H     1 <1>   0.0800 
 45 H        4.3370     8.9720     0.4740 H     1 <1>   0.0800 
 46 H        3.3170    10.4940    -2.0250 H     1 <1>   0.1500 
 47 H        3.9400    13.0740     1.2790 H     1 <1>   0.1500 
 48 H        7.4640    12.3070    -0.5360 H     1 <1>   0.1500 
 49 H        6.5350    17.1220    -0.2750 H     1 <1>   0.1500 
 50 H        3.7190    15.2490    -1.3380 H     1 <1>   0.0800 
 51 H        4.2540    16.7740    -0.6950 H     1 <1>   0.0800 
 52 H        3.7300    15.5150     0.3930 H     1 <1>   0.0800 
 53 H        9.3150    13.9070    -0.3200 H     1 <1>   0.1500 
 54 H        8.8410    16.3180    -0.1830 H     1 <1>   0.1500 
@<TRIPOS>BOND
  1   1   2  1   
  2   1  29  1   
  3   2   3  1   
  4   2   4  1   
  5   2  30  1   
  6   3   5  1   
  7   3  31  1   
  8   3  32  1   
  9   4   6  1   
 10   4  33  1   
 11   4  34  1   
 12   5   7  1   
 13   5  35  1   
 14   5  36  1   
 15   6   7  1   
 16   6  37  1   
 17   6  38  1   
 18   7   8  1   
 19   8   9  ar  
 20   8  10  ar  
 21   9  11  ar  
 22  10  12  ar  
 23  10  39  1   
 24  11  13  ar  
 25  11  40  1   
 26  12  13  ar  
 27  12  14  1   
 28  14  15  1   
 29  14  16  1   
 30  15  17  1   
 31  15  41  1   
 32  15  42  1   
 33  16  43  1   
 34  16  44  1   
 35  16  45  1   
 36  17  18  1   
 37  17  19  2   
 38  18  20  2   
 39  18  46  1   
 40  19  21  1   
 41  19  47  1   
 42  20  21  1   
 43  21  22  1   
 44  22  23  ar  
 45  22  24  ar  
 46  23  25  ar  
 47  23  26  1   
 48  24  27  ar  
 49  24  48  1   
 50  25  28  ar  
 51  25  49  1   
 52  26  50  1   
 53  26  51  1   
 54  26  52  1   
 55  27  28  ar  
 56  27  53  1   
 57  28  54  1   
@<TRIPOS>SUBSTRUCTURE
  1 ****  14 GROUP 4 **** **** 0

# MOE 2024.06 (io_trps.svl 2023.06)
