@<TRIPOS>MOLECULE
NONAME
29 29 1 0 0 
SMALL
USER_CHARGES


@<TRIPOS>ATOM
  1 O       -0.1580    -1.7840    -1.8360 O.2   1 <1>  -0.5700 
  2 C        0.0030    -2.0060    -0.6620 C.2   1 <1>   0.5690 
  3 N       -0.9240    -1.6810     0.2750 N.am  1 <1>  -0.7300 
  4 C        1.2910    -2.6600    -0.2130 C.3   1 <1>  -0.0990 
  5 C       -2.2270    -1.0530    -0.0080 C.3   1 <1>   0.1400 
  6 C        2.4430    -1.6500    -0.1900 C.3   1 <1>  -0.0170 
  7 C       -3.3100    -1.8230     0.7380 C.3   1 <1>  -0.2400 
  8 C        3.7260    -2.3150     0.2800 C.ar  1 <1>  -0.1440 
  9 C        4.0930    -2.2700     1.6170 C.ar  1 <1>  -0.1500 
 10 C        4.5400    -2.9760    -0.6300 C.ar  1 <1>  -0.1500 
 11 C        5.2620    -2.8780     2.0420 C.ar  1 <1>  -0.1500 
 12 C        5.7100    -3.5860    -0.2100 C.ar  1 <1>  -0.1500 
 13 C        6.0660    -3.5340     1.1280 C.ar  1 <1>   0.0820 
 14 O        7.1970    -4.1180     1.5500 O.3   1 <1>  -0.5330 
 15 H       -0.7390    -1.8840     1.2580 H     1 <1>   0.3700 
 16 H        1.5250    -3.4550    -0.8980 H     1 <1>   0.0800 
 17 H        1.1620    -3.0900     0.7620 H     1 <1>   0.0800 
 18 H       -2.4250    -1.0730    -1.0680 H     1 <1>   0.0800 
 19 H       -2.2070    -0.0260     0.3160 H     1 <1>   0.0800 
 20 H        2.1960    -0.8310     0.4640 H     1 <1>   0.0800 
 21 H        2.5850    -1.2440    -1.1770 H     1 <1>   0.0800 
 22 H       -3.3290    -2.8470     0.4100 H     1 <1>   0.0800 
 23 H       -4.2700    -1.3840     0.5320 H     1 <1>   0.0800 
 24 H       -3.1400    -1.7850     1.7990 H     1 <1>   0.0800 
 25 H        3.4730    -1.7610     2.3340 H     1 <1>   0.1500 
 26 H        4.2630    -3.0170    -1.6690 H     1 <1>   0.1500 
 27 H        5.5540    -2.8470     3.0760 H     1 <1>   0.1500 
 28 H        6.3320    -4.0940    -0.9220 H     1 <1>   0.1500 
 29 H        7.6960    -4.5460     0.8320 H     1 <1>   0.4500 
@<TRIPOS>BOND
  1   1   2  2   
  2   2   3  am  
  3   2   4  1   
  4   3   5  1   
  5   3  15  1   
  6   4   6  1   
  7   4  16  1   
  8   4  17  1   
  9   5   7  1   
 10   5  18  1   
 11   5  19  1   
 12   6   8  1   
 13   6  20  1   
 14   6  21  1   
 15   7  22  1   
 16   7  23  1   
 17   7  24  1   
 18   8   9  ar  
 19   8  10  ar  
 20   9  11  ar  
 21   9  25  1   
 22  10  12  ar  
 23  10  26  1   
 24  11  13  ar  
 25  11  27  1   
 26  12  13  ar  
 27  12  28  1   
 28  13  14  1   
 29  14  29  1   
@<TRIPOS>SUBSTRUCTURE
  1 ****   6 GROUP 4 **** **** 0

# MOE 2024.06 (io_trps.svl 2023.06)
