@<TRIPOS>MOLECULE
NONAME
56 59 1 0 0 
SMALL
USER_CHARGES


@<TRIPOS>ATOM
  1 O       -0.3300    -0.0560     0.2470 O.2   1 <1>  -0.5700 
  2 C       -0.3550    -1.1660     0.7380 C.2   1 <1>   0.5440 
  3 N       -1.3060    -1.3740     1.6750 N.am  1 <1>  -0.8000 
  4 C        0.5930    -2.1880     0.3510 C.ar  1 <1>   0.0860 
  5 C        0.2990    -3.5700     0.3800 C.ar  1 <1>   0.4100 
  6 C        1.8660    -1.8130    -0.0600 C.ar  1 <1>  -0.1500 
  7 N        1.1890    -4.5180     0.0790 N.ar  1 <1>  -0.6200 
  8 N       -0.9640    -4.0520     0.6930 N.pl3 1 <1>  -0.8380 
  9 C        2.7730    -2.7940    -0.3850 C.ar  1 <1>  -0.1500 
 10 C        2.3870    -4.1170    -0.2920 C.ar  1 <1>   0.1600 
 11 C       -2.0510    -3.8560    -0.3230 C.3   1 <1>   0.2090 
 12 C       -1.1090    -5.3360     1.4590 C.3   1 <1>   0.2090 
 13 C       -2.2070    -5.0820    -1.2420 C.3   1 <1>   0.2090 
 14 C       -1.3050    -6.5600     0.5380 C.3   1 <1>   0.2090 
 15 N       -2.4080    -6.3400    -0.4540 N.pl3 1 <1>  -0.8380 
 16 C       -3.6180    -6.9420    -0.3530 C.ar  1 <1>   0.4100 
 17 N       -4.6460    -6.1330    -0.1890 N.ar  1 <1>  -0.6200 
 18 C       -3.7640    -8.3540    -0.4110 C.ar  1 <1>  -0.1430 
 19 C       -5.8400    -6.6720    -0.0160 C.ar  1 <1>   0.7710 
 20 C       -5.0080    -8.8730    -0.2060 C.ar  1 <1>   0.2180 
 21 C       -2.5520    -9.2350    -0.7360 C.3   1 <1>  -0.0970 
 22 N       -6.0230    -7.9990    -0.0100 N.ar  1 <1>  -0.1790 
 23 N       -6.9120    -5.8620     0.1630 N.pl3 1 <1>  -0.8380 
 24 C       -5.3720   -10.3530    -0.1860 C.3   1 <1>  -0.0970 
 25 C       -8.3280    -6.2380     0.4300 C.3   1 <1>   0.2090 
 26 C       -6.7790    -4.3780     0.1350 C.3   1 <1>   0.2090 
 27 C       -9.0080    -4.9430     0.8510 C.3   1 <1>  -0.1600 
 28 C       -8.2050    -3.8470     0.1620 C.3   1 <1>  -0.1600 
 29 H       -1.9840    -0.6440     1.8860 H     1 <1>   0.3700 
 30 H       -1.5210    -2.3350     1.9590 H     1 <1>   0.3700 
 31 H        2.1320    -0.7700    -0.1160 H     1 <1>   0.1500 
 32 H        3.7680    -2.5400    -0.7030 H     1 <1>   0.1500 
 33 H        3.1040    -4.8820    -0.5400 H     1 <1>   0.1500 
 34 H       -1.8370    -2.9920    -0.9270 H     1 <1>   0.0800 
 35 H       -2.9830    -3.6810     0.1850 H     1 <1>   0.0800 
 36 H       -1.9580    -5.2560     2.1140 H     1 <1>   0.0800 
 37 H       -0.2380    -5.4910     2.0720 H     1 <1>   0.0800 
 38 H       -1.3200    -5.1810    -1.8430 H     1 <1>   0.0800 
 39 H       -3.0390    -4.9260    -1.9070 H     1 <1>   0.0800 
 40 H       -1.5200    -7.4170     1.1500 H     1 <1>   0.0800 
 41 H       -0.3860    -6.7500     0.0100 H     1 <1>   0.0800 
 42 H       -1.8600    -8.7100    -1.3710 H     1 <1>   0.0800 
 43 H       -2.8350   -10.1250    -1.2650 H     1 <1>   0.0800 
 44 H       -2.0390    -9.5160     0.1670 H     1 <1>   0.0800 
 45 H       -6.9770    -8.3010     0.1280 H     1 <1>   0.4570 
 46 H       -4.5050   -10.9740    -0.0550 H     1 <1>   0.0800 
 47 H       -5.8510   -10.6290    -1.1090 H     1 <1>   0.0800 
 48 H       -6.0400   -10.5660     0.6300 H     1 <1>   0.0800 
 49 H       -8.4080    -6.9760     1.2110 H     1 <1>   0.0800 
 50 H       -8.7810    -6.6040    -0.4780 H     1 <1>   0.0800 
 51 H       -6.2560    -4.0470    -0.7470 H     1 <1>   0.0800 
 52 H       -6.2420    -4.0530     1.0120 H     1 <1>   0.0800 
 53 H       -8.9310    -4.8340     1.9190 H     1 <1>   0.0800 
 54 H      -10.0480    -4.9250     0.5730 H     1 <1>   0.0800 
 55 H       -8.5510    -3.7170    -0.8490 H     1 <1>   0.0800 
 56 H       -8.2710    -2.9050     0.6760 H     1 <1>   0.0800 
@<TRIPOS>BOND
  1   1   2  2   
  2   2   3  am  
  3   2   4  1   
  4   3  29  1   
  5   3  30  1   
  6   4   5  ar  
  7   4   6  ar  
  8   5   7  ar  
  9   5   8  1   
 10   6   9  ar  
 11   6  31  1   
 12   7  10  ar  
 13   8  11  1   
 14   8  12  1   
 15   9  10  ar  
 16   9  32  1   
 17  10  33  1   
 18  11  13  1   
 19  11  34  1   
 20  11  35  1   
 21  12  14  1   
 22  12  36  1   
 23  12  37  1   
 24  13  15  1   
 25  13  38  1   
 26  13  39  1   
 27  14  15  1   
 28  14  40  1   
 29  14  41  1   
 30  15  16  1   
 31  16  17  ar  
 32  16  18  ar  
 33  17  19  ar  
 34  18  20  ar  
 35  18  21  1   
 36  19  22  ar  
 37  19  23  1   
 38  20  22  ar  
 39  20  24  1   
 40  21  42  1   
 41  21  43  1   
 42  21  44  1   
 43  22  45  1   
 44  23  25  1   
 45  23  26  1   
 46  24  46  1   
 47  24  47  1   
 48  24  48  1   
 49  25  27  1   
 50  25  49  1   
 51  25  50  1   
 52  26  28  1   
 53  26  51  1   
 54  26  52  1   
 55  27  28  1   
 56  27  53  1   
 57  27  54  1   
 58  28  55  1   
 59  28  56  1   
@<TRIPOS>SUBSTRUCTURE
  1 ****  15 GROUP 4 **** **** 0

# MOE 2024.06 (io_trps.svl 2023.06)
