@<TRIPOS>MOLECULE
NONAME
45 46 1 0 0 
SMALL
USER_CHARGES


@<TRIPOS>ATOM
  1 O        1.3810    -1.0590    -2.0070 O.2   1 <1>  -0.5700 
  2 C        1.8020    -1.3030    -0.9000 C.2   1 <1>   0.5690 
  3 N        2.1840    -0.3400    -0.0040 N.am  1 <1>  -0.4940 
  4 C        1.9210    -2.7710    -0.4710 C.3   1 <1>   0.1710 
  5 C        2.2300     1.0730    -0.0890 C.2   1 <1>  -0.0880 
  6 N        0.7420    -3.3380     0.2410 N.3   1 <1>  -0.8100 
  7 N        1.4150     1.9030    -0.8030 N.pl3 1 <1>   0.3140 
  8 C        3.1000     1.8760     0.5710 C.2   1 <1>  -0.1810 
  9 C       -0.4500    -3.3420    -0.6310 C.3   1 <1>   0.2530 
 10 C        0.4800    -2.6820     1.5330 C.3   1 <1>   0.0300 
 11 N        1.7410     3.1990    -0.6080 N.2   1 <1>  -0.7070 
 12 C        0.2470     1.5760    -1.6300 C.3   1 <1>   0.0160 
 13 C        2.7470     3.1730     0.2060 C.2   1 <1>   0.1080 
 14 C        4.2330     1.4880     1.5060 C.3   1 <1>  -0.0590 
 15 C       -1.5810    -4.1510    -0.0170 C.ar  1 <1>  -0.1430 
 16 C        3.4280     4.4470     0.6760 C.3   1 <1>   0.0210 
 17 C       -1.3470    -5.4320     0.4640 C.ar  1 <1>   0.1600 
 18 C       -2.8580    -3.6330     0.0700 C.ar  1 <1>  -0.1500 
 19 C        4.5700     4.8430    -0.2650 C.3   1 <1>  -0.2400 
 20 N       -2.2640    -6.2190     1.0080 N.ar  1 <1>  -0.6200 
 21 C       -3.8240    -4.4380     0.6350 C.ar  1 <1>  -0.1500 
 22 C       -3.4790    -5.7030     1.0800 C.ar  1 <1>   0.1600 
 23 H        2.5640    -0.7050     0.8680 H     1 <1>   0.3700 
 24 H        2.7880    -2.8800     0.1550 H     1 <1>   0.0800 
 25 H        2.1020    -3.3580    -1.3550 H     1 <1>   0.0800 
 26 H       -0.1960    -3.7830    -1.5810 H     1 <1>   0.0800 
 27 H       -0.7750    -2.3320    -0.8120 H     1 <1>   0.0800 
 28 H        1.3720    -2.6820     2.1350 H     1 <1>   0.0800 
 29 H       -0.2820    -3.2200     2.0720 H     1 <1>   0.0800 
 30 H        0.1460    -1.6680     1.3870 H     1 <1>   0.0800 
 31 H       -0.2950     0.7680    -1.1780 H     1 <1>   0.0800 
 32 H        0.5820     1.2930    -2.6100 H     1 <1>   0.0800 
 33 H       -0.3870     2.4400    -1.7020 H     1 <1>   0.0800 
 34 H        4.3780     0.4240     1.5120 H     1 <1>   0.0800 
 35 H        4.0100     1.8160     2.5050 H     1 <1>   0.0800 
 36 H        5.1470     1.9520     1.1820 H     1 <1>   0.0800 
 37 H        3.8030     4.3110     1.6730 H     1 <1>   0.0800 
 38 H        2.6970     5.2360     0.7030 H     1 <1>   0.0800 
 39 H       -0.3470    -5.8250     0.3980 H     1 <1>   0.1500 
 40 H       -3.0960    -2.6460    -0.2860 H     1 <1>   0.1500 
 41 H        5.3100     4.0650    -0.3020 H     1 <1>   0.0800 
 42 H        5.0320     5.7530     0.0730 H     1 <1>   0.0800 
 43 H        4.1830     4.9960    -1.2570 H     1 <1>   0.0800 
 44 H       -4.8380    -4.0930     0.7310 H     1 <1>   0.1500 
 45 H       -4.2420    -6.3220     1.5180 H     1 <1>   0.1500 
@<TRIPOS>BOND
  1   1   2  2   
  2   2   3  am  
  3   2   4  1   
  4   3   5  1   
  5   3  23  1   
  6   4   6  1   
  7   4  24  1   
  8   4  25  1   
  9   5   7  1   
 10   5   8  2   
 11   6   9  1   
 12   6  10  1   
 13   7  11  1   
 14   7  12  1   
 15   8  13  1   
 16   8  14  1   
 17   9  15  1   
 18   9  26  1   
 19   9  27  1   
 20  10  28  1   
 21  10  29  1   
 22  10  30  1   
 23  11  13  2   
 24  12  31  1   
 25  12  32  1   
 26  12  33  1   
 27  13  16  1   
 28  14  34  1   
 29  14  35  1   
 30  14  36  1   
 31  15  17  ar  
 32  15  18  ar  
 33  16  19  1   
 34  16  37  1   
 35  16  38  1   
 36  17  20  ar  
 37  17  39  1   
 38  18  21  ar  
 39  18  40  1   
 40  19  41  1   
 41  19  42  1   
 42  19  43  1   
 43  20  22  ar  
 44  21  22  ar  
 45  21  44  1   
 46  22  45  1   
@<TRIPOS>SUBSTRUCTURE
  1 ****   2 GROUP 4 **** **** 0

# MOE 2024.06 (io_trps.svl 2023.06)
