@<TRIPOS>MOLECULE
NONAME
51 54 1 0 0 
SMALL
USER_CHARGES


@<TRIPOS>ATOM
  1 O        5.1900    -2.7580     0.2730 O.2   1 <1>  -0.5700 
  2 C        4.3480    -2.3710    -0.5070 C.2   1 <1>   0.5690 
  3 N        4.6550    -1.3400    -1.3650 N.am  1 <1>  -0.6600 
  4 C        2.9480    -2.9940    -0.4640 C.3   1 <1>   0.2610 
  5 C        6.0660    -0.8420    -1.4560 C.3   1 <1>   0.1400 
  6 C        3.6550    -0.4830    -2.0590 C.3   1 <1>   0.1400 
  7 O        2.0330    -2.0540     0.0960 O.3   1 <1>  -0.3630 
  8 C        2.9010    -4.3040     0.3390 C.3   1 <1>   0.1200 
  9 C        6.4260     0.0380    -0.2430 C.3   1 <1>   0.3430 
 10 C        3.2860     0.7330    -1.1920 C.3   1 <1>  -0.1600 
 11 C        0.8180    -2.5270     0.4720 C.ar  1 <1>   0.0820 
 12 O        1.5770    -4.8020     0.3840 O.3   1 <1>  -0.3630 
 13 N        5.2150     0.6820     0.3690 N.4   1 <1>  -0.9590 
 14 C        4.4620     1.5240    -0.6040 C.3   1 <1>   0.3430 
 15 C        0.5880    -3.8990     0.6030 C.ar  1 <1>   0.0820 
 16 C       -0.2040    -1.6270     0.7210 C.ar  1 <1>  -0.1500 
 17 C        5.5750     1.4210     1.6190 C.3   1 <1>   0.5230 
 18 C       -0.6660    -4.3560     0.9670 C.ar  1 <1>  -0.1500 
 19 C       -1.4560    -2.0910     1.0900 C.ar  1 <1>  -0.1500 
 20 C        6.2710     2.7360     1.3030 C.2   1 <1>  -0.0400 
 21 C       -1.6880    -3.4520     1.2100 C.ar  1 <1>  -0.1500 
 22 O        7.4170     2.7220     0.6470 O.3   1 <1>  -0.2800 
 23 C        5.9080     4.0060     1.5870 C.2   1 <1>  -0.1500 
 24 C        7.8110     3.9700     0.5000 C.2   1 <1>  -0.0400 
 25 C        6.9200     4.8160     1.0580 C.2   1 <1>  -0.1500 
 26 C        9.1140     4.2480    -0.2180 C.3   1 <1>  -0.0600 
 27 H        2.6300    -3.1980    -1.4700 H     1 <1>   0.0800 
 28 H        6.2010    -0.2780    -2.3620 H     1 <1>   0.0800 
 29 H        6.7450    -1.6770    -1.4980 H     1 <1>   0.0800 
 30 H        2.7660    -1.0470    -2.2840 H     1 <1>   0.0800 
 31 H        4.0630    -0.1510    -3.0000 H     1 <1>   0.0800 
 32 H        3.2320    -4.1420     1.3500 H     1 <1>   0.0800 
 33 H        3.5220    -5.0540    -0.1160 H     1 <1>   0.0800 
 34 H        7.1450     0.7820    -0.5440 H     1 <1>   0.0800 
 35 H        6.8980    -0.5930     0.4930 H     1 <1>   0.0800 
 36 H        2.6350     0.4240    -0.3940 H     1 <1>   0.0800 
 37 H        2.7100     1.4040    -1.8050 H     1 <1>   0.0800 
 38 H        4.6040    -0.1100     0.6170 H     1 <1>   0.4500 
 39 H        4.0710     2.3950    -0.1020 H     1 <1>   0.0800 
 40 H        5.1190     1.8660    -1.3880 H     1 <1>   0.0800 
 41 H       -0.0240    -0.5730     0.6250 H     1 <1>   0.1500 
 42 H        6.2220     0.8140     2.2310 H     1 <1>   0.0800 
 43 H        4.6810     1.6300     2.1830 H     1 <1>   0.0800 
 44 H       -0.8350    -5.4140     1.0610 H     1 <1>   0.1500 
 45 H       -2.2540    -1.3940     1.2830 H     1 <1>   0.1500 
 46 H       -2.6620    -3.8090     1.4950 H     1 <1>   0.1500 
 47 H        5.0420     4.3760     2.1100 H     1 <1>   0.1500 
 48 H        6.9530     5.8910     1.1080 H     1 <1>   0.1500 
 49 H        9.0700     3.8680    -1.2220 H     1 <1>   0.0800 
 50 H        9.9260     3.7710     0.3020 H     1 <1>   0.0800 
 51 H        9.3000     5.3060    -0.2530 H     1 <1>   0.0800 
@<TRIPOS>BOND
  1   1   2  2   
  2   2   3  am  
  3   2   4  1   
  4   3   5  1   
  5   3   6  1   
  6   4   7  1   
  7   4   8  1   
  8   4  27  1   
  9   5   9  1   
 10   5  28  1   
 11   5  29  1   
 12   6  10  1   
 13   6  30  1   
 14   6  31  1   
 15   7  11  1   
 16   8  12  1   
 17   8  32  1   
 18   8  33  1   
 19   9  13  1   
 20   9  34  1   
 21   9  35  1   
 22  10  14  1   
 23  10  36  1   
 24  10  37  1   
 25  11  15  ar  
 26  11  16  ar  
 27  12  15  1   
 28  13  14  1   
 29  13  17  1   
 30  13  38  1   
 31  14  39  1   
 32  14  40  1   
 33  15  18  ar  
 34  16  19  ar  
 35  16  41  1   
 36  17  20  1   
 37  17  42  1   
 38  17  43  1   
 39  18  21  ar  
 40  18  44  1   
 41  19  21  ar  
 42  19  45  1   
 43  20  22  1   
 44  20  23  2   
 45  21  46  1   
 46  22  24  1   
 47  23  25  1   
 48  23  47  1   
 49  24  25  2   
 50  24  26  1   
 51  25  48  1   
 52  26  49  1   
 53  26  50  1   
 54  26  51  1   
@<TRIPOS>SUBSTRUCTURE
  1 ****  13 GROUP 4 **** **** 0

# MOE 2024.06 (io_trps.svl 2023.06)
