@<TRIPOS>MOLECULE
NONAME
50 53 1 0 0 
SMALL
USER_CHARGES


@<TRIPOS>ATOM
  1 F        0.2380    -0.4620     0.3900 F     1 <1>  -0.1900 
  2 C        0.1460    -1.7630     0.3600 C.ar  1 <1>   0.1900 
  3 C       -0.7230    -2.3910     1.2310 C.ar  1 <1>  -0.1500 
  4 C        0.9200    -2.4680    -0.5410 C.ar  1 <1>  -0.1500 
  5 C       -0.8160    -3.7720     1.1930 C.ar  1 <1>  -0.1500 
  6 C        0.8140    -3.8480    -0.5660 C.ar  1 <1>  -0.1500 
  7 C       -0.0520    -4.5220     0.2970 C.ar  1 <1>   0.0000 
  8 C       -0.1550    -5.9620     0.2620 C.ar  1 <1>   0.0000 
  9 C       -0.5170    -6.6300    -0.9030 C.ar  1 <1>  -0.1500 
 10 C        0.1130    -6.7310     1.3900 C.ar  1 <1>  -0.1500 
 11 C       -0.6140    -8.0090    -0.9360 C.ar  1 <1>  -0.1500 
 12 C        0.0150    -8.1090     1.3570 C.ar  1 <1>  -0.1500 
 13 C       -0.3610    -8.7820     0.1960 C.ar  1 <1>   0.0860 
 14 C       -0.4830   -10.2270     0.1760 C.2   1 <1>   0.5440 
 15 O        0.4800   -10.9040     0.4870 O.2   1 <1>  -0.5700 
 16 N       -1.6610   -10.8620    -0.1720 N.am  1 <1>  -0.6600 
 17 C       -2.9730   -10.1470    -0.1520 C.3   1 <1>   0.2200 
 18 C       -1.6630   -12.3410    -0.3930 C.3   1 <1>   0.0600 
 19 C       -4.0350   -10.8070     0.7260 C.3   1 <1>  -0.1600 
 20 C       -3.6270   -10.0510    -1.5270 C.3   1 <1>  -0.1600 
 21 C       -5.3610   -10.2310     0.2140 C.3   1 <1>  -0.0800 
 22 C       -5.1020    -9.7560    -1.2280 C.3   1 <1>  -0.0800 
 23 C       -5.8340    -8.9980     0.9980 C.3   1 <1>  -0.1600 
 24 C       -5.4420    -8.2580    -1.2590 C.3   1 <1>  -0.1600 
 25 C       -6.3590    -8.0470    -0.0650 C.3   1 <1>   0.2000 
 26 O       -6.2710    -6.7460     0.3760 O.3   1 <1>  -0.6800 
 27 H       -1.3090    -1.8090     1.9190 H     1 <1>   0.1500 
 28 H        1.5870    -1.9440    -1.2020 H     1 <1>   0.1500 
 29 H       -1.4890    -4.2790     1.8620 H     1 <1>   0.1500 
 30 H        1.4130    -4.4150    -1.2570 H     1 <1>   0.1500 
 31 H       -0.7240    -6.0590    -1.7920 H     1 <1>   0.1500 
 32 H        0.4100    -6.2400     2.3010 H     1 <1>   0.1500 
 33 H       -0.8850    -8.5050    -1.8510 H     1 <1>   0.1500 
 34 H        0.2350    -8.6870     2.2380 H     1 <1>   0.1500 
 35 H       -2.8400    -9.1460     0.2200 H     1 <1>   0.0800 
 36 H       -2.4280   -12.6260    -1.0920 H     1 <1>   0.0800 
 37 H       -1.8310   -12.8440     0.5430 H     1 <1>   0.0800 
 38 H       -0.7120   -12.6580    -0.7850 H     1 <1>   0.0800 
 39 H       -4.0530   -11.8700     0.5710 H     1 <1>   0.0800 
 40 H       -3.8700   -10.6050     1.7690 H     1 <1>   0.0800 
 41 H       -3.1730    -9.2920    -2.1370 H     1 <1>   0.0800 
 42 H       -3.5610   -10.9950    -2.0370 H     1 <1>   0.0800 
 43 H       -6.1320   -10.9840     0.2240 H     1 <1>   0.0800 
 44 H       -5.7420   -10.2870    -1.9140 H     1 <1>   0.0800 
 45 H       -5.0070    -8.5450     1.5150 H     1 <1>   0.0800 
 46 H       -6.6040    -9.2550     1.7040 H     1 <1>   0.0800 
 47 H       -5.9300    -7.9860    -2.1780 H     1 <1>   0.0800 
 48 H       -4.5480    -7.6710    -1.1380 H     1 <1>   0.0800 
 49 H       -7.3840    -8.2680    -0.3160 H     1 <1>   0.0800 
 50 H       -5.3470    -6.5320     0.5990 H     1 <1>   0.4000 
@<TRIPOS>BOND
  1   1   2  1   
  2   2   3  ar  
  3   2   4  ar  
  4   3   5  ar  
  5   3  27  1   
  6   4   6  ar  
  7   4  28  1   
  8   5   7  ar  
  9   5  29  1   
 10   6   7  ar  
 11   6  30  1   
 12   7   8  1   
 13   8   9  ar  
 14   8  10  ar  
 15   9  11  ar  
 16   9  31  1   
 17  10  12  ar  
 18  10  32  1   
 19  11  13  ar  
 20  11  33  1   
 21  12  13  ar  
 22  12  34  1   
 23  13  14  1   
 24  14  15  2   
 25  14  16  am  
 26  16  17  1   
 27  16  18  1   
 28  17  19  1   
 29  17  20  1   
 30  17  35  1   
 31  18  36  1   
 32  18  37  1   
 33  18  38  1   
 34  19  21  1   
 35  19  39  1   
 36  19  40  1   
 37  20  22  1   
 38  20  41  1   
 39  20  42  1   
 40  21  22  1   
 41  21  23  1   
 42  21  43  1   
 43  22  24  1   
 44  22  44  1   
 45  23  25  1   
 46  23  45  1   
 47  23  46  1   
 48  24  25  1   
 49  24  47  1   
 50  24  48  1   
 51  25  26  1   
 52  25  49  1   
 53  26  50  1   
@<TRIPOS>SUBSTRUCTURE
  1 ****  11 GROUP 4 **** **** 0

# MOE 2024.06 (io_trps.svl 2023.06)
