@<TRIPOS>MOLECULE
NONAME
31 32 1 0 0 
SMALL
USER_CHARGES


@<TRIPOS>ATOM
  1 N       -0.8780    -0.1420     0.0670 N.ar  1 <1>  -0.6200 
  2 C       -1.6780     0.8920    -0.1940 C.ar  1 <1>   0.7200 
  3 C        0.3030     0.1470     0.5500 C.ar  1 <1>   0.1660 
  4 N       -1.3920     2.1760    -0.0030 N.ar  1 <1>  -0.6200 
  5 N       -2.9240     0.5970    -0.6930 N.pl3 1 <1>  -0.8380 
  6 C        0.6930     1.4450     0.7780 C.ar  1 <1>  -0.1500 
  7 C        1.2260    -1.0160     0.8500 C.3   1 <1>  -0.0970 
  8 C       -0.2060     2.4420     0.4810 C.ar  1 <1>   0.1670 
  9 C       -3.1670    -0.6130    -1.5100 C.3   1 <1>   0.3890 
 10 C       -4.1020     1.4730    -0.4480 C.3   1 <1>   0.1290 
 11 C        0.1340     3.9000     0.7000 C.3   1 <1>  -0.0960 
 12 C       -3.7560    -1.6830    -0.6190 C.2   1 <1>  -0.3320 
 13 N       -3.1590    -2.0160     0.5390 N.pl3 1 <1>   0.3000 
 14 C       -4.8540    -2.4620    -0.7320 C.2   1 <1>  -0.1500 
 15 N       -3.8300    -2.9950     1.1830 N.2   1 <1>  -0.7070 
 16 C       -4.8430    -3.2520     0.4140 C.2   1 <1>   0.1390 
 17 H        1.6630     1.6730     1.1750 H     1 <1>   0.1500 
 18 H        0.7690    -1.6590     1.5800 H     1 <1>   0.0800 
 19 H        2.1700    -0.6730     1.2300 H     1 <1>   0.0800 
 20 H        1.3960    -1.5800    -0.0490 H     1 <1>   0.0800 
 21 H       -2.2440    -0.9610    -1.9410 H     1 <1>   0.0800 
 22 H       -3.8430    -0.3800    -2.3140 H     1 <1>   0.0800 
 23 H       -3.9120     2.1400     0.3760 H     1 <1>   0.0800 
 24 H       -4.9610     0.8720    -0.2050 H     1 <1>   0.0800 
 25 H       -4.3090     2.0560    -1.3270 H     1 <1>   0.0800 
 26 H       -0.5670     4.3320     1.3910 H     1 <1>   0.0800 
 27 H        0.0670     4.4270    -0.2340 H     1 <1>   0.0800 
 28 H        1.1270     4.0120     1.0940 H     1 <1>   0.0800 
 29 H       -2.3020    -1.5610     0.8910 H     1 <1>   0.2700 
 30 H       -5.5900    -2.4940    -1.5140 H     1 <1>   0.1500 
 31 H       -5.5860    -3.9960     0.6460 H     1 <1>   0.1500 
@<TRIPOS>BOND
  1   1   2  ar  
  2   1   3  ar  
  3   2   4  ar  
  4   2   5  1   
  5   3   6  ar  
  6   3   7  1   
  7   4   8  ar  
  8   5   9  1   
  9   5  10  1   
 10   6   8  ar  
 11   6  17  1   
 12   7  18  1   
 13   7  19  1   
 14   7  20  1   
 15   8  11  1   
 16   9  12  1   
 17   9  21  1   
 18   9  22  1   
 19  10  23  1   
 20  10  24  1   
 21  10  25  1   
 22  11  26  1   
 23  11  27  1   
 24  11  28  1   
 25  12  13  1   
 26  12  14  2   
 27  13  15  1   
 28  13  29  1   
 29  14  16  1   
 30  14  30  1   
 31  15  16  2   
 32  16  31  1   
@<TRIPOS>SUBSTRUCTURE
  1 ****   2 GROUP 4 **** **** 0

# MOE 2024.06 (io_trps.svl 2023.06)
