@<TRIPOS>MOLECULE
NONAME
47 49 1 0 0 
SMALL
USER_CHARGES


@<TRIPOS>ATOM
  1 S        0.3640     0.5840    -1.1870 S.o2  1 <1>   1.3330 
  2 O        0.3220    -0.7800    -1.6640 O.2   1 <1>  -0.6500 
  3 O       -0.5860     1.5470    -1.6960 O.2   1 <1>  -0.6500 
  4 N        0.1800     0.5460     0.5010 N.am  1 <1>  -0.8490 
  5 C        2.0270     1.2090    -1.4370 C.3   1 <1>  -0.0550 
  6 C        0.0130     1.8780     1.1010 C.3   1 <1>   0.1160 
  7 C       -0.9270    -0.3220     0.9070 C.3   1 <1>   0.1160 
  8 C        3.1510     0.2260    -1.0380 C.3   1 <1>  -0.0800 
  9 C        4.5640     0.7360    -1.2830 C.3   1 <1>   0.2200 
 10 C        3.1920    -0.1530     0.4470 C.3   1 <1>   0.1200 
 11 N        4.6810     2.1410    -0.8270 N.am  1 <1>  -0.7300 
 12 C        5.3540    -0.1580    -0.3380 C.3   1 <1>   0.1200 
 13 O        4.5380    -0.3330     0.7810 O.3   1 <1>  -0.5600 
 14 C        4.7500     3.2460    -1.6230 C.2   1 <1>   0.6160 
 15 O        4.9290     3.0760    -2.8140 O.2   1 <1>  -0.5700 
 16 C        4.6320     4.5780    -1.1010 C.2   1 <1>   0.0290 
 17 C        3.8510     4.8390     0.0710 C.2   1 <1>   0.7670 
 18 C        5.2340     5.6480    -1.6970 C.2   1 <1>  -0.0500 
 19 O        3.2290     3.9580     0.6500 O.2   1 <1>  -0.5700 
 20 N        3.7540     6.1020     0.5960 N.2   1 <1>  -0.6610 
 21 N        5.0880     6.8820    -1.1390 N.pl3 1 <1>  -0.5500 
 22 C        4.3530     7.0600    -0.0040 C.2   1 <1>   0.5000 
 23 C        4.2830     8.4810     0.5300 C.3   1 <1>  -0.1000 
 24 C        2.9970     9.0610     1.0410 C.3   1 <1>  -0.2000 
 25 C        3.5800     9.5560    -0.2460 C.3   1 <1>  -0.2000 
 26 H        2.1470     1.4400    -2.4770 H     1 <1>   0.0800 
 27 H        2.1320     2.1270    -0.8970 H     1 <1>   0.0800 
 28 H       -0.0460     1.7950     2.1730 H     1 <1>   0.0800 
 29 H       -0.8860     2.3470     0.7360 H     1 <1>   0.0800 
 30 H        0.8520     2.5080     0.8630 H     1 <1>   0.0800 
 31 H       -1.0050    -0.3500     1.9810 H     1 <1>   0.0800 
 32 H       -0.7560    -1.3260     0.5560 H     1 <1>   0.0800 
 33 H       -1.8550     0.0360     0.4920 H     1 <1>   0.0800 
 34 H        3.0210    -0.6840    -1.5990 H     1 <1>   0.0800 
 35 H        4.8810     0.6320    -2.3070 H     1 <1>   0.0800 
 36 H        2.6520    -1.0630     0.6470 H     1 <1>   0.0800 
 37 H        2.8120     0.6390     1.0690 H     1 <1>   0.0800 
 38 H        4.4290     2.2690     0.1620 H     1 <1>   0.3700 
 39 H        6.2920     0.2760    -0.0400 H     1 <1>   0.0800 
 40 H        5.5180    -1.1260    -0.7780 H     1 <1>   0.0800 
 41 H        5.8220     5.5450    -2.5970 H     1 <1>   0.1500 
 42 H        5.5150     7.7150    -1.5550 H     1 <1>   0.4000 
 43 H        5.1760     8.7480     1.0670 H     1 <1>   0.1000 
 44 H        2.1120     8.4470     1.0150 H     1 <1>   0.1000 
 45 H        3.0300     9.6950     1.9100 H     1 <1>   0.1000 
 46 H        4.0030    10.5460    -0.2690 H     1 <1>   0.1000 
 47 H        3.0650     9.3050    -1.1580 H     1 <1>   0.1000 
@<TRIPOS>BOND
  1   1   2  2   
  2   1   3  2   
  3   1   4  am  
  4   1   5  1   
  5   4   6  1   
  6   4   7  1   
  7   5   8  1   
  8   5  26  1   
  9   5  27  1   
 10   6  28  1   
 11   6  29  1   
 12   6  30  1   
 13   7  31  1   
 14   7  32  1   
 15   7  33  1   
 16   8   9  1   
 17   8  10  1   
 18   8  34  1   
 19   9  11  1   
 20   9  12  1   
 21   9  35  1   
 22  10  13  1   
 23  10  36  1   
 24  10  37  1   
 25  11  14  am  
 26  11  38  1   
 27  12  13  1   
 28  12  39  1   
 29  12  40  1   
 30  14  15  2   
 31  14  16  1   
 32  16  17  1   
 33  16  18  2   
 34  17  19  2   
 35  17  20  1   
 36  18  21  1   
 37  18  41  1   
 38  20  22  2   
 39  21  22  1   
 40  21  42  1   
 41  22  23  1   
 42  23  24  1   
 43  23  25  1   
 44  23  43  1   
 45  24  25  1   
 46  24  44  1   
 47  24  45  1   
 48  25  46  1   
 49  25  47  1   
@<TRIPOS>SUBSTRUCTURE
  1 ****  19 GROUP 4 **** **** 0

# MOE 2024.06 (io_trps.svl 2023.06)
