@<TRIPOS>MOLECULE
NONAME
52 54 1 0 0 
SMALL
USER_CHARGES


@<TRIPOS>ATOM
  1 O        2.7190     1.3060    -1.5200 O.2   1 <1>  -0.5700 
  2 C        2.8820     0.4860    -0.6360 C.2   1 <1>   0.5440 
  3 N        3.1800     0.8220     0.6510 N.am  1 <1>  -0.6600 
  4 C        2.8180    -0.9410    -0.7540 C.ar  1 <1>   0.0860 
  5 C        3.3480    -0.3900     1.4920 C.3   1 <1>   0.2840 
  6 C        3.3130     2.1950     1.1800 C.3   1 <1>   0.1400 
  7 C        3.0890    -1.4990     0.4830 C.ar  1 <1>  -0.1440 
  8 C        2.5490    -1.7680    -1.8380 C.ar  1 <1>  -0.1500 
  9 C        4.7360     2.6930     0.9520 C.3   1 <1>  -0.0990 
 10 C        3.0990    -2.8690     0.6660 C.ar  1 <1>  -0.1500 
 11 C        2.5560    -3.1420    -1.6650 C.ar  1 <1>  -0.1500 
 12 C        4.8000     4.1820     1.2130 C.2   1 <1>   0.5690 
 13 C        2.8290    -3.6910    -0.4190 C.ar  1 <1>  -0.1500 
 14 O        5.1350     4.5260     2.3220 O.2   1 <1>  -0.5700 
 15 N        4.4830     5.0890     0.2290 N.am  1 <1>  -0.6600 
 16 C        4.6270     6.5480     0.4790 C.3   1 <1>   0.1400 
 17 C        4.0290     4.7300    -1.1490 C.3   1 <1>   0.0600 
 18 C        5.9680     7.0320    -0.0730 C.3   1 <1>  -0.1600 
 19 C        6.2130     8.5030     0.2720 C.3   1 <1>   0.0210 
 20 C        7.5550     8.9500    -0.2790 C.2   1 <1>  -0.1810 
 21 C        7.7960     9.5680    -1.5060 C.2   1 <1>   0.1080 
 22 C        8.7730     8.8380     0.2940 C.2   1 <1>  -0.3320 
 23 N        9.0510     9.8270    -1.6880 N.2   1 <1>  -0.7070 
 24 C        6.7510     9.9180    -2.5400 C.3   1 <1>  -0.0590 
 25 N        9.6550     9.3760    -0.5750 N.pl3 1 <1>   0.3000 
 26 C        9.1800     8.2390     1.6300 C.3   1 <1>  -0.0600 
 27 H        2.6200    -0.4040     2.2850 H     1 <1>   0.0800 
 28 H        4.3480    -0.4420     1.8860 H     1 <1>   0.0800 
 29 H        3.0710     2.2170     2.2290 H     1 <1>   0.0800 
 30 H        2.6150     2.8310     0.6620 H     1 <1>   0.0800 
 31 H        2.3390    -1.3270    -2.7970 H     1 <1>   0.1500 
 32 H        5.0570     2.4870    -0.0510 H     1 <1>   0.0800 
 33 H        5.4050     2.1930     1.6270 H     1 <1>   0.0800 
 34 H        3.3100    -3.2960     1.6310 H     1 <1>   0.1500 
 35 H        2.3480    -3.7890    -2.5010 H     1 <1>   0.1500 
 36 H        2.8320    -4.7600    -0.2950 H     1 <1>   0.1500 
 37 H        4.5810     6.7430     1.5370 H     1 <1>   0.0800 
 38 H        3.8150     7.0790     0.0130 H     1 <1>   0.0800 
 39 H        3.5920     3.7490    -1.1790 H     1 <1>   0.0800 
 40 H        4.8660     4.7570    -1.8250 H     1 <1>   0.0800 
 41 H        3.2850     5.4310    -1.4870 H     1 <1>   0.0800 
 42 H        5.9910     6.9100    -1.1410 H     1 <1>   0.0800 
 43 H        6.7590     6.4410     0.3550 H     1 <1>   0.0800 
 44 H        6.2090     8.6310     1.3400 H     1 <1>   0.0800 
 45 H        5.4300     9.1180    -0.1360 H     1 <1>   0.0800 
 46 H        6.0970     9.0820    -2.7020 H     1 <1>   0.0800 
 47 H        7.2300    10.1700    -3.4690 H     1 <1>   0.0800 
 48 H        6.1790    10.7630    -2.2030 H     1 <1>   0.0800 
 49 H       10.6700     9.4460    -0.4400 H     1 <1>   0.2700 
 50 H        8.3280     7.8180     2.1320 H     1 <1>   0.0800 
 51 H        9.6080     8.9970     2.2600 H     1 <1>   0.0800 
 52 H        9.9030     7.4570     1.4800 H     1 <1>   0.0800 
@<TRIPOS>BOND
  1   1   2  2   
  2   2   3  am  
  3   2   4  1   
  4   3   5  1   
  5   3   6  1   
  6   4   7  ar  
  7   4   8  ar  
  8   5   7  1   
  9   5  27  1   
 10   5  28  1   
 11   6   9  1   
 12   6  29  1   
 13   6  30  1   
 14   7  10  ar  
 15   8  11  ar  
 16   8  31  1   
 17   9  12  1   
 18   9  32  1   
 19   9  33  1   
 20  10  13  ar  
 21  10  34  1   
 22  11  13  ar  
 23  11  35  1   
 24  12  14  2   
 25  12  15  am  
 26  13  36  1   
 27  15  16  1   
 28  15  17  1   
 29  16  18  1   
 30  16  37  1   
 31  16  38  1   
 32  17  39  1   
 33  17  40  1   
 34  17  41  1   
 35  18  19  1   
 36  18  42  1   
 37  18  43  1   
 38  19  20  1   
 39  19  44  1   
 40  19  45  1   
 41  20  21  1   
 42  20  22  2   
 43  21  23  2   
 44  21  24  1   
 45  22  25  1   
 46  22  26  1   
 47  23  25  1   
 48  24  46  1   
 49  24  47  1   
 50  24  48  1   
 51  25  49  1   
 52  26  50  1   
 53  26  51  1   
 54  26  52  1   
@<TRIPOS>SUBSTRUCTURE
  1 ****  12 GROUP 4 **** **** 0

# MOE 2024.06 (io_trps.svl 2023.06)
