@<TRIPOS>MOLECULE
NONAME
57 61 1 0 0 
SMALL
USER_CHARGES


@<TRIPOS>ATOM
  1 O       -0.3870    -0.7900    -0.3940 O.2   1 <1>  -0.5700 
  2 C        0.1340    -1.7140     0.1830 C.2   1 <1>   0.5690 
  3 N        1.1600    -1.5080     1.0700 N.am  1 <1>  -0.6600 
  4 C       -0.4170    -3.0850    -0.1580 C.3   1 <1>  -0.0990 
  5 C        1.9240    -2.5720     1.8050 C.3   1 <1>   0.1400 
  6 C        1.6940    -0.1270     1.2750 C.3   1 <1>   0.2840 
  7 C       -0.1480    -4.1860     0.8620 C.3   1 <1>   0.1200 
  8 C        2.2690    -3.8630     1.0080 C.3   1 <1>   0.2800 
  9 C        3.0390     0.0110     0.5740 C.ar  1 <1>  -0.1440 
 10 O        1.1530    -4.6740     0.7390 O.3   1 <1>  -0.5600 
 11 C        3.1880    -4.7400     1.8900 C.3   1 <1>  -0.1600 
 12 C        2.9320    -3.5640    -0.3570 C.3   1 <1>  -0.1600 
 13 C        4.2180     0.1120     1.3000 C.ar  1 <1>  -0.1500 
 14 C        3.0920     0.0290    -0.8110 C.ar  1 <1>  -0.1500 
 15 C        4.1980    -5.5410     1.0690 C.3   1 <1>   0.1400 
 16 C        4.4430    -3.3670    -0.2320 C.3   1 <1>   0.1400 
 17 C        5.4330     0.2160     0.6460 C.ar  1 <1>  -0.1500 
 18 C        4.3070     0.1310    -1.4660 C.ar  1 <1>  -0.1500 
 19 N        5.0850    -4.5940     0.3290 N.am  1 <1>  -0.6600 
 20 C        5.4780     0.2210    -0.7360 C.ar  1 <1>  -0.1500 
 21 C        6.3900    -4.9400     0.0390 C.2   1 <1>   0.5440 
 22 O        6.7410    -6.0930     0.2100 O.2   1 <1>  -0.5700 
 23 C        7.3480    -3.9760    -0.4670 C.ar  1 <1>   0.0860 
 24 C        7.5350    -2.7400     0.1350 C.ar  1 <1>  -0.1500 
 25 C        8.1360    -4.2910    -1.5950 C.ar  1 <1>  -0.1500 
 26 C        8.4640    -1.8420    -0.3750 C.ar  1 <1>   0.2270 
 27 C        9.0600    -3.4130    -2.1120 C.ar  1 <1>  -0.1500 
 28 N        8.7910    -0.5920     0.0620 N.2   1 <1>  -0.5650 
 29 C        9.2150    -2.1750    -1.4860 C.ar  1 <1>  -0.1520 
 30 C        9.7040    -0.2000    -0.7560 C.2   1 <1>   0.0360 
 31 N       10.0120    -1.1050    -1.7190 N.pl3 1 <1>   0.0330 
 32 H       -0.0490    -3.3860    -1.1200 H     1 <1>   0.0800 
 33 H       -1.4820    -2.9780    -0.2460 H     1 <1>   0.0800 
 34 H        1.3960    -2.8320     2.7040 H     1 <1>   0.0800 
 35 H        2.8590    -2.1470     2.1200 H     1 <1>   0.0800 
 36 H        1.8000     0.0600     2.3290 H     1 <1>   0.0800 
 37 H        1.0160     0.6120     0.8850 H     1 <1>   0.0800 
 38 H       -0.8020    -5.0170     0.6600 H     1 <1>   0.0800 
 39 H       -0.3300    -3.8620     1.8720 H     1 <1>   0.0800 
 40 H        2.5940    -5.4090     2.4870 H     1 <1>   0.0800 
 41 H        3.7580    -4.1320     2.5690 H     1 <1>   0.0800 
 42 H        2.5100    -2.6910    -0.8120 H     1 <1>   0.0800 
 43 H        2.7620    -4.3840    -1.0330 H     1 <1>   0.0800 
 44 H        4.1990     0.1110     2.3760 H     1 <1>   0.1500 
 45 H        2.1800    -0.0400    -1.3820 H     1 <1>   0.1500 
 46 H        3.6890    -6.1800     0.3680 H     1 <1>   0.0800 
 47 H        4.7890    -6.1600     1.7240 H     1 <1>   0.0800 
 48 H        4.6450    -2.5320     0.4160 H     1 <1>   0.0800 
 49 H        4.8570    -3.1480    -1.2020 H     1 <1>   0.0800 
 50 H        6.3510     0.2920     1.2070 H     1 <1>   0.1500 
 51 H        4.3400     0.1410    -2.5420 H     1 <1>   0.1500 
 52 H        6.4280     0.2990    -1.2380 H     1 <1>   0.1500 
 53 H        6.9750    -2.4590     1.0060 H     1 <1>   0.1500 
 54 H        7.9960    -5.2580    -2.0480 H     1 <1>   0.1500 
 55 H        9.6530    -3.6680    -2.9720 H     1 <1>   0.1500 
 56 H       10.1970     0.7560    -0.7010 H     1 <1>   0.1500 
 57 H       10.7080    -1.0080    -2.4620 H     1 <1>   0.2700 
@<TRIPOS>BOND
  1   1   2  2   
  2   2   3  am  
  3   2   4  1   
  4   3   5  1   
  5   3   6  1   
  6   4   7  1   
  7   4  32  1   
  8   4  33  1   
  9   5   8  1   
 10   5  34  1   
 11   5  35  1   
 12   6   9  1   
 13   6  36  1   
 14   6  37  1   
 15   7  10  1   
 16   7  38  1   
 17   7  39  1   
 18   8  10  1   
 19   8  11  1   
 20   8  12  1   
 21   9  13  ar  
 22   9  14  ar  
 23  11  15  1   
 24  11  40  1   
 25  11  41  1   
 26  12  16  1   
 27  12  42  1   
 28  12  43  1   
 29  13  17  ar  
 30  13  44  1   
 31  14  18  ar  
 32  14  45  1   
 33  15  19  1   
 34  15  46  1   
 35  15  47  1   
 36  16  19  1   
 37  16  48  1   
 38  16  49  1   
 39  17  20  ar  
 40  17  50  1   
 41  18  20  ar  
 42  18  51  1   
 43  19  21  am  
 44  20  52  1   
 45  21  22  2   
 46  21  23  1   
 47  23  24  ar  
 48  23  25  ar  
 49  24  26  ar  
 50  24  53  1   
 51  25  27  ar  
 52  25  54  1   
 53  26  28  1   
 54  26  29  ar  
 55  27  29  ar  
 56  27  55  1   
 57  28  30  2   
 58  29  31  1   
 59  30  31  1   
 60  30  56  1   
 61  31  57  1   
@<TRIPOS>SUBSTRUCTURE
  1 ****  16 GROUP 4 **** **** 0

# MOE 2024.06 (io_trps.svl 2023.06)
