@<TRIPOS>MOLECULE
NONAME
41 42 1 0 0 
SMALL
USER_CHARGES


@<TRIPOS>ATOM
  1 O        1.5110    -0.0730    -1.7400 O.2   1 <1>  -0.5700 
  2 C        1.6900    -0.4500    -0.5940 C.2   1 <1>   0.7160 
  3 N        2.2220     0.4030     0.3360 N.am  1 <1>  -0.4930 
  4 C        1.3480    -1.7980    -0.1870 C.2   1 <1>   0.2030 
  5 C        2.6290     1.7540     0.2090 C.2   1 <1>   0.0630 
  6 N        1.4990    -2.2930     1.0070 N.2   1 <1>  -0.4100 
  7 C        0.8030    -2.7790    -1.0000 C.2   1 <1>  -0.1500 
  8 C        2.5770     2.6000    -0.9010 C.2   1 <1>   0.1390 
  9 C        3.1670     2.5120     1.1860 C.2   1 <1>  -0.3020 
 10 O        1.0880    -3.5380     1.0360 O.3   1 <1>  -0.0190 
 11 C        0.6670    -3.8240    -0.1790 C.2   1 <1>  -0.0400 
 12 N        3.0450     3.7860    -0.6400 N.2   1 <1>  -0.7070 
 13 N        3.4100     3.7320     0.6570 N.pl3 1 <1>   0.3140 
 14 C        0.1220    -5.2130    -0.4590 C.3   1 <1>   0.0200 
 15 C        3.9940     4.8920     1.3460 C.3   1 <1>   0.1570 
 16 C       -1.1690    -5.5070     0.3280 C.3   1 <1>  -0.0800 
 17 C        5.4530     5.0370     0.9790 C.2   1 <1>   0.5690 
 18 C       -1.6310    -6.9480     0.0780 C.3   1 <1>  -0.2400 
 19 C       -2.2960    -4.5320    -0.0410 C.3   1 <1>  -0.2400 
 20 O        6.2460     5.2580     1.8630 O.2   1 <1>  -0.5700 
 21 N        5.8320     4.9340    -0.3240 N.am  1 <1>  -0.7300 
 22 C        7.2150     5.0570    -0.8450 C.3   1 <1>   0.0600 
 23 H        2.3390    -0.0160     1.2600 H     1 <1>   0.3700 
 24 H        0.5620    -2.6710    -2.0420 H     1 <1>   0.1500 
 25 H        2.1940     2.3110    -1.8650 H     1 <1>   0.1500 
 26 H        3.3900     2.2590     2.2050 H     1 <1>   0.1500 
 27 H        0.8760    -5.9330    -0.1940 H     1 <1>   0.0800 
 28 H       -0.0700    -5.3110    -1.5130 H     1 <1>   0.0800 
 29 H        3.8980     4.7600     2.4060 H     1 <1>   0.0800 
 30 H        3.4620     5.7750     1.0480 H     1 <1>   0.0800 
 31 H       -0.9580    -5.4000     1.3800 H     1 <1>   0.0800 
 32 H       -1.8600    -7.1010    -0.9620 H     1 <1>   0.0800 
 33 H       -2.5120    -7.1630     0.6570 H     1 <1>   0.0800 
 34 H       -0.8630    -7.6440     0.3680 H     1 <1>   0.0800 
 35 H       -2.5210    -4.5900    -1.0920 H     1 <1>   0.0800 
 36 H       -2.0160    -3.5210     0.1960 H     1 <1>   0.0800 
 37 H       -3.1880    -4.7660     0.5130 H     1 <1>   0.0800 
 38 H        5.1070     4.6530    -1.0030 H     1 <1>   0.3700 
 39 H        7.8920     5.3210    -0.0500 H     1 <1>   0.0800 
 40 H        7.2510     5.8210    -1.6020 H     1 <1>   0.0800 
 41 H        7.5270     4.1190    -1.2720 H     1 <1>   0.0800 
@<TRIPOS>BOND
  1   1   2  2   
  2   2   3  am  
  3   2   4  1   
  4   3   5  1   
  5   3  23  1   
  6   4   6  2   
  7   4   7  1   
  8   5   8  1   
  9   5   9  2   
 10   6  10  1   
 11   7  11  2   
 12   7  24  1   
 13   8  12  2   
 14   8  25  1   
 15   9  13  1   
 16   9  26  1   
 17  10  11  1   
 18  11  14  1   
 19  12  13  1   
 20  13  15  1   
 21  14  16  1   
 22  14  27  1   
 23  14  28  1   
 24  15  17  1   
 25  15  29  1   
 26  15  30  1   
 27  16  18  1   
 28  16  19  1   
 29  16  31  1   
 30  17  20  2   
 31  17  21  am  
 32  18  32  1   
 33  18  33  1   
 34  18  34  1   
 35  19  35  1   
 36  19  36  1   
 37  19  37  1   
 38  21  22  1   
 39  21  38  1   
 40  22  39  1   
 41  22  40  1   
 42  22  41  1   
@<TRIPOS>SUBSTRUCTURE
  1 ****   3 GROUP 4 **** **** 0

# MOE 2024.06 (io_trps.svl 2023.06)
