@<TRIPOS>MOLECULE
NONAME
47 49 1 0 0 
SMALL
USER_CHARGES


@<TRIPOS>ATOM
  1 O        0.6980    -0.3130     1.9780 O.2   1 <1>  -0.5700 
  2 C        1.3770     0.2010     1.1030 C.2   1 <1>   0.5440 
  3 N        0.8440     1.2600     0.4020 N.am  1 <1>  -0.6600 
  4 C        2.7010    -0.3000     0.8180 C.ar  1 <1>   0.0860 
  5 C        1.3060     1.6920    -0.9370 C.3   1 <1>   0.1400 
  6 C       -0.5010     1.8030     0.6950 C.3   1 <1>   0.1400 
  7 C        2.9200    -1.6700     0.5790 C.ar  1 <1>   0.4100 
  8 C        3.7970     0.5510     0.7660 C.ar  1 <1>  -0.1500 
  9 C        0.0690     2.2870    -1.5990 C.3   1 <1>  -0.1600 
 10 C       -0.7880     2.7820    -0.4380 C.3   1 <1>  -0.1600 
 11 N        4.1100    -2.1890     0.2810 N.ar  1 <1>  -0.6200 
 12 N        1.8760    -2.5620     0.6470 N.pl3 1 <1>  -0.8690 
 13 C        5.0270     0.0110     0.4660 C.ar  1 <1>  -0.1500 
 14 C        5.1240    -1.3490     0.2320 C.ar  1 <1>   0.1600 
 15 C        2.0580    -4.0220     0.7200 C.3   1 <1>   0.2090 
 16 C        0.6900    -4.6800     0.8660 C.3   1 <1>  -0.1600 
 17 C        0.8310    -6.1970     0.9320 C.3   1 <1>   0.2090 
 18 N       -0.5140    -6.7940     1.0700 N.pl3 1 <1>  -0.8690 
 19 C       -0.9880    -7.6390     0.0640 C.ar  1 <1>   0.1000 
 20 C       -2.2080    -7.4110    -0.5790 C.ar  1 <1>   0.1600 
 21 C       -0.2600    -8.7500    -0.3260 C.ar  1 <1>  -0.1500 
 22 N       -2.7270    -8.1560    -1.5430 N.ar  1 <1>  -0.6200 
 23 C       -0.7810    -9.5410    -1.3260 C.ar  1 <1>  -0.1500 
 24 C       -2.0000    -9.2050    -1.8940 C.ar  1 <1>   0.1600 
 25 H        1.6950     0.8630    -1.5040 H     1 <1>   0.0800 
 26 H        2.0650     2.4460    -0.8220 H     1 <1>   0.0800 
 27 H       -0.5140     2.2870     1.6570 H     1 <1>   0.0800 
 28 H       -1.2160     0.9970     0.6890 H     1 <1>   0.0800 
 29 H        3.6800     1.6030     0.9600 H     1 <1>   0.1500 
 30 H       -0.4510     1.5080    -2.1310 H     1 <1>   0.0800 
 31 H        0.3220     3.0730    -2.2890 H     1 <1>   0.0800 
 32 H       -0.4680     3.7640    -0.1380 H     1 <1>   0.0800 
 33 H       -1.8350     2.8130    -0.6830 H     1 <1>   0.0800 
 34 H        1.0610    -2.2020     1.1680 H     1 <1>   0.4000 
 35 H        5.9040     0.6320     0.4140 H     1 <1>   0.1500 
 36 H        6.0890    -1.7640    -0.0060 H     1 <1>   0.1500 
 37 H        2.6840    -4.2590     1.5650 H     1 <1>   0.0800 
 38 H        2.5460    -4.3620    -0.1780 H     1 <1>   0.0800 
 39 H        0.0850    -4.4170     0.0160 H     1 <1>   0.0800 
 40 H        0.2240    -4.3250     1.7680 H     1 <1>   0.0800 
 41 H        1.4300    -6.4800     1.7810 H     1 <1>   0.0800 
 42 H        1.3100    -6.5600     0.0370 H     1 <1>   0.0800 
 43 H       -1.1940    -6.1060     1.4110 H     1 <1>   0.4000 
 44 H       -2.7780    -6.5540    -0.2720 H     1 <1>   0.1500 
 45 H        0.6760    -8.9830     0.1460 H     1 <1>   0.1500 
 46 H       -0.2530   -10.4130    -1.6640 H     1 <1>   0.1500 
 47 H       -2.3970    -9.8320    -2.6740 H     1 <1>   0.1500 
@<TRIPOS>BOND
  1   1   2  2   
  2   2   3  am  
  3   2   4  1   
  4   3   5  1   
  5   3   6  1   
  6   4   7  ar  
  7   4   8  ar  
  8   5   9  1   
  9   5  25  1   
 10   5  26  1   
 11   6  10  1   
 12   6  27  1   
 13   6  28  1   
 14   7  11  ar  
 15   7  12  1   
 16   8  13  ar  
 17   8  29  1   
 18   9  10  1   
 19   9  30  1   
 20   9  31  1   
 21  10  32  1   
 22  10  33  1   
 23  11  14  ar  
 24  12  15  1   
 25  12  34  1   
 26  13  14  ar  
 27  13  35  1   
 28  14  36  1   
 29  15  16  1   
 30  15  37  1   
 31  15  38  1   
 32  16  17  1   
 33  16  39  1   
 34  16  40  1   
 35  17  18  1   
 36  17  41  1   
 37  17  42  1   
 38  18  19  1   
 39  18  43  1   
 40  19  20  ar  
 41  19  21  ar  
 42  20  22  ar  
 43  20  44  1   
 44  21  23  ar  
 45  21  45  1   
 46  22  24  ar  
 47  23  24  ar  
 48  23  46  1   
 49  24  47  1   
@<TRIPOS>SUBSTRUCTURE
  1 ****  12 GROUP 4 **** **** 0

# MOE 2024.06 (io_trps.svl 2023.06)
