@<TRIPOS>MOLECULE
NONAME
47 49 1 0 0 
SMALL
USER_CHARGES


@<TRIPOS>ATOM
  1 O        1.3750    -1.0770    -2.0880 O.2   1 <1>  -0.5700 
  2 C        1.9170    -1.2420    -1.0150 C.2   1 <1>   0.5440 
  3 N        2.7970    -0.2740    -0.5670 N.am  1 <1>  -0.6600 
  4 C        1.6120    -2.4420    -0.2580 C.ar  1 <1>   0.0860 
  5 C        3.3980    -0.2930     0.8230 C.3   1 <1>   0.2200 
  6 C        3.0880     0.8970    -1.4640 C.3   1 <1>   0.1400 
  7 C        0.3080    -2.7000     0.1540 C.ar  1 <1>  -0.1500 
  8 C        2.5980    -3.3690     0.0740 C.ar  1 <1>  -0.1500 
  9 C        3.0930     0.9940     1.6070 C.3   1 <1>   0.1200 
 10 C        4.9170    -0.5870     0.7800 C.3   1 <1>   0.3430 
 11 C        4.2660     1.7980    -1.0430 C.3   1 <1>  -0.0800 
 12 C       -0.0420    -3.8270     0.9000 C.ar  1 <1>   0.0860 
 13 C        2.2900    -4.4910     0.8180 C.ar  1 <1>  -0.1500 
 14 O        4.0430     1.9830     1.3570 O.3   1 <1>  -0.5600 
 15 N        5.5020    -0.3700    -0.5890 N.4   1 <1>  -0.9590 
 16 C        3.9170     2.6800     0.1650 C.3   1 <1>   0.1200 
 17 C        5.6270     1.0900    -0.8760 C.3   1 <1>   0.3430 
 18 C       -1.3990    -4.1000     1.3340 C.2   1 <1>   0.4230 
 19 C        0.9890    -4.7090     1.2280 C.ar  1 <1>  -0.1500 
 20 C        6.8860    -1.0040    -0.6410 C.3   1 <1>   0.2370 
 21 O       -1.6650    -4.9320     2.1610 O.2   1 <1>  -0.5700 
 22 C       -2.5640    -3.3300     0.7430 C.3   1 <1>  -0.1790 
 23 C        7.8440    -0.5150     0.4480 C.2   1 <1>   0.9060 
 24 O        8.5320     0.4800     0.2060 O.co2 1 <1>  -0.9000 
 25 O        7.7740    -1.0600     1.5530 O.co2 1 <1>  -0.9000 
 26 H        2.9400    -1.0800     1.3940 H     1 <1>   0.0800 
 27 H        3.2860     0.5220    -2.4550 H     1 <1>   0.0800 
 28 H        2.1950     1.4950    -1.5360 H     1 <1>   0.0800 
 29 H       -0.4470    -1.9870    -0.1260 H     1 <1>   0.1500 
 30 H        3.6090    -3.2150    -0.2580 H     1 <1>   0.1500 
 31 H        3.1530     0.7830     2.6600 H     1 <1>   0.0800 
 32 H        2.1070     1.3680     1.3930 H     1 <1>   0.0800 
 33 H        5.0780    -1.6100     1.0750 H     1 <1>   0.0800 
 34 H        5.4330     0.0270     1.5040 H     1 <1>   0.0800 
 35 H        4.3990     2.4940    -1.8510 H     1 <1>   0.0800 
 36 H        3.0590    -5.2000     1.0770 H     1 <1>   0.1500 
 37 H        4.8570    -0.7870    -1.2700 H     1 <1>   0.4500 
 38 H        2.9190     3.0810     0.0950 H     1 <1>   0.0800 
 39 H        4.6060     3.5060     0.2190 H     1 <1>   0.0800 
 40 H        6.1920     1.5670    -0.0890 H     1 <1>   0.0800 
 41 H        6.1900     1.2120    -1.7870 H     1 <1>   0.0800 
 42 H        0.7590    -5.5870     1.8100 H     1 <1>   0.1500 
 43 H        6.8030    -2.0690    -0.5270 H     1 <1>   0.0800 
 44 H        7.3490    -0.7990    -1.5890 H     1 <1>   0.0800 
 45 H       -2.4980    -3.3190    -0.3290 H     1 <1>   0.0800 
 46 H       -2.5650    -2.3230     1.1180 H     1 <1>   0.0800 
 47 H       -3.4890    -3.8000     1.0220 H     1 <1>   0.0800 
@<TRIPOS>BOND
  1   1   2  2   
  2   2   3  am  
  3   2   4  1   
  4   3   5  1   
  5   3   6  1   
  6   4   7  ar  
  7   4   8  ar  
  8   5   9  1   
  9   5  10  1   
 10   5  26  1   
 11   6  11  1   
 12   6  27  1   
 13   6  28  1   
 14   7  12  ar  
 15   7  29  1   
 16   8  13  ar  
 17   8  30  1   
 18   9  14  1   
 19   9  31  1   
 20   9  32  1   
 21  10  15  1   
 22  10  33  1   
 23  10  34  1   
 24  11  16  1   
 25  11  17  1   
 26  11  35  1   
 27  12  18  1   
 28  12  19  ar  
 29  13  19  ar  
 30  13  36  1   
 31  14  16  1   
 32  15  17  1   
 33  15  20  1   
 34  15  37  1   
 35  16  38  1   
 36  16  39  1   
 37  17  40  1   
 38  17  41  1   
 39  18  21  2   
 40  18  22  1   
 41  19  42  1   
 42  20  23  1   
 43  20  43  1   
 44  20  44  1   
 45  22  45  1   
 46  22  46  1   
 47  22  47  1   
 48  23  24  ar  
 49  23  25  ar  
@<TRIPOS>SUBSTRUCTURE
  1 ****   5 GROUP 4 **** **** 0

# MOE 2024.06 (io_trps.svl 2023.06)
