@<TRIPOS>MOLECULE
F1913-0926
28 29 1 0 0 
SMALL
USER_CHARGES


@<TRIPOS>ATOM
  1 O       -8.5640     1.7480    -0.9570 O.2   1 <1>  -0.5700 
  2 C       -8.6020     0.7620    -0.2660 C.2   1 <1>   0.6590 
  3 O       -9.7460     0.2780     0.2000 O.3   1 <1>  -0.4300 
  4 C       -7.3550    -0.0220     0.1250 C.3   1 <1>  -0.0190 
  5 C      -10.9780     0.8970    -0.0900 C.3   1 <1>   0.1200 
  6 C       -6.0850     0.8590     0.0890 C.3   1 <1>   0.0210 
  7 C       -7.1910    -1.2940    -0.7470 C.3   1 <1>  -0.1600 
  8 C      -12.0830     0.0910     0.5840 C.3   1 <1>  -0.2400 
  9 C       -4.8600    -0.0080     0.2770 C.2   1 <1>   0.0460 
 10 C       -6.0420    -2.1990    -0.2600 C.3   1 <1>   0.0200 
 11 N       -3.6470     0.4580     0.6160 N.2   1 <1>  -0.5650 
 12 C       -4.8500    -1.3440     0.1200 C.2   1 <1>  -0.3320 
 13 C       -2.9190    -0.6130     0.6640 C.2   1 <1>   0.0360 
 14 N       -3.5940    -1.7480     0.3740 N.pl3 1 <1>   0.0330 
 15 H       -7.4940    -0.3390     1.1430 H     1 <1>   0.0800 
 16 H      -11.1070     0.9140    -1.1590 H     1 <1>   0.0800 
 17 H      -10.9490     1.9060     0.2860 H     1 <1>   0.0800 
 18 H       -6.1260     1.5990     0.8680 H     1 <1>   0.0800 
 19 H       -5.9960     1.3640    -0.8560 H     1 <1>   0.0800 
 20 H       -6.9880    -0.9890    -1.7600 H     1 <1>   0.0800 
 21 H       -8.1070    -1.8590    -0.7510 H     1 <1>   0.0800 
 22 H      -12.0920    -0.9150     0.2060 H     1 <1>   0.0800 
 23 H      -13.0370     0.5420     0.3790 H     1 <1>   0.0800 
 24 H      -11.9330     0.0750     1.6490 H     1 <1>   0.0800 
 25 H       -5.7740    -2.8930    -1.0380 H     1 <1>   0.0800 
 26 H       -6.3610    -2.7590     0.6020 H     1 <1>   0.0800 
 27 H       -1.8720    -0.6180     0.9110 H     1 <1>   0.1500 
 28 H       -3.2200    -2.7000     0.3510 H     1 <1>   0.2700 
@<TRIPOS>BOND
  1   1   2  2   
  2   2   3  1   
  3   2   4  1   
  4   3   5  1   
  5   4   6  1   
  6   4   7  1   
  7   4  15  1   
  8   5   8  1   
  9   5  16  1   
 10   5  17  1   
 11   6   9  1   
 12   6  18  1   
 13   6  19  1   
 14   7  10  1   
 15   7  20  1   
 16   7  21  1   
 17   8  22  1   
 18   8  23  1   
 19   8  24  1   
 20   9  11  1   
 21   9  12  2   
 22  10  12  1   
 23  10  25  1   
 24  10  26  1   
 25  11  13  2   
 26  12  14  1   
 27  13  14  1   
 28  13  27  1   
 29  14  28  1   
@<TRIPOS>SUBSTRUCTURE
  1 ****   4 GROUP 4 **** **** 0

# MOE 2024.06 (io_trps.svl 2023.06)
