@<TRIPOS>MOLECULE
NONAME
47 48 1 0 0 
SMALL
USER_CHARGES


@<TRIPOS>ATOM
  1 S       -0.0500     0.2330    -0.3820 S.3   1 <1>  -0.4600 
  2 C        0.0760     2.0170    -0.0900 C.3   1 <1>   0.0700 
  3 C       -1.8030    -0.0060    -0.7760 C.3   1 <1>  -0.0100 
  4 C        1.5280     2.3480     0.2880 C.3   1 <1>  -0.0800 
  5 C        1.6440     3.8060     0.7610 C.3   1 <1>  -0.1600 
  6 C        2.4960     2.1100    -0.8870 C.3   1 <1>  -0.1600 
  7 C        3.0870     4.1760     1.1070 C.3   1 <1>   0.3430 
  8 C        3.9300     2.4950    -0.5290 C.3   1 <1>   0.3430 
  9 N        3.9640     3.9030    -0.0620 N.4   1 <1>  -0.9590 
 10 C        5.3390     4.4290     0.1480 C.3   1 <1>   0.5240 
 11 C        5.3030     5.9210    -0.1610 C.2   1 <1>   0.1080 
 12 N        4.3980     6.4550    -0.9310 N.2   1 <1>  -0.7070 
 13 C        6.1990     6.8650     0.3280 C.2   1 <1>  -0.1500 
 14 N        4.7100     7.7700    -0.9560 N.pl3 1 <1>   0.3000 
 15 C        5.7930     8.0430    -0.1980 C.2   1 <1>  -0.3320 
 16 C        6.3610     9.4510    -0.0460 C.3   1 <1>   0.1800 
 17 C        7.5860     9.4370     0.8750 C.3   1 <1>  -0.2400 
 18 C        6.7790     9.9820    -1.4210 C.3   1 <1>  -0.2400 
 19 C        5.2940    10.3670     0.5620 C.3   1 <1>  -0.2400 
 20 H       -0.6030     2.2480     0.7130 H     1 <1>   0.0800 
 21 H       -0.2340     2.5180    -0.9900 H     1 <1>   0.0800 
 22 H       -1.9550    -1.0530    -0.9690 H     1 <1>   0.0800 
 23 H       -2.0330     0.5800    -1.6480 H     1 <1>   0.0800 
 24 H       -2.3830     0.3140     0.0710 H     1 <1>   0.0800 
 25 H        1.8090     1.7040     1.1060 H     1 <1>   0.0800 
 26 H        1.0330     3.9510     1.6350 H     1 <1>   0.0800 
 27 H        1.2830     4.4760    -0.0010 H     1 <1>   0.0800 
 28 H        2.1810     2.6730    -1.7490 H     1 <1>   0.0800 
 29 H        2.4890     1.0700    -1.1640 H     1 <1>   0.0800 
 30 H        3.4140     3.5960     1.9550 H     1 <1>   0.0800 
 31 H        3.1360     5.2230     1.3650 H     1 <1>   0.0800 
 32 H        4.5600     2.3750    -1.3960 H     1 <1>   0.0800 
 33 H        4.2910     1.8420     0.2500 H     1 <1>   0.0800 
 34 H        3.6240     4.5300    -0.8170 H     1 <1>   0.4500 
 35 H        6.0250     3.9570    -0.5360 H     1 <1>   0.0800 
 36 H        5.6700     4.2560     1.1580 H     1 <1>   0.0800 
 37 H        7.0330     6.6800     0.9820 H     1 <1>   0.1500 
 38 H        4.1740     8.4620    -1.4970 H     1 <1>   0.2700 
 39 H        8.3550     8.8040     0.4680 H     1 <1>   0.0800 
 40 H        7.3200     9.0720     1.8510 H     1 <1>   0.0800 
 41 H        7.9880    10.4280     0.9840 H     1 <1>   0.0800 
 42 H        7.5040     9.3250    -1.8670 H     1 <1>   0.0800 
 43 H        7.2190    10.9600    -1.3280 H     1 <1>   0.0800 
 44 H        5.9350    10.0550    -2.0810 H     1 <1>   0.0800 
 45 H        4.9730     9.9820     1.5140 H     1 <1>   0.0800 
 46 H        4.4360    10.4430    -0.0810 H     1 <1>   0.0800 
 47 H        5.6890    11.3560     0.7120 H     1 <1>   0.0800 
@<TRIPOS>BOND
  1   1   2  1   
  2   1   3  1   
  3   2   4  1   
  4   2  20  1   
  5   2  21  1   
  6   3  22  1   
  7   3  23  1   
  8   3  24  1   
  9   4   5  1   
 10   4   6  1   
 11   4  25  1   
 12   5   7  1   
 13   5  26  1   
 14   5  27  1   
 15   6   8  1   
 16   6  28  1   
 17   6  29  1   
 18   7   9  1   
 19   7  30  1   
 20   7  31  1   
 21   8   9  1   
 22   8  32  1   
 23   8  33  1   
 24   9  10  1   
 25   9  34  1   
 26  10  11  1   
 27  10  35  1   
 28  10  36  1   
 29  11  12  2   
 30  11  13  1   
 31  12  14  1   
 32  13  15  2   
 33  13  37  1   
 34  14  15  1   
 35  14  38  1   
 36  15  16  1   
 37  16  17  1   
 38  16  18  1   
 39  16  19  1   
 40  17  39  1   
 41  17  40  1   
 42  17  41  1   
 43  18  42  1   
 44  18  43  1   
 45  18  44  1   
 46  19  45  1   
 47  19  46  1   
 48  19  47  1   
@<TRIPOS>SUBSTRUCTURE
  1 ****   9 GROUP 4 **** **** 0

# MOE 2024.06 (io_trps.svl 2023.06)
