@<TRIPOS>MOLECULE
NONAME
60 63 1 0 0 
SMALL
USER_CHARGES


@<TRIPOS>ATOM
  1 O        1.2620    -1.0900     0.2840 O.3   1 <1>  -0.5600 
  2 C        0.4370    -2.2190     0.1240 C.3   1 <1>   0.2800 
  3 C        0.6740     0.1700     0.4640 C.3   1 <1>   0.1200 
  4 C       -1.0800    -1.8790     0.2380 C.3   1 <1>   0.2000 
  5 C        0.8260    -2.8210    -1.2370 C.3   1 <1>  -0.1600 
  6 C        0.8440    -3.1910     1.2410 C.3   1 <1>  -0.1600 
  7 C       -0.3550     0.4070    -0.6430 C.3   1 <1>  -0.1600 
  8 O       -1.8690    -2.9890    -0.0850 O.3   1 <1>  -0.6800 
  9 C       -1.5090    -0.6050    -0.5510 C.3   1 <1>   0.2800 
 10 C        2.3010    -3.2090    -1.2680 C.3   1 <1>   0.3430 
 11 C        2.3190    -3.5650     1.1400 C.3   1 <1>   0.3430 
 12 O       -2.5140    -0.0140     0.1870 O.3   1 <1>  -0.6800 
 13 C       -2.1240    -0.8520    -1.9370 C.3   1 <1>  -0.2400 
 14 N        2.5820    -4.1950    -0.1850 N.4   1 <1>  -0.9590 
 15 C        3.9750    -4.7350    -0.2750 C.3   1 <1>   0.4860 
 16 C        5.0180    -3.6350    -0.1350 C.ar  1 <1>  -0.1440 
 17 C        5.5140    -3.2890     1.1150 C.ar  1 <1>  -0.1500 
 18 C        5.5000    -2.9740    -1.2560 C.ar  1 <1>  -0.1500 
 19 C        6.4580    -2.2860     1.2380 C.ar  1 <1>  -0.1500 
 20 C        6.4440    -1.9730    -1.1250 C.ar  1 <1>  -0.1500 
 21 C        6.9370    -1.6100     0.1230 C.ar  1 <1>   0.0000 
 22 C        7.9220    -0.5610     0.2560 C.ar  1 <1>   0.0000 
 23 C        9.2940    -0.8200     0.2060 C.ar  1 <1>  -0.1440 
 24 C        7.5010     0.7520     0.4400 C.ar  1 <1>  -0.1500 
 25 C       10.2020     0.2180     0.3390 C.ar  1 <1>  -0.1500 
 26 C        9.8060    -2.2400     0.0080 C.3   1 <1>  -0.0970 
 27 C        8.4100     1.7850     0.5710 C.ar  1 <1>  -0.1500 
 28 C        9.7650     1.5170     0.5210 C.ar  1 <1>  -0.1500 
 29 H        0.2190     0.2100     1.4400 H     1 <1>   0.0800 
 30 H        1.4580     0.9070     0.4160 H     1 <1>   0.0800 
 31 H       -1.2680    -1.6840     1.2800 H     1 <1>   0.0800 
 32 H        0.2250    -3.6860    -1.4530 H     1 <1>   0.0800 
 33 H        0.6460    -2.1030    -2.0140 H     1 <1>   0.0800 
 34 H        0.6620    -2.7300     2.1960 H     1 <1>   0.0800 
 35 H        0.2430    -4.0810     1.1960 H     1 <1>   0.0800 
 36 H        0.1550     0.3070    -1.5840 H     1 <1>   0.0800 
 37 H       -0.7260     1.4150    -0.5890 H     1 <1>   0.0800 
 38 H       -2.8100    -2.7430     0.0330 H     1 <1>   0.4000 
 39 H        2.9020    -2.3250    -1.1200 H     1 <1>   0.0800 
 40 H        2.5430    -3.6310    -2.2290 H     1 <1>   0.0800 
 41 H        2.5730    -4.2470     1.9350 H     1 <1>   0.0800 
 42 H        2.9190    -2.6740     1.2470 H     1 <1>   0.0800 
 43 H       -2.8910     0.7380    -0.3080 H     1 <1>   0.4000 
 44 H       -1.4390    -1.3870    -2.5650 H     1 <1>   0.0800 
 45 H       -2.3560     0.0800    -2.4210 H     1 <1>   0.0800 
 46 H       -3.0240    -1.4350    -1.8600 H     1 <1>   0.0800 
 47 H        1.9250    -4.9760    -0.2960 H     1 <1>   0.4500 
 48 H        4.1310    -5.4670     0.5000 H     1 <1>   0.0800 
 49 H        4.1120    -5.2280    -1.2240 H     1 <1>   0.0800 
 50 H        5.1800    -3.7930     2.0050 H     1 <1>   0.1500 
 51 H        5.1540    -3.2290    -2.2430 H     1 <1>   0.1500 
 52 H        6.8410    -2.0160     2.2080 H     1 <1>   0.1500 
 53 H        6.8160    -1.4590    -1.9950 H     1 <1>   0.1500 
 54 H        6.4470     0.9630     0.4800 H     1 <1>   0.1500 
 55 H       11.2600     0.0230     0.3010 H     1 <1>   0.1500 
 56 H       10.8810    -2.2670    -0.0040 H     1 <1>   0.0800 
 57 H        9.4460    -2.6320    -0.9270 H     1 <1>   0.0800 
 58 H        9.4590    -2.8700     0.8060 H     1 <1>   0.0800 
 59 H        8.0650     2.7940     0.7130 H     1 <1>   0.1500 
 60 H       10.4770     2.3170     0.6230 H     1 <1>   0.1500 
@<TRIPOS>BOND
  1   1   2  1   
  2   1   3  1   
  3   2   4  1   
  4   2   5  1   
  5   2   6  1   
  6   3   7  1   
  7   3  29  1   
  8   3  30  1   
  9   4   8  1   
 10   4   9  1   
 11   4  31  1   
 12   5  10  1   
 13   5  32  1   
 14   5  33  1   
 15   6  11  1   
 16   6  34  1   
 17   6  35  1   
 18   7   9  1   
 19   7  36  1   
 20   7  37  1   
 21   8  38  1   
 22   9  12  1   
 23   9  13  1   
 24  10  14  1   
 25  10  39  1   
 26  10  40  1   
 27  11  14  1   
 28  11  41  1   
 29  11  42  1   
 30  12  43  1   
 31  13  44  1   
 32  13  45  1   
 33  13  46  1   
 34  14  15  1   
 35  14  47  1   
 36  15  16  1   
 37  15  48  1   
 38  15  49  1   
 39  16  17  ar  
 40  16  18  ar  
 41  17  19  ar  
 42  17  50  1   
 43  18  20  ar  
 44  18  51  1   
 45  19  21  ar  
 46  19  52  1   
 47  20  21  ar  
 48  20  53  1   
 49  21  22  1   
 50  22  23  ar  
 51  22  24  ar  
 52  23  25  ar  
 53  23  26  1   
 54  24  27  ar  
 55  24  54  1   
 56  25  28  ar  
 57  25  55  1   
 58  26  56  1   
 59  26  57  1   
 60  26  58  1   
 61  27  28  ar  
 62  27  59  1   
 63  28  60  1   
@<TRIPOS>SUBSTRUCTURE
  1 ****  16 GROUP 4 **** **** 0

# MOE 2024.06 (io_trps.svl 2023.06)
