@<TRIPOS>MOLECULE
NONAME
32 34 1 0 0 
SMALL
USER_CHARGES


@<TRIPOS>ATOM
  1 O       -0.5450     0.1270     1.3820 O.2   1 <1>  -0.5700 
  2 C       -1.5580     0.7160     1.0520 C.2   1 <1>   0.5440 
  3 N       -2.7830     0.1050     1.2430 N.am  1 <1>  -0.6600 
  4 C       -1.4650     2.0570     0.4860 C.ar  1 <1>   0.0860 
  5 C       -4.0860     0.7580     0.9460 C.3   1 <1>   0.2350 
  6 C       -3.0030    -1.3490     1.0000 C.3   1 <1>   0.2350 
  7 C       -2.1890     2.3810    -0.6540 C.ar  1 <1>  -0.1500 
  8 C       -0.7260     3.0890     1.0670 C.ar  1 <1>  -0.1500 
  9 C       -4.5880     0.0440    -0.2980 C.3   1 <1>  -0.2420 
 10 C       -4.0920    -1.3810    -0.0780 C.3   1 <1>  -0.2420 
 11 C       -2.3520     3.6740    -1.0800 C.ar  1 <1>   0.0820 
 12 C       -0.7920     4.3880     0.5770 C.ar  1 <1>  -0.1500 
 13 C       -5.5580     1.0160    -0.9750 C.2   1 <1>   0.9470 
 14 C       -3.7990    -0.7130    -1.3650 C.3   1 <1>  -0.2000 
 15 C       -4.9030    -2.6750    -0.0200 C.2   1 <1>   0.9470 
 16 O       -3.2920     3.8990    -2.0130 O.3   1 <1>  -0.5320 
 17 C       -1.6250     4.6920    -0.4900 C.ar  1 <1>  -0.1500 
 18 O       -5.0670     1.9360    -1.6660 O.co2 1 <1>  -0.9000 
 19 O       -6.7660     0.9790    -0.7310 O.co2 1 <1>  -0.9000 
 20 O       -4.9300    -3.4220    -1.0070 O.co2 1 <1>  -0.9000 
 21 O       -5.4050    -3.0120     1.0610 O.co2 1 <1>  -0.9000 
 22 H       -4.7720     0.5640     1.7530 H     1 <1>   0.0800 
 23 H       -4.0190     1.8230     0.8280 H     1 <1>   0.0800 
 24 H       -2.1060    -1.8360     0.6610 H     1 <1>   0.0800 
 25 H       -3.3500    -1.8140     1.9070 H     1 <1>   0.0800 
 26 H       -2.6890     1.6170    -1.2020 H     1 <1>   0.1500 
 27 H       -0.1100     2.8600     1.9190 H     1 <1>   0.1500 
 28 H       -0.2110     5.1670     1.0400 H     1 <1>   0.1500 
 29 H       -2.7780    -0.4830    -1.5980 H     1 <1>   0.1000 
 30 H       -4.3370    -1.0560    -2.2330 H     1 <1>   0.1000 
 31 H       -3.9970     3.1680    -2.0010 H     1 <1>   0.4500 
 32 H       -1.7300     5.6970    -0.8550 H     1 <1>   0.1500 
@<TRIPOS>BOND
  1   1   2  2   
  2   2   3  am  
  3   2   4  1   
  4   3   5  1   
  5   3   6  1   
  6   4   7  ar  
  7   4   8  ar  
  8   5   9  1   
  9   5  22  1   
 10   5  23  1   
 11   6  10  1   
 12   6  24  1   
 13   6  25  1   
 14   7  11  ar  
 15   7  26  1   
 16   8  12  ar  
 17   8  27  1   
 18   9  10  1   
 19   9  13  1   
 20   9  14  1   
 21  10  14  1   
 22  10  15  1   
 23  11  16  1   
 24  11  17  ar  
 25  12  17  ar  
 26  12  28  1   
 27  13  18  ar  
 28  13  19  ar  
 29  14  29  1   
 30  14  30  1   
 31  15  20  ar  
 32  15  21  ar  
 33  16  31  1   
 34  17  32  1   
@<TRIPOS>SUBSTRUCTURE
  1 ****   5 GROUP 4 **** **** 0

# MOE 2024.06 (io_trps.svl 2023.06)
