@<TRIPOS>MOLECULE
NONAME
62 66 1 0 0 
SMALL
USER_CHARGES


@<TRIPOS>ATOM
  1 F       -0.3780     1.1990    -0.6600 F     1 <1>  -0.1900 
  2 C       -1.6540     1.1980    -0.3690 C.ar  1 <1>   0.1900 
  3 C       -2.4450     2.3460    -0.4940 C.ar  1 <1>   0.0830 
  4 C       -2.1830     0.0000     0.0730 C.ar  1 <1>  -0.1500 
  5 O       -2.0430     3.5790    -0.9140 O.3   1 <1>  -0.3630 
  6 C       -3.7860     2.2410    -0.1590 C.ar  1 <1>  -0.1500 
  7 C       -3.5250    -0.0690     0.4000 C.ar  1 <1>  -0.1500 
  8 C       -0.7220     3.8610    -1.3190 C.3   1 <1>   0.0400 
  9 C       -4.3560     1.0460     0.2840 C.ar  1 <1>   0.0530 
 10 C       -5.7550     0.9920     0.6210 C.2   1 <1>   0.0870 
 11 O       -6.2730     1.9340     1.3700 O.3   1 <1>  -0.0190 
 12 C       -6.7660     0.1360     0.3080 C.2   1 <1>  -0.0860 
 13 N       -7.5490     1.7660     1.5950 N.2   1 <1>  -0.4100 
 14 C       -7.8690     0.6870     0.9740 C.2   1 <1>   0.3720 
 15 C       -6.8060    -1.0420    -0.5000 C.2   1 <1>   0.7160 
 16 N       -9.1680     0.1500     0.9940 N.pl3 1 <1>  -0.8210 
 17 O       -5.8560    -1.7950    -0.5970 O.2   1 <1>  -0.5700 
 18 N       -7.9590    -1.3560    -1.1460 N.am  1 <1>  -0.7300 
 19 C       -9.5900    -0.2450     2.3710 C.3   1 <1>   0.1290 
 20 C      -10.1780     1.0660     0.3880 C.3   1 <1>   0.1290 
 21 C       -8.4140    -2.7390    -1.4460 C.3   1 <1>   0.1400 
 22 C       -9.3160    -3.3060    -0.3130 C.3   1 <1>   0.2800 
 23 O      -10.2690    -2.3240    -0.0370 O.3   1 <1>  -0.6800 
 24 C       -8.5450    -3.6200     1.0030 C.3   1 <1>  -0.0800 
 25 C      -10.0530    -4.5990    -0.7550 C.3   1 <1>  -0.0800 
 26 C       -7.5190    -4.7540     0.7690 C.3   1 <1>  -0.1600 
 27 C       -9.5200    -4.0980     2.1070 C.3   1 <1>  -0.1600 
 28 C       -9.0310    -5.7340    -1.0050 C.3   1 <1>  -0.1600 
 29 C      -11.0290    -5.0790     0.3470 C.3   1 <1>  -0.1600 
 30 C       -8.2400    -6.0280     0.2860 C.3   1 <1>  -0.0800 
 31 C      -10.2570    -5.3720     1.6480 C.3   1 <1>  -0.0800 
 32 C       -9.2240    -6.4820     1.3800 C.3   1 <1>  -0.1600 
 33 H       -1.5510    -0.8660     0.1610 H     1 <1>   0.1500 
 34 H       -4.4050     3.1150    -0.2490 H     1 <1>   0.1500 
 35 H       -3.9330    -1.0000     0.7520 H     1 <1>   0.1500 
 36 H       -0.6750     4.8930    -1.6140 H     1 <1>   0.0800 
 37 H       -0.4700     3.2320    -2.1550 H     1 <1>   0.0800 
 38 H       -0.0570     3.6890    -0.4910 H     1 <1>   0.0800 
 39 H       -8.7390    -0.7300    -0.9210 H     1 <1>   0.3700 
 40 H       -8.8500    -0.8930     2.8100 H     1 <1>   0.0800 
 41 H      -10.5300    -0.7690     2.3370 H     1 <1>   0.0800 
 42 H       -9.6950     0.6280     2.9940 H     1 <1>   0.0800 
 43 H       -9.8320     1.4160    -0.5690 H     1 <1>   0.0800 
 44 H      -10.3390     1.9190     1.0270 H     1 <1>   0.0800 
 45 H      -11.1120     0.5470     0.2500 H     1 <1>   0.0800 
 46 H       -7.5600    -3.3690    -1.6160 H     1 <1>   0.0800 
 47 H       -8.9790    -2.7210    -2.3600 H     1 <1>   0.0800 
 48 H       -9.8180    -1.5510     0.3820 H     1 <1>   0.4000 
 49 H       -8.0210    -2.7450     1.3410 H     1 <1>   0.0800 
 50 H      -10.6010    -4.4070    -1.6610 H     1 <1>   0.0800 
 51 H       -6.9980    -4.9620     1.6870 H     1 <1>   0.0800 
 52 H       -6.7730    -4.4560     0.0540 H     1 <1>   0.0800 
 53 H      -10.2380    -3.3300     2.3320 H     1 <1>   0.0800 
 54 H       -8.9740    -4.3010     3.0120 H     1 <1>   0.0800 
 55 H       -8.3530    -5.4720    -1.7970 H     1 <1>   0.0800 
 56 H       -9.5500    -6.6230    -1.3170 H     1 <1>   0.0800 
 57 H      -11.5390    -5.9670     0.0200 H     1 <1>   0.0800 
 58 H      -11.7790    -4.3290     0.5300 H     1 <1>   0.0800 
 59 H       -7.5190    -6.8070     0.1030 H     1 <1>   0.0800 
 60 H      -10.9430    -5.6910     2.4140 H     1 <1>   0.0800 
 61 H       -8.6870    -6.7070     2.2850 H     1 <1>   0.0800 
 62 H       -9.7280    -7.3810     1.0680 H     1 <1>   0.0800 
@<TRIPOS>BOND
  1   1   2  1   
  2   2   3  ar  
  3   2   4  ar  
  4   3   5  1   
  5   3   6  ar  
  6   4   7  ar  
  7   4  33  1   
  8   5   8  1   
  9   6   9  ar  
 10   6  34  1   
 11   7   9  ar  
 12   7  35  1   
 13   8  36  1   
 14   8  37  1   
 15   8  38  1   
 16   9  10  1   
 17  10  11  1   
 18  10  12  2   
 19  11  13  1   
 20  12  14  1   
 21  12  15  1   
 22  13  14  2   
 23  14  16  1   
 24  15  17  2   
 25  15  18  am  
 26  16  19  1   
 27  16  20  1   
 28  18  21  1   
 29  18  39  1   
 30  19  40  1   
 31  19  41  1   
 32  19  42  1   
 33  20  43  1   
 34  20  44  1   
 35  20  45  1   
 36  21  22  1   
 37  21  46  1   
 38  21  47  1   
 39  22  23  1   
 40  22  24  1   
 41  22  25  1   
 42  23  48  1   
 43  24  26  1   
 44  24  27  1   
 45  24  49  1   
 46  25  28  1   
 47  25  29  1   
 48  25  50  1   
 49  26  30  1   
 50  26  51  1   
 51  26  52  1   
 52  27  31  1   
 53  27  53  1   
 54  27  54  1   
 55  28  30  1   
 56  28  55  1   
 57  28  56  1   
 58  29  31  1   
 59  29  57  1   
 60  29  58  1   
 61  30  32  1   
 62  30  59  1   
 63  31  32  1   
 64  31  60  1   
 65  32  61  1   
 66  32  62  1   
@<TRIPOS>SUBSTRUCTURE
  1 ****  15 GROUP 4 **** **** 0

# MOE 2024.06 (io_trps.svl 2023.06)
