@<TRIPOS>MOLECULE
NONAME
48 50 1 0 0 
SMALL
USER_CHARGES


@<TRIPOS>ATOM
  1 O        1.3780     0.0040     2.0710 O.2   1 <1>  -0.5700 
  2 C        2.3510     0.0190     1.3510 C.2   1 <1>   0.7150 
  3 N        3.0430    -1.1390     1.2150 N.am  1 <1>  -0.7300 
  4 C        2.7980     1.2130     0.6960 C.2   1 <1>  -0.2370 
  5 C        4.4590    -1.1780     0.7660 C.3   1 <1>   0.1400 
  6 N        3.4570     1.2260    -0.4890 N.pl3 1 <1>   0.3140 
  7 C        2.7070     2.5140     1.0680 C.2   1 <1>  -0.1500 
  8 C        4.5610    -1.0270    -0.7630 C.3   1 <1>   0.2000 
  9 N        3.8080     2.4590    -0.8660 N.2   1 <1>  -0.7070 
 10 C        3.6640     0.0620    -1.3800 C.3   1 <1>   0.0960 
 11 C        3.3490     3.2610     0.0830 C.2   1 <1>   0.2030 
 12 O        4.1930    -2.2380    -1.3300 O.3   1 <1>  -0.6800 
 13 C        3.4870     4.7100     0.1010 C.2   1 <1>   0.7160 
 14 O        3.0780     5.3880     1.0280 O.2   1 <1>  -0.5700 
 15 N        4.1030     5.3380    -0.9440 N.am  1 <1>  -0.7300 
 16 C        4.2420     6.8030    -1.1300 C.3   1 <1>   0.1400 
 17 C        5.3990     7.3410    -0.2900 C.3   1 <1>   0.1200 
 18 O        5.6130     8.6920    -0.6380 O.3   1 <1>  -0.3630 
 19 C        6.6110     9.4130    -0.0680 C.ar  1 <1>   0.0820 
 20 C        6.7990    10.7010    -0.5390 C.ar  1 <1>  -0.1500 
 21 C        7.4360     8.9310     0.9420 C.ar  1 <1>  -0.1500 
 22 C        7.7970    11.5140    -0.0230 C.ar  1 <1>  -0.1430 
 23 C        8.4330     9.7380     1.4600 C.ar  1 <1>  -0.1500 
 24 C        8.6220    11.0280     0.9860 C.ar  1 <1>  -0.1430 
 25 C        7.9620    12.9220    -0.5770 C.3   1 <1>  -0.0970 
 26 C        9.7320    11.8800     1.5850 C.3   1 <1>  -0.0970 
 27 H        2.7250    -1.8920     1.8300 H     1 <1>   0.3700 
 28 H        4.9220    -2.1000     1.0750 H     1 <1>   0.0800 
 29 H        4.9960    -0.3720     1.2380 H     1 <1>   0.0800 
 30 H        2.2390     2.9170     1.9510 H     1 <1>   0.1500 
 31 H        5.5870    -0.8490    -1.0390 H     1 <1>   0.0800 
 32 H        4.1020     0.4080    -2.2980 H     1 <1>   0.0800 
 33 H        2.6940    -0.3430    -1.5980 H     1 <1>   0.0800 
 34 H        3.3290    -2.5250    -0.9680 H     1 <1>   0.4000 
 35 H        4.4290     4.7240    -1.6970 H     1 <1>   0.3700 
 36 H        3.3290     7.2890    -0.8280 H     1 <1>   0.0800 
 37 H        4.4220     7.0100    -2.1710 H     1 <1>   0.0800 
 38 H        6.3020     6.7950    -0.4990 H     1 <1>   0.0800 
 39 H        5.1540     7.2910     0.7560 H     1 <1>   0.0800 
 40 H        6.1510    11.0580    -1.3180 H     1 <1>   0.1500 
 41 H        7.3190     7.9400     1.3370 H     1 <1>   0.1500 
 42 H        9.0630     9.3520     2.2410 H     1 <1>   0.1500 
 43 H        7.2360    13.1210    -1.3450 H     1 <1>   0.0800 
 44 H        8.9420    13.0380    -1.0030 H     1 <1>   0.0800 
 45 H        7.8300    13.6450     0.2070 H     1 <1>   0.0800 
 46 H       10.4310    12.1640     0.8200 H     1 <1>   0.0800 
 47 H       10.2650    11.3410     2.3460 H     1 <1>   0.0800 
 48 H        9.3160    12.7670     2.0280 H     1 <1>   0.0800 
@<TRIPOS>BOND
  1   1   2  2   
  2   2   3  am  
  3   2   4  1   
  4   3   5  1   
  5   3  27  1   
  6   4   6  1   
  7   4   7  2   
  8   5   8  1   
  9   5  28  1   
 10   5  29  1   
 11   6   9  1   
 12   6  10  1   
 13   7  11  1   
 14   7  30  1   
 15   8  10  1   
 16   8  12  1   
 17   8  31  1   
 18   9  11  2   
 19  10  32  1   
 20  10  33  1   
 21  11  13  1   
 22  12  34  1   
 23  13  14  2   
 24  13  15  am  
 25  15  16  1   
 26  15  35  1   
 27  16  17  1   
 28  16  36  1   
 29  16  37  1   
 30  17  18  1   
 31  17  38  1   
 32  17  39  1   
 33  18  19  1   
 34  19  20  ar  
 35  19  21  ar  
 36  20  22  ar  
 37  20  40  1   
 38  21  23  ar  
 39  21  41  1   
 40  22  24  ar  
 41  22  25  1   
 42  23  24  ar  
 43  23  42  1   
 44  24  26  1   
 45  25  43  1   
 46  25  44  1   
 47  25  45  1   
 48  26  46  1   
 49  26  47  1   
 50  26  48  1   
@<TRIPOS>SUBSTRUCTURE
  1 ****  15 GROUP 4 **** **** 0

# MOE 2024.06 (io_trps.svl 2023.06)
