@<TRIPOS>MOLECULE
NONAME
39 40 1 0 0 
SMALL
USER_CHARGES


@<TRIPOS>ATOM
  1 O       -0.3620     0.2130     0.4760 O.2   1 <1>  -0.5700 
  2 C       -1.4200     0.7860     0.5880 C.2   1 <1>   0.5690 
  3 N       -2.5560     0.1240     0.9780 N.am  1 <1>  -0.6600 
  4 C       -1.4600     2.2740     0.2810 C.3   1 <1>  -0.0990 
  5 C       -2.4990    -1.3260     1.3130 C.3   1 <1>   0.3200 
  6 C       -3.8890     0.7800     1.1640 C.3   1 <1>   0.1400 
  7 C       -0.1060     2.8100    -0.2040 C.3   1 <1>   0.0960 
  8 C       -3.2810    -2.1140     0.2840 C.2   1 <1>  -0.3320 
  9 C       -4.6940     0.8160    -0.1420 C.3   1 <1>   0.1200 
 10 N       -0.2100     4.2380    -0.5490 N.pl3 1 <1>   0.3140 
 11 N       -4.2320    -3.0230     0.5710 N.pl3 1 <1>   0.0330 
 12 C       -3.1910    -2.0770    -1.0640 C.2   1 <1>   0.0770 
 13 O       -5.8340     1.5830     0.0510 O.3   1 <1>  -0.6800 
 14 N       -0.3990     5.1870     0.3870 N.2   1 <1>  -0.7070 
 15 C       -0.1520     4.7770    -1.7840 C.2   1 <1>  -0.3020 
 16 C       -4.6710    -3.4680    -0.6260 C.2   1 <1>   0.0060 
 17 N       -4.0730    -2.9200    -1.6310 N.2   1 <1>  -0.5650 
 18 C       -0.4520     6.3030    -0.2740 C.2   1 <1>   0.1390 
 19 C       -0.3040     6.1100    -1.6420 C.2   1 <1>  -0.1500 
 20 C       -5.7570    -4.5120    -0.7670 C.3   1 <1>  -0.0600 
 21 H       -1.7380     2.8020     1.1750 H     1 <1>   0.0800 
 22 H       -2.1980     2.4540    -0.4780 H     1 <1>   0.0800 
 23 H       -2.9100    -1.4770     2.2960 H     1 <1>   0.0800 
 24 H       -1.4820    -1.6820     1.3290 H     1 <1>   0.0800 
 25 H       -3.7500     1.7860     1.5170 H     1 <1>   0.0800 
 26 H       -4.4490     0.2450     1.9110 H     1 <1>   0.0800 
 27 H        0.2210     2.2660    -1.0720 H     1 <1>   0.0800 
 28 H        0.6330     2.7010     0.5690 H     1 <1>   0.0800 
 29 H       -5.0000    -0.1680    -0.4520 H     1 <1>   0.0800 
 30 H       -4.1230     1.2770    -0.9280 H     1 <1>   0.0800 
 31 H       -4.5600    -3.3320     1.4910 H     1 <1>   0.2700 
 32 H       -2.5270    -1.4730    -1.6610 H     1 <1>   0.1500 
 33 H       -6.5380     1.0610     0.4820 H     1 <1>   0.4000 
 34 H       -0.0100     4.1940    -2.6750 H     1 <1>   0.1500 
 35 H       -0.5960     7.2620     0.1950 H     1 <1>   0.1500 
 36 H       -0.3140     6.8770    -2.3950 H     1 <1>   0.1500 
 37 H       -6.6690    -4.1630    -0.3180 H     1 <1>   0.0800 
 38 H       -5.4520    -5.4290    -0.2950 H     1 <1>   0.0800 
 39 H       -5.9390    -4.7070    -1.8090 H     1 <1>   0.0800 
@<TRIPOS>BOND
  1   1   2  2   
  2   2   3  am  
  3   2   4  1   
  4   3   5  1   
  5   3   6  1   
  6   4   7  1   
  7   4  21  1   
  8   4  22  1   
  9   5   8  1   
 10   5  23  1   
 11   5  24  1   
 12   6   9  1   
 13   6  25  1   
 14   6  26  1   
 15   7  10  1   
 16   7  27  1   
 17   7  28  1   
 18   8  11  1   
 19   8  12  2   
 20   9  13  1   
 21   9  29  1   
 22   9  30  1   
 23  10  14  1   
 24  10  15  1   
 25  11  16  1   
 26  11  31  1   
 27  12  17  1   
 28  12  32  1   
 29  13  33  1   
 30  14  18  2   
 31  15  19  2   
 32  15  34  1   
 33  16  17  2   
 34  16  20  1   
 35  18  19  1   
 36  18  35  1   
 37  19  36  1   
 38  20  37  1   
 39  20  38  1   
 40  20  39  1   
@<TRIPOS>SUBSTRUCTURE
  1 ****   2 GROUP 4 **** **** 0

# MOE 2024.06 (io_trps.svl 2023.06)
