@<TRIPOS>MOLECULE
NONAME
45 46 1 0 0 
SMALL
USER_CHARGES


@<TRIPOS>ATOM
  1 O       -0.5060     0.2160    -1.7420 O.2   1 <1>  -0.5700 
  2 C        0.0920    -0.4420    -0.9230 C.2   1 <1>   0.5690 
  3 N        0.9670     0.0800    -0.0180 N.am  1 <1>  -0.4930 
  4 C       -0.1420    -1.9460    -0.9110 C.3   1 <1>   0.1810 
  5 C        1.4290     1.4070     0.1710 C.2   1 <1>   0.0630 
  6 O        0.6840    -2.5900     0.0520 O.3   1 <1>  -0.3630 
  7 C        0.7390     2.6220     0.1050 C.2   1 <1>   0.1080 
  8 C        2.6960     1.7490     0.4970 C.2   1 <1>  -0.3320 
  9 C        0.6280    -3.9320     0.2360 C.ar  1 <1>   0.0830 
 10 N        1.5070     3.6350     0.3640 N.2   1 <1>  -0.7070 
 11 C       -0.7280     2.8110    -0.2060 C.3   1 <1>  -0.0590 
 12 N        2.7180     3.1020     0.6010 N.pl3 1 <1>   0.3140 
 13 C        3.9080     0.8530     0.7110 C.3   1 <1>  -0.0600 
 14 C       -0.1920    -4.7830    -0.5020 C.ar  1 <1>  -0.1500 
 15 C        1.4470    -4.4600     1.2210 C.ar  1 <1>  -0.1500 
 16 C        3.8720     3.9650     0.9240 C.3   1 <1>   0.0960 
 17 C       -0.1900    -6.1460    -0.2530 C.ar  1 <1>  -0.1430 
 18 C        1.4500    -5.8190     1.4730 C.ar  1 <1>  -0.1500 
 19 C        4.6350     4.3620    -0.3480 C.3   1 <1>  -0.1600 
 20 C        0.6330    -6.6600     0.7380 C.ar  1 <1>  -0.1500 
 21 C       -1.0830    -7.0790    -1.0520 C.3   1 <1>  -0.0970 
 22 C        5.8440     5.2480    -0.0220 C.3   1 <1>  -0.2400 
 23 H        1.4320    -0.6180     0.5630 H     1 <1>   0.3700 
 24 H        0.0900    -2.3460    -1.8810 H     1 <1>   0.0800 
 25 H       -1.1700    -2.1430    -0.6660 H     1 <1>   0.0800 
 26 H       -1.3010     1.9970     0.1980 H     1 <1>   0.0800 
 27 H       -0.8660     2.8480    -1.2700 H     1 <1>   0.0800 
 28 H       -1.0770     3.7310     0.2240 H     1 <1>   0.0800 
 29 H        3.6580    -0.1770     0.5290 H     1 <1>   0.0800 
 30 H        4.2630     0.9440     1.7220 H     1 <1>   0.0800 
 31 H        4.6970     1.1300     0.0350 H     1 <1>   0.0800 
 32 H       -0.8370    -4.4050    -1.2710 H     1 <1>   0.1500 
 33 H        2.0790    -3.8040     1.7900 H     1 <1>   0.1500 
 34 H        4.5170     3.4400     1.6040 H     1 <1>   0.0800 
 35 H        3.5000     4.8450     1.4170 H     1 <1>   0.0800 
 36 H        2.0860    -6.2240     2.2400 H     1 <1>   0.1500 
 37 H        3.9680     4.8980    -1.0020 H     1 <1>   0.0800 
 38 H        4.9710     3.4770    -0.8590 H     1 <1>   0.0800 
 39 H        0.6400    -7.7160     0.9400 H     1 <1>   0.1500 
 40 H       -1.3350    -6.6440    -2.0020 H     1 <1>   0.0800 
 41 H       -1.9890    -7.2710    -0.5060 H     1 <1>   0.0800 
 42 H       -0.5810    -8.0130    -1.2310 H     1 <1>   0.0800 
 43 H        5.5260     6.1510     0.4690 H     1 <1>   0.0800 
 44 H        6.3550     5.5170    -0.9300 H     1 <1>   0.0800 
 45 H        6.5340     4.7270     0.6180 H     1 <1>   0.0800 
@<TRIPOS>BOND
  1   1   2  2   
  2   2   3  am  
  3   2   4  1   
  4   3   5  1   
  5   3  23  1   
  6   4   6  1   
  7   4  24  1   
  8   4  25  1   
  9   5   7  1   
 10   5   8  2   
 11   6   9  1   
 12   7  10  2   
 13   7  11  1   
 14   8  12  1   
 15   8  13  1   
 16   9  14  ar  
 17   9  15  ar  
 18  10  12  1   
 19  11  26  1   
 20  11  27  1   
 21  11  28  1   
 22  12  16  1   
 23  13  29  1   
 24  13  30  1   
 25  13  31  1   
 26  14  17  ar  
 27  14  32  1   
 28  15  18  ar  
 29  15  33  1   
 30  16  19  1   
 31  16  34  1   
 32  16  35  1   
 33  17  20  ar  
 34  17  21  1   
 35  18  20  ar  
 36  18  36  1   
 37  19  22  1   
 38  19  37  1   
 39  19  38  1   
 40  20  39  1   
 41  21  40  1   
 42  21  41  1   
 43  21  42  1   
 44  22  43  1   
 45  22  44  1   
 46  22  45  1   
@<TRIPOS>SUBSTRUCTURE
  1 ****   3 GROUP 4 **** **** 0

# MOE 2024.06 (io_trps.svl 2023.06)
