@<TRIPOS>MOLECULE
NONAME
45 46 1 0 0 
SMALL
USER_CHARGES


@<TRIPOS>ATOM
  1 CL      -2.9900     0.2810     2.8670 Cl    1 <1>  -0.1770 
  2 C       -3.3840     0.6090     1.1970 C.ar  1 <1>   0.1770 
  3 C       -2.9960    -0.2710     0.1960 C.ar  1 <1>  -0.1440 
  4 C       -4.0840     1.7660     0.9090 C.ar  1 <1>  -0.1500 
  5 C       -3.3190     0.0370    -1.1180 C.ar  1 <1>  -0.1500 
  6 C       -2.2440    -1.5610     0.5150 C.3   1 <1>   0.0890 
  7 C       -4.4020     2.0600    -0.4050 C.ar  1 <1>  -0.1500 
  8 C       -4.0180     1.1960    -1.4160 C.ar  1 <1>  -0.1500 
  9 S       -3.3230    -2.9680     0.8170 S.o2  1 <1>   1.3330 
 10 O       -4.2360    -2.6720     1.8930 O.2   1 <1>  -0.6500 
 11 O       -2.4950    -4.1480     0.8730 O.2   1 <1>  -0.6500 
 12 N       -4.2820    -3.0280    -0.5690 N.am  1 <1>  -0.9140 
 13 C       -5.1030    -4.2160    -0.8580 C.3   1 <1>   0.2760 
 14 C       -6.0940    -4.5830     0.2490 C.3   1 <1>  -0.0800 
 15 C       -4.3270    -5.5210    -1.1070 C.3   1 <1>   0.1200 
 16 C       -5.4250    -5.8110     0.8640 C.3   1 <1>   0.1200 
 17 C       -7.4650    -4.9590    -0.3510 C.3   1 <1>  -0.0550 
 18 O       -4.8520    -6.4640    -0.2200 O.3   1 <1>  -0.5600 
 19 S       -8.7850    -5.0700     0.8570 S.o2  1 <1>   1.3330 
 20 O       -9.0330    -3.7330     1.3450 O.2   1 <1>  -0.6500 
 21 O       -8.5280    -6.1430     1.7920 O.2   1 <1>  -0.6500 
 22 N      -10.1100    -5.5320    -0.0980 N.am  1 <1>  -0.8490 
 23 C      -11.3840    -5.0760     0.4660 C.3   1 <1>   0.1160 
 24 C      -10.1680    -6.9760    -0.3490 C.3   1 <1>   0.1160 
 25 H       -4.3720     2.4280     1.7060 H     1 <1>   0.1500 
 26 H       -3.0330    -0.6240    -1.9200 H     1 <1>   0.1500 
 27 H       -1.6120    -1.4120     1.3680 H     1 <1>   0.0800 
 28 H       -1.6000    -1.7950    -0.3100 H     1 <1>   0.0800 
 29 H       -4.9460     2.9600    -0.6400 H     1 <1>   0.1500 
 30 H       -4.2620     1.4280    -2.4390 H     1 <1>   0.1500 
 31 H       -4.9410    -2.2620    -0.4210 H     1 <1>   0.4200 
 32 H       -5.6440    -3.9930    -1.7620 H     1 <1>   0.0800 
 33 H       -6.2330    -3.7990     0.9700 H     1 <1>   0.0800 
 34 H       -3.2720    -5.4310    -0.9330 H     1 <1>   0.0800 
 35 H       -4.4920    -5.8850    -2.1050 H     1 <1>   0.0800 
 36 H       -6.1040    -6.4800     1.3620 H     1 <1>   0.0800 
 37 H       -4.6360    -5.5330     1.5440 H     1 <1>   0.0800 
 38 H       -7.3780    -5.8890    -0.8780 H     1 <1>   0.0800 
 39 H       -7.7480    -4.2090    -1.0640 H     1 <1>   0.0800 
 40 H      -12.2010    -5.3710    -0.1690 H     1 <1>   0.0800 
 41 H      -11.3910    -4.0010     0.5440 H     1 <1>   0.0800 
 42 H      -11.5290    -5.4940     1.4490 H     1 <1>   0.0800 
 43 H      -10.9700    -7.2010    -1.0320 H     1 <1>   0.0800 
 44 H      -10.3310    -7.5130     0.5710 H     1 <1>   0.0800 
 45 H       -9.2450    -7.3170    -0.7860 H     1 <1>   0.0800 
@<TRIPOS>BOND
  1   1   2  1   
  2   2   3  ar  
  3   2   4  ar  
  4   3   5  ar  
  5   3   6  1   
  6   4   7  ar  
  7   4  25  1   
  8   5   8  ar  
  9   5  26  1   
 10   6   9  1   
 11   6  27  1   
 12   6  28  1   
 13   7   8  ar  
 14   7  29  1   
 15   8  30  1   
 16   9  10  2   
 17   9  11  2   
 18   9  12  am  
 19  12  13  1   
 20  12  31  1   
 21  13  14  1   
 22  13  15  1   
 23  13  32  1   
 24  14  16  1   
 25  14  17  1   
 26  14  33  1   
 27  15  18  1   
 28  15  34  1   
 29  15  35  1   
 30  16  18  1   
 31  16  36  1   
 32  16  37  1   
 33  17  19  1   
 34  17  38  1   
 35  17  39  1   
 36  19  20  2   
 37  19  21  2   
 38  19  22  am  
 39  22  23  1   
 40  22  24  1   
 41  23  40  1   
 42  23  41  1   
 43  23  42  1   
 44  24  43  1   
 45  24  44  1   
 46  24  45  1   
@<TRIPOS>SUBSTRUCTURE
  1 ****  12 GROUP 4 **** **** 0

# MOE 2024.06 (io_trps.svl 2023.06)
