@<TRIPOS>MOLECULE
NONAME
23 23 1 0 0 
SMALL
USER_CHARGES


@<TRIPOS>ATOM
  1 F        0.8130     0.1110     0.3820 F     1 <1>  -0.3400 
  2 C        0.8860    -1.1130    -0.1210 C.3   1 <1>   0.6800 
  3 F        1.0780    -0.9360    -1.4220 F     1 <1>  -0.3400 
  4 C       -0.4410    -1.8420     0.1000 C.3   1 <1>  -0.1600 
  5 C        2.0960    -1.8410     0.4720 C.3   1 <1>  -0.1600 
  6 C       -0.3630    -3.3130    -0.3510 C.3   1 <1>  -0.1600 
  7 C        2.1530    -3.3100     0.0110 C.3   1 <1>  -0.1600 
  8 C        0.8310    -4.0500     0.2960 C.3   1 <1>  -0.0800 
  9 C        0.9330    -5.5040    -0.1960 C.3   1 <1>   0.0860 
 10 N       -0.2550    -6.2620     0.1820 N.2   1 <1>  -0.5640 
 11 N       -0.1130    -7.2700     0.9110 N.1   1 <1>   0.6880 
 12 N        0.0470    -8.2580     1.6310 N.1   1 <1>  -0.3700 
 13 H       -1.2240    -1.3310    -0.4310 H     1 <1>   0.0800 
 14 H       -0.6700    -1.8190     1.1500 H     1 <1>   0.0800 
 15 H        2.0120    -1.8200     1.5430 H     1 <1>   0.0800 
 16 H        2.9960    -1.3260     0.1900 H     1 <1>   0.0800 
 17 H       -0.2660    -3.3490    -1.4240 H     1 <1>   0.0800 
 18 H       -1.2850    -3.8060    -0.0930 H     1 <1>   0.0800 
 19 H        2.9660    -3.8050     0.5150 H     1 <1>   0.0800 
 20 H        2.3580    -3.3370    -1.0470 H     1 <1>   0.0800 
 21 H        0.6860    -4.0720     1.3640 H     1 <1>   0.0800 
 22 H        1.8150    -5.9650     0.2210 H     1 <1>   0.0800 
 23 H        1.0250    -5.5180    -1.2690 H     1 <1>   0.0800 
@<TRIPOS>BOND
  1   1   2  1   
  2   2   3  1   
  3   2   4  1   
  4   2   5  1   
  5   4   6  1   
  6   4  13  1   
  7   4  14  1   
  8   5   7  1   
  9   5  15  1   
 10   5  16  1   
 11   6   8  1   
 12   6  17  1   
 13   6  18  1   
 14   7   8  1   
 15   7  19  1   
 16   7  20  1   
 17   8   9  1   
 18   8  21  1   
 19   9  10  1   
 20   9  22  1   
 21   9  23  1   
 22  10  11  2   
 23  11  12  3   
@<TRIPOS>SUBSTRUCTURE
  1 ****   8 GROUP 4 **** **** 0

# MOE 2024.06 (io_trps.svl 2023.06)
