@<TRIPOS>MOLECULE
NONAME
45 48 1 0 0 
SMALL
USER_CHARGES


@<TRIPOS>ATOM
  1 O       -0.8830    -0.0020     0.0810 O.2   1 <1>  -0.5700 
  2 C       -1.7150     0.7400    -0.4040 C.2   1 <1>   0.7150 
  3 N       -2.8330     0.2100    -1.0020 N.am  1 <1>  -0.6600 
  4 C       -1.5280     2.1630    -0.3350 C.2   1 <1>  -0.2370 
  5 C       -4.1830     0.8280    -0.8190 C.3   1 <1>   0.1400 
  6 C       -2.9130    -1.2490    -1.3190 C.3   1 <1>   0.1400 
  7 N       -1.8210     3.0040    -1.3710 N.pl3 1 <1>   0.0330 
  8 C       -1.0440     2.9310     0.6900 C.2   1 <1>  -0.1500 
  9 C       -4.9980     0.0490     0.2300 C.3   1 <1>   0.1900 
 10 C       -3.7690    -1.9880    -0.2770 C.3   1 <1>   0.1100 
 11 C       -1.5430     4.2700    -0.9870 C.2   1 <1>  -0.3020 
 12 C       -1.0580     4.2710     0.2920 C.2   1 <1>   0.0190 
 13 N       -5.1140    -1.3790    -0.1540 N.3   1 <1>  -0.8100 
 14 C       -6.3930     0.6780     0.4070 C.3   1 <1>   0.1200 
 15 C       -0.6420     5.3860     1.0950 C.1   1 <1>   0.5380 
 16 C       -5.9530    -2.0990     0.8350 C.3   1 <1>   0.3340 
 17 O       -7.1290    -0.0290     1.3630 O.3   1 <1>  -0.5600 
 18 N       -0.3220     6.2740     1.7360 N.1   1 <1>  -0.5570 
 19 C       -6.2030    -3.5410     0.3940 C.ar  1 <1>  -0.1430 
 20 C       -7.3060    -1.3820     1.0320 C.3   1 <1>   0.1200 
 21 C       -6.6170    -3.8290    -0.8990 C.ar  1 <1>  -0.1500 
 22 C       -6.0210    -4.5840     1.2910 C.ar  1 <1>  -0.1500 
 23 C       -6.8480    -5.1360    -1.2910 C.ar  1 <1>  -0.1500 
 24 C       -6.2510    -5.8930     0.9010 C.ar  1 <1>  -0.1500 
 25 C       -6.6640    -6.1690    -0.3890 C.ar  1 <1>  -0.1500 
 26 H       -4.0920     1.8500    -0.4970 H     1 <1>   0.0800 
 27 H       -4.7080     0.8160    -1.7590 H     1 <1>   0.0800 
 28 H       -3.3550    -1.3780    -2.2910 H     1 <1>   0.0800 
 29 H       -1.9280    -1.6830    -1.3460 H     1 <1>   0.0800 
 30 H       -2.1760     2.6980    -2.2860 H     1 <1>   0.2700 
 31 H       -0.7050     2.5720     1.6490 H     1 <1>   0.1500 
 32 H       -4.4820     0.1250     1.1730 H     1 <1>   0.0800 
 33 H       -3.2620    -1.9660     0.6730 H     1 <1>   0.0800 
 34 H       -3.8600    -3.0170    -0.5820 H     1 <1>   0.0800 
 35 H       -1.6940     5.1190    -1.6310 H     1 <1>   0.1500 
 36 H       -6.9370     0.6690    -0.5210 H     1 <1>   0.0800 
 37 H       -6.3060     1.6930     0.7530 H     1 <1>   0.0800 
 38 H       -5.4440    -2.1080     1.7840 H     1 <1>   0.0800 
 39 H       -7.8540    -1.8470     1.8310 H     1 <1>   0.0800 
 40 H       -7.8940    -1.4410     0.1330 H     1 <1>   0.0800 
 41 H       -6.7550    -3.0270    -1.6050 H     1 <1>   0.1500 
 42 H       -5.7000    -4.3850     2.2980 H     1 <1>   0.1500 
 43 H       -7.1680    -5.3480    -2.2960 H     1 <1>   0.1500 
 44 H       -6.1070    -6.6960     1.6030 H     1 <1>   0.1500 
 45 H       -6.8430    -7.1860    -0.6930 H     1 <1>   0.1500 
@<TRIPOS>BOND
  1   1   2  2   
  2   2   3  am  
  3   2   4  1   
  4   3   5  1   
  5   3   6  1   
  6   4   7  1   
  7   4   8  2   
  8   5   9  1   
  9   5  26  1   
 10   5  27  1   
 11   6  10  1   
 12   6  28  1   
 13   6  29  1   
 14   7  11  1   
 15   7  30  1   
 16   8  12  1   
 17   8  31  1   
 18   9  13  1   
 19   9  14  1   
 20   9  32  1   
 21  10  13  1   
 22  10  33  1   
 23  10  34  1   
 24  11  12  2   
 25  11  35  1   
 26  12  15  1   
 27  13  16  1   
 28  14  17  1   
 29  14  36  1   
 30  14  37  1   
 31  15  18  3   
 32  16  19  1   
 33  16  20  1   
 34  16  38  1   
 35  17  20  1   
 36  19  21  ar  
 37  19  22  ar  
 38  20  39  1   
 39  20  40  1   
 40  21  23  ar  
 41  21  41  1   
 42  22  24  ar  
 43  22  42  1   
 44  23  25  ar  
 45  23  43  1   
 46  24  25  ar  
 47  24  44  1   
 48  25  45  1   
@<TRIPOS>SUBSTRUCTURE
  1 ****   9 GROUP 4 **** **** 0

# MOE 2024.06 (io_trps.svl 2023.06)
