@<TRIPOS>MOLECULE
NONAME
53 56 1 0 0 
SMALL
USER_CHARGES


@<TRIPOS>ATOM
  1 S       -0.5880     0.4400    -0.3210 S.o2  1 <1>   1.2040 
  2 O       -0.2460    -0.8980     0.1090 O.2   1 <1>  -0.6500 
  3 O       -0.1340     0.9250    -1.6060 O.2   1 <1>  -0.6500 
  4 C       -2.3680     0.7130    -0.1500 C.ar  1 <1>  -0.0090 
  5 C        0.0620     1.5550     0.9070 C.3   1 <1>  -0.1350 
  6 C       -3.0190     1.6860    -0.8970 C.ar  1 <1>  -0.1500 
  7 C       -3.1220    -0.0170     0.7590 C.ar  1 <1>  -0.1500 
  8 C       -4.3730     1.9290    -0.7390 C.ar  1 <1>  -0.1500 
  9 C       -4.4760     0.2200     0.9230 C.ar  1 <1>  -0.1500 
 10 C       -5.1110     1.1990     0.1780 C.ar  1 <1>  -0.1430 
 11 C       -6.6030     1.4670     0.3730 C.3   1 <1>   0.0440 
 12 C       -7.5430     0.4280    -0.2380 C.2   1 <1>   0.5690 
 13 O       -7.0720    -0.5420    -0.7840 O.2   1 <1>  -0.5700 
 14 N       -8.9050     0.5930    -0.1560 N.am  1 <1>  -0.6600 
 15 C       -9.6100     1.7400     0.5020 C.3   1 <1>   0.1400 
 16 C       -9.8070    -0.4570    -0.7260 C.3   1 <1>   0.1400 
 17 C      -10.5590     2.4590    -0.4840 C.3   1 <1>   0.1440 
 18 C      -11.2630     0.0230    -0.8580 C.3   1 <1>  -0.1600 
 19 C      -11.4940     3.3210     0.3470 C.ar  1 <1>   0.1670 
 20 C      -11.3190     1.4600    -1.3990 C.3   1 <1>  -0.1600 
 21 C       -9.8050     3.5220    -1.3260 C.3   1 <1>  -0.1600 
 22 N      -12.5020     2.8790     1.0670 N.ar  1 <1>  -0.6200 
 23 C      -11.1540     4.6390     0.2840 C.ar  1 <1>  -0.1430 
 24 C       -9.9490     4.8670    -0.5930 C.3   1 <1>  -0.0170 
 25 C      -13.1700     3.8230     1.7140 C.ar  1 <1>   0.4770 
 26 C      -11.9140     5.5330     0.9970 C.ar  1 <1>   0.1600 
 27 N      -12.9360     5.1290     1.7220 N.ar  1 <1>  -0.6200 
 28 C      -14.3450     3.3600     2.5410 C.3   1 <1>  -0.0970 
 29 H        1.1330     1.5000     0.9200 H     1 <1>   0.0800 
 30 H       -0.3050     1.2950     1.8800 H     1 <1>   0.0800 
 31 H       -0.2260     2.5640     0.6850 H     1 <1>   0.0800 
 32 H       -2.4620     2.2600    -1.6190 H     1 <1>   0.1500 
 33 H       -2.6490    -0.7890     1.3420 H     1 <1>   0.1500 
 34 H       -4.8460     2.6850    -1.3400 H     1 <1>   0.1500 
 35 H       -5.0370    -0.3710     1.6270 H     1 <1>   0.1500 
 36 H       -6.8400     2.4230    -0.0510 H     1 <1>   0.0800 
 37 H       -6.8020     1.5160     1.4260 H     1 <1>   0.0800 
 38 H       -8.9210     2.4480     0.9220 H     1 <1>   0.0800 
 39 H      -10.1900     1.3450     1.3190 H     1 <1>   0.0800 
 40 H       -9.7660    -1.3350    -0.1040 H     1 <1>   0.0800 
 41 H       -9.4390    -0.7290    -1.7020 H     1 <1>   0.0800 
 42 H      -11.7480    -0.0240     0.1020 H     1 <1>   0.0800 
 43 H      -11.7940    -0.6390    -1.5180 H     1 <1>   0.0800 
 44 H      -10.8720     1.4490    -2.3780 H     1 <1>   0.0800 
 45 H      -12.3430     1.7700    -1.5140 H     1 <1>   0.0800 
 46 H      -10.2840     3.6270    -2.2840 H     1 <1>   0.0800 
 47 H       -8.7760     3.2580    -1.4940 H     1 <1>   0.0800 
 48 H      -10.1050     5.6800    -1.2820 H     1 <1>   0.0800 
 49 H       -9.0860     5.0660     0.0190 H     1 <1>   0.0800 
 50 H      -11.6870     6.5850     0.9760 H     1 <1>   0.1500 
 51 H      -14.2410     2.3190     2.7870 H     1 <1>   0.0800 
 52 H      -15.2490     3.5030     1.9810 H     1 <1>   0.0800 
 53 H      -14.3990     3.9290     3.4500 H     1 <1>   0.0800 
@<TRIPOS>BOND
  1   1   2  2   
  2   1   3  2   
  3   1   4  1   
  4   1   5  1   
  5   4   6  ar  
  6   4   7  ar  
  7   5  29  1   
  8   5  30  1   
  9   5  31  1   
 10   6   8  ar  
 11   6  32  1   
 12   7   9  ar  
 13   7  33  1   
 14   8  10  ar  
 15   8  34  1   
 16   9  10  ar  
 17   9  35  1   
 18  10  11  1   
 19  11  12  1   
 20  11  36  1   
 21  11  37  1   
 22  12  13  2   
 23  12  14  am  
 24  14  15  1   
 25  14  16  1   
 26  15  17  1   
 27  15  38  1   
 28  15  39  1   
 29  16  18  1   
 30  16  40  1   
 31  16  41  1   
 32  17  19  1   
 33  17  20  1   
 34  17  21  1   
 35  18  20  1   
 36  18  42  1   
 37  18  43  1   
 38  19  22  ar  
 39  19  23  ar  
 40  20  44  1   
 41  20  45  1   
 42  21  24  1   
 43  21  46  1   
 44  21  47  1   
 45  22  25  ar  
 46  23  24  1   
 47  23  26  ar  
 48  24  48  1   
 49  24  49  1   
 50  25  27  ar  
 51  25  28  1   
 52  26  27  ar  
 53  26  50  1   
 54  28  51  1   
 55  28  52  1   
 56  28  53  1   
@<TRIPOS>SUBSTRUCTURE
  1 ****  11 GROUP 4 **** **** 0

# MOE 2024.06 (io_trps.svl 2023.06)
