@<TRIPOS>MOLECULE
NONAME
47 50 1 0 0 
SMALL
USER_CHARGES


@<TRIPOS>ATOM
  1 O       -0.9850    -0.2560     1.8280 O.2   1 <1>  -0.5700 
  2 C       -0.9390     0.7830     1.1970 C.2   1 <1>   0.7800 
  3 O        0.0730     1.6450     1.2690 O.3   1 <1>  -0.2330 
  4 N       -1.9060     1.2250     0.3330 N.am  1 <1>  -0.4770 
  5 C       -0.2190     2.6550     0.4260 C.ar  1 <1>   0.0830 
  6 C       -1.4380     2.4210    -0.1760 C.ar  1 <1>   0.1170 
  7 C       -3.0620     0.4330    -0.1430 C.3   1 <1>   0.1400 
  8 C        0.5340     3.7790     0.1480 C.ar  1 <1>  -0.1500 
  9 C       -1.9440     3.3270    -1.0970 C.ar  1 <1>  -0.1500 
 10 C       -3.8670    -0.1230     1.0450 C.3   1 <1>   0.3430 
 11 C        0.0290     4.6860    -0.7700 C.ar  1 <1>  -0.1500 
 12 C       -1.2000     4.4600    -1.3870 C.ar  1 <1>  -0.1500 
 13 N       -4.9570    -1.0430     0.6040 N.4   1 <1>  -0.9590 
 14 C       -6.0810    -0.4320    -0.1690 C.3   1 <1>   0.3430 
 15 C       -5.5770    -1.8270     1.6990 C.3   1 <1>   0.3430 
 16 C       -7.3120    -1.3060     0.1130 C.3   1 <1>   0.2000 
 17 C       -6.8520    -2.4040     1.0820 C.3   1 <1>  -0.0800 
 18 O       -8.2890    -0.5340     0.7290 O.3   1 <1>  -0.6800 
 19 C       -6.6180    -3.7660     0.3810 C.3   1 <1>  -0.0170 
 20 C       -5.3010    -3.9120    -0.3800 C.ar  1 <1>   0.1670 
 21 N       -5.1000    -3.0950    -1.4060 N.ar  1 <1>  -0.6200 
 22 C       -4.3860    -4.8730     0.0270 C.ar  1 <1>  -0.1500 
 23 C       -3.9690    -3.2750    -2.0770 C.ar  1 <1>   0.1600 
 24 C       -3.2010    -5.0250    -0.6580 C.ar  1 <1>  -0.1500 
 25 C       -2.9990    -4.2030    -1.7440 C.ar  1 <1>  -0.1500 
 26 H       -3.6900     1.0590    -0.7500 H     1 <1>   0.0800 
 27 H       -2.6890    -0.3800    -0.7410 H     1 <1>   0.0800 
 28 H        1.4820     3.9360     0.6330 H     1 <1>   0.1500 
 29 H       -2.8900     3.1590    -1.5770 H     1 <1>   0.1500 
 30 H       -4.2840     0.6950     1.6090 H     1 <1>   0.0800 
 31 H       -3.1970    -0.6710     1.6880 H     1 <1>   0.0800 
 32 H        0.5900     5.5740    -1.0100 H     1 <1>   0.1500 
 33 H       -1.5720     5.1790    -2.0990 H     1 <1>   0.1500 
 34 H       -4.5680    -1.7640    -0.0420 H     1 <1>   0.4500 
 35 H       -6.2720     0.5770     0.1560 H     1 <1>   0.0800 
 36 H       -5.8550    -0.4410    -1.2230 H     1 <1>   0.0800 
 37 H       -4.9170    -2.6030     2.0530 H     1 <1>   0.0800 
 38 H       -5.8310    -1.1720     2.5170 H     1 <1>   0.0800 
 39 H       -7.7310    -1.6960    -0.8000 H     1 <1>   0.0800 
 40 H       -7.5940    -2.5620     1.8460 H     1 <1>   0.0800 
 41 H       -8.0830    -0.3170     1.6590 H     1 <1>   0.4000 
 42 H       -7.4280    -3.9650    -0.3000 H     1 <1>   0.0800 
 43 H       -6.6640    -4.5370     1.1300 H     1 <1>   0.0800 
 44 H       -4.5910    -5.5120     0.8680 H     1 <1>   0.1500 
 45 H       -3.8030    -2.6520    -2.9410 H     1 <1>   0.1500 
 46 H       -2.4700    -5.7620    -0.3680 H     1 <1>   0.1500 
 47 H       -2.1010    -4.2860    -2.3310 H     1 <1>   0.1500 
@<TRIPOS>BOND
  1   1   2  2   
  2   2   3  1   
  3   2   4  am  
  4   3   5  1   
  5   4   6  1   
  6   4   7  1   
  7   5   6  ar  
  8   5   8  ar  
  9   6   9  ar  
 10   7  10  1   
 11   7  26  1   
 12   7  27  1   
 13   8  11  ar  
 14   8  28  1   
 15   9  12  ar  
 16   9  29  1   
 17  10  13  1   
 18  10  30  1   
 19  10  31  1   
 20  11  12  ar  
 21  11  32  1   
 22  12  33  1   
 23  13  14  1   
 24  13  15  1   
 25  13  34  1   
 26  14  16  1   
 27  14  35  1   
 28  14  36  1   
 29  15  17  1   
 30  15  37  1   
 31  15  38  1   
 32  16  17  1   
 33  16  18  1   
 34  16  39  1   
 35  17  19  1   
 36  17  40  1   
 37  18  41  1   
 38  19  20  1   
 39  19  42  1   
 40  19  43  1   
 41  20  21  ar  
 42  20  22  ar  
 43  21  23  ar  
 44  22  24  ar  
 45  22  44  1   
 46  23  25  ar  
 47  23  45  1   
 48  24  25  ar  
 49  24  46  1   
 50  25  47  1   
@<TRIPOS>SUBSTRUCTURE
  1 ****   7 GROUP 4 **** **** 0

# MOE 2024.06 (io_trps.svl 2023.06)
