@<TRIPOS>MOLECULE
NONAME
50 53 1 0 0 
SMALL
USER_CHARGES


@<TRIPOS>ATOM
  1 O        0.3610    -0.0250     0.4600 O.2   1 <1>  -0.5700 
  2 C        1.1720    -0.8690     0.1340 C.2   1 <1>   0.5440 
  3 N        2.5080    -0.5850     0.2200 N.am  1 <1>  -0.5790 
  4 C        0.7300    -2.1690    -0.3340 C.ar  1 <1>   0.0860 
  5 C        3.0900     0.6940     0.6530 C.3   1 <1>   0.0490 
  6 C       -0.4290    -2.7630     0.1290 C.ar  1 <1>  -0.1500 
  7 C        1.4260    -2.9120    -1.2810 C.ar  1 <1>  -0.1500 
  8 C        4.3920     1.1100     0.0540 C.3   1 <1>  -0.2000 
  9 C        4.3310     0.6540     1.4820 C.3   1 <1>  -0.2000 
 10 C       -0.8260    -4.0100    -0.3260 C.ar  1 <1>   0.4100 
 11 C        0.9540    -4.1470    -1.6790 C.ar  1 <1>   0.1600 
 12 N       -0.1480    -4.7150    -1.2240 N.ar  1 <1>  -0.6200 
 13 N       -1.9950    -4.5590     0.1540 N.pl3 1 <1>  -0.8380 
 14 C       -3.1790    -4.4590    -0.7470 C.3   1 <1>   0.2090 
 15 C       -1.9370    -5.9510     0.6650 C.3   1 <1>   0.2090 
 16 C       -3.8240    -5.8530    -0.8060 C.3   1 <1>   0.2000 
 17 C       -2.7020    -6.7880    -0.3590 C.3   1 <1>  -0.0800 
 18 O       -4.8840    -5.9490     0.1070 O.3   1 <1>  -0.5600 
 19 C       -3.1630    -8.1530     0.1820 C.3   1 <1>   0.0200 
 20 C       -6.1070    -5.4640    -0.3500 C.3   1 <1>   0.0400 
 21 C       -2.0050    -9.1010     0.4440 C.2   1 <1>  -0.0400 
 22 O       -2.2430   -10.2430     1.0340 O.3   1 <1>  -0.0190 
 23 C       -0.6880    -9.0430     0.1880 C.2   1 <1>  -0.1500 
 24 N       -1.1600   -10.9480     1.1890 N.2   1 <1>  -0.4100 
 25 C       -0.2060   -10.2490     0.6880 C.2   1 <1>   0.1080 
 26 C        1.2410   -10.6850     0.6510 C.3   1 <1>  -0.0590 
 27 H        3.1860    -1.3280     0.0640 H     1 <1>   0.3700 
 28 H        2.3510     1.4520     0.8640 H     1 <1>   0.1000 
 29 H       -1.0420    -2.2610     0.8540 H     1 <1>   0.1500 
 30 H        2.3290    -2.5250    -1.7170 H     1 <1>   0.1500 
 31 H        4.8530     0.4750    -0.6810 H     1 <1>   0.1000 
 32 H        4.5580     2.1550    -0.1390 H     1 <1>   0.1000 
 33 H        4.4520     1.3910     2.2570 H     1 <1>   0.1000 
 34 H        4.7480    -0.3000     1.7490 H     1 <1>   0.1000 
 35 H        1.5110    -4.7010    -2.4150 H     1 <1>   0.1500 
 36 H       -3.8670    -3.7220    -0.3740 H     1 <1>   0.0800 
 37 H       -2.8540    -4.1730    -1.7330 H     1 <1>   0.0800 
 38 H       -0.9210    -6.2870     0.7800 H     1 <1>   0.0800 
 39 H       -2.4300    -5.9870     1.6220 H     1 <1>   0.0800 
 40 H       -4.1800    -6.1010    -1.7910 H     1 <1>   0.0800 
 41 H       -2.0530    -6.9450    -1.2020 H     1 <1>   0.0800 
 42 H       -3.8250    -8.6130    -0.5300 H     1 <1>   0.0800 
 43 H       -3.7110    -8.0160     1.0970 H     1 <1>   0.0800 
 44 H       -6.8300    -5.5900     0.4370 H     1 <1>   0.0800 
 45 H       -6.4120    -6.0280    -1.2140 H     1 <1>   0.0800 
 46 H       -6.0160    -4.4200    -0.5910 H     1 <1>   0.0800 
 47 H       -0.1060    -8.2740    -0.2880 H     1 <1>   0.1500 
 48 H        1.6130   -10.6330    -0.3560 H     1 <1>   0.0800 
 49 H        1.3270   -11.6980     1.0020 H     1 <1>   0.0800 
 50 H        1.8290   -10.0460     1.2820 H     1 <1>   0.0800 
@<TRIPOS>BOND
  1   1   2  2   
  2   2   3  am  
  3   2   4  1   
  4   3   5  1   
  5   3  27  1   
  6   4   6  ar  
  7   4   7  ar  
  8   5   8  1   
  9   5   9  1   
 10   5  28  1   
 11   6  10  ar  
 12   6  29  1   
 13   7  11  ar  
 14   7  30  1   
 15   8   9  1   
 16   8  31  1   
 17   8  32  1   
 18   9  33  1   
 19   9  34  1   
 20  10  12  ar  
 21  10  13  1   
 22  11  12  ar  
 23  11  35  1   
 24  13  14  1   
 25  13  15  1   
 26  14  16  1   
 27  14  36  1   
 28  14  37  1   
 29  15  17  1   
 30  15  38  1   
 31  15  39  1   
 32  16  17  1   
 33  16  18  1   
 34  16  40  1   
 35  17  19  1   
 36  17  41  1   
 37  18  20  1   
 38  19  21  1   
 39  19  42  1   
 40  19  43  1   
 41  20  44  1   
 42  20  45  1   
 43  20  46  1   
 44  21  22  1   
 45  21  23  2   
 46  22  24  1   
 47  23  25  1   
 48  23  47  1   
 49  24  25  2   
 50  25  26  1   
 51  26  48  1   
 52  26  49  1   
 53  26  50  1   
@<TRIPOS>SUBSTRUCTURE
  1 ****  10 GROUP 4 **** **** 0

# MOE 2024.06 (io_trps.svl 2023.06)
