@<TRIPOS>MOLECULE
NONAME
46 48 1 0 0 
SMALL
USER_CHARGES


@<TRIPOS>ATOM
  1 S       -0.6040     0.6420     0.0190 S.o2  1 <1>   1.5010 
  2 O       -1.5990     1.3820     0.7730 O.2   1 <1>  -0.6500 
  3 O       -0.2110     1.1950    -1.2580 O.2   1 <1>  -0.6500 
  4 N        0.7840     0.5460     1.0040 N.am  1 <1>  -0.8490 
  5 C       -1.2870    -1.0440    -0.1140 C.2   1 <1>  -0.0630 
  6 C        1.5340     1.8250     1.1130 C.3   1 <1>   0.2760 
  7 C        1.6850    -0.4880     0.4610 C.3   1 <1>   0.1960 
  8 C       -1.0610    -1.9670    -1.0940 C.2   1 <1>  -0.1920 
  9 C       -2.1810    -1.5260     0.9000 C.2   1 <1>  -0.1500 
 10 C        2.7550     1.6390     2.0390 C.3   1 <1>  -0.1600 
 11 C        0.7060     3.0070     1.6800 C.3   1 <1>  -0.1600 
 12 C        2.8690    -0.7520     1.3890 C.3   1 <1>  -0.1600 
 13 S       -2.0020    -3.4280    -0.7750 S.3   1 <1>  -0.0800 
 14 C       -0.2130    -1.9600    -2.2580 C.2   1 <1>   1.0320 
 15 C       -2.6520    -2.7680     0.7010 C.2   1 <1>  -0.1100 
 16 C        3.6880     0.5200     1.5780 C.3   1 <1>  -0.1600 
 17 C        0.1950     3.9980     0.6180 C.3   1 <1>  -0.0170 
 18 O        0.9560    -1.5530    -2.1600 O.co2 1 <1>  -0.9000 
 19 O       -0.6100    -2.3970    -3.3500 O.co2 1 <1>  -0.9000 
 20 C        1.3430     4.6190    -0.1650 C.ar  1 <1>  -0.1440 
 21 C        2.1280     5.6090     0.4040 C.ar  1 <1>  -0.1500 
 22 C        1.6200     4.1930    -1.4570 C.ar  1 <1>  -0.1500 
 23 C        3.1780     6.1590    -0.3110 C.ar  1 <1>   0.0820 
 24 C        2.6710     4.7450    -2.1710 C.ar  1 <1>  -0.1500 
 25 O        3.9280     7.1140     0.2590 O.3   1 <1>  -0.5330 
 26 C        3.4550     5.7320    -1.5990 C.ar  1 <1>  -0.1500 
 27 H        1.9050     2.0860     0.1360 H     1 <1>   0.0800 
 28 H        2.0480    -0.1840    -0.5090 H     1 <1>   0.0800 
 29 H        1.1630    -1.4200     0.3440 H     1 <1>   0.0800 
 30 H       -2.4310    -0.9000     1.7400 H     1 <1>   0.1500 
 31 H        2.4070     1.4280     3.0350 H     1 <1>   0.0800 
 32 H        3.3200     2.5540     2.0720 H     1 <1>   0.0800 
 33 H        1.3200     3.5870     2.3460 H     1 <1>   0.0800 
 34 H       -0.1040     2.6380     2.2820 H     1 <1>   0.0800 
 35 H        3.4860    -1.5200     0.9580 H     1 <1>   0.0800 
 36 H        2.5010    -1.1080     2.3350 H     1 <1>   0.0800 
 37 H       -3.3250    -3.3850     1.2690 H     1 <1>   0.1500 
 38 H        4.4660     0.3580     2.3030 H     1 <1>   0.0800 
 39 H        4.1440     0.7950     0.6420 H     1 <1>   0.0800 
 40 H       -0.3550     4.7820     1.1090 H     1 <1>   0.0800 
 41 H       -0.4880     3.5230    -0.0610 H     1 <1>   0.0800 
 42 H        1.9350     5.9590     1.4010 H     1 <1>   0.1500 
 43 H        1.0190     3.4210    -1.9120 H     1 <1>   0.1500 
 44 H        2.8720     4.3990    -3.1690 H     1 <1>   0.1500 
 45 H        4.6270     7.4500    -0.3290 H     1 <1>   0.4500 
 46 H        4.2690     6.1560    -2.1560 H     1 <1>   0.1500 
@<TRIPOS>BOND
  1   1   2  2   
  2   1   3  2   
  3   1   4  am  
  4   1   5  1   
  5   4   6  1   
  6   4   7  1   
  7   5   8  2   
  8   5   9  1   
  9   6  10  1   
 10   6  11  1   
 11   6  27  1   
 12   7  12  1   
 13   7  28  1   
 14   7  29  1   
 15   8  13  1   
 16   8  14  1   
 17   9  15  2   
 18   9  30  1   
 19  10  16  1   
 20  10  31  1   
 21  10  32  1   
 22  11  17  1   
 23  11  33  1   
 24  11  34  1   
 25  12  16  1   
 26  12  35  1   
 27  12  36  1   
 28  13  15  1   
 29  14  18  ar  
 30  14  19  ar  
 31  15  37  1   
 32  16  38  1   
 33  16  39  1   
 34  17  20  1   
 35  17  40  1   
 36  17  41  1   
 37  20  21  ar  
 38  20  22  ar  
 39  21  23  ar  
 40  21  42  1   
 41  22  24  ar  
 42  22  43  1   
 43  23  25  1   
 44  23  26  ar  
 45  24  26  ar  
 46  24  44  1   
 47  25  45  1   
 48  26  46  1   
@<TRIPOS>SUBSTRUCTURE
  1 ****   4 GROUP 4 **** **** 0

# MOE 2024.06 (io_trps.svl 2023.06)
