@<TRIPOS>MOLECULE
NONAME
46 47 1 0 0 
SMALL
USER_CHARGES


@<TRIPOS>ATOM
  1 O        0.3110     0.1620    -0.1330 O.3   1 <1>  -0.5600 
  2 C        0.1850     1.4810     0.3230 C.3   1 <1>   0.2000 
  3 C        1.5190    -0.4460     0.2180 C.3   1 <1>   0.2000 
  4 C       -1.2280     1.9890    -0.0530 C.3   1 <1>  -0.0800 
  5 C        1.3240     2.3410    -0.2720 C.3   1 <1>   0.1100 
  6 C        2.6940     0.3500    -0.3910 C.3   1 <1>   0.1100 
  7 C        1.4440    -1.8950    -0.2800 C.3   1 <1>  -0.1600 
  8 C       -1.4750     3.4310     0.4240 C.3   1 <1>  -0.2400 
  9 C       -2.3260     1.0840     0.5310 C.3   1 <1>  -0.2400 
 10 N        2.6550     1.7660     0.0150 N.3   1 <1>  -0.8100 
 11 C        2.6470    -2.7480     0.1560 C.3   1 <1>  -0.1600 
 12 C        3.7430     2.5330    -0.6200 C.3   1 <1>   0.2900 
 13 C        2.4760    -4.2060    -0.2860 C.3   1 <1>  -0.1600 
 14 C        3.7620     3.9910    -0.1800 C.2   1 <1>  -0.0400 
 15 C        3.6740    -5.0560     0.1450 C.3   1 <1>  -0.2400 
 16 O        4.0760     4.2920     1.0670 O.3   1 <1>  -0.2800 
 17 C        3.5010     5.1150    -0.8830 C.2   1 <1>  -0.1500 
 18 C        4.0190     5.6030     1.1880 C.2   1 <1>  -0.0100 
 19 C        3.6680     6.1750     0.0170 C.2   1 <1>  -0.1500 
 20 H        0.2790     1.4720     1.3960 H     1 <1>   0.0800 
 21 H        1.5960    -0.4400     1.2920 H     1 <1>   0.0800 
 22 H       -1.3110     1.9730    -1.1260 H     1 <1>   0.0800 
 23 H        1.2730     3.3260     0.1560 H     1 <1>   0.0800 
 24 H        1.1790     2.4260    -1.3350 H     1 <1>   0.0800 
 25 H        2.6470     0.2710    -1.4640 H     1 <1>   0.0800 
 26 H        3.6220    -0.0810    -0.0590 H     1 <1>   0.0800 
 27 H        0.5460    -2.3360     0.1160 H     1 <1>   0.0800 
 28 H        1.3720    -1.8950    -1.3540 H     1 <1>   0.0800 
 29 H       -1.3280     3.5070     1.4870 H     1 <1>   0.0800 
 30 H       -2.4830     3.7300     0.1970 H     1 <1>   0.0800 
 31 H       -0.8130     4.1200    -0.0670 H     1 <1>   0.0800 
 32 H       -2.2600     1.0530     1.6040 H     1 <1>   0.0800 
 33 H       -2.2250     0.0810     0.1540 H     1 <1>   0.0800 
 34 H       -3.3000     1.4460     0.2540 H     1 <1>   0.0800 
 35 H        3.5510    -2.3560    -0.2750 H     1 <1>   0.0800 
 36 H        2.7410    -2.7100     1.2290 H     1 <1>   0.0800 
 37 H        4.6880     2.0890    -0.3580 H     1 <1>   0.0800 
 38 H        3.6350     2.4900    -1.6900 H     1 <1>   0.0800 
 39 H        1.5780    -4.6130     0.1490 H     1 <1>   0.0800 
 40 H        2.3760    -4.2500    -1.3570 H     1 <1>   0.0800 
 41 H        3.7780    -5.0440     1.2160 H     1 <1>   0.0800 
 42 H        4.5800    -4.6820    -0.2970 H     1 <1>   0.0800 
 43 H        3.5350    -6.0750    -0.1730 H     1 <1>   0.0800 
 44 H        3.2190     5.2140    -1.9160 H     1 <1>   0.1500 
 45 H        4.2420     6.0440     2.1440 H     1 <1>   0.1500 
 46 H        3.5370     7.2180    -0.2110 H     1 <1>   0.1500 
@<TRIPOS>BOND
  1   1   2  1   
  2   1   3  1   
  3   2   4  1   
  4   2   5  1   
  5   2  20  1   
  6   3   6  1   
  7   3   7  1   
  8   3  21  1   
  9   4   8  1   
 10   4   9  1   
 11   4  22  1   
 12   5  10  1   
 13   5  23  1   
 14   5  24  1   
 15   6  10  1   
 16   6  25  1   
 17   6  26  1   
 18   7  11  1   
 19   7  27  1   
 20   7  28  1   
 21   8  29  1   
 22   8  30  1   
 23   8  31  1   
 24   9  32  1   
 25   9  33  1   
 26   9  34  1   
 27  10  12  1   
 28  11  13  1   
 29  11  35  1   
 30  11  36  1   
 31  12  14  1   
 32  12  37  1   
 33  12  38  1   
 34  13  15  1   
 35  13  39  1   
 36  13  40  1   
 37  14  16  1   
 38  14  17  2   
 39  15  41  1   
 40  15  42  1   
 41  15  43  1   
 42  16  18  1   
 43  17  19  1   
 44  17  44  1   
 45  18  19  2   
 46  18  45  1   
 47  19  46  1   
@<TRIPOS>SUBSTRUCTURE
  1 ****  10 GROUP 4 **** **** 0

# MOE 2024.06 (io_trps.svl 2023.06)
