@<TRIPOS>MOLECULE
NONAME
40 41 1 0 0 
SMALL
USER_CHARGES


@<TRIPOS>ATOM
  1 S       -0.4480    -0.2350    -0.4430 S.o2  1 <1>   1.3330 
  2 O        0.9910    -0.2110    -0.4900 O.2   1 <1>  -0.6500 
  3 O       -1.2430     0.2680    -1.5360 O.2   1 <1>  -0.6500 
  4 N       -0.8300    -1.8500    -0.2560 N.am  1 <1>  -0.9140 
  5 C       -1.0170     0.4860     1.0810 C.3   1 <1>  -0.1350 
  6 C       -0.8620    -2.5460    -1.5580 C.3   1 <1>   0.2570 
  7 C       -1.0830    -4.0600    -1.4440 C.2   1 <1>   0.5690 
  8 O       -0.1200    -4.7810    -1.5550 O.2   1 <1>  -0.5700 
  9 N       -2.3370    -4.5640    -1.2150 N.am  1 <1>  -0.6600 
 10 C       -3.5410    -3.7630    -0.8840 C.3   1 <1>   0.1400 
 11 C       -2.6140    -6.0120    -1.0620 C.3   1 <1>   0.1400 
 12 C       -4.5980    -4.7830    -0.4540 C.3   1 <1>   0.2000 
 13 C       -3.8420    -6.0770    -0.1530 C.3   1 <1>  -0.0800 
 14 O       -5.2770    -4.3610     0.6780 O.3   1 <1>  -0.6800 
 15 C       -4.7090    -7.3310    -0.3550 C.3   1 <1>  -0.0170 
 16 C       -3.9350    -8.6030    -0.0560 C.ar  1 <1>   0.1670 
 17 N       -3.2080    -9.0950    -1.0480 N.ar  1 <1>  -0.6200 
 18 C       -4.0140    -9.1750     1.2050 C.ar  1 <1>  -0.1500 
 19 C       -2.5320   -10.1980    -0.7720 C.ar  1 <1>   0.1600 
 20 C       -3.3050   -10.3250     1.4790 C.ar  1 <1>  -0.1500 
 21 C       -2.5440   -10.8430     0.4530 C.ar  1 <1>  -0.1500 
 22 H       -0.0210    -2.2420     0.2300 H     1 <1>   0.4200 
 23 H       -0.5200     0.0340     1.9160 H     1 <1>   0.0800 
 24 H       -2.0750     0.3410     1.1840 H     1 <1>   0.0800 
 25 H       -0.8120     1.5380     1.0860 H     1 <1>   0.0800 
 26 H       -1.6470    -2.1350    -2.1690 H     1 <1>   0.0800 
 27 H        0.0700    -2.3840    -2.0730 H     1 <1>   0.0800 
 28 H       -3.3130    -3.0800    -0.0840 H     1 <1>   0.0800 
 29 H       -3.8740    -3.2190    -1.7510 H     1 <1>   0.0800 
 30 H       -2.8300    -6.4330    -2.0300 H     1 <1>   0.0800 
 31 H       -1.7740    -6.5310    -0.6310 H     1 <1>   0.0800 
 32 H       -5.3140    -4.9210    -1.2470 H     1 <1>   0.0800 
 33 H       -3.4810    -6.0560     0.8610 H     1 <1>   0.0800 
 34 H       -4.6550    -4.2560     1.4240 H     1 <1>   0.4000 
 35 H       -5.0690    -7.3730    -1.3680 H     1 <1>   0.0800 
 36 H       -5.5680    -7.2760     0.2890 H     1 <1>   0.0800 
 37 H       -4.6230    -8.7260     1.9680 H     1 <1>   0.1500 
 38 H       -1.9340   -10.6120    -1.5660 H     1 <1>   0.1500 
 39 H       -3.3430   -10.7960     2.4460 H     1 <1>   0.1500 
 40 H       -1.9650   -11.7370     0.5980 H     1 <1>   0.1500 
@<TRIPOS>BOND
  1   1   2  2   
  2   1   3  2   
  3   1   4  am  
  4   1   5  1   
  5   4   6  1   
  6   4  22  1   
  7   5  23  1   
  8   5  24  1   
  9   5  25  1   
 10   6   7  1   
 11   6  26  1   
 12   6  27  1   
 13   7   8  2   
 14   7   9  am  
 15   9  10  1   
 16   9  11  1   
 17  10  12  1   
 18  10  28  1   
 19  10  29  1   
 20  11  13  1   
 21  11  30  1   
 22  11  31  1   
 23  12  13  1   
 24  12  14  1   
 25  12  32  1   
 26  13  15  1   
 27  13  33  1   
 28  14  34  1   
 29  15  16  1   
 30  15  35  1   
 31  15  36  1   
 32  16  17  ar  
 33  16  18  ar  
 34  17  19  ar  
 35  18  20  ar  
 36  18  37  1   
 37  19  21  ar  
 38  19  38  1   
 39  20  21  ar  
 40  20  39  1   
 41  21  40  1   
@<TRIPOS>SUBSTRUCTURE
  1 ****   9 GROUP 4 **** **** 0

# MOE 2024.06 (io_trps.svl 2023.06)
