@<TRIPOS>MOLECULE
NONAME
51 54 1 0 0 
SMALL
USER_CHARGES


@<TRIPOS>ATOM
  1 S        0.3080     0.7220    -1.3470 S.o2  1 <1>   1.4470 
  2 O        0.9000     1.6690    -2.2680 O.2   1 <1>  -0.6500 
  3 O       -0.6210    -0.2540    -1.8780 O.2   1 <1>  -0.6500 
  4 N       -0.5080     1.6280    -0.1620 N.am  1 <1>  -0.8490 
  5 C        1.6170    -0.1270    -0.3990 C.ar  1 <1>  -0.0090 
  6 C       -1.1590     0.8750     0.9200 C.3   1 <1>   0.1960 
  7 C       -1.3580     2.7030    -0.6820 C.3   1 <1>   0.1960 
  8 C        2.7100     0.5350     0.1660 C.ar  1 <1>  -0.1440 
  9 C        1.5170    -1.4990    -0.1980 C.ar  1 <1>  -0.1500 
 10 C       -2.5330     0.3250     0.5190 C.3   1 <1>  -0.1600 
 11 C       -2.7090     2.1700    -1.1660 C.3   1 <1>  -0.1600 
 12 C        3.6540    -0.1780     0.8900 C.ar  1 <1>  -0.1500 
 13 C        2.9090     2.0390     0.0130 C.3   1 <1>  -0.0970 
 14 C        2.4470    -2.2340     0.5320 C.ar  1 <1>   0.0530 
 15 C       -3.4360     1.4180    -0.0470 C.3   1 <1>   0.4180 
 16 C        3.5240    -1.5390     1.0700 C.ar  1 <1>  -0.1500 
 17 C        2.3000    -3.6580     0.7290 C.2   1 <1>   0.0870 
 18 O       -3.6900     2.3010     1.0200 O.3   1 <1>  -0.5600 
 19 C       -4.7380     0.8010    -0.5510 C.2   1 <1>  -0.2880 
 20 O        1.1930    -4.2840     0.3950 O.3   1 <1>  -0.0190 
 21 C        3.1240    -4.6000     1.2380 C.2   1 <1>  -0.1500 
 22 C       -4.8110     3.1340     0.9160 C.3   1 <1>   0.1200 
 23 C       -5.9530     1.1760    -0.1420 C.2   1 <1>  -0.2760 
 24 N        1.2330    -5.5600     0.6490 N.2   1 <1>  -0.4100 
 25 C        2.3920    -5.7760     1.1590 C.2   1 <1>   0.1390 
 26 C       -6.1000     2.3030     0.8630 C.3   1 <1>  -0.0220 
 27 C       -7.2510     0.5410    -0.6080 C.3   1 <1>  -0.1020 
 28 H       -1.2920     1.5390     1.7580 H     1 <1>   0.0800 
 29 H       -0.5250     0.0700     1.2480 H     1 <1>   0.0800 
 30 H       -0.8570     3.2200    -1.4840 H     1 <1>   0.0800 
 31 H       -1.5260     3.4190     0.1050 H     1 <1>   0.0800 
 32 H        0.6790    -2.0210    -0.6280 H     1 <1>   0.1500 
 33 H       -3.0110    -0.1090     1.3780 H     1 <1>   0.0800 
 34 H       -2.4160    -0.4610    -0.2010 H     1 <1>   0.0800 
 35 H       -2.5540     1.5090    -1.9990 H     1 <1>   0.0800 
 36 H       -3.3160     2.9790    -1.5220 H     1 <1>   0.0800 
 37 H        4.5000     0.3290     1.3210 H     1 <1>   0.1500 
 38 H        2.0250     2.5710     0.3150 H     1 <1>   0.0800 
 39 H        3.1280     2.2800    -1.0120 H     1 <1>   0.0800 
 40 H        3.7260     2.3870     0.6200 H     1 <1>   0.0800 
 41 H        4.2700    -2.0650     1.6380 H     1 <1>   0.1500 
 42 H       -4.5740     0.0200    -1.2710 H     1 <1>   0.1500 
 43 H        4.1200    -4.4990     1.6230 H     1 <1>   0.1500 
 44 H       -4.7140     3.7340     0.0290 H     1 <1>   0.0800 
 45 H       -4.8210     3.7830     1.7730 H     1 <1>   0.0800 
 46 H        2.7370    -6.7450     1.4790 H     1 <1>   0.1500 
 47 H       -6.9120     2.9490     0.5820 H     1 <1>   0.0800 
 48 H       -6.3130     1.8980     1.8360 H     1 <1>   0.0800 
 49 H       -7.7860     0.1350     0.2320 H     1 <1>   0.0800 
 50 H       -7.0520    -0.2560    -1.3030 H     1 <1>   0.0800 
 51 H       -7.8700     1.2720    -1.0960 H     1 <1>   0.0800 
@<TRIPOS>BOND
  1   1   2  2   
  2   1   3  2   
  3   1   4  am  
  4   1   5  1   
  5   4   6  1   
  6   4   7  1   
  7   5   8  ar  
  8   5   9  ar  
  9   6  10  1   
 10   6  28  1   
 11   6  29  1   
 12   7  11  1   
 13   7  30  1   
 14   7  31  1   
 15   8  12  ar  
 16   8  13  1   
 17   9  14  ar  
 18   9  32  1   
 19  10  15  1   
 20  10  33  1   
 21  10  34  1   
 22  11  15  1   
 23  11  35  1   
 24  11  36  1   
 25  12  16  ar  
 26  12  37  1   
 27  13  38  1   
 28  13  39  1   
 29  13  40  1   
 30  14  16  ar  
 31  14  17  1   
 32  15  18  1   
 33  15  19  1   
 34  16  41  1   
 35  17  20  1   
 36  17  21  2   
 37  18  22  1   
 38  19  23  2   
 39  19  42  1   
 40  20  24  1   
 41  21  25  1   
 42  21  43  1   
 43  22  26  1   
 44  22  44  1   
 45  22  45  1   
 46  23  26  1   
 47  23  27  1   
 48  24  25  2   
 49  25  46  1   
 50  26  47  1   
 51  26  48  1   
 52  27  49  1   
 53  27  50  1   
 54  27  51  1   
@<TRIPOS>SUBSTRUCTURE
  1 ****   6 GROUP 4 **** **** 0

# MOE 2024.06 (io_trps.svl 2023.06)
