@<TRIPOS>MOLECULE
NONAME
50 52 1 0 0 
SMALL
USER_CHARGES


@<TRIPOS>ATOM
  1 O        2.4240    -4.2760     1.6770 O.2   1 <1>  -0.5700 
  2 C        1.8970    -3.6100     0.8120 C.2   1 <1>   0.6900 
  3 N        0.5770    -3.2340     0.9160 N.am  1 <1>  -0.4200 
  4 N        2.5930    -3.2730    -0.3140 N.am  1 <1>  -0.5390 
  5 C       -0.0790    -2.7210    -0.1850 C.2   1 <1>   0.6160 
  6 C       -0.1330    -3.4010     2.2190 C.3   1 <1>   0.1400 
  7 C        2.0100    -2.6310    -1.3880 C.2   1 <1>  -0.0290 
  8 O       -1.2960    -2.6700    -0.1710 O.2   1 <1>  -0.5700 
  9 C        0.6870    -2.3590    -1.3310 C.2   1 <1>  -0.1360 
 10 C       -0.7560    -4.8010     2.3640 C.3   1 <1>   0.3430 
 11 C        2.9100    -2.2870    -2.5580 C.3   1 <1>  -0.1020 
 12 N       -1.5540    -5.1850     1.1550 N.4   1 <1>  -0.9590 
 13 C       -2.8980    -5.7250     1.5020 C.3   1 <1>   0.3430 
 14 C       -0.7850    -6.1070     0.2690 C.3   1 <1>   0.3430 
 15 C       -3.7000    -5.9430     0.2260 C.3   1 <1>  -0.1600 
 16 C       -1.5540    -6.3290    -1.0270 C.3   1 <1>  -0.1600 
 17 C       -2.9470    -6.8740    -0.7250 C.3   1 <1>   0.2000 
 18 O       -3.6430    -6.9270    -1.9250 O.3   1 <1>  -0.5600 
 19 C       -4.3100    -8.1370    -2.1850 C.3   1 <1>   0.2630 
 20 C       -5.4260    -8.4030    -1.1750 C.ar  1 <1>   0.1670 
 21 N       -5.1270    -9.1630    -0.1250 N.ar  1 <1>  -0.6200 
 22 C       -6.6770    -7.8470    -1.3950 C.ar  1 <1>  -0.1500 
 23 C       -6.1230    -9.3900     0.7190 C.ar  1 <1>   0.1600 
 24 C       -7.6990    -8.0840    -0.5010 C.ar  1 <1>  -0.1500 
 25 C       -7.4030    -8.8820     0.5820 C.ar  1 <1>  -0.1500 
 26 H        3.5840    -3.5270    -0.3070 H     1 <1>   0.3700 
 27 H       -0.9050    -2.6550     2.3070 H     1 <1>   0.0800 
 28 H        0.5580    -3.2360     3.0280 H     1 <1>   0.0800 
 29 H        0.1560    -1.8740    -2.1290 H     1 <1>   0.1500 
 30 H       -1.3870    -4.8030     3.2370 H     1 <1>   0.0800 
 31 H        0.0310    -5.5190     2.5300 H     1 <1>   0.0800 
 32 H        3.6990    -1.6300    -2.2370 H     1 <1>   0.0800 
 33 H        2.3520    -1.7930    -3.3340 H     1 <1>   0.0800 
 34 H        3.3450    -3.1810    -2.9670 H     1 <1>   0.0800 
 35 H       -1.7170    -4.3120     0.6070 H     1 <1>   0.4500 
 36 H       -3.4240    -5.0310     2.1380 H     1 <1>   0.0800 
 37 H       -2.7940    -6.6620     2.0270 H     1 <1>   0.0800 
 38 H       -0.6340    -7.0510     0.7670 H     1 <1>   0.0800 
 39 H        0.1810    -5.6850     0.0430 H     1 <1>   0.0800 
 40 H       -3.8830    -4.9960    -0.2510 H     1 <1>   0.0800 
 41 H       -4.6480    -6.3780     0.4870 H     1 <1>   0.0800 
 42 H       -1.0210    -7.0350    -1.6380 H     1 <1>   0.0800 
 43 H       -1.6280    -5.4010    -1.5660 H     1 <1>   0.0800 
 44 H       -2.8610    -7.8620    -0.3010 H     1 <1>   0.0800 
 45 H       -3.5930    -8.9390    -2.1760 H     1 <1>   0.0800 
 46 H       -4.7260    -8.0670    -3.1740 H     1 <1>   0.0800 
 47 H       -6.8500    -7.2310    -2.2600 H     1 <1>   0.1500 
 48 H       -5.9080   -10.0160     1.5680 H     1 <1>   0.1500 
 49 H       -8.6810    -7.6670    -0.6440 H     1 <1>   0.1500 
 50 H       -8.1570    -9.1130     1.3130 H     1 <1>   0.1500 
@<TRIPOS>BOND
  1   1   2  2   
  2   2   3  am  
  3   2   4  am  
  4   3   5  am  
  5   3   6  1   
  6   4   7  1   
  7   4  26  1   
  8   5   8  2   
  9   5   9  1   
 10   6  10  1   
 11   6  27  1   
 12   6  28  1   
 13   7   9  2   
 14   7  11  1   
 15   9  29  1   
 16  10  12  1   
 17  10  30  1   
 18  10  31  1   
 19  11  32  1   
 20  11  33  1   
 21  11  34  1   
 22  12  13  1   
 23  12  14  1   
 24  12  35  1   
 25  13  15  1   
 26  13  36  1   
 27  13  37  1   
 28  14  16  1   
 29  14  38  1   
 30  14  39  1   
 31  15  17  1   
 32  15  40  1   
 33  15  41  1   
 34  16  17  1   
 35  16  42  1   
 36  16  43  1   
 37  17  18  1   
 38  17  44  1   
 39  18  19  1   
 40  19  20  1   
 41  19  45  1   
 42  19  46  1   
 43  20  21  ar  
 44  20  22  ar  
 45  21  23  ar  
 46  22  24  ar  
 47  22  47  1   
 48  23  25  ar  
 49  23  48  1   
 50  24  25  ar  
 51  24  49  1   
 52  25  50  1   
@<TRIPOS>SUBSTRUCTURE
  1 ****  16 GROUP 4 **** **** 0

# MOE 2024.06 (io_trps.svl 2023.06)
