@<TRIPOS>MOLECULE
NONAME
53 55 1 0 0 
SMALL
USER_CHARGES


@<TRIPOS>ATOM
  1 S        0.5600     0.2870    -0.4750 S.o2  1 <1>   1.3330 
  2 O        0.7990    -1.0950    -0.8260 O.2   1 <1>  -0.6500 
  3 O       -0.4920     1.0260    -1.1360 O.2   1 <1>  -0.6500 
  4 N        0.2520     0.3550     1.1950 N.am  1 <1>  -0.8490 
  5 C        2.1050     1.1780    -0.6640 C.3   1 <1>  -0.0550 
  6 C       -0.5410    -0.7880     1.6580 C.3   1 <1>   0.1160 
  7 C       -0.3900     1.6050     1.6180 C.3   1 <1>   0.1160 
  8 C        3.3240     0.4850    -0.0160 C.3   1 <1>  -0.0800 
  9 C        4.6670     1.1140    -0.3550 C.3   1 <1>   0.2200 
 10 C        3.3280     0.4760     1.5180 C.3   1 <1>   0.1200 
 11 N        4.5800     2.5940    -0.3240 N.am  1 <1>  -0.7300 
 12 C        5.5040     0.6440     0.8260 C.3   1 <1>   0.1200 
 13 O        4.6460     0.7130     1.9210 O.3   1 <1>  -0.5600 
 14 C        4.5670     3.3980    -1.4180 C.2   1 <1>   0.5690 
 15 O        4.5390     2.9380    -2.5320 O.2   1 <1>  -0.5700 
 16 C        4.5420     4.9070    -1.2340 C.3   1 <1>   0.0820 
 17 C        5.6700     5.4450    -0.3600 C.2   1 <1>  -0.1810 
 18 C        5.7360     6.7530     0.1870 C.ar  1 <1>   0.0000 
 19 C        6.7870     4.8090     0.0440 C.2   1 <1>  -0.0100 
 20 C        4.9580     7.9200     0.1660 C.ar  1 <1>  -0.1440 
 21 C        6.9230     6.7600     0.9040 C.ar  1 <1>   0.1400 
 22 O        7.5420     5.5840     0.8080 O.3   1 <1>  -0.2800 
 23 C        5.3990     9.0260     0.8700 C.ar  1 <1>  -0.1500 
 24 C        3.6550     7.9950    -0.6130 C.3   1 <1>  -0.0970 
 25 C        7.3660     7.8680     1.6100 C.ar  1 <1>  -0.1500 
 26 C        6.5940     9.0110     1.5930 C.ar  1 <1>  -0.1440 
 27 C        7.0260    10.2560     2.3470 C.3   1 <1>  -0.0970 
 28 H        2.3040     1.2810    -1.7140 H     1 <1>   0.0800 
 29 H        1.9940     2.1660    -0.2630 H     1 <1>   0.0800 
 30 H       -0.7100    -0.7220     2.7190 H     1 <1>   0.0800 
 31 H       -0.0160    -1.7070     1.4590 H     1 <1>   0.0800 
 32 H       -1.4900    -0.8160     1.1480 H     1 <1>   0.0800 
 33 H       -0.4780     1.6310     2.6910 H     1 <1>   0.0800 
 34 H       -1.3740     1.6890     1.1840 H     1 <1>   0.0800 
 35 H        0.1980     2.4500     1.3040 H     1 <1>   0.0800 
 36 H        3.3490    -0.5390    -0.3470 H     1 <1>   0.0800 
 37 H        5.0610     0.7740    -1.2980 H     1 <1>   0.0800 
 38 H        3.0050    -0.4730     1.9120 H     1 <1>   0.0800 
 39 H        2.7190     1.2630     1.9270 H     1 <1>   0.0800 
 40 H        4.6260     2.9950     0.6180 H     1 <1>   0.3700 
 41 H        6.3690     1.2600     1.0000 H     1 <1>   0.0800 
 42 H        5.8000    -0.3830     0.7010 H     1 <1>   0.0800 
 43 H        4.5940     5.3760    -2.2000 H     1 <1>   0.0800 
 44 H        3.5980     5.1570    -0.7910 H     1 <1>   0.0800 
 45 H        7.1370     3.8100    -0.1550 H     1 <1>   0.1500 
 46 H        4.8150     9.9300     0.8680 H     1 <1>   0.1500 
 47 H        3.2620     8.9960    -0.6040 H     1 <1>   0.0800 
 48 H        2.9240     7.3430    -0.1710 H     1 <1>   0.0800 
 49 H        3.8190     7.7110    -1.6360 H     1 <1>   0.0800 
 50 H        8.2940     7.8100     2.1480 H     1 <1>   0.1500 
 51 H        6.2820    10.5180     3.0770 H     1 <1>   0.0800 
 52 H        7.1470    11.0760     1.6610 H     1 <1>   0.0800 
 53 H        7.9610    10.0930     2.8530 H     1 <1>   0.0800 
@<TRIPOS>BOND
  1   1   2  2   
  2   1   3  2   
  3   1   4  am  
  4   1   5  1   
  5   4   6  1   
  6   4   7  1   
  7   5   8  1   
  8   5  28  1   
  9   5  29  1   
 10   6  30  1   
 11   6  31  1   
 12   6  32  1   
 13   7  33  1   
 14   7  34  1   
 15   7  35  1   
 16   8   9  1   
 17   8  10  1   
 18   8  36  1   
 19   9  11  1   
 20   9  12  1   
 21   9  37  1   
 22  10  13  1   
 23  10  38  1   
 24  10  39  1   
 25  11  14  am  
 26  11  40  1   
 27  12  13  1   
 28  12  41  1   
 29  12  42  1   
 30  14  15  2   
 31  14  16  1   
 32  16  17  1   
 33  16  43  1   
 34  16  44  1   
 35  17  18  1   
 36  17  19  2   
 37  18  20  ar  
 38  18  21  ar  
 39  19  22  1   
 40  19  45  1   
 41  20  23  ar  
 42  20  24  1   
 43  21  22  1   
 44  21  25  ar  
 45  23  26  ar  
 46  23  46  1   
 47  24  47  1   
 48  24  48  1   
 49  24  49  1   
 50  25  26  ar  
 51  25  50  1   
 52  26  27  1   
 53  27  51  1   
 54  27  52  1   
 55  27  53  1   
@<TRIPOS>SUBSTRUCTURE
  1 ****  11 GROUP 4 **** **** 0

# MOE 2024.06 (io_trps.svl 2023.06)
