@<TRIPOS>MOLECULE
NONAME
43 47 1 0 0 
SMALL
USER_CHARGES


@<TRIPOS>ATOM
  1 S       -0.7010     0.4270    -1.2660 S.3   1 <1>  -0.0800 
  2 C       -0.3160     1.8700    -0.3530 C.2   1 <1>  -0.1400 
  3 C        0.8290     0.5390    -2.1240 C.2   1 <1>  -0.1100 
  4 C        0.8840     2.3660    -0.6820 C.2   1 <1>  -0.1810 
  5 C       -1.2520     2.4570     0.6690 C.3   1 <1>   0.0200 
  6 C        1.5400     1.6050    -1.7060 C.2   1 <1>  -0.1500 
  7 C        1.4330     3.6190     0.0050 C.3   1 <1>   0.4610 
  8 C       -0.7970     3.9030     0.9250 C.3   1 <1>   0.1200 
  9 O        0.5990     3.9750     1.0940 O.3   1 <1>  -0.5600 
 10 C        2.8120     3.3380     0.6050 C.3   1 <1>  -0.1600 
 11 C        1.5140     4.7960    -0.9730 C.3   1 <1>  -0.1600 
 12 C        3.3950     4.5900     1.2550 C.3   1 <1>   0.2090 
 13 C        2.1240     6.0360    -0.3200 C.3   1 <1>   0.2090 
 14 N        3.4630     5.6880     0.2410 N.pl3 1 <1>  -0.8380 
 15 C        4.6220     6.3430    -0.0710 C.ar  1 <1>   0.4100 
 16 N        5.7410     5.6320     0.0480 N.ar  1 <1>  -0.6200 
 17 C        4.6720     7.7080    -0.5000 C.ar  1 <1>   0.2270 
 18 C        6.8920     6.1960    -0.2540 C.ar  1 <1>   0.7710 
 19 N        3.7190     8.6800    -0.6750 N.2   1 <1>  -0.5650 
 20 C        5.8940     8.2450    -0.7960 C.ar  1 <1>   0.1560 
 21 N        7.0150     7.4690    -0.6740 N.ar  1 <1>  -0.1260 
 22 N        7.9690     5.4250    -0.1200 N.pl3 1 <1>  -0.9000 
 23 C        4.3640     9.7230    -1.0600 C.2   1 <1>   0.0360 
 24 N        5.7050     9.5280    -1.1590 N.pl3 1 <1>   0.0330 
 25 H        1.0350    -0.2160    -2.8610 H     1 <1>   0.1500 
 26 H       -1.2070     1.8860     1.5790 H     1 <1>   0.0800 
 27 H       -2.2620     2.4510     0.3030 H     1 <1>   0.0800 
 28 H        2.5080     1.8870    -2.0800 H     1 <1>   0.1500 
 29 H       -1.2570     4.2840     1.8200 H     1 <1>   0.0800 
 30 H       -1.0750     4.5340     0.1000 H     1 <1>   0.0800 
 31 H        3.4880     3.0060    -0.1600 H     1 <1>   0.0800 
 32 H        2.7270     2.5520     1.3330 H     1 <1>   0.0800 
 33 H        0.5410     5.0240    -1.3610 H     1 <1>   0.0800 
 34 H        2.1300     4.5170    -1.8080 H     1 <1>   0.0800 
 35 H        4.3660     4.3690     1.6600 H     1 <1>   0.0800 
 36 H        2.7660     4.9040     2.0710 H     1 <1>   0.0800 
 37 H        1.4860     6.3950     0.4700 H     1 <1>   0.0800 
 38 H        2.2010     6.8020    -1.0690 H     1 <1>   0.0800 
 39 H        7.9500     7.8060    -0.8780 H     1 <1>   0.4570 
 40 H        8.9520     5.6400    -0.2930 H     1 <1>   0.4000 
 41 H        7.8110     4.4630     0.2010 H     1 <1>   0.4000 
 42 H        3.9060    10.6740    -1.2870 H     1 <1>   0.1500 
 43 H        6.3850    10.2400    -1.4440 H     1 <1>   0.2700 
@<TRIPOS>BOND
  1   1   2  1   
  2   1   3  1   
  3   2   4  2   
  4   2   5  1   
  5   3   6  2   
  6   3  25  1   
  7   4   6  1   
  8   4   7  1   
  9   5   8  1   
 10   5  26  1   
 11   5  27  1   
 12   6  28  1   
 13   7   9  1   
 14   7  10  1   
 15   7  11  1   
 16   8   9  1   
 17   8  29  1   
 18   8  30  1   
 19  10  12  1   
 20  10  31  1   
 21  10  32  1   
 22  11  13  1   
 23  11  33  1   
 24  11  34  1   
 25  12  14  1   
 26  12  35  1   
 27  12  36  1   
 28  13  14  1   
 29  13  37  1   
 30  13  38  1   
 31  14  15  1   
 32  15  16  ar  
 33  15  17  ar  
 34  16  18  ar  
 35  17  19  1   
 36  17  20  ar  
 37  18  21  ar  
 38  18  22  1   
 39  19  23  2   
 40  20  21  ar  
 41  20  24  1   
 42  21  39  1   
 43  22  40  1   
 44  22  41  1   
 45  23  24  1   
 46  23  42  1   
 47  24  43  1   
@<TRIPOS>SUBSTRUCTURE
  1 ****  14 GROUP 4 **** **** 0

# MOE 2024.06 (io_trps.svl 2023.06)
