@<TRIPOS>MOLECULE
NONAME
46 48 1 0 0 
SMALL
USER_CHARGES


@<TRIPOS>ATOM
  1 O       -0.2490     0.6020    -0.6550 O.3   1 <1>  -0.2800 
  2 C        0.7030     1.4720    -0.6720 C.2   1 <1>   0.5620 
  3 C       -1.3450     1.3160    -0.6610 C.2   1 <1>   0.4250 
  4 N        0.2600     2.6800    -0.6960 N.2   1 <1>  -0.3380 
  5 N        2.0010     1.0390    -0.6550 N.pl3 1 <1>  -0.8530 
  6 N       -1.0660     2.5770    -0.6910 N.2   1 <1>  -0.3380 
  7 C       -2.6280     0.6580    -0.6650 C.ar  1 <1>   0.0530 
  8 C        3.1350     1.9410    -0.4280 C.3   1 <1>   0.2890 
  9 C       -3.7210     1.1240     0.0780 C.ar  1 <1>   0.0830 
 10 C       -2.8250    -0.4920    -1.4340 C.ar  1 <1>  -0.1500 
 11 C        4.2930     1.5120    -1.3350 C.3   1 <1>  -0.1600 
 12 C        3.5290     1.8790     1.0520 C.3   1 <1>  -0.1600 
 13 O       -3.5930     2.2000     0.8780 O.3   1 <1>  -0.3630 
 14 C       -4.9450     0.4750     0.0440 C.ar  1 <1>  -0.1500 
 15 C       -4.0470    -1.1400    -1.4720 C.ar  1 <1>  -0.1500 
 16 C        5.5560     2.3470    -1.0640 C.3   1 <1>  -0.1600 
 17 C        4.7900     2.7160     1.3310 C.3   1 <1>  -0.1600 
 18 C       -4.0840     3.4220     0.3780 C.3   1 <1>   0.1200 
 19 C       -5.1120    -0.6560    -0.7330 C.ar  1 <1>  -0.1500 
 20 C        5.9420     2.2870     0.4170 C.3   1 <1>   0.2000 
 21 C       -3.6320     4.5370     1.3200 C.3   1 <1>  -0.1600 
 22 O        7.0000     3.1420     0.6240 O.3   1 <1>  -0.6800 
 23 C       -4.1200     5.9080     0.8380 C.3   1 <1>  -0.2400 
 24 H        2.1530     0.0550    -0.4380 H     1 <1>   0.4000 
 25 H        2.8520     2.9520    -0.6770 H     1 <1>   0.0800 
 26 H       -2.0070    -0.8800    -2.0140 H     1 <1>   0.1500 
 27 H        4.0000     1.6320    -2.3630 H     1 <1>   0.0800 
 28 H        4.5170     0.4740    -1.1640 H     1 <1>   0.0800 
 29 H        3.7180     0.8570     1.3320 H     1 <1>   0.0800 
 30 H        2.7160     2.2510     1.6510 H     1 <1>   0.0800 
 31 H       -5.7610     0.8520     0.6330 H     1 <1>   0.1500 
 32 H       -4.1710    -2.0220    -2.0760 H     1 <1>   0.1500 
 33 H        5.3660     3.3670    -1.3490 H     1 <1>   0.0800 
 34 H        6.3680     1.9700    -1.6600 H     1 <1>   0.0800 
 35 H        5.0820     2.5880     2.3590 H     1 <1>   0.0800 
 36 H        4.5600     3.7540     1.1660 H     1 <1>   0.0800 
 37 H       -5.1570     3.3650     0.3300 H     1 <1>   0.0800 
 38 H       -3.6810     3.5740    -0.6090 H     1 <1>   0.0800 
 39 H       -6.0630    -1.1600    -0.7600 H     1 <1>   0.1500 
 40 H        6.2710     1.2940     0.6750 H     1 <1>   0.0800 
 41 H       -2.5560     4.5410     1.3650 H     1 <1>   0.0800 
 42 H       -4.0170     4.3470     2.3070 H     1 <1>   0.0800 
 43 H        6.7400     4.0560     0.4030 H     1 <1>   0.4000 
 44 H       -3.7270     6.1220    -0.1410 H     1 <1>   0.0800 
 45 H       -3.7860     6.6740     1.5150 H     1 <1>   0.0800 
 46 H       -5.1950     5.9320     0.7950 H     1 <1>   0.0800 
@<TRIPOS>BOND
  1   1   2  1   
  2   1   3  1   
  3   2   4  2   
  4   2   5  1   
  5   3   6  2   
  6   3   7  1   
  7   4   6  1   
  8   5   8  1   
  9   5  24  1   
 10   7   9  ar  
 11   7  10  ar  
 12   8  11  1   
 13   8  12  1   
 14   8  25  1   
 15   9  13  1   
 16   9  14  ar  
 17  10  15  ar  
 18  10  26  1   
 19  11  16  1   
 20  11  27  1   
 21  11  28  1   
 22  12  17  1   
 23  12  29  1   
 24  12  30  1   
 25  13  18  1   
 26  14  19  ar  
 27  14  31  1   
 28  15  19  ar  
 29  15  32  1   
 30  16  20  1   
 31  16  33  1   
 32  16  34  1   
 33  17  20  1   
 34  17  35  1   
 35  17  36  1   
 36  18  21  1   
 37  18  37  1   
 38  18  38  1   
 39  19  39  1   
 40  20  22  1   
 41  20  40  1   
 42  21  23  1   
 43  21  41  1   
 44  21  42  1   
 45  22  43  1   
 46  23  44  1   
 47  23  45  1   
 48  23  46  1   
@<TRIPOS>SUBSTRUCTURE
  1 ****   2 GROUP 4 **** **** 0

# MOE 2024.06 (io_trps.svl 2023.06)
