@<TRIPOS>MOLECULE
NONAME
44 46 1 0 0 
SMALL
USER_CHARGES


@<TRIPOS>ATOM
  1 O        0.3140     0.0090     1.1290 O.2   1 <1>  -0.5700 
  2 C        1.2770    -0.5240     0.6070 C.2   1 <1>   0.7160 
  3 N        2.4700     0.1480     0.4780 N.am  1 <1>  -0.4940 
  4 C        1.1910    -1.8800     0.1070 C.2   1 <1>   0.1410 
  5 C        2.8470     1.4600     0.8510 C.2   1 <1>  -0.0880 
  6 N        2.2330    -2.5080    -0.4810 N.2   1 <1>  -0.2270 
  7 C        0.1500    -2.7430     0.1170 C.2   1 <1>  -0.3020 
  8 N        4.0850     2.0070     0.6670 N.pl3 1 <1>   0.3140 
  9 C        2.0960     2.4180     1.4440 C.2   1 <1>  -0.1500 
 10 N        1.8620    -3.6870    -0.8180 N.2   1 <1>  -0.4180 
 11 N        0.5720    -3.8680    -0.4650 N.pl3 1 <1>   0.5930 
 12 N        4.1300     3.2790     1.1320 N.2   1 <1>  -0.7070 
 13 C        5.3080     1.3830     0.0770 C.3   1 <1>   0.1760 
 14 C        2.9390     3.5100     1.5890 C.2   1 <1>   0.1390 
 15 C       -0.1640    -5.0690    -0.6880 C.ar  1 <1>  -0.0230 
 16 C        5.0900     0.9150    -1.3820 C.3   1 <1>  -0.1600 
 17 C        5.8220     0.2580     1.0010 C.3   1 <1>  -0.1600 
 18 C        0.4780    -6.3050    -0.6940 C.ar  1 <1>  -0.1500 
 19 C       -1.5410    -5.0370    -0.9050 C.ar  1 <1>  -0.1500 
 20 C        4.4970     2.0020    -2.2900 C.3   1 <1>  -0.2400 
 21 C        7.2050    -0.2790     0.6050 C.3   1 <1>  -0.2400 
 22 C       -0.2320    -7.4730    -0.9030 C.ar  1 <1>  -0.1500 
 23 C       -2.2520    -6.2060    -1.1140 C.ar  1 <1>  -0.1500 
 24 C       -1.5980    -7.4250    -1.1120 C.ar  1 <1>  -0.1500 
 25 H        3.1840    -0.4180     0.0170 H     1 <1>   0.3700 
 26 H       -0.8390    -2.6050     0.5070 H     1 <1>   0.1500 
 27 H        1.0660     2.3690     1.7470 H     1 <1>   0.1500 
 28 H        6.0560     2.1560     0.0590 H     1 <1>   0.0800 
 29 H        2.6470     4.4470     2.0320 H     1 <1>   0.1500 
 30 H        4.4630     0.0420    -1.4090 H     1 <1>   0.0800 
 31 H        6.0410     0.6300    -1.7950 H     1 <1>   0.0800 
 32 H        5.1240    -0.5600     1.0180 H     1 <1>   0.0800 
 33 H        5.8930     0.6520     2.0020 H     1 <1>   0.0800 
 34 H        1.5430    -6.3570    -0.5340 H     1 <1>   0.1500 
 35 H       -2.0680    -4.1000    -0.9180 H     1 <1>   0.1500 
 36 H        3.4990     2.2620    -1.9810 H     1 <1>   0.0800 
 37 H        4.4520     1.6510    -3.3060 H     1 <1>   0.0800 
 38 H        5.1050     2.8890    -2.2620 H     1 <1>   0.0800 
 39 H        7.1680    -0.7890    -0.3420 H     1 <1>   0.0800 
 40 H        7.5500    -0.9790     1.3460 H     1 <1>   0.0800 
 41 H        7.9190     0.5240     0.5420 H     1 <1>   0.0800 
 42 H        0.2790    -8.4210    -0.9030 H     1 <1>   0.1500 
 43 H       -3.3150    -6.1690    -1.2800 H     1 <1>   0.1500 
 44 H       -2.1510    -8.3350    -1.2740 H     1 <1>   0.1500 
@<TRIPOS>BOND
  1   1   2  2   
  2   2   3  am  
  3   2   4  1   
  4   3   5  1   
  5   3  25  1   
  6   4   6  1   
  7   4   7  2   
  8   5   8  1   
  9   5   9  2   
 10   6  10  2   
 11   7  11  1   
 12   7  26  1   
 13   8  12  1   
 14   8  13  1   
 15   9  14  1   
 16   9  27  1   
 17  10  11  1   
 18  11  15  1   
 19  12  14  2   
 20  13  16  1   
 21  13  17  1   
 22  13  28  1   
 23  14  29  1   
 24  15  18  ar  
 25  15  19  ar  
 26  16  20  1   
 27  16  30  1   
 28  16  31  1   
 29  17  21  1   
 30  17  32  1   
 31  17  33  1   
 32  18  22  ar  
 33  18  34  1   
 34  19  23  ar  
 35  19  35  1   
 36  20  36  1   
 37  20  37  1   
 38  20  38  1   
 39  21  39  1   
 40  21  40  1   
 41  21  41  1   
 42  22  24  ar  
 43  22  42  1   
 44  23  24  ar  
 45  23  43  1   
 46  24  44  1   
@<TRIPOS>SUBSTRUCTURE
  1 ****   4 GROUP 4 **** **** 0

# MOE 2024.06 (io_trps.svl 2023.06)
