@<TRIPOS>MOLECULE
NONAME
52 55 1 0 0 
SMALL
USER_CHARGES


@<TRIPOS>ATOM
  1 O        0.6460     2.9780    -2.3130 O.3   1 <1>  -0.6800 
  2 C        1.5890     3.5020    -1.4430 C.3   1 <1>   0.2000 
  3 C        2.6250     4.3240    -2.2350 C.3   1 <1>   0.2090 
  4 C        2.2390     2.3320    -0.7000 C.3   1 <1>  -0.1600 
  5 N        3.7450     4.7670    -1.3390 N.pl3 1 <1>  -0.8380 
  6 C        3.4010     2.8320     0.1730 C.3   1 <1>  -0.1600 
  7 C        4.0600     6.0640    -1.0850 C.ar  1 <1>   0.4100 
  8 C        4.4230     3.6270    -0.6460 C.3   1 <1>   0.2090 
  9 N        4.5330     6.3600     0.1120 N.ar  1 <1>  -0.6200 
 10 C        3.8890     7.0590    -2.0680 C.ar  1 <1>  -0.1500 
 11 C        4.8130     7.6200     0.3740 C.ar  1 <1>   0.7710 
 12 C        4.2100     8.3410    -1.7740 C.ar  1 <1>   0.2110 
 13 N        4.6800     8.6010    -0.5330 N.ar  1 <1>  -0.1790 
 14 N        5.2320     7.8650     1.6210 N.pl3 1 <1>  -0.8690 
 15 C        5.3530     9.1010     2.4290 C.3   1 <1>   0.2090 
 16 C        6.8250     9.3710     2.7640 C.3   1 <1>  -0.1600 
 17 C        7.4500    10.5340     1.9760 C.3   1 <1>   0.0960 
 18 N        7.2960    10.3660     0.5160 N.pl3 1 <1>   0.0480 
 19 C        6.4000    11.0200    -0.3010 C.ar  1 <1>  -0.1520 
 20 C        8.0900     9.5920    -0.2800 C.2   1 <1>  -0.3020 
 21 C        6.6700    10.6640    -1.6200 C.ar  1 <1>   0.0000 
 22 C        5.3480    11.8940    -0.0060 C.ar  1 <1>  -0.1500 
 23 C        7.7440     9.7540    -1.5770 C.2   1 <1>  -0.1500 
 24 C        5.8990    11.1910    -2.6600 C.ar  1 <1>  -0.1500 
 25 C        4.5820    12.3870    -1.0360 C.ar  1 <1>  -0.1500 
 26 C        4.8590    12.0390    -2.3630 C.ar  1 <1>  -0.1500 
 27 H       -0.0020     3.6580    -2.5790 H     1 <1>   0.4000 
 28 H        1.0780     4.1410    -0.7430 H     1 <1>   0.0800 
 29 H        2.1270     5.1700    -2.6690 H     1 <1>   0.0800 
 30 H        3.0320     3.7150    -3.0240 H     1 <1>   0.0800 
 31 H        2.6150     1.6200    -1.4140 H     1 <1>   0.0800 
 32 H        1.5050     1.8450    -0.0820 H     1 <1>   0.0800 
 33 H        3.8920     1.9930     0.6320 H     1 <1>   0.0800 
 34 H        3.0250     3.4620     0.9600 H     1 <1>   0.0800 
 35 H        5.2120     3.9770    -0.0030 H     1 <1>   0.0800 
 36 H        4.8690     2.9840    -1.3870 H     1 <1>   0.0800 
 37 H        3.5290     6.7820    -3.0400 H     1 <1>   0.1500 
 38 H        4.1180     9.1480    -2.4820 H     1 <1>   0.1500 
 39 H        5.0500     9.5220    -0.2880 H     1 <1>   0.4570 
 40 H        5.3450     7.0060     2.1710 H     1 <1>   0.4000 
 41 H        4.8090     8.9500     3.3480 H     1 <1>   0.0800 
 42 H        4.9020     9.9400     1.9280 H     1 <1>   0.0800 
 43 H        7.4160     8.4820     2.6300 H     1 <1>   0.0800 
 44 H        6.8870     9.6290     3.8070 H     1 <1>   0.0800 
 45 H        8.5000    10.5990     2.2000 H     1 <1>   0.0800 
 46 H        6.9970    11.4640     2.2670 H     1 <1>   0.0800 
 47 H        8.8760     8.9760     0.1260 H     1 <1>   0.1500 
 48 H        5.1470    12.1920     1.0090 H     1 <1>   0.1500 
 49 H        8.1910     9.2970    -2.4450 H     1 <1>   0.1500 
 50 H        6.1380    10.9320    -3.6780 H     1 <1>   0.1500 
 51 H        3.7690    13.0670    -0.8350 H     1 <1>   0.1500 
 52 H        4.2560    12.4600    -3.1520 H     1 <1>   0.1500 
@<TRIPOS>BOND
  1   1   2  1   
  2   1  27  1   
  3   2   3  1   
  4   2   4  1   
  5   2  28  1   
  6   3   5  1   
  7   3  29  1   
  8   3  30  1   
  9   4   6  1   
 10   4  31  1   
 11   4  32  1   
 12   5   7  1   
 13   5   8  1   
 14   6   8  1   
 15   6  33  1   
 16   6  34  1   
 17   7   9  ar  
 18   7  10  ar  
 19   8  35  1   
 20   8  36  1   
 21   9  11  ar  
 22  10  12  ar  
 23  10  37  1   
 24  11  13  ar  
 25  11  14  1   
 26  12  13  ar  
 27  12  38  1   
 28  13  39  1   
 29  14  15  1   
 30  14  40  1   
 31  15  16  1   
 32  15  41  1   
 33  15  42  1   
 34  16  17  1   
 35  16  43  1   
 36  16  44  1   
 37  17  18  1   
 38  17  45  1   
 39  17  46  1   
 40  18  19  1   
 41  18  20  1   
 42  19  21  ar  
 43  19  22  ar  
 44  20  23  2   
 45  20  47  1   
 46  21  23  1   
 47  21  24  ar  
 48  22  25  ar  
 49  22  48  1   
 50  23  49  1   
 51  24  26  ar  
 52  24  50  1   
 53  25  26  ar  
 54  25  51  1   
 55  26  52  1   
@<TRIPOS>SUBSTRUCTURE
  1 ****  13 GROUP 4 **** **** 0

# MOE 2024.06 (io_trps.svl 2023.06)
