@<TRIPOS>MOLECULE
NONAME
54 57 1 0 0 
SMALL
USER_CHARGES


@<TRIPOS>ATOM
  1 O       -0.5220    -0.6450     0.6140 O.3   1 <1>  -0.5600 
  2 C       -1.6240    -1.4890     0.4410 C.3   1 <1>   0.1200 
  3 C        0.6300    -1.2960     1.0580 C.3   1 <1>   0.1200 
  4 C       -1.3140    -2.5730    -0.6060 C.3   1 <1>   0.2090 
  5 C        1.0720    -2.3650     0.0410 C.3   1 <1>   0.2090 
  6 N       -0.0500    -3.3240    -0.2610 N.pl3 1 <1>  -0.8380 
  7 C       -0.0140    -4.6850    -0.2250 C.ar  1 <1>   0.7710 
  8 N       -1.1390    -5.3710    -0.3660 N.ar  1 <1>  -0.6200 
  9 N        1.1670    -5.3060    -0.0510 N.ar  1 <1>  -0.1790 
 10 C       -1.0880    -6.6880    -0.3250 C.ar  1 <1>   0.4100 
 11 C        1.2740    -6.6550    -0.0060 C.ar  1 <1>   0.2180 
 12 N       -2.2560    -7.3640    -0.4690 N.pl3 1 <1>  -0.8380 
 13 C        0.1310    -7.3680    -0.1430 C.ar  1 <1>  -0.1500 
 14 C        2.6460    -7.2870     0.1890 C.3   1 <1>  -0.0170 
 15 C       -3.5580    -6.7030    -0.7710 C.3   1 <1>   0.2090 
 16 C       -2.4420    -8.8390    -0.4040 C.3   1 <1>   0.2090 
 17 C        3.5880    -6.9930    -0.9850 C.3   1 <1>  -0.2400 
 18 C       -4.5460    -7.8450    -1.0170 C.3   1 <1>   0.2000 
 19 C       -3.9520    -9.0590    -0.3090 C.3   1 <1>  -0.0800 
 20 O       -5.8050    -7.5670    -0.5030 O.3   1 <1>  -0.6800 
 21 C       -4.4280   -10.3910    -0.9150 C.3   1 <1>  -0.0170 
 22 C       -3.8830   -11.5950    -0.1610 C.ar  1 <1>   0.1670 
 23 N       -2.6090   -11.8990    -0.3620 N.ar  1 <1>  -0.6200 
 24 C       -4.7210   -12.3180     0.6870 C.ar  1 <1>   0.1600 
 25 C       -2.2400   -12.9690     0.3250 C.ar  1 <1>   0.1600 
 26 N       -4.3500   -13.3810     1.3810 N.ar  1 <1>  -0.6200 
 27 C       -3.0820   -13.6850     1.1680 C.ar  1 <1>   0.1600 
 28 H       -1.8740    -1.9350     1.3890 H     1 <1>   0.0800 
 29 H       -2.4520    -0.8840     0.1160 H     1 <1>   0.0800 
 30 H        1.3980    -0.5510     1.1750 H     1 <1>   0.0800 
 31 H        0.4270    -1.7360     2.0190 H     1 <1>   0.0800 
 32 H       -1.1930    -2.0980    -1.5650 H     1 <1>   0.0800 
 33 H       -2.1670    -3.2240    -0.6790 H     1 <1>   0.0800 
 34 H        1.9320    -2.8710     0.4370 H     1 <1>   0.0800 
 35 H        1.3670    -1.8670    -0.8680 H     1 <1>   0.0800 
 36 H        1.9780    -4.7090     0.0080 H     1 <1>   0.4570 
 37 H        0.1350    -8.4400    -0.1220 H     1 <1>   0.1500 
 38 H        3.0840    -6.9310     1.1060 H     1 <1>   0.0800 
 39 H        2.5360    -8.3550     0.2820 H     1 <1>   0.0800 
 40 H       -3.8580    -6.1090     0.0750 H     1 <1>   0.0800 
 41 H       -3.4700    -6.0820    -1.6450 H     1 <1>   0.0800 
 42 H       -2.0520    -9.2850    -1.3040 H     1 <1>   0.0800 
 43 H       -1.9440    -9.2620     0.4520 H     1 <1>   0.0800 
 44 H        3.7940    -5.9420    -1.0770 H     1 <1>   0.0800 
 45 H        3.1610    -7.3460    -1.9090 H     1 <1>   0.0800 
 46 H        4.5250    -7.5040    -0.8360 H     1 <1>   0.0800 
 47 H       -4.6420    -8.0170    -2.0760 H     1 <1>   0.0800 
 48 H       -4.2120    -9.0260     0.7350 H     1 <1>   0.0800 
 49 H       -5.7530    -7.3870     0.4560 H     1 <1>   0.4000 
 50 H       -4.1210   -10.4570    -1.9440 H     1 <1>   0.0800 
 51 H       -5.5040   -10.4150    -0.9010 H     1 <1>   0.0800 
 52 H       -5.7440   -12.0040     0.7980 H     1 <1>   0.1500 
 53 H       -1.2220   -13.2980     0.2160 H     1 <1>   0.1500 
 54 H       -2.6890   -14.5420     1.6850 H     1 <1>   0.1500 
@<TRIPOS>BOND
  1   1   2  1   
  2   1   3  1   
  3   2   4  1   
  4   2  28  1   
  5   2  29  1   
  6   3   5  1   
  7   3  30  1   
  8   3  31  1   
  9   4   6  1   
 10   4  32  1   
 11   4  33  1   
 12   5   6  1   
 13   5  34  1   
 14   5  35  1   
 15   6   7  1   
 16   7   8  ar  
 17   7   9  ar  
 18   8  10  ar  
 19   9  11  ar  
 20   9  36  1   
 21  10  12  1   
 22  10  13  ar  
 23  11  13  ar  
 24  11  14  1   
 25  12  15  1   
 26  12  16  1   
 27  13  37  1   
 28  14  17  1   
 29  14  38  1   
 30  14  39  1   
 31  15  18  1   
 32  15  40  1   
 33  15  41  1   
 34  16  19  1   
 35  16  42  1   
 36  16  43  1   
 37  17  44  1   
 38  17  45  1   
 39  17  46  1   
 40  18  19  1   
 41  18  20  1   
 42  18  47  1   
 43  19  21  1   
 44  19  48  1   
 45  20  49  1   
 46  21  22  1   
 47  21  50  1   
 48  21  51  1   
 49  22  23  ar  
 50  22  24  ar  
 51  23  25  ar  
 52  24  26  ar  
 53  24  52  1   
 54  25  27  ar  
 55  25  53  1   
 56  26  27  ar  
 57  27  54  1   
@<TRIPOS>SUBSTRUCTURE
  1 ****  12 GROUP 4 **** **** 0

# MOE 2024.06 (io_trps.svl 2023.06)
