@<TRIPOS>MOLECULE
NONAME
45 46 1 0 0 
SMALL
USER_CHARGES


@<TRIPOS>ATOM
  1 F       -1.0310    -1.8990    -2.6340 F     1 <1>  -0.1900 
  2 C       -1.4820    -2.6670    -1.6730 C.ar  1 <1>   0.1900 
  3 C       -0.6240    -3.3380    -0.7950 C.ar  1 <1>   0.0830 
  4 C       -2.8540    -2.7790    -1.5690 C.ar  1 <1>  -0.1500 
  5 O        0.7400    -3.3090    -0.7960 O.3   1 <1>  -0.3630 
  6 C       -1.2000    -4.1250     0.1890 C.ar  1 <1>  -0.1500 
  7 C       -3.3950    -3.5730    -0.5740 C.ar  1 <1>  -0.1500 
  8 C        1.4940    -2.5820    -1.7410 C.3   1 <1>   0.0400 
  9 C       -2.5840    -4.2670     0.3270 C.ar  1 <1>   0.0530 
 10 C       -3.1420    -5.0970     1.3710 C.2   1 <1>   0.0870 
 11 O       -2.4160    -5.3970     2.4250 O.3   1 <1>  -0.0190 
 12 C       -4.3390    -5.7170     1.5380 C.2   1 <1>  -0.2330 
 13 N       -3.0450    -6.1630     3.2800 N.2   1 <1>  -0.4100 
 14 C       -4.2100    -6.3400     2.7770 C.2   1 <1>   0.3720 
 15 C       -5.4680    -5.9060     0.6840 C.2   1 <1>   1.0330 
 16 N       -5.2170    -7.0780     3.3800 N.pl3 1 <1>  -0.8520 
 17 O       -5.3130    -6.0320    -0.5410 O.co2 1 <1>  -0.9000 
 18 O       -6.5770    -6.2320     1.1480 O.co2 1 <1>  -0.9000 
 19 C       -5.0640    -8.5560     3.3780 C.3   1 <1>   0.2090 
 20 C       -5.8370    -9.1740     2.1960 C.3   1 <1>   0.2000 
 21 O       -6.0780   -10.5320     2.4130 O.3   1 <1>  -0.6800 
 22 C       -5.0630    -9.0220     0.8720 C.3   1 <1>   0.3430 
 23 N       -5.8330    -9.4370    -0.3500 N.4   1 <1>  -0.9590 
 24 C       -4.9870    -9.1740    -1.5480 C.3   1 <1>   0.2630 
 25 C       -7.0980    -8.6430    -0.5010 C.3   1 <1>   0.2630 
 26 H       -3.4920    -2.2540    -2.2570 H     1 <1>   0.1500 
 27 H       -0.5480    -4.6440     0.8670 H     1 <1>   0.1500 
 28 H       -4.4650    -3.6560    -0.5010 H     1 <1>   0.1500 
 29 H        2.5360    -2.7390    -1.5290 H     1 <1>   0.0800 
 30 H        1.2570    -1.5370    -1.6490 H     1 <1>   0.0800 
 31 H        1.2640    -2.9450    -2.7270 H     1 <1>   0.0800 
 32 H       -6.0980    -6.8020     2.8960 H     1 <1>   0.4000 
 33 H       -5.4640    -8.9260     4.3060 H     1 <1>   0.0800 
 34 H       -4.0200    -8.8170     3.3290 H     1 <1>   0.0800 
 35 H       -6.7920    -8.6830     2.1360 H     1 <1>   0.0800 
 36 H       -6.6300   -10.6590     3.2120 H     1 <1>   0.4000 
 37 H       -4.1650    -9.6100     0.9460 H     1 <1>   0.0800 
 38 H       -4.7500    -8.0070     0.7570 H     1 <1>   0.0800 
 39 H       -6.0610   -10.4350    -0.2390 H     1 <1>   0.4500 
 40 H       -4.7750    -8.1160    -1.6180 H     1 <1>   0.0800 
 41 H       -5.5010    -9.4800    -2.4440 H     1 <1>   0.0800 
 42 H       -4.0560    -9.7100    -1.4770 H     1 <1>   0.0800 
 43 H       -6.8740    -7.6020    -0.6600 H     1 <1>   0.0800 
 44 H       -7.7110    -8.7230     0.3800 H     1 <1>   0.0800 
 45 H       -7.6630    -8.9970    -1.3460 H     1 <1>   0.0800 
@<TRIPOS>BOND
  1   1   2  1   
  2   2   3  ar  
  3   2   4  ar  
  4   3   5  1   
  5   3   6  ar  
  6   4   7  ar  
  7   4  26  1   
  8   5   8  1   
  9   6   9  ar  
 10   6  27  1   
 11   7   9  ar  
 12   7  28  1   
 13   8  29  1   
 14   8  30  1   
 15   8  31  1   
 16   9  10  1   
 17  10  11  1   
 18  10  12  2   
 19  11  13  1   
 20  12  14  1   
 21  12  15  1   
 22  13  14  2   
 23  14  16  1   
 24  15  17  ar  
 25  15  18  ar  
 26  16  19  1   
 27  16  32  1   
 28  19  20  1   
 29  19  33  1   
 30  19  34  1   
 31  20  21  1   
 32  20  22  1   
 33  20  35  1   
 34  21  36  1   
 35  22  23  1   
 36  22  37  1   
 37  22  38  1   
 38  23  24  1   
 39  23  25  1   
 40  23  39  1   
 41  24  40  1   
 42  24  41  1   
 43  24  42  1   
 44  25  43  1   
 45  25  44  1   
 46  25  45  1   
@<TRIPOS>SUBSTRUCTURE
  1 ****  12 GROUP 4 **** **** 0

# MOE 2024.06 (io_trps.svl 2023.06)
