@<TRIPOS>MOLECULE
NONAME
53 55 1 0 0 
SMALL
USER_CHARGES


@<TRIPOS>ATOM
  1 F        0.2580     0.6710     1.8830 F     1 <1>  -0.1900 
  2 C        1.3260     1.0950     1.2570 C.ar  1 <1>   0.1900 
  3 C        2.3010     0.1780     0.8770 C.ar  1 <1>   0.0860 
  4 C        1.4460     2.4440     0.9710 C.ar  1 <1>   0.1900 
  5 C        3.4150     0.6900     0.1900 C.ar  1 <1>   0.0830 
  6 C        2.1400    -1.2230     1.1630 C.2   1 <1>   0.5440 
  7 F        0.5110     3.2840     1.3390 F     1 <1>  -0.1900 
  8 C        2.5400     2.9370     0.2860 C.ar  1 <1>  -0.1500 
  9 O        4.4240    -0.0990    -0.2410 O.3   1 <1>  -0.3630 
 10 C        3.5230     2.0450    -0.1060 C.ar  1 <1>  -0.1500 
 11 O        2.4320    -1.6380     2.2680 O.2   1 <1>  -0.5700 
 12 N        1.6920    -2.1000     0.2030 N.am  1 <1>  -0.6600 
 13 C        5.1750    -0.8320     0.7090 C.3   1 <1>   0.0400 
 14 C        1.6620    -3.5810     0.4620 C.3   1 <1>   0.3640 
 15 C        1.1920    -1.6330    -1.1270 C.3   1 <1>   0.1400 
 16 C        2.9680    -4.2600     0.0190 C.ar  1 <1>  -0.1430 
 17 C        0.4270    -4.2840    -0.1870 C.3   1 <1>   0.2000 
 18 C        0.7050    -2.7920    -2.0080 C.3   1 <1>   0.1200 
 19 C        3.2590    -5.5080     0.5560 C.ar  1 <1>  -0.1500 
 20 C        3.8690    -3.7010    -0.8820 C.ar  1 <1>  -0.1500 
 21 O       -0.1580    -3.5950    -1.2700 O.3   1 <1>  -0.5600 
 22 C       -0.6880    -4.5130     0.8400 C.3   1 <1>   0.1200 
 23 C        4.4060    -6.1960     0.1980 C.ar  1 <1>   0.0830 
 24 C        5.0290    -4.3710    -1.2330 C.ar  1 <1>  -0.1500 
 25 O       -0.3160    -5.5090     1.7400 O.3   1 <1>  -0.6800 
 26 O        4.5860    -7.4280     0.7340 O.3   1 <1>  -0.3630 
 27 C        5.3160    -5.6090    -0.6880 C.ar  1 <1>   0.0830 
 28 C        4.5940    -8.5130    -0.1680 C.3   1 <1>   0.0400 
 29 O        6.4870    -6.1930    -1.0420 O.3   1 <1>  -0.3630 
 30 C        7.4420    -6.3440    -0.0150 C.3   1 <1>   0.0400 
 31 H        2.6150     3.9880     0.0680 H     1 <1>   0.1500 
 32 H        4.3870     2.3960    -0.6430 H     1 <1>   0.1500 
 33 H        6.1410    -1.0410     0.2840 H     1 <1>   0.0800 
 34 H        4.6750    -1.7580     0.9270 H     1 <1>   0.0800 
 35 H        5.2870    -0.2480     1.6050 H     1 <1>   0.0800 
 36 H        1.5950    -3.7380     1.5250 H     1 <1>   0.0800 
 37 H        0.3710    -0.9540    -0.9720 H     1 <1>   0.0800 
 38 H        1.9730    -1.1020    -1.6410 H     1 <1>   0.0800 
 39 H        0.7290    -5.2430    -0.5700 H     1 <1>   0.0800 
 40 H        1.5240    -3.3910    -2.3660 H     1 <1>   0.0800 
 41 H        0.1610    -2.4110    -2.8550 H     1 <1>   0.0800 
 42 H        2.5900    -5.9660     1.2640 H     1 <1>   0.1500 
 43 H        3.6920    -2.7350    -1.3160 H     1 <1>   0.1500 
 44 H       -1.5950    -4.8250     0.3540 H     1 <1>   0.0800 
 45 H       -0.8690    -3.6100     1.3980 H     1 <1>   0.0800 
 46 H        5.7230    -3.9300    -1.9250 H     1 <1>   0.1500 
 47 H       -0.4170    -6.3950     1.3390 H     1 <1>   0.4000 
 48 H        4.6070    -9.4240     0.4020 H     1 <1>   0.0800 
 49 H        5.4700    -8.4570    -0.7880 H     1 <1>   0.0800 
 50 H        3.7050    -8.4690    -0.7730 H     1 <1>   0.0800 
 51 H        8.3470    -6.7260    -0.4510 H     1 <1>   0.0800 
 52 H        7.0700    -7.0340     0.7210 H     1 <1>   0.0800 
 53 H        7.6240    -5.3830     0.4340 H     1 <1>   0.0800 
@<TRIPOS>BOND
  1   1   2  1   
  2   2   3  ar  
  3   2   4  ar  
  4   3   5  ar  
  5   3   6  1   
  6   4   7  1   
  7   4   8  ar  
  8   5   9  1   
  9   5  10  ar  
 10   6  11  2   
 11   6  12  am  
 12   8  10  ar  
 13   8  31  1   
 14   9  13  1   
 15  10  32  1   
 16  12  14  1   
 17  12  15  1   
 18  13  33  1   
 19  13  34  1   
 20  13  35  1   
 21  14  16  1   
 22  14  17  1   
 23  14  36  1   
 24  15  18  1   
 25  15  37  1   
 26  15  38  1   
 27  16  19  ar  
 28  16  20  ar  
 29  17  21  1   
 30  17  22  1   
 31  17  39  1   
 32  18  21  1   
 33  18  40  1   
 34  18  41  1   
 35  19  23  ar  
 36  19  42  1   
 37  20  24  ar  
 38  20  43  1   
 39  22  25  1   
 40  22  44  1   
 41  22  45  1   
 42  23  26  1   
 43  23  27  ar  
 44  24  27  ar  
 45  24  46  1   
 46  25  47  1   
 47  26  28  1   
 48  27  29  1   
 49  28  48  1   
 50  28  49  1   
 51  28  50  1   
 52  29  30  1   
 53  30  51  1   
 54  30  52  1   
 55  30  53  1   
@<TRIPOS>SUBSTRUCTURE
  1 ****  12 GROUP 4 **** **** 0

# MOE 2024.06 (io_trps.svl 2023.06)
