@<TRIPOS>MOLECULE
NONAME
52 54 1 0 0 
SMALL
USER_CHARGES


@<TRIPOS>ATOM
  1 O        0.9030     0.7870    -0.8660 O.2   1 <1>  -0.5700 
  2 C        1.7900     0.3310    -0.1710 C.2   1 <1>   0.5440 
  3 N        2.1770     1.0150     0.9620 N.am  1 <1>  -0.6600 
  4 C        2.4200    -0.9140    -0.5550 C.ar  1 <1>   0.0860 
  5 C        2.7810     0.3260     2.1510 C.3   1 <1>   0.1400 
  6 C        2.0460     2.4970     1.0180 C.3   1 <1>   0.1400 
  7 C        1.7140    -2.0890    -0.7380 C.ar  1 <1>  -0.1500 
  8 C        3.7870    -1.0090    -0.7710 C.ar  1 <1>  -0.1500 
  9 C        3.8930     1.1270     2.8500 C.3   1 <1>   0.1400 
 10 C        3.3280     3.1520     0.4870 C.3   1 <1>  -0.1600 
 11 C        2.3730    -3.2550    -1.0840 C.ar  1 <1>   0.3920 
 12 C        4.3580    -2.2180    -1.1100 C.ar  1 <1>   0.1600 
 13 N        4.8490     1.7060     1.8650 N.am  1 <1>  -0.6600 
 14 C        4.5350     3.0950     1.4360 C.3   1 <1>   0.1400 
 15 O        1.6160    -4.3630    -1.2340 O.3   1 <1>  -0.3630 
 16 N        3.6870    -3.3470    -1.2690 N.ar  1 <1>  -0.6200 
 17 C        5.8840     0.9430     1.3440 C.2   1 <1>   0.7160 
 18 C        2.2010    -5.5980    -1.5930 C.3   1 <1>   0.0400 
 19 O        6.0940    -0.1410     1.8700 O.2   1 <1>  -0.5700 
 20 C        6.7010     1.3570     0.2010 C.2   1 <1>   0.2030 
 21 N        6.2550     1.9560    -0.8910 N.2   1 <1>  -0.7070 
 22 C        8.0890     1.1440     0.0900 C.2   1 <1>  -0.1810 
 23 N        7.3250     2.1180    -1.6760 N.pl3 1 <1>   0.3000 
 24 C        8.4490     1.6390    -1.1120 C.2   1 <1>  -0.3320 
 25 C        8.9680     0.4780     1.1380 C.3   1 <1>  -0.0590 
 26 C        9.7990     1.7020    -1.8070 C.3   1 <1>   0.0200 
 27 C        9.8310     0.7370    -2.9930 C.3   1 <1>  -0.2400 
 28 H        3.1930    -0.6230     1.8610 H     1 <1>   0.0800 
 29 H        2.0010     0.1270     2.8640 H     1 <1>   0.0800 
 30 H        1.8360     2.8160     2.0240 H     1 <1>   0.0800 
 31 H        1.2170     2.8050     0.4030 H     1 <1>   0.0800 
 32 H        0.6490    -2.1000    -0.6120 H     1 <1>   0.1500 
 33 H        4.3980    -0.1310    -0.6750 H     1 <1>   0.1500 
 34 H        4.4160     0.4790     3.5320 H     1 <1>   0.0800 
 35 H        3.4550     1.9130     3.4390 H     1 <1>   0.0800 
 36 H        3.1170     4.1870     0.2930 H     1 <1>   0.0800 
 37 H        3.5910     2.7080    -0.4570 H     1 <1>   0.0800 
 38 H        5.4240    -2.2580    -1.2590 H     1 <1>   0.1500 
 39 H        4.3300     3.6900     2.3090 H     1 <1>   0.0800 
 40 H        5.3900     3.5340     0.9510 H     1 <1>   0.0800 
 41 H        1.4230    -6.3370    -1.6560 H     1 <1>   0.0800 
 42 H        2.9170    -5.8760    -0.8390 H     1 <1>   0.0800 
 43 H        2.6860    -5.4880    -2.5470 H     1 <1>   0.0800 
 44 H        7.2650     2.5560    -2.6030 H     1 <1>   0.2700 
 45 H        8.8340     0.9610     2.0890 H     1 <1>   0.0800 
 46 H       10.0050     0.5320     0.8700 H     1 <1>   0.0800 
 47 H        8.6940    -0.5570     1.2360 H     1 <1>   0.0800 
 48 H       10.5820     1.4380    -1.1190 H     1 <1>   0.0800 
 49 H        9.9890     2.7060    -2.1450 H     1 <1>   0.0800 
 50 H        9.6330    -0.2650    -2.6540 H     1 <1>   0.0800 
 51 H       10.7990     0.7580    -3.4600 H     1 <1>   0.0800 
 52 H        9.0900     1.0070    -3.7230 H     1 <1>   0.0800 
@<TRIPOS>BOND
  1   1   2  2   
  2   2   3  am  
  3   2   4  1   
  4   3   5  1   
  5   3   6  1   
  6   4   7  ar  
  7   4   8  ar  
  8   5   9  1   
  9   5  28  1   
 10   5  29  1   
 11   6  10  1   
 12   6  30  1   
 13   6  31  1   
 14   7  11  ar  
 15   7  32  1   
 16   8  12  ar  
 17   8  33  1   
 18   9  13  1   
 19   9  34  1   
 20   9  35  1   
 21  10  14  1   
 22  10  36  1   
 23  10  37  1   
 24  11  15  1   
 25  11  16  ar  
 26  12  16  ar  
 27  12  38  1   
 28  13  14  1   
 29  13  17  am  
 30  14  39  1   
 31  14  40  1   
 32  15  18  1   
 33  17  19  2   
 34  17  20  1   
 35  18  41  1   
 36  18  42  1   
 37  18  43  1   
 38  20  21  2   
 39  20  22  1   
 40  21  23  1   
 41  22  24  2   
 42  22  25  1   
 43  23  24  1   
 44  23  44  1   
 45  24  26  1   
 46  25  45  1   
 47  25  46  1   
 48  25  47  1   
 49  26  27  1   
 50  26  48  1   
 51  26  49  1   
 52  27  50  1   
 53  27  51  1   
 54  27  52  1   
@<TRIPOS>SUBSTRUCTURE
  1 ****   8 GROUP 4 **** **** 0

# MOE 2024.06 (io_trps.svl 2023.06)
