@<TRIPOS>MOLECULE
NONAME
45 47 1 0 0 
SMALL
USER_CHARGES


@<TRIPOS>ATOM
  1 O       -0.5330     1.5180     1.7640 O.2   1 <1>  -0.5700 
  2 C       -0.2490     2.4900     1.0800 C.2   1 <1>   0.5440 
  3 N       -1.2840     3.2700     0.5890 N.am  1 <1>  -0.6600 
  4 C        1.1580     2.7650     0.7710 C.ar  1 <1>   0.3960 
  5 C       -2.7150     3.0310     0.9570 C.3   1 <1>   0.1400 
  6 C       -1.0970     4.4010    -0.3580 C.3   1 <1>   0.1400 
  7 N        1.7020     3.9140     1.2180 N.ar  1 <1>  -0.6200 
  8 C        1.9050     1.8460     0.0140 C.ar  1 <1>  -0.1430 
  9 C       -3.5620     2.7240    -0.3020 C.3   1 <1>   0.0000 
 10 C       -1.9040     4.1390    -1.6360 C.3   1 <1>  -0.1600 
 11 C        2.9690     4.1340     0.9320 C.ar  1 <1>   0.1600 
 12 C        3.2300     2.1040    -0.2740 C.ar  1 <1>  -0.1500 
 13 C        1.2850     0.5540    -0.5090 C.3   1 <1>  -0.0970 
 14 C       -5.0430     2.5110     0.0560 C.3   1 <1>   0.2000 
 15 C       -3.3870     3.8630    -1.3310 C.3   1 <1>  -0.1600 
 16 C       -3.1840     1.3480    -0.8790 C.3   1 <1>  -0.1600 
 17 C        3.7680     3.2770     0.2010 C.ar  1 <1>  -0.1500 
 18 O       -5.4770     3.4270     1.0180 O.3   1 <1>  -0.5600 
 19 C       -5.1440     1.0700     0.5680 C.3   1 <1>  -0.1600 
 20 C       -3.9420     0.3240    -0.0300 C.3   1 <1>  -0.1600 
 21 C       -6.8580     3.5020     1.1790 C.3   1 <1>   0.0400 
 22 H       -2.7970     2.2280     1.6670 H     1 <1>   0.0800 
 23 H       -3.0890     3.9180     1.4380 H     1 <1>   0.0800 
 24 H       -1.4400     5.3070     0.1130 H     1 <1>   0.0800 
 25 H       -0.0610     4.5310    -0.6120 H     1 <1>   0.0800 
 26 H       -1.8240     4.9940    -2.2820 H     1 <1>   0.0800 
 27 H       -1.4720     3.3000    -2.1520 H     1 <1>   0.0800 
 28 H        3.3990     5.0500     1.3010 H     1 <1>   0.1500 
 29 H        3.8300     1.4180    -0.8480 H     1 <1>   0.1500 
 30 H        1.9580     0.0360    -1.1680 H     1 <1>   0.0800 
 31 H        0.3800     0.7660    -1.0500 H     1 <1>   0.0800 
 32 H        1.0480    -0.0980     0.3140 H     1 <1>   0.0800 
 33 H       -5.6410     2.6260    -0.8330 H     1 <1>   0.0800 
 34 H       -3.9050     3.6270    -2.2430 H     1 <1>   0.0800 
 35 H       -3.8290     4.7580    -0.9280 H     1 <1>   0.0800 
 36 H       -3.5250     1.2750    -1.8970 H     1 <1>   0.0800 
 37 H       -2.1240     1.1660    -0.8600 H     1 <1>   0.0800 
 38 H        4.7960     3.5270     0.0100 H     1 <1>   0.1500 
 39 H       -5.0770     1.0520     1.6420 H     1 <1>   0.0800 
 40 H       -6.0680     0.6210     0.2530 H     1 <1>   0.0800 
 41 H       -3.3050    -0.0260     0.7660 H     1 <1>   0.0800 
 42 H       -4.2510    -0.5190    -0.6230 H     1 <1>   0.0800 
 43 H       -7.0650     4.2500     1.9240 H     1 <1>   0.0800 
 44 H       -7.2340     2.5500     1.5100 H     1 <1>   0.0800 
 45 H       -7.3100     3.7860     0.2450 H     1 <1>   0.0800 
@<TRIPOS>BOND
  1   1   2  2   
  2   2   3  am  
  3   2   4  1   
  4   3   5  1   
  5   3   6  1   
  6   4   7  ar  
  7   4   8  ar  
  8   5   9  1   
  9   5  22  1   
 10   5  23  1   
 11   6  10  1   
 12   6  24  1   
 13   6  25  1   
 14   7  11  ar  
 15   8  12  ar  
 16   8  13  1   
 17   9  14  1   
 18   9  15  1   
 19   9  16  1   
 20  10  15  1   
 21  10  26  1   
 22  10  27  1   
 23  11  17  ar  
 24  11  28  1   
 25  12  17  ar  
 26  12  29  1   
 27  13  30  1   
 28  13  31  1   
 29  13  32  1   
 30  14  18  1   
 31  14  19  1   
 32  14  33  1   
 33  15  34  1   
 34  15  35  1   
 35  16  20  1   
 36  16  36  1   
 37  16  37  1   
 38  17  38  1   
 39  18  21  1   
 40  19  20  1   
 41  19  39  1   
 42  19  40  1   
 43  20  41  1   
 44  20  42  1   
 45  21  43  1   
 46  21  44  1   
 47  21  45  1   
@<TRIPOS>SUBSTRUCTURE
  1 ****   3 GROUP 4 **** **** 0

# MOE 2024.06 (io_trps.svl 2023.06)
