@<TRIPOS>MOLECULE
NONAME
51 55 1 0 0 
SMALL
USER_CHARGES


@<TRIPOS>ATOM
  1 O        1.9360    -0.4040    -1.5110 O.co2 1 <1>  -0.9000 
  2 C        1.6360    -0.7530    -0.3550 C.2   1 <1>   0.9790 
  3 O        1.2630     0.1230     0.4500 O.co2 1 <1>  -0.9000 
  4 C        1.8270    -2.1060     0.0730 C.ar  1 <1>  -0.1790 
  5 C        0.8100    -3.0400     0.2500 C.ar  1 <1>   0.1000 
  6 C        3.1530    -2.4820     0.3240 C.ar  1 <1>   0.1600 
  7 N       -0.5060    -2.8120    -0.1300 N.pl3 1 <1>  -0.8380 
  8 C        1.2090    -4.2730     0.8070 C.ar  1 <1>   0.0000 
  9 N        3.5600    -3.6460     0.7670 N.ar  1 <1>  -0.5670 
 10 C       -1.3700    -1.8540     0.6360 C.3   1 <1>   0.2090 
 11 C       -1.1050    -3.5920    -1.2430 C.3   1 <1>   0.2090 
 12 C        2.5520    -4.5080     1.0070 C.ar  1 <1>   0.1050 
 13 C        0.5980    -5.4530     1.2870 C.2   1 <1>   0.1080 
 14 C       -2.3670    -1.0600    -0.2410 C.3   1 <1>   0.1440 
 15 C       -2.0090    -2.7180    -2.1140 C.3   1 <1>  -0.1600 
 16 N        2.6530    -5.7640     1.5140 N.pl3 1 <1>   0.3140 
 17 N        1.4440    -6.3420     1.6920 N.2   1 <1>  -0.7070 
 18 C       -0.8890    -5.7050     1.3880 C.3   1 <1>  -0.0590 
 19 C       -3.3490    -0.3710     0.6920 C.ar  1 <1>   0.1670 
 20 C       -3.0590    -1.9850    -1.2630 C.3   1 <1>  -0.1600 
 21 C       -1.7100     0.1530    -0.9460 C.3   1 <1>  -0.1600 
 22 C        3.9020    -6.4390     1.8820 C.3   1 <1>   0.0160 
 23 N       -4.3580    -0.9430     1.3090 N.ar  1 <1>  -0.6200 
 24 C       -3.0440     0.9510     0.8400 C.ar  1 <1>  -0.1440 
 25 C       -1.8360     1.3380     0.0220 C.3   1 <1>  -0.0170 
 26 C       -5.0560    -0.1190     2.0740 C.ar  1 <1>   0.7200 
 27 C       -3.8350     1.7030     1.6730 C.ar  1 <1>   0.1600 
 28 N       -4.8580     1.1710     2.3060 N.ar  1 <1>  -0.6200 
 29 N       -6.0810    -0.6690     2.7260 N.pl3 1 <1>  -0.9000 
 30 H        3.9050    -1.7350     0.1290 H     1 <1>   0.1500 
 31 H       -0.7500    -1.1700     1.1890 H     1 <1>   0.0800 
 32 H       -1.9320    -2.4240     1.3540 H     1 <1>   0.0800 
 33 H       -1.6890    -4.3940    -0.8360 H     1 <1>   0.0800 
 34 H       -0.3170    -4.0140    -1.8440 H     1 <1>   0.0800 
 35 H       -2.5010    -3.3400    -2.8400 H     1 <1>   0.0800 
 36 H       -1.3950    -2.0140    -2.6480 H     1 <1>   0.0800 
 37 H       -1.4120    -4.7820     1.5440 H     1 <1>   0.0800 
 38 H       -1.0880    -6.3560     2.2190 H     1 <1>   0.0800 
 39 H       -1.2360    -6.1760     0.4890 H     1 <1>   0.0800 
 40 H       -3.7170    -1.4140    -1.8930 H     1 <1>   0.0800 
 41 H       -3.6560    -2.7080    -0.7360 H     1 <1>   0.0800 
 42 H       -2.2610     0.3960    -1.8360 H     1 <1>   0.0800 
 43 H       -0.6940    -0.0330    -1.2330 H     1 <1>   0.0800 
 44 H        4.5740    -6.4070     1.0460 H     1 <1>   0.0800 
 45 H        3.6900    -7.4580     2.1450 H     1 <1>   0.0800 
 46 H        4.3390    -5.9270     2.7180 H     1 <1>   0.0800 
 47 H       -1.9700     2.2670    -0.5030 H     1 <1>   0.0800 
 48 H       -0.9650     1.3990     0.6550 H     1 <1>   0.0800 
 49 H       -3.6240     2.7480     1.8200 H     1 <1>   0.1500 
 50 H       -6.4080    -0.1410     3.5290 H     1 <1>   0.4000 
 51 H       -6.0340    -1.6780     2.8230 H     1 <1>   0.4000 
@<TRIPOS>BOND
  1   1   2  ar  
  2   2   3  ar  
  3   2   4  1   
  4   4   5  ar  
  5   4   6  ar  
  6   5   7  1   
  7   5   8  ar  
  8   6   9  ar  
  9   6  30  1   
 10   7  10  1   
 11   7  11  1   
 12   8  12  ar  
 13   8  13  1   
 14   9  12  ar  
 15  10  14  1   
 16  10  31  1   
 17  10  32  1   
 18  11  15  1   
 19  11  33  1   
 20  11  34  1   
 21  12  16  1   
 22  13  17  2   
 23  13  18  1   
 24  14  19  1   
 25  14  20  1   
 26  14  21  1   
 27  15  20  1   
 28  15  35  1   
 29  15  36  1   
 30  16  17  1   
 31  16  22  1   
 32  18  37  1   
 33  18  38  1   
 34  18  39  1   
 35  19  23  ar  
 36  19  24  ar  
 37  20  40  1   
 38  20  41  1   
 39  21  25  1   
 40  21  42  1   
 41  21  43  1   
 42  22  44  1   
 43  22  45  1   
 44  22  46  1   
 45  23  26  ar  
 46  24  25  1   
 47  24  27  ar  
 48  25  47  1   
 49  25  48  1   
 50  26  28  ar  
 51  26  29  1   
 52  27  28  ar  
 53  27  49  1   
 54  29  50  1   
 55  29  51  1   
@<TRIPOS>SUBSTRUCTURE
  1 ****  10 GROUP 4 **** **** 0

# MOE 2024.06 (io_trps.svl 2023.06)
