@<TRIPOS>MOLECULE
NONAME
51 53 1 0 0 
SMALL
USER_CHARGES


@<TRIPOS>ATOM
  1 O       -1.4830     0.6320    -2.2500 O.2   1 <1>  -0.5700 
  2 C       -1.4250     0.9470    -1.0770 C.2   1 <1>   0.5440 
  3 N       -1.7050    -0.0090    -0.1430 N.am  1 <1>  -0.7300 
  4 C       -1.0680     2.2980    -0.6780 C.ar  1 <1>   0.0860 
  5 C       -2.0980    -1.4040    -0.4440 C.3   1 <1>   0.2200 
  6 C       -0.3130     3.1160    -1.5190 C.ar  1 <1>  -0.1500 
  7 C       -1.4580     2.8390     0.5490 C.ar  1 <1>  -0.1500 
  8 C       -3.6040    -1.5340    -0.3050 C.3   1 <1>  -0.0800 
  9 C       -1.6030    -2.3260     0.6640 C.3   1 <1>   0.1200 
 10 C        0.0460     4.4000    -1.1540 C.ar  1 <1>  -0.1500 
 11 C       -1.1010     4.1230     0.9200 C.ar  1 <1>  -0.1500 
 12 C       -3.7740    -1.7680     1.2000 C.3   1 <1>   0.1200 
 13 C       -4.1500    -2.7030    -1.1460 C.3   1 <1>  -0.0160 
 14 O       -2.5500    -2.2420     1.6870 O.3   1 <1>  -0.5600 
 15 C       -0.3430     4.9130     0.0720 C.ar  1 <1>  -0.1430 
 16 C       -5.6640    -2.8060    -1.0360 C.ar  1 <1>  -0.1430 
 17 C        0.0500     6.3250     0.4760 C.3   1 <1>  -0.0170 
 18 C       -6.4970    -1.9120    -1.6760 C.ar  1 <1>  -0.1500 
 19 C       -6.2820    -3.7920    -0.2940 C.ar  1 <1>  -0.1500 
 20 C       -1.0150     7.3300     0.0230 C.3   1 <1>  -0.1600 
 21 C       -7.8700    -2.0400    -1.5440 C.ar  1 <1>   0.1600 
 22 C       -7.6650    -3.8310    -0.2260 C.ar  1 <1>   0.1600 
 23 C       -0.6400     8.7650     0.4180 C.3   1 <1>  -0.1600 
 24 N       -8.4740    -2.9770    -0.8320 N.ar  1 <1>  -0.6200 
 25 C       -1.7110     9.7580    -0.0400 C.3   1 <1>  -0.2400 
 26 H       -1.6390     0.2040     0.8530 H     1 <1>   0.3700 
 27 H       -1.7300    -1.6970    -1.4140 H     1 <1>   0.0800 
 28 H       -0.0040     2.7320    -2.4770 H     1 <1>   0.1500 
 29 H       -2.0560     2.2550     1.2240 H     1 <1>   0.1500 
 30 H       -4.0990    -0.6300    -0.6130 H     1 <1>   0.0800 
 31 H       -0.6360    -2.0430     1.0400 H     1 <1>   0.0800 
 32 H       -1.5780    -3.3470     0.3260 H     1 <1>   0.0800 
 33 H        0.6290     5.0010    -1.8300 H     1 <1>   0.1500 
 34 H       -1.4180     4.5110     1.8730 H     1 <1>   0.1500 
 35 H       -4.5420    -2.4840     1.4330 H     1 <1>   0.0800 
 36 H       -3.9860    -0.8420     1.7060 H     1 <1>   0.0800 
 37 H       -3.7010    -3.6300    -0.8350 H     1 <1>   0.0800 
 38 H       -3.8920    -2.5480    -2.1800 H     1 <1>   0.0800 
 39 H        0.1660     6.3740     1.5450 H     1 <1>   0.0800 
 40 H        0.9980     6.5750     0.0330 H     1 <1>   0.0800 
 41 H       -6.0920    -1.1180    -2.2770 H     1 <1>   0.1500 
 42 H       -5.7050    -4.5290     0.2330 H     1 <1>   0.1500 
 43 H       -1.1260     7.2680    -1.0460 H     1 <1>   0.0800 
 44 H       -1.9590     7.0690     0.4690 H     1 <1>   0.0800 
 45 H       -8.5040    -1.3330    -2.0510 H     1 <1>   0.1500 
 46 H       -8.1310    -4.6070     0.3580 H     1 <1>   0.1500 
 47 H       -0.5320     8.8310     1.4880 H     1 <1>   0.0800 
 48 H        0.3020     9.0300    -0.0310 H     1 <1>   0.0800 
 49 H       -2.6590     9.5270     0.4140 H     1 <1>   0.0800 
 50 H       -1.8220     9.7250    -1.1100 H     1 <1>   0.0800 
 51 H       -1.4320    10.7570     0.2440 H     1 <1>   0.0800 
@<TRIPOS>BOND
  1   1   2  2   
  2   2   3  am  
  3   2   4  1   
  4   3   5  1   
  5   3  26  1   
  6   4   6  ar  
  7   4   7  ar  
  8   5   8  1   
  9   5   9  1   
 10   5  27  1   
 11   6  10  ar  
 12   6  28  1   
 13   7  11  ar  
 14   7  29  1   
 15   8  12  1   
 16   8  13  1   
 17   8  30  1   
 18   9  14  1   
 19   9  31  1   
 20   9  32  1   
 21  10  15  ar  
 22  10  33  1   
 23  11  15  ar  
 24  11  34  1   
 25  12  14  1   
 26  12  35  1   
 27  12  36  1   
 28  13  16  1   
 29  13  37  1   
 30  13  38  1   
 31  15  17  1   
 32  16  18  ar  
 33  16  19  ar  
 34  17  20  1   
 35  17  39  1   
 36  17  40  1   
 37  18  21  ar  
 38  18  41  1   
 39  19  22  ar  
 40  19  42  1   
 41  20  23  1   
 42  20  43  1   
 43  20  44  1   
 44  21  24  ar  
 45  21  45  1   
 46  22  24  ar  
 47  22  46  1   
 48  23  25  1   
 49  23  47  1   
 50  23  48  1   
 51  25  49  1   
 52  25  50  1   
 53  25  51  1   
@<TRIPOS>SUBSTRUCTURE
  1 ****   3 GROUP 4 **** **** 0

# MOE 2024.06 (io_trps.svl 2023.06)
