@<TRIPOS>MOLECULE
NONAME
49 51 1 0 0 
SMALL
USER_CHARGES


@<TRIPOS>ATOM
  1 CL      -0.4710     1.3270     0.5390 Cl    1 <1>  -0.1770 
  2 C       -1.2410     2.8600     0.1880 C.ar  1 <1>   0.1770 
  3 C       -0.4810     4.0200     0.0920 C.ar  1 <1>   0.0820 
  4 C       -2.6120     2.8780     0.0130 C.ar  1 <1>  -0.1500 
  5 O        0.8640     3.9270     0.2750 O.3   1 <1>  -0.3630 
  6 C       -1.1340     5.2190    -0.1880 C.ar  1 <1>  -0.1500 
  7 C       -3.2550     4.0730    -0.2660 C.ar  1 <1>  -0.1430 
  8 C        1.6910     5.0690     0.2270 C.3   1 <1>   0.1200 
  9 C       -2.5090     5.2380    -0.3640 C.ar  1 <1>  -0.1500 
 10 C       -4.7600     4.1110    -0.4600 C.3   1 <1>  -0.0960 
 11 C        3.1430     4.6350     0.4430 C.3   1 <1>   0.2090 
 12 N        4.0540     5.8170     0.5190 N.pl3 1 <1>  -0.8380 
 13 C        4.1030     6.6480    -0.5880 C.ar  1 <1>   0.4100 
 14 C        4.1670     6.4280     1.8730 C.3   1 <1>   0.1290 
 15 N        3.4020     7.7650    -0.5130 N.ar  1 <1>  -0.6200 
 16 C        4.8380     6.2870    -1.7260 C.ar  1 <1>   0.1600 
 17 C        3.4500     8.5150    -1.6280 C.ar  1 <1>   0.3960 
 18 N        4.9090     6.9960    -2.8350 N.ar  1 <1>  -0.6200 
 19 C        2.7180     9.7800    -1.7260 C.2   1 <1>   0.5440 
 20 C        4.1910     8.1080    -2.7430 C.ar  1 <1>   0.1600 
 21 O        2.3080    10.1370    -2.8190 O.2   1 <1>  -0.5700 
 22 N        2.4730    10.6260    -0.6570 N.am  1 <1>  -0.6600 
 23 C        2.9730    10.4500     0.7260 C.3   1 <1>   0.1400 
 24 C        1.8250    11.9470    -0.8150 C.3   1 <1>   0.1400 
 25 C        2.5000    11.6870     1.4840 C.3   1 <1>  -0.1600 
 26 C        2.2640    12.7420     0.4080 C.3   1 <1>  -0.1600 
 27 H       -3.1640     1.9590     0.0970 H     1 <1>   0.1500 
 28 H       -0.5960     6.1440    -0.2740 H     1 <1>   0.1500 
 29 H        1.3800     5.7430     1.0040 H     1 <1>   0.0800 
 30 H        1.5790     5.5280    -0.7390 H     1 <1>   0.0800 
 31 H       -2.9990     6.1720    -0.5790 H     1 <1>   0.1500 
 32 H       -5.1260     3.1510    -0.7770 H     1 <1>   0.0800 
 33 H       -5.0240     4.8370    -1.2080 H     1 <1>   0.0800 
 34 H       -5.2400     4.3750     0.4650 H     1 <1>   0.0800 
 35 H        3.4480     4.0050    -0.3750 H     1 <1>   0.0800 
 36 H        3.2160     4.0680     1.3550 H     1 <1>   0.0800 
 37 H        4.5760     5.7120     2.5650 H     1 <1>   0.0800 
 38 H        3.1990     6.7460     2.2190 H     1 <1>   0.0800 
 39 H        4.8200     7.2830     1.8360 H     1 <1>   0.0800 
 40 H        5.3830     5.3620    -1.6860 H     1 <1>   0.1500 
 41 H        4.1860     8.7460    -3.6100 H     1 <1>   0.1500 
 42 H        4.0480    10.4000     0.7130 H     1 <1>   0.0800 
 43 H        2.5710     9.5540     1.1690 H     1 <1>   0.0800 
 44 H        0.7570    11.8130    -0.8190 H     1 <1>   0.0800 
 45 H        2.1320    12.4260    -1.7300 H     1 <1>   0.0800 
 46 H        3.2180    12.0040     2.2190 H     1 <1>   0.0800 
 47 H        1.5720    11.4580     1.9780 H     1 <1>   0.0800 
 48 H        1.5260    13.4690     0.6980 H     1 <1>   0.0800 
 49 H        3.1860    13.2480     0.1810 H     1 <1>   0.0800 
@<TRIPOS>BOND
  1   1   2  1   
  2   2   3  ar  
  3   2   4  ar  
  4   3   5  1   
  5   3   6  ar  
  6   4   7  ar  
  7   4  27  1   
  8   5   8  1   
  9   6   9  ar  
 10   6  28  1   
 11   7   9  ar  
 12   7  10  1   
 13   8  11  1   
 14   8  29  1   
 15   8  30  1   
 16   9  31  1   
 17  10  32  1   
 18  10  33  1   
 19  10  34  1   
 20  11  12  1   
 21  11  35  1   
 22  11  36  1   
 23  12  13  1   
 24  12  14  1   
 25  13  15  ar  
 26  13  16  ar  
 27  14  37  1   
 28  14  38  1   
 29  14  39  1   
 30  15  17  ar  
 31  16  18  ar  
 32  16  40  1   
 33  17  19  1   
 34  17  20  ar  
 35  18  20  ar  
 36  19  21  2   
 37  19  22  am  
 38  20  41  1   
 39  22  23  1   
 40  22  24  1   
 41  23  25  1   
 42  23  42  1   
 43  23  43  1   
 44  24  26  1   
 45  24  44  1   
 46  24  45  1   
 47  25  26  1   
 48  25  46  1   
 49  25  47  1   
 50  26  48  1   
 51  26  49  1   
@<TRIPOS>SUBSTRUCTURE
  1 ****   8 GROUP 4 **** **** 0

# MOE 2024.06 (io_trps.svl 2023.06)
