@<TRIPOS>MOLECULE
NONAME
41 43 1 0 0 
SMALL
USER_CHARGES


@<TRIPOS>ATOM
  1 O       -2.8110    -1.6020    -1.1470 O.2   1 <1>  -0.5700 
  2 C       -2.6780    -0.5830    -0.4850 C.2   1 <1>   0.7670 
  3 N       -2.1690     0.5180    -1.1310 N.2   1 <1>  -0.6610 
  4 C       -3.0420    -0.5210     0.8930 C.2   1 <1>   0.0290 
  5 C       -1.9890     1.5900    -0.4580 C.2   1 <1>   0.4390 
  6 C       -3.5930    -1.6800     1.5200 C.2   1 <1>   0.6160 
  7 C       -2.8140     0.6470     1.5570 C.2   1 <1>  -0.0500 
  8 N       -2.2870     1.6980     0.8690 N.pl3 1 <1>  -0.5500 
  9 C       -1.4210     2.8160    -1.1280 C.3   1 <1>  -0.1790 
 10 O       -2.9920    -2.1890     2.4480 O.2   1 <1>  -0.5700 
 11 N       -4.8090    -2.2160     1.1610 N.am  1 <1>  -0.6600 
 12 C       -5.7590    -1.6540     0.1600 C.3   1 <1>   0.1400 
 13 C       -5.1440    -3.6350     1.4390 C.3   1 <1>   0.1400 
 14 C       -6.8340    -2.7300    -0.0080 C.3   1 <1>   0.2000 
 15 C       -6.1140    -4.0390     0.3220 C.3   1 <1>  -0.0800 
 16 O       -7.8170    -2.5240     0.9470 O.3   1 <1>  -0.6800 
 17 C       -5.3690    -4.5750    -0.9190 C.3   1 <1>  -0.0170 
 18 C       -4.6020    -5.8520    -0.6120 C.ar  1 <1>  -0.1430 
 19 C       -3.2290    -5.8540    -0.4720 C.ar  1 <1>  -0.1500 
 20 C       -5.2330    -7.0690    -0.4590 C.ar  1 <1>  -0.1500 
 21 C       -2.5720    -7.0400    -0.1880 C.ar  1 <1>   0.1600 
 22 C       -4.4820    -8.1980    -0.1770 C.ar  1 <1>   0.1600 
 23 N       -3.1660    -8.2130    -0.0370 N.ar  1 <1>  -0.6200 
 24 H       -3.0340     0.7610     2.6080 H     1 <1>   0.1500 
 25 H       -2.0910     2.5910     1.3340 H     1 <1>   0.4000 
 26 H       -0.4980     3.0980    -0.6580 H     1 <1>   0.0800 
 27 H       -2.1210     3.6280    -1.0640 H     1 <1>   0.0800 
 28 H       -1.2280     2.6110    -2.1670 H     1 <1>   0.0800 
 29 H       -6.1790    -0.7200     0.4900 H     1 <1>   0.0800 
 30 H       -5.2580    -1.5110    -0.7810 H     1 <1>   0.0800 
 31 H       -4.2570    -4.2460     1.4630 H     1 <1>   0.0800 
 32 H       -5.6290    -3.6970     2.3980 H     1 <1>   0.0800 
 33 H       -7.2990    -2.7190    -0.9790 H     1 <1>   0.0800 
 34 H       -6.8050    -4.7900     0.6630 H     1 <1>   0.0800 
 35 H       -7.3950    -2.4210     1.8240 H     1 <1>   0.4000 
 36 H       -4.6840    -3.8340    -1.2920 H     1 <1>   0.0800 
 37 H       -6.0790    -4.7790    -1.7020 H     1 <1>   0.0800 
 38 H       -2.6640    -4.9440    -0.5780 H     1 <1>   0.1500 
 39 H       -6.3000    -7.1500    -0.5560 H     1 <1>   0.1500 
 40 H       -1.5010    -7.0200    -0.0800 H     1 <1>   0.1500 
 41 H       -4.9910    -9.1400    -0.0610 H     1 <1>   0.1500 
@<TRIPOS>BOND
  1   1   2  2   
  2   2   3  1   
  3   2   4  1   
  4   3   5  2   
  5   4   6  1   
  6   4   7  2   
  7   5   8  1   
  8   5   9  1   
  9   6  10  2   
 10   6  11  am  
 11   7   8  1   
 12   7  24  1   
 13   8  25  1   
 14   9  26  1   
 15   9  27  1   
 16   9  28  1   
 17  11  12  1   
 18  11  13  1   
 19  12  14  1   
 20  12  29  1   
 21  12  30  1   
 22  13  15  1   
 23  13  31  1   
 24  13  32  1   
 25  14  15  1   
 26  14  16  1   
 27  14  33  1   
 28  15  17  1   
 29  15  34  1   
 30  16  35  1   
 31  17  18  1   
 32  17  36  1   
 33  17  37  1   
 34  18  19  ar  
 35  18  20  ar  
 36  19  21  ar  
 37  19  38  1   
 38  20  22  ar  
 39  20  39  1   
 40  21  23  ar  
 41  21  40  1   
 42  22  23  ar  
 43  22  41  1   
@<TRIPOS>SUBSTRUCTURE
  1 ****  11 GROUP 4 **** **** 0

# MOE 2024.06 (io_trps.svl 2023.06)
