@<TRIPOS>MOLECULE
NONAME
59 62 1 0 0 
SMALL
USER_CHARGES


@<TRIPOS>ATOM
  1 O       -0.3980     0.3040    -0.3700 O.2   1 <1>  -0.5700 
  2 C       -1.4700     0.8590    -0.2780 C.2   1 <1>   0.5690 
  3 N       -2.6360     0.1410    -0.3110 N.am  1 <1>  -0.6600 
  4 C       -1.5330     2.3950    -0.1160 C.3   1 <1>   0.1710 
  5 C       -4.0180     0.6790    -0.2580 C.3   1 <1>   0.1400 
  6 C       -2.6560    -1.3340    -0.4750 C.3   1 <1>   0.1400 
  7 N       -0.2290     3.1090     0.0340 N.3   1 <1>  -0.8100 
  8 C       -4.9260    -0.5330    -0.4750 C.3   1 <1>   0.2000 
  9 C       -4.0820    -1.7530    -0.1130 C.3   1 <1>  -0.0800 
 10 C       -0.3390     4.5780    -0.1040 C.3   1 <1>   0.1100 
 11 C        0.4880     2.7540     1.2840 C.3   1 <1>   0.1100 
 12 O       -6.0510    -0.4750     0.3310 O.3   1 <1>  -0.6800 
 13 C       -4.5520    -3.0350    -0.8210 C.3   1 <1>  -0.0170 
 14 C        1.0450     5.2720     0.0030 C.3   1 <1>   0.3430 
 15 C        1.9040     3.3770     1.3300 C.3   1 <1>   0.3430 
 16 C       -3.6830    -4.2230    -0.4440 C.ar  1 <1>   0.1660 
 17 N        2.1470     4.2600     0.1400 N.4   1 <1>  -0.9590 
 18 N       -2.6040    -4.4170    -1.1370 N.ar  1 <1>  -0.6200 
 19 C       -4.0750    -5.0390     0.6300 C.ar  1 <1>  -0.1500 
 20 C        3.5240     4.8060     0.0970 C.3   1 <1>   0.3430 
 21 C       -1.8100    -5.4630    -0.7940 C.ar  1 <1>   0.3100 
 22 C       -3.3000    -6.0980     0.9930 C.ar  1 <1>  -0.1500 
 23 C        3.8220     5.3480    -1.2960 C.3   1 <1>  -0.2400 
 24 C       -2.1190    -6.3370     0.2710 C.ar  1 <1>   0.0000 
 25 C       -0.6300    -5.6870    -1.5210 C.ar  1 <1>  -0.1500 
 26 C       -1.2400    -7.3990     0.5630 C.ar  1 <1>  -0.1500 
 27 C        0.2120    -6.7240    -1.2210 C.ar  1 <1>  -0.1500 
 28 C       -0.0980    -7.5900    -0.1670 C.ar  1 <1>  -0.1500 
 29 H       -2.1530     2.6170     0.7340 H     1 <1>   0.0800 
 30 H       -2.0270     2.7740    -0.9920 H     1 <1>   0.0800 
 31 H       -4.1950     1.1190     0.7080 H     1 <1>   0.0800 
 32 H       -4.1710     1.4060    -1.0370 H     1 <1>   0.0800 
 33 H       -2.4310    -1.5760    -1.5010 H     1 <1>   0.0800 
 34 H       -1.9290    -1.8080     0.1640 H     1 <1>   0.0800 
 35 H       -5.2450    -0.5680    -1.5040 H     1 <1>   0.0800 
 36 H       -4.1050    -1.9060     0.9510 H     1 <1>   0.0800 
 37 H       -0.7690     4.8130    -1.0630 H     1 <1>   0.0800 
 38 H       -0.9950     4.9730     0.6530 H     1 <1>   0.0800 
 39 H       -0.0770     3.0870     2.1380 H     1 <1>   0.0800 
 40 H        0.5910     1.6860     1.3670 H     1 <1>   0.0800 
 41 H       -5.8030    -0.5420     1.2730 H     1 <1>   0.4000 
 42 H       -4.5120    -2.9000    -1.8880 H     1 <1>   0.0800 
 43 H       -5.5750    -3.2370    -0.5590 H     1 <1>   0.0800 
 44 H        1.0460     5.9340     0.8520 H     1 <1>   0.0800 
 45 H        1.1980     5.8700    -0.8800 H     1 <1>   0.0800 
 46 H        2.6280     2.5790     1.3440 H     1 <1>   0.0800 
 47 H        2.0160     3.9400     2.2410 H     1 <1>   0.0800 
 48 H        1.9940     3.6190    -0.6570 H     1 <1>   0.4500 
 49 H       -4.9850    -4.8160     1.1560 H     1 <1>   0.1500 
 50 H        3.6380     5.5860     0.8330 H     1 <1>   0.0800 
 51 H        4.2290     4.0220     0.3240 H     1 <1>   0.0800 
 52 H       -3.5660    -6.7450     1.8090 H     1 <1>   0.1500 
 53 H        3.2100     6.2000    -1.5260 H     1 <1>   0.0800 
 54 H        3.6800     4.5840    -2.0400 H     1 <1>   0.0800 
 55 H        4.8500     5.6640    -1.3370 H     1 <1>   0.0800 
 56 H       -0.4100    -5.0090    -2.3250 H     1 <1>   0.1500 
 57 H       -1.4830    -8.0600     1.3750 H     1 <1>   0.1500 
 58 H        1.1140    -6.8840    -1.7870 H     1 <1>   0.1500 
 59 H        0.5730    -8.4010     0.0580 H     1 <1>   0.1500 
@<TRIPOS>BOND
  1   1   2  2   
  2   2   3  am  
  3   2   4  1   
  4   3   5  1   
  5   3   6  1   
  6   4   7  1   
  7   4  29  1   
  8   4  30  1   
  9   5   8  1   
 10   5  31  1   
 11   5  32  1   
 12   6   9  1   
 13   6  33  1   
 14   6  34  1   
 15   7  10  1   
 16   7  11  1   
 17   8   9  1   
 18   8  12  1   
 19   8  35  1   
 20   9  13  1   
 21   9  36  1   
 22  10  14  1   
 23  10  37  1   
 24  10  38  1   
 25  11  15  1   
 26  11  39  1   
 27  11  40  1   
 28  12  41  1   
 29  13  16  1   
 30  13  42  1   
 31  13  43  1   
 32  14  17  1   
 33  14  44  1   
 34  14  45  1   
 35  15  17  1   
 36  15  46  1   
 37  15  47  1   
 38  16  18  ar  
 39  16  19  ar  
 40  17  20  1   
 41  17  48  1   
 42  18  21  ar  
 43  19  22  ar  
 44  19  49  1   
 45  20  23  1   
 46  20  50  1   
 47  20  51  1   
 48  21  24  ar  
 49  21  25  ar  
 50  22  24  ar  
 51  22  52  1   
 52  23  53  1   
 53  23  54  1   
 54  23  55  1   
 55  24  26  ar  
 56  25  27  ar  
 57  25  56  1   
 58  26  28  ar  
 59  26  57  1   
 60  27  28  ar  
 61  27  58  1   
 62  28  59  1   
@<TRIPOS>SUBSTRUCTURE
  1 ****   6 GROUP 4 **** **** 0

# MOE 2024.06 (io_trps.svl 2023.06)
