@<TRIPOS>MOLECULE
NONAME
47 48 1 0 0 
SMALL
USER_CHARGES


@<TRIPOS>ATOM
  1 F        1.9150     2.1060     1.7670 F     1 <1>  -0.1900 
  2 C        0.7290     2.2070     1.2270 C.ar  1 <1>   0.1900 
  3 C        0.0830     3.4230     1.2630 C.ar  1 <1>  -0.1500 
  4 C        0.1700     1.0890     0.6390 C.ar  1 <1>  -0.1500 
  5 C       -1.1810     3.5600     0.6890 C.ar  1 <1>   0.0860 
  6 C       -1.0890     1.2060     0.0820 C.ar  1 <1>  -0.1500 
  7 C       -1.7710     2.4170     0.1160 C.ar  1 <1>   0.0830 
  8 C       -1.7900     4.8700     0.6890 C.2   1 <1>   0.5440 
  9 O       -3.0050     2.4080    -0.4400 O.3   1 <1>  -0.3630 
 10 O       -2.2220     5.3130     1.7390 O.2   1 <1>  -0.5700 
 11 N       -1.8750     5.6470    -0.4500 N.am  1 <1>  -0.6600 
 12 C       -4.0950     3.0220     0.2190 C.3   1 <1>   0.0400 
 13 C       -1.4320     5.1570    -1.8000 C.3   1 <1>   0.1400 
 14 C       -2.2040     7.0950    -0.3470 C.3   1 <1>   0.1400 
 15 C       -0.4380     6.0980    -2.5010 C.3   1 <1>   0.1400 
 16 C       -0.9600     7.8920     0.0760 C.3   1 <1>  -0.1600 
 17 N        0.5340     6.6780    -1.5310 N.am  1 <1>  -0.6600 
 18 C        0.1410     8.0080    -0.9900 C.3   1 <1>   0.1400 
 19 C        1.5760     5.9110    -1.0750 C.2   1 <1>   0.5690 
 20 O        1.8040     4.8220    -1.5510 O.2   1 <1>  -0.5700 
 21 C        2.4590     6.4120     0.0540 C.3   1 <1>  -0.0990 
 22 C        3.4270     5.3440     0.5570 C.3   1 <1>   0.1200 
 23 O        4.1250     5.8710     1.6380 O.3   1 <1>  -0.5600 
 24 C        4.9890     4.9600     2.2360 C.3   1 <1>   0.0400 
 25 H        0.5530     4.2700     1.7270 H     1 <1>   0.1500 
 26 H        0.7090     0.1590     0.6220 H     1 <1>   0.1500 
 27 H       -1.5580     0.3560    -0.3810 H     1 <1>   0.1500 
 28 H       -4.9940     2.5100    -0.0720 H     1 <1>   0.0800 
 29 H       -4.1540     4.0520    -0.0810 H     1 <1>   0.0800 
 30 H       -3.9580     2.9460     1.2840 H     1 <1>   0.0800 
 31 H       -2.2960     5.0220    -2.4260 H     1 <1>   0.0800 
 32 H       -0.9540     4.1980    -1.7140 H     1 <1>   0.0800 
 33 H       -2.9760     7.2270     0.3930 H     1 <1>   0.0800 
 34 H       -2.5890     7.4580    -1.2840 H     1 <1>   0.0800 
 35 H       -0.9750     6.8850    -2.9980 H     1 <1>   0.0800 
 36 H        0.0930     5.5470    -3.2590 H     1 <1>   0.0800 
 37 H       -0.5520     7.4590     0.9720 H     1 <1>   0.0800 
 38 H       -1.2740     8.8870     0.3310 H     1 <1>   0.0800 
 39 H        0.9960     8.5040    -0.5670 H     1 <1>   0.0800 
 40 H       -0.2100     8.6230    -1.8010 H     1 <1>   0.0800 
 41 H        1.8330     6.7140     0.8730 H     1 <1>   0.0800 
 42 H        3.0220     7.2560    -0.2960 H     1 <1>   0.0800 
 43 H        4.1280     5.0720    -0.2150 H     1 <1>   0.0800 
 44 H        2.8890     4.4700     0.8810 H     1 <1>   0.0800 
 45 H        5.4820     5.4530     3.0550 H     1 <1>   0.0800 
 46 H        5.7190     4.6360     1.5150 H     1 <1>   0.0800 
 47 H        4.4220     4.1220     2.6050 H     1 <1>   0.0800 
@<TRIPOS>BOND
  1   1   2  1   
  2   2   3  ar  
  3   2   4  ar  
  4   3   5  ar  
  5   3  25  1   
  6   4   6  ar  
  7   4  26  1   
  8   5   7  ar  
  9   5   8  1   
 10   6   7  ar  
 11   6  27  1   
 12   7   9  1   
 13   8  10  2   
 14   8  11  am  
 15   9  12  1   
 16  11  13  1   
 17  11  14  1   
 18  12  28  1   
 19  12  29  1   
 20  12  30  1   
 21  13  15  1   
 22  13  31  1   
 23  13  32  1   
 24  14  16  1   
 25  14  33  1   
 26  14  34  1   
 27  15  17  1   
 28  15  35  1   
 29  15  36  1   
 30  16  18  1   
 31  16  37  1   
 32  16  38  1   
 33  17  18  1   
 34  17  19  am  
 35  18  39  1   
 36  18  40  1   
 37  19  20  2   
 38  19  21  1   
 39  21  22  1   
 40  21  41  1   
 41  21  42  1   
 42  22  23  1   
 43  22  43  1   
 44  22  44  1   
 45  23  24  1   
 46  24  45  1   
 47  24  46  1   
 48  24  47  1   
@<TRIPOS>SUBSTRUCTURE
  1 ****   3 GROUP 4 **** **** 0

# MOE 2024.06 (io_trps.svl 2023.06)
