@<TRIPOS>MOLECULE
NONAME
45 47 1 0 0 
SMALL
USER_CHARGES


@<TRIPOS>ATOM
  1 O        0.5220     1.4520    -0.6110 O.2   1 <1>  -0.5700 
  2 C        0.2390     2.6190    -0.7000 C.2   1 <1>   0.5690 
  3 N       -0.4250     3.2500     0.2910 N.am  1 <1>  -0.7300 
  4 C        0.5950     3.4080    -1.9580 C.3   1 <1>   0.1810 
  5 C       -0.9010     4.6540     0.2050 C.3   1 <1>   0.3640 
  6 O        0.6960     4.7890    -1.7000 O.3   1 <1>  -0.5600 
  7 C       -2.4240     4.6420     0.3380 C.ar  1 <1>  -0.1440 
  8 C       -0.4580     5.3790    -1.1000 C.3   1 <1>   0.2610 
  9 C       -3.2060     3.7290    -0.3610 C.ar  1 <1>  -0.1500 
 10 C       -3.0510     5.5610     1.1690 C.ar  1 <1>  -0.1500 
 11 C       -0.1860     6.8590    -0.7970 C.2   1 <1>   0.5690 
 12 C       -4.5840     3.7340    -0.2290 C.ar  1 <1>  -0.1500 
 13 C       -4.4290     5.5670     1.3010 C.ar  1 <1>  -0.1500 
 14 O       -0.9980     7.5070    -0.1810 O.2   1 <1>  -0.5700 
 15 N        0.9890     7.4050    -1.2120 N.am  1 <1>  -0.7300 
 16 C       -5.1970     4.6530     0.6020 C.ar  1 <1>  -0.1500 
 17 C        1.4820     8.7640    -0.8940 C.3   1 <1>   0.1400 
 18 C        2.7790     8.6800    -0.0750 C.3   1 <1>  -0.0800 
 19 C        2.5770     7.9400     1.2610 C.3   1 <1>  -0.1600 
 20 C        3.3280    10.0860     0.2120 C.3   1 <1>  -0.1600 
 21 C        3.8390     8.0120     2.1280 C.3   1 <1>   0.1200 
 22 C        4.5480    10.0210     1.1390 C.3   1 <1>   0.1200 
 23 O        4.2040     9.3440     2.3080 O.3   1 <1>  -0.5600 
 24 H       -0.7280     2.7060     1.1000 H     1 <1>   0.3700 
 25 H       -0.1560     3.2520    -2.7110 H     1 <1>   0.0800 
 26 H        1.5440     3.0720    -2.3340 H     1 <1>   0.0800 
 27 H       -0.4870     5.1850     1.0450 H     1 <1>   0.0800 
 28 H       -1.2540     5.3320    -1.8210 H     1 <1>   0.0800 
 29 H       -2.7510     3.0030    -1.0120 H     1 <1>   0.1500 
 30 H       -2.4720     6.2870     1.7140 H     1 <1>   0.1500 
 31 H       -5.1790     3.0220    -0.7730 H     1 <1>   0.1500 
 32 H       -4.9030     6.2870     1.9460 H     1 <1>   0.1500 
 33 H        1.6350     6.7820    -1.7070 H     1 <1>   0.3700 
 34 H       -6.2680     4.6580     0.7060 H     1 <1>   0.1500 
 35 H        1.6610     9.2940    -1.8140 H     1 <1>   0.0800 
 36 H        0.7330     9.3030    -0.3380 H     1 <1>   0.0800 
 37 H        3.5140     8.1500    -0.6550 H     1 <1>   0.0800 
 38 H        2.3360     6.9070     1.0830 H     1 <1>   0.0800 
 39 H        1.7590     8.3790     1.8060 H     1 <1>   0.0800 
 40 H        2.5740    10.6900     0.6870 H     1 <1>   0.0800 
 41 H        3.6070    10.5690    -0.7080 H     1 <1>   0.0800 
 42 H        4.6600     7.4890     1.6680 H     1 <1>   0.0800 
 43 H        3.6530     7.5890     3.1000 H     1 <1>   0.0800 
 44 H        4.8650    11.0110     1.4150 H     1 <1>   0.0800 
 45 H        5.3700     9.5060     0.6720 H     1 <1>   0.0800 
@<TRIPOS>BOND
  1   1   2  2   
  2   2   3  am  
  3   2   4  1   
  4   3   5  1   
  5   3  24  1   
  6   4   6  1   
  7   4  25  1   
  8   4  26  1   
  9   5   7  1   
 10   5   8  1   
 11   5  27  1   
 12   6   8  1   
 13   7   9  ar  
 14   7  10  ar  
 15   8  11  1   
 16   8  28  1   
 17   9  12  ar  
 18   9  29  1   
 19  10  13  ar  
 20  10  30  1   
 21  11  14  2   
 22  11  15  am  
 23  12  16  ar  
 24  12  31  1   
 25  13  16  ar  
 26  13  32  1   
 27  15  17  1   
 28  15  33  1   
 29  16  34  1   
 30  17  18  1   
 31  17  35  1   
 32  17  36  1   
 33  18  19  1   
 34  18  20  1   
 35  18  37  1   
 36  19  21  1   
 37  19  38  1   
 38  19  39  1   
 39  20  22  1   
 40  20  40  1   
 41  20  41  1   
 42  21  23  1   
 43  21  42  1   
 44  21  43  1   
 45  22  23  1   
 46  22  44  1   
 47  22  45  1   
@<TRIPOS>SUBSTRUCTURE
  1 ****  11 GROUP 4 **** **** 0

# MOE 2024.06 (io_trps.svl 2023.06)
