@<TRIPOS>MOLECULE
NONAME
50 53 1 0 0 
SMALL
USER_CHARGES


@<TRIPOS>ATOM
  1 CL       1.4000    -0.6350     0.9620 Cl    1 <1>  -0.1770 
  2 C        0.7910    -2.2670     0.8470 C.ar  1 <1>   0.1770 
  3 C        0.7850    -2.9040    -0.3790 C.ar  1 <1>  -0.1500 
  4 C        0.3230    -2.8970     1.9840 C.ar  1 <1>  -0.1500 
  5 C        0.3010    -4.1980    -0.4680 C.ar  1 <1>  -0.1500 
  6 C       -0.1610    -4.1920     1.8890 C.ar  1 <1>  -0.1500 
  7 C       -0.1740    -4.8460     0.6650 C.ar  1 <1>  -0.1430 
  8 C       -0.7110    -6.2640     0.5650 C.3   1 <1>  -0.0160 
  9 C       -2.2170    -6.2410     0.2850 C.3   1 <1>  -0.0990 
 10 C       -2.7760    -7.6420     0.1660 C.2   1 <1>   0.5690 
 11 O       -2.8710    -8.3420     1.1480 O.2   1 <1>  -0.5700 
 12 N       -3.2440    -8.0930    -1.0320 N.am  1 <1>  -0.6600 
 13 C       -4.6300    -7.6790    -1.4110 C.3   1 <1>   0.1400 
 14 C       -2.9750    -9.5250    -1.3920 C.3   1 <1>   0.1400 
 15 C       -5.6890    -8.5390    -0.6610 C.3   1 <1>   0.4230 
 16 C       -4.1280   -10.4640    -0.9570 C.3   1 <1>   0.3430 
 17 N       -5.0720    -9.7650    -0.0180 N.4   1 <1>  -0.9590 
 18 C       -6.8570    -8.9300    -1.5940 C.3   1 <1>   0.1200 
 19 C       -6.1170   -10.6260     0.6170 C.3   1 <1>   0.5180 
 20 O       -7.7810    -9.7320    -0.9160 O.3   1 <1>  -0.5600 
 21 C       -5.4540   -11.8790     1.2240 C.3   1 <1>  -0.1950 
 22 C       -7.2630   -10.9230    -0.3820 C.3   1 <1>   0.1200 
 23 C       -5.2070   -13.1640     0.4870 C.3   1 <1>  -0.2000 
 24 C       -6.2250   -13.1110     1.5920 C.3   1 <1>  -0.2000 
 25 H        1.1560    -2.3920    -1.2490 H     1 <1>   0.1500 
 26 H        0.3390    -2.3810     2.9260 H     1 <1>   0.1500 
 27 H        0.2980    -4.6960    -1.4220 H     1 <1>   0.1500 
 28 H       -0.5250    -4.6860     2.7740 H     1 <1>   0.1500 
 29 H       -0.2000    -6.7910    -0.2220 H     1 <1>   0.0800 
 30 H       -0.5190    -6.7900     1.4860 H     1 <1>   0.0800 
 31 H       -2.4000    -5.6990    -0.6240 H     1 <1>   0.0800 
 32 H       -2.7220    -5.7340     1.0870 H     1 <1>   0.0800 
 33 H       -4.7840    -6.6400    -1.1750 H     1 <1>   0.0800 
 34 H       -4.7450    -7.7850    -2.4760 H     1 <1>   0.0800 
 35 H       -2.8170    -9.6100    -2.4540 H     1 <1>   0.0800 
 36 H       -2.0670    -9.8470    -0.9100 H     1 <1>   0.0800 
 37 H       -6.1050    -7.9230     0.1190 H     1 <1>   0.0800 
 38 H       -3.6980   -11.3300    -0.4810 H     1 <1>   0.0800 
 39 H       -4.6620   -10.8030    -1.8290 H     1 <1>   0.0800 
 40 H       -4.4490    -9.3990     0.7310 H     1 <1>   0.4500 
 41 H       -6.5080    -9.4660    -2.4590 H     1 <1>   0.0800 
 42 H       -7.3790    -8.0480    -1.9250 H     1 <1>   0.0800 
 43 H       -6.5570   -10.0760     1.4330 H     1 <1>   0.0800 
 44 H       -4.7170   -11.5880     1.9550 H     1 <1>   0.1000 
 45 H       -8.0700   -11.4240     0.1220 H     1 <1>   0.0800 
 46 H       -6.9270   -11.5450    -1.1920 H     1 <1>   0.0800 
 47 H       -5.5780   -13.3280    -0.5100 H     1 <1>   0.1000 
 48 H       -4.2970   -13.7110     0.6740 H     1 <1>   0.1000 
 49 H       -5.9940   -13.6080     2.5200 H     1 <1>   0.1000 
 50 H       -7.2610   -13.2270     1.3250 H     1 <1>   0.1000 
@<TRIPOS>BOND
  1   1   2  1   
  2   2   3  ar  
  3   2   4  ar  
  4   3   5  ar  
  5   3  25  1   
  6   4   6  ar  
  7   4  26  1   
  8   5   7  ar  
  9   5  27  1   
 10   6   7  ar  
 11   6  28  1   
 12   7   8  1   
 13   8   9  1   
 14   8  29  1   
 15   8  30  1   
 16   9  10  1   
 17   9  31  1   
 18   9  32  1   
 19  10  11  2   
 20  10  12  am  
 21  12  13  1   
 22  12  14  1   
 23  13  15  1   
 24  13  33  1   
 25  13  34  1   
 26  14  16  1   
 27  14  35  1   
 28  14  36  1   
 29  15  17  1   
 30  15  18  1   
 31  15  37  1   
 32  16  17  1   
 33  16  38  1   
 34  16  39  1   
 35  17  19  1   
 36  17  40  1   
 37  18  20  1   
 38  18  41  1   
 39  18  42  1   
 40  19  21  1   
 41  19  22  1   
 42  19  43  1   
 43  20  22  1   
 44  21  23  1   
 45  21  24  1   
 46  21  44  1   
 47  22  45  1   
 48  22  46  1   
 49  23  24  1   
 50  23  47  1   
 51  23  48  1   
 52  24  49  1   
 53  24  50  1   
@<TRIPOS>SUBSTRUCTURE
  1 ****  10 GROUP 4 **** **** 0

# MOE 2024.06 (io_trps.svl 2023.06)
