@<TRIPOS>MOLECULE
NONAME
47 49 1 0 0 
SMALL
USER_CHARGES


@<TRIPOS>ATOM
  1 O       -0.1360     1.1010     0.9230 O.2   1 <1>  -0.5700 
  2 C        0.0530     2.2950     0.7760 C.2   1 <1>   0.6160 
  3 N       -1.0280     3.1550     0.8120 N.am  1 <1>  -0.6600 
  4 C        1.3980     2.7690     0.5770 C.2   1 <1>  -0.1360 
  5 C       -2.3950     2.6620     1.1670 C.3   1 <1>   0.1400 
  6 C       -0.9650     4.5750     0.3540 C.3   1 <1>   0.1400 
  7 C        2.4950     2.0150     0.3300 C.2   1 <1>  -0.1780 
  8 C       -3.3750     2.7550    -0.0360 C.3   1 <1>   0.0000 
  9 C       -2.3420     5.1090    -0.0680 C.3   1 <1>  -0.1600 
 10 C        3.8590     2.4370     0.1290 C.ar  1 <1>   0.0280 
 11 C       -4.8150     2.6140     0.5110 C.3   1 <1>   0.2000 
 12 C       -3.1130     4.0480    -0.8650 C.3   1 <1>  -0.1600 
 13 C       -3.2370     1.4990    -0.9130 C.3   1 <1>  -0.1600 
 14 C        4.8020     1.5250    -0.3410 C.ar  1 <1>  -0.1500 
 15 C        4.2960     3.7360     0.3870 C.ar  1 <1>  -0.1500 
 16 O       -5.7470     2.9900    -0.4640 O.3   1 <1>  -0.5600 
 17 C       -4.9850     1.1120     0.7680 C.3   1 <1>  -0.1600 
 18 C       -4.0600     0.4000    -0.2290 C.3   1 <1>  -0.1600 
 19 C        6.1200     1.8890    -0.5510 C.ar  1 <1>  -0.1500 
 20 C        5.6120     4.1080     0.1780 C.ar  1 <1>  -0.1500 
 21 C       -6.9840     3.4000     0.0260 C.3   1 <1>   0.0400 
 22 C        6.5280     3.1850    -0.2920 C.ar  1 <1>  -0.1500 
 23 H        1.5000     3.8300     0.6440 H     1 <1>   0.1500 
 24 H       -2.3500     1.6530     1.5370 H     1 <1>   0.0800 
 25 H       -2.7600     3.2720     1.9750 H     1 <1>   0.0800 
 26 H       -0.5630     5.1890     1.1420 H     1 <1>   0.0800 
 27 H       -0.3060     4.6340    -0.4960 H     1 <1>   0.0800 
 28 H        2.3590     0.9480     0.2660 H     1 <1>   0.1500 
 29 H       -2.9060     5.3950     0.8030 H     1 <1>   0.0800 
 30 H       -2.2090     5.9910    -0.6690 H     1 <1>   0.0800 
 31 H       -4.9670     3.2110     1.3940 H     1 <1>   0.0800 
 32 H       -2.5180     3.7950    -1.7260 H     1 <1>   0.0800 
 33 H       -4.0270     4.4740    -1.2380 H     1 <1>   0.0800 
 34 H       -3.6690     1.6930    -1.8800 H     1 <1>   0.0800 
 35 H       -2.2090     1.2070    -1.0470 H     1 <1>   0.0800 
 36 H        4.5000     0.5140    -0.5480 H     1 <1>   0.1500 
 37 H        3.6090     4.4700     0.7600 H     1 <1>   0.1500 
 38 H       -4.6600     0.8860     1.7690 H     1 <1>   0.0800 
 39 H       -6.0050     0.7910     0.6610 H     1 <1>   0.0800 
 40 H       -3.4110    -0.2860     0.2900 H     1 <1>   0.0800 
 41 H       -4.6300    -0.1450    -0.9610 H     1 <1>   0.0800 
 42 H        6.8280     1.1660    -0.9160 H     1 <1>   0.1500 
 43 H        5.9270     5.1170     0.3840 H     1 <1>   0.1500 
 44 H       -7.6150     3.6290    -0.8140 H     1 <1>   0.0800 
 45 H       -6.8500     4.2820     0.6290 H     1 <1>   0.0800 
 46 H       -7.4250     2.6080     0.6050 H     1 <1>   0.0800 
 47 H        7.5520     3.4720    -0.4550 H     1 <1>   0.1500 
@<TRIPOS>BOND
  1   1   2  2   
  2   2   3  am  
  3   2   4  1   
  4   3   5  1   
  5   3   6  1   
  6   4   7  2   
  7   4  23  1   
  8   5   8  1   
  9   5  24  1   
 10   5  25  1   
 11   6   9  1   
 12   6  26  1   
 13   6  27  1   
 14   7  10  1   
 15   7  28  1   
 16   8  11  1   
 17   8  12  1   
 18   8  13  1   
 19   9  12  1   
 20   9  29  1   
 21   9  30  1   
 22  10  14  ar  
 23  10  15  ar  
 24  11  16  1   
 25  11  17  1   
 26  11  31  1   
 27  12  32  1   
 28  12  33  1   
 29  13  18  1   
 30  13  34  1   
 31  13  35  1   
 32  14  19  ar  
 33  14  36  1   
 34  15  20  ar  
 35  15  37  1   
 36  16  21  1   
 37  17  18  1   
 38  17  38  1   
 39  17  39  1   
 40  18  40  1   
 41  18  41  1   
 42  19  22  ar  
 43  19  42  1   
 44  20  22  ar  
 45  20  43  1   
 46  21  44  1   
 47  21  45  1   
 48  21  46  1   
 49  22  47  1   
@<TRIPOS>SUBSTRUCTURE
  1 ****   2 GROUP 4 **** **** 0

# MOE 2024.06 (io_trps.svl 2023.06)
