@<TRIPOS>MOLECULE
NONAME
47 49 1 0 0 
SMALL
USER_CHARGES


@<TRIPOS>ATOM
  1 O       -1.2030    -0.0490    -1.6790 O.2   1 <1>  -0.5700 
  2 C       -1.4420     0.3160    -0.5360 C.2   1 <1>   0.5440 
  3 N       -1.7080    -0.6680     0.3810 N.am  1 <1>  -0.7300 
  4 C       -1.4690     1.7060    -0.1660 C.ar  1 <1>   0.0860 
  5 C       -1.8570    -2.1100     0.0790 C.3   1 <1>   0.2200 
  6 C       -2.0130     2.1460     1.0460 C.ar  1 <1>  -0.1500 
  7 C       -0.9550     2.7000    -1.0040 C.ar  1 <1>  -0.1500 
  8 C       -3.3260    -2.5060     0.0140 C.3   1 <1>  -0.0800 
  9 C       -1.4040    -2.9170     1.2880 C.3   1 <1>   0.1200 
 10 C       -2.0530     3.4670     1.4170 C.ar  1 <1>   0.0820 
 11 C       -0.9670     4.0360    -0.6810 C.ar  1 <1>   0.0820 
 12 C       -3.6850    -2.7180     1.4870 C.3   1 <1>   0.1200 
 13 C       -4.2570    -1.5310    -0.7330 C.3   1 <1>  -0.0160 
 14 O       -2.4820    -2.9010     2.1770 O.3   1 <1>  -0.5600 
 15 O       -2.6270     3.6670     2.6530 O.3   1 <1>  -0.3630 
 16 C       -1.5340     4.4770     0.5540 C.ar  1 <1>  -0.1710 
 17 O       -0.3990     4.8390    -1.6430 O.3   1 <1>  -0.3630 
 18 C       -5.6890    -2.0420    -0.7390 C.ar  1 <1>  -0.1440 
 19 C       -2.5200     4.9180     3.2900 C.3   1 <1>   0.0400 
 20 O       -1.5930     5.7050     0.8590 O.3   1 <1>  -0.8290 
 21 C       -0.0710     6.1760    -1.3460 C.3   1 <1>   0.0400 
 22 C       -6.1000    -3.0530    -1.5840 C.ar  1 <1>  -0.1500 
 23 C       -6.6520    -1.5210     0.1010 C.ar  1 <1>  -0.1500 
 24 C       -7.4140    -3.4870    -1.5430 C.ar  1 <1>   0.1600 
 25 C       -7.9400    -2.0260     0.0630 C.ar  1 <1>   0.1600 
 26 N       -8.3440    -2.9990    -0.7380 N.ar  1 <1>  -0.6200 
 27 H       -1.8830    -0.4140     1.3550 H     1 <1>   0.3700 
 28 H       -1.3130    -2.3710    -0.8130 H     1 <1>   0.0800 
 29 H       -2.4310     1.4360     1.7300 H     1 <1>   0.1500 
 30 H       -0.5280     2.4080    -1.9440 H     1 <1>   0.1500 
 31 H       -3.3850    -3.4640    -0.4710 H     1 <1>   0.0800 
 32 H       -0.5330    -2.5010     1.7630 H     1 <1>   0.0800 
 33 H       -1.2200    -3.9410     1.0140 H     1 <1>   0.0800 
 34 H       -4.3090    -3.5840     1.6280 H     1 <1>   0.0800 
 35 H       -4.1670    -1.8500     1.9030 H     1 <1>   0.0800 
 36 H       -3.9120    -1.4130    -1.7460 H     1 <1>   0.0800 
 37 H       -4.2330    -0.5590    -0.2730 H     1 <1>   0.0800 
 38 H       -2.8890     4.8250     4.2920 H     1 <1>   0.0800 
 39 H       -3.1060     5.6320     2.7390 H     1 <1>   0.0800 
 40 H       -1.4860     5.2150     3.2930 H     1 <1>   0.0800 
 41 H        0.5140     6.5710    -2.1540 H     1 <1>   0.0800 
 42 H        0.4880     6.1970    -0.4270 H     1 <1>   0.0800 
 43 H       -0.9840     6.7330    -1.2370 H     1 <1>   0.0800 
 44 H       -5.4110    -3.5070    -2.2720 H     1 <1>   0.1500 
 45 H       -6.4130    -0.7260     0.7840 H     1 <1>   0.1500 
 46 H       -7.7170    -4.2770    -2.2090 H     1 <1>   0.1500 
 47 H       -8.6780    -1.6080     0.7260 H     1 <1>   0.1500 
@<TRIPOS>BOND
  1   1   2  2   
  2   2   3  am  
  3   2   4  1   
  4   3   5  1   
  5   3  27  1   
  6   4   6  ar  
  7   4   7  ar  
  8   5   8  1   
  9   5   9  1   
 10   5  28  1   
 11   6  10  ar  
 12   6  29  1   
 13   7  11  ar  
 14   7  30  1   
 15   8  12  1   
 16   8  13  1   
 17   8  31  1   
 18   9  14  1   
 19   9  32  1   
 20   9  33  1   
 21  10  15  1   
 22  10  16  ar  
 23  11  16  ar  
 24  11  17  1   
 25  12  14  1   
 26  12  34  1   
 27  12  35  1   
 28  13  18  1   
 29  13  36  1   
 30  13  37  1   
 31  15  19  1   
 32  16  20  1   
 33  17  21  1   
 34  18  22  ar  
 35  18  23  ar  
 36  19  38  1   
 37  19  39  1   
 38  19  40  1   
 39  21  41  1   
 40  21  42  1   
 41  21  43  1   
 42  22  24  ar  
 43  22  44  1   
 44  23  25  ar  
 45  23  45  1   
 46  24  26  ar  
 47  24  46  1   
 48  25  26  ar  
 49  25  47  1   
@<TRIPOS>SUBSTRUCTURE
  1 ****   2 GROUP 4 **** **** 0

# MOE 2024.06 (io_trps.svl 2023.06)
