@<TRIPOS>MOLECULE
NONAME
51 54 1 0 0 
SMALL
USER_CHARGES


@<TRIPOS>ATOM
  1 F        1.5220     3.3600     1.4330 F     1 <1>  -0.3400 
  2 C        2.4900     2.7500     0.7640 C.3   1 <1>   0.6800 
  3 F        2.2600     2.9940    -0.5200 F     1 <1>  -0.3400 
  4 C        3.8750     3.2500     1.1660 C.3   1 <1>   0.1400 
  5 C        2.4870     1.2520     1.0130 C.3   1 <1>  -0.1600 
  6 N        4.7630     2.0480     1.0800 N.am  1 <1>  -0.6600 
  7 C        3.9460     0.8350     0.8050 C.3   1 <1>   0.1400 
  8 C        6.1230     2.1540     0.9660 C.2   1 <1>   0.5690 
  9 O        6.6660     3.2390     1.0130 O.2   1 <1>  -0.5700 
 10 C        7.0120     0.8980     0.7530 C.3   1 <1>   0.2510 
 11 N        7.2870     0.6430    -0.6850 N.3   1 <1>  -0.9000 
 12 C        8.4040     1.0340     1.4040 C.3   1 <1>  -0.1600 
 13 C        8.7360     0.4920    -0.8350 C.3   1 <1>   0.1100 
 14 C        9.3440     1.3860     0.2560 C.3   1 <1>   0.4230 
 15 N        9.2050     2.8470    -0.0450 N.4   1 <1>  -0.9590 
 16 C        9.6030     3.2490    -1.4480 C.3   1 <1>   0.3430 
 17 C        9.8570     3.7280     0.9970 C.3   1 <1>   0.3430 
 18 C        9.4190     4.7590    -1.7060 C.3   1 <1>   0.2090 
 19 C        9.6740     5.2330     0.7090 C.3   1 <1>   0.2090 
 20 N       10.1560     5.5370    -0.6690 N.pl3 1 <1>  -0.8380 
 21 C       11.4710     5.9010    -0.8600 C.ar  1 <1>   0.7200 
 22 N       12.1120     5.3370    -1.8830 N.ar  1 <1>  -0.6200 
 23 N       11.9870     6.7530     0.0190 N.ar  1 <1>  -0.6200 
 24 C       13.3580     5.7080    -2.0560 C.ar  1 <1>   0.1600 
 25 C       13.2340     7.1060    -0.1800 C.ar  1 <1>   0.1600 
 26 C       13.9760     6.6070    -1.2220 C.ar  1 <1>  -0.1500 
 27 H        3.8590     3.5970     2.1830 H     1 <1>   0.0800 
 28 H        4.2110     4.0310     0.5070 H     1 <1>   0.0800 
 29 H        2.2180     1.0590     2.0360 H     1 <1>   0.0800 
 30 H        1.8170     0.7300     0.3550 H     1 <1>   0.0800 
 31 H        4.1000     0.5330    -0.2190 H     1 <1>   0.0800 
 32 H        4.2130     0.0280     1.4650 H     1 <1>   0.0800 
 33 H        6.5130     0.0470     1.1810 H     1 <1>   0.0800 
 34 H        6.7990    -0.2070    -1.0040 H     1 <1>   0.3600 
 35 H        8.6850     0.0740     1.8000 H     1 <1>   0.0800 
 36 H        8.4180     1.7300     2.2220 H     1 <1>   0.0800 
 37 H        9.0040    -0.5330    -0.6370 H     1 <1>   0.0800 
 38 H        9.0610     0.7340    -1.8310 H     1 <1>   0.0800 
 39 H       10.3710     1.1290     0.4580 H     1 <1>   0.0800 
 40 H        8.1840     3.0360     0.0270 H     1 <1>   0.4500 
 41 H       10.6390     3.0070    -1.6160 H     1 <1>   0.0800 
 42 H        9.0090     2.7110    -2.1660 H     1 <1>   0.0800 
 43 H        9.4430     3.5170     1.9680 H     1 <1>   0.0800 
 44 H       10.9140     3.5220     1.0330 H     1 <1>   0.0800 
 45 H        8.3730     5.0100    -1.6670 H     1 <1>   0.0800 
 46 H        9.7740     5.0100    -2.6910 H     1 <1>   0.0800 
 47 H       10.2120     5.8070     1.4440 H     1 <1>   0.0800 
 48 H        8.6340     5.4960     0.7940 H     1 <1>   0.0800 
 49 H       13.9030     5.2860    -2.8850 H     1 <1>   0.1500 
 50 H       13.6750     7.8110     0.5050 H     1 <1>   0.1500 
 51 H       14.9960     6.9060    -1.3760 H     1 <1>   0.1500 
@<TRIPOS>BOND
  1   1   2  1   
  2   2   3  1   
  3   2   4  1   
  4   2   5  1   
  5   4   6  1   
  6   4  27  1   
  7   4  28  1   
  8   5   7  1   
  9   5  29  1   
 10   5  30  1   
 11   6   7  1   
 12   6   8  am  
 13   7  31  1   
 14   7  32  1   
 15   8   9  2   
 16   8  10  1   
 17  10  11  1   
 18  10  12  1   
 19  10  33  1   
 20  11  13  1   
 21  11  34  1   
 22  12  14  1   
 23  12  35  1   
 24  12  36  1   
 25  13  14  1   
 26  13  37  1   
 27  13  38  1   
 28  14  15  1   
 29  14  39  1   
 30  15  16  1   
 31  15  17  1   
 32  15  40  1   
 33  16  18  1   
 34  16  41  1   
 35  16  42  1   
 36  17  19  1   
 37  17  43  1   
 38  17  44  1   
 39  18  20  1   
 40  18  45  1   
 41  18  46  1   
 42  19  20  1   
 43  19  47  1   
 44  19  48  1   
 45  20  21  1   
 46  21  22  ar  
 47  21  23  ar  
 48  22  24  ar  
 49  23  25  ar  
 50  24  26  ar  
 51  24  49  1   
 52  25  26  ar  
 53  25  50  1   
 54  26  51  1   
@<TRIPOS>SUBSTRUCTURE
  1 ****  15 GROUP 4 **** **** 0

# MOE 2024.06 (io_trps.svl 2023.06)
