@<TRIPOS>MOLECULE
NONAME
38 40 1 0 0 
SMALL
USER_CHARGES


@<TRIPOS>ATOM
  1 S        1.3010     0.0420     1.5710 S.3   1 <1>  -0.0800 
  2 C        1.3790    -0.8310     0.0630 C.2   1 <1>  -0.1400 
  3 C        1.8350     1.4830     0.7340 C.2   1 <1>   0.2280 
  4 C        1.7970     0.0100    -0.8960 C.2   1 <1>   0.0770 
  5 C        1.0150    -2.2980     0.0630 C.3   1 <1>   0.5230 
  6 N        2.0400     1.3150    -0.5110 N.2   1 <1>  -0.5650 
  7 N       -0.4250    -2.5090    -0.2890 N.4   1 <1>  -0.9590 
  8 C       -1.3480    -1.8920     0.7260 C.3   1 <1>   0.4230 
  9 C       -0.6380    -3.9640    -0.5780 C.3   1 <1>   0.2630 
 10 C       -2.6600    -2.6540     0.9540 C.3   1 <1>  -0.1600 
 11 C       -1.8620    -0.5650     0.1600 C.3   1 <1>  -0.1600 
 12 C       -3.5740    -2.2770    -0.2220 C.3   1 <1>  -0.0800 
 13 C       -3.0550    -0.9300    -0.7360 C.3   1 <1>  -0.0800 
 14 C       -5.0540    -2.0760     0.1310 C.3   1 <1>  -0.1600 
 15 C       -4.2360     0.0490    -0.6860 C.3   1 <1>  -0.1600 
 16 C       -5.4680    -0.8480    -0.6700 C.3   1 <1>   0.2000 
 17 O       -6.5170    -0.2070    -0.0520 O.3   1 <1>  -0.6800 
 18 H        1.9480     2.3830     1.3150 H     1 <1>   0.1500 
 19 H        1.9620    -0.2300    -1.9350 H     1 <1>   0.1500 
 20 H        1.2310    -2.7240     1.0300 H     1 <1>   0.0800 
 21 H        1.6350    -2.7970    -0.6640 H     1 <1>   0.0800 
 22 H       -0.5970    -1.9850    -1.1570 H     1 <1>   0.4500 
 23 H       -0.8320    -1.7450     1.6610 H     1 <1>   0.0800 
 24 H       -0.4990    -4.5490     0.3170 H     1 <1>   0.0800 
 25 H        0.0580    -4.3070    -1.3270 H     1 <1>   0.0800 
 26 H       -1.6370    -4.1320    -0.9460 H     1 <1>   0.0800 
 27 H       -2.5580    -3.7150     1.0920 H     1 <1>   0.0800 
 28 H       -3.0850    -2.2680     1.8640 H     1 <1>   0.0800 
 29 H       -2.2010     0.0300     0.9910 H     1 <1>   0.0800 
 30 H       -1.1240     0.0080    -0.3700 H     1 <1>   0.0800 
 31 H       -3.4940    -3.0030    -1.0140 H     1 <1>   0.0800 
 32 H       -2.7340    -1.0490    -1.7580 H     1 <1>   0.0800 
 33 H       -5.1740    -1.8800     1.1820 H     1 <1>   0.0800 
 34 H       -5.6460    -2.9320    -0.1430 H     1 <1>   0.0800 
 35 H       -4.2460     0.7010    -1.5430 H     1 <1>   0.0800 
 36 H       -4.2070     0.6400     0.2120 H     1 <1>   0.0800 
 37 H       -5.7640    -1.1190    -1.6700 H     1 <1>   0.0800 
 38 H       -6.2720     0.0590     0.8530 H     1 <1>   0.4000 
@<TRIPOS>BOND
  1   1   2  1   
  2   1   3  1   
  3   2   4  2   
  4   2   5  1   
  5   3   6  2   
  6   3  18  1   
  7   4   6  1   
  8   4  19  1   
  9   5   7  1   
 10   5  20  1   
 11   5  21  1   
 12   7   8  1   
 13   7   9  1   
 14   7  22  1   
 15   8  10  1   
 16   8  11  1   
 17   8  23  1   
 18   9  24  1   
 19   9  25  1   
 20   9  26  1   
 21  10  12  1   
 22  10  27  1   
 23  10  28  1   
 24  11  13  1   
 25  11  29  1   
 26  11  30  1   
 27  12  13  1   
 28  12  14  1   
 29  12  31  1   
 30  13  15  1   
 31  13  32  1   
 32  14  16  1   
 33  14  33  1   
 34  14  34  1   
 35  15  16  1   
 36  15  35  1   
 37  15  36  1   
 38  16  17  1   
 39  16  37  1   
 40  17  38  1   
@<TRIPOS>SUBSTRUCTURE
  1 ****  11 GROUP 4 **** **** 0

# MOE 2024.06 (io_trps.svl 2023.06)
