@<TRIPOS>MOLECULE
NONAME
33 34 1 0 0 
SMALL
USER_CHARGES


@<TRIPOS>ATOM
  1 S       -0.0510     0.0740    -0.3270 S.o2  1 <1>   1.0900 
  2 O       -0.9940     0.5330    -1.3200 O.2   1 <1>  -0.6500 
  3 O       -0.3440    -1.1100     0.4470 O.2   1 <1>  -0.6500 
  4 C        1.5130    -0.1660    -1.1420 C.3   1 <1>  -0.0550 
  5 C        0.2450     1.4070     0.8160 C.3   1 <1>  -0.0550 
  6 C        2.6560     0.1880    -0.2080 C.3   1 <1>   0.2090 
  7 C        1.3000     2.3480     0.2670 C.3   1 <1>   0.2090 
  8 N        2.6140     1.6430     0.1410 N.pl3 1 <1>  -0.8380 
  9 C        3.7910     2.3400     0.3440 C.ar  1 <1>   0.7200 
 10 N        3.7410     3.6570     0.1680 N.ar  1 <1>  -0.6200 
 11 N        4.8530     1.6160     0.6970 N.ar  1 <1>  -0.6200 
 12 C        4.8580     4.3350     0.3580 C.ar  1 <1>   0.4100 
 13 C        5.9640     2.2960     0.8980 C.ar  1 <1>   0.1600 
 14 N        4.7970     5.7140     0.1560 N.pl3 1 <1>  -0.8380 
 15 C        6.0110     3.6520     0.7410 C.ar  1 <1>   0.1900 
 16 C        3.5020     6.4440     0.2530 C.3   1 <1>   0.1290 
 17 C        5.8760     6.4380    -0.5690 C.3   1 <1>   0.1290 
 18 F        7.1480     4.2770     0.9700 F     1 <1>  -0.1900 
 19 H        1.5810     0.4590    -2.0120 H     1 <1>   0.0800 
 20 H        1.6050    -1.1870    -1.4580 H     1 <1>   0.0800 
 21 H        0.5890     1.0220     1.7570 H     1 <1>   0.0800 
 22 H       -0.6670     1.9430     0.9900 H     1 <1>   0.0800 
 23 H        3.5860    -0.0440    -0.7010 H     1 <1>   0.0800 
 24 H        2.6000    -0.3990     0.6940 H     1 <1>   0.0800 
 25 H        1.3980     3.1850     0.9390 H     1 <1>   0.0800 
 26 H        1.0030     2.7270    -0.6980 H     1 <1>   0.0800 
 27 H        6.8480     1.7600     1.1940 H     1 <1>   0.1500 
 28 H        2.8660     5.9750     0.9840 H     1 <1>   0.0800 
 29 H        3.0060     6.4300    -0.7020 H     1 <1>   0.0800 
 30 H        3.6750     7.4620     0.5530 H     1 <1>   0.0800 
 31 H        6.5500     5.7430    -1.0380 H     1 <1>   0.0800 
 32 H        6.4290     7.0490     0.1240 H     1 <1>   0.0800 
 33 H        5.4530     7.0660    -1.3340 H     1 <1>   0.0800 
@<TRIPOS>BOND
  1   1   2  2   
  2   1   3  2   
  3   1   4  1   
  4   1   5  1   
  5   4   6  1   
  6   4  19  1   
  7   4  20  1   
  8   5   7  1   
  9   5  21  1   
 10   5  22  1   
 11   6   8  1   
 12   6  23  1   
 13   6  24  1   
 14   7   8  1   
 15   7  25  1   
 16   7  26  1   
 17   8   9  1   
 18   9  10  ar  
 19   9  11  ar  
 20  10  12  ar  
 21  11  13  ar  
 22  12  14  1   
 23  12  15  ar  
 24  13  15  ar  
 25  13  27  1   
 26  14  16  1   
 27  14  17  1   
 28  15  18  1   
 29  16  28  1   
 30  16  29  1   
 31  16  30  1   
 32  17  31  1   
 33  17  32  1   
 34  17  33  1   
@<TRIPOS>SUBSTRUCTURE
  1 ****   9 GROUP 4 **** **** 0

# MOE 2024.06 (io_trps.svl 2023.06)
