@<TRIPOS>MOLECULE
NONAME
48 50 1 0 0 
SMALL
USER_CHARGES


@<TRIPOS>ATOM
  1 O        0.9750    -0.2980     0.3880 O.2   1 <1>  -0.5700 
  2 C        2.0730    -0.0050    -0.0290 C.2   1 <1>   0.7150 
  3 N        2.7910    -1.0470    -0.5210 N.am  1 <1>  -0.7300 
  4 C        2.5140     1.3580     0.0200 C.2   1 <1>  -0.2370 
  5 C        4.2330    -1.2540    -0.8280 C.3   1 <1>   0.1400 
  6 N        3.5750     1.8940    -0.6290 N.pl3 1 <1>   0.3140 
  7 C        1.9580     2.3950     0.6980 C.2   1 <1>  -0.1500 
  8 C        5.1180     0.0000    -0.7650 C.3   1 <1>   0.2000 
  9 N        3.7160     3.2010    -0.3910 N.2   1 <1>  -0.7070 
 10 C        4.5310     1.2000    -1.5030 C.3   1 <1>   0.0960 
 11 C        2.7260     3.5220     0.4260 C.2   1 <1>   0.2030 
 12 O        6.3450    -0.3150    -1.3390 O.3   1 <1>  -0.6800 
 13 C        2.4760     4.8510     0.9650 C.2   1 <1>   0.7160 
 14 O        1.5590     5.0750     1.7370 O.2   1 <1>  -0.5700 
 15 N        3.2940     5.8810     0.6110 N.am  1 <1>  -0.7300 
 16 C        3.2990     7.2280     1.1960 C.3   1 <1>   0.2840 
 17 C        4.7420     7.6610     1.3710 C.ar  1 <1>  -0.1440 
 18 C        5.3170     8.5690     0.4960 C.ar  1 <1>  -0.1500 
 19 C        5.5030     7.1430     2.4080 C.ar  1 <1>  -0.1500 
 20 C        6.6360     8.9630     0.6470 C.ar  1 <1>   0.0820 
 21 C        6.8220     7.5320     2.5680 C.ar  1 <1>  -0.1500 
 22 O        7.1130     9.8520    -0.2590 O.3   1 <1>  -0.3620 
 23 C        7.3920     8.4400     1.6930 C.ar  1 <1>  -0.1500 
 24 C        8.4530    10.2860    -0.2230 C.3   1 <1>   0.1200 
 25 C        8.6730    11.2520    -1.3880 C.3   1 <1>  -0.1600 
 26 C       10.1150    11.7710    -1.4180 C.3   1 <1>  -0.2400 
 27 H        2.2490    -1.9140    -0.4810 H     1 <1>   0.3700 
 28 H        4.2950    -1.6730    -1.8180 H     1 <1>   0.0800 
 29 H        4.6260    -1.9800    -0.1360 H     1 <1>   0.0800 
 30 H        1.0860     2.3760     1.3310 H     1 <1>   0.1500 
 31 H        5.3200     0.2610     0.2610 H     1 <1>   0.0800 
 32 H        5.3130     1.8960    -1.7480 H     1 <1>   0.0800 
 33 H        4.0230     0.8980    -2.4000 H     1 <1>   0.0800 
 34 H        6.2620    -0.5150    -2.2920 H     1 <1>   0.4000 
 35 H        4.0980     5.6420     0.0250 H     1 <1>   0.3700 
 36 H        2.7960     7.2230     2.1490 H     1 <1>   0.0800 
 37 H        2.7780     7.9030     0.5400 H     1 <1>   0.0800 
 38 H        4.7490     8.9810    -0.3190 H     1 <1>   0.1500 
 39 H        5.0690     6.4310     3.0900 H     1 <1>   0.1500 
 40 H        7.4050     7.1240     3.3760 H     1 <1>   0.1500 
 41 H        8.4150     8.7240     1.8410 H     1 <1>   0.1500 
 42 H        9.0910     9.4240    -0.3190 H     1 <1>   0.0800 
 43 H        8.6260    10.7780     0.7180 H     1 <1>   0.0800 
 44 H        7.9980    12.0840    -1.2870 H     1 <1>   0.0800 
 45 H        8.4580    10.7450    -2.3120 H     1 <1>   0.0800 
 46 H       10.3450    12.2970    -0.5080 H     1 <1>   0.0800 
 47 H       10.2430    12.4480    -2.2450 H     1 <1>   0.0800 
 48 H       10.8070    10.9560    -1.5350 H     1 <1>   0.0800 
@<TRIPOS>BOND
  1   1   2  2   
  2   2   3  am  
  3   2   4  1   
  4   3   5  1   
  5   3  27  1   
  6   4   6  1   
  7   4   7  2   
  8   5   8  1   
  9   5  28  1   
 10   5  29  1   
 11   6   9  1   
 12   6  10  1   
 13   7  11  1   
 14   7  30  1   
 15   8  10  1   
 16   8  12  1   
 17   8  31  1   
 18   9  11  2   
 19  10  32  1   
 20  10  33  1   
 21  11  13  1   
 22  12  34  1   
 23  13  14  2   
 24  13  15  am  
 25  15  16  1   
 26  15  35  1   
 27  16  17  1   
 28  16  36  1   
 29  16  37  1   
 30  17  18  ar  
 31  17  19  ar  
 32  18  20  ar  
 33  18  38  1   
 34  19  21  ar  
 35  19  39  1   
 36  20  22  1   
 37  20  23  ar  
 38  21  23  ar  
 39  21  40  1   
 40  22  24  1   
 41  23  41  1   
 42  24  25  1   
 43  24  42  1   
 44  24  43  1   
 45  25  26  1   
 46  25  44  1   
 47  25  45  1   
 48  26  46  1   
 49  26  47  1   
 50  26  48  1   
@<TRIPOS>SUBSTRUCTURE
  1 ****  15 GROUP 4 **** **** 0

# MOE 2024.06 (io_trps.svl 2023.06)
