@<TRIPOS>MOLECULE
Untitled Document
52 55 1 0 0 
SMALL
USER_CHARGES


@<TRIPOS>ATOM
  1 F        2.0880     2.0360     1.0170 F     1 <1>  -0.1900 
  2 C        2.4200     2.5960    -0.1140 C.ar  1 <1>   0.1900 
  3 C        1.4370     3.1910    -0.9190 C.ar  1 <1>   0.0860 
  4 C        3.7610     2.5550    -0.4460 C.ar  1 <1>  -0.1500 
  5 C        0.0210     3.2380    -0.5790 C.2   1 <1>   0.5440 
  6 C        1.8900     3.7600    -2.1180 C.ar  1 <1>  -0.1500 
  7 C        4.1400     3.1340    -1.6380 C.ar  1 <1>   0.1900 
  8 O       -0.8090     3.5340    -1.4170 O.2   1 <1>  -0.5700 
  9 N       -0.4560     2.9510     0.6710 N.am  1 <1>  -0.7300 
 10 C        3.2260     3.7370    -2.4820 C.ar  1 <1>  -0.1500 
 11 F        5.3970     3.1120    -1.9790 F     1 <1>  -0.1900 
 12 C       -1.8250     3.2310     1.2160 C.3   1 <1>   0.1400 
 13 C       -2.9290     2.2900     0.6670 C.3   1 <1>   0.5030 
 14 N       -3.2300     2.5580    -0.7510 N.4   1 <1>  -0.8530 
 15 C       -2.5730     0.8040     0.8060 C.3   1 <1>   0.2090 
 16 C       -4.2530     2.3610     1.4270 C.3   1 <1>  -0.1600 
 17 N       -3.8800     0.1160     0.6700 N.pl3 1 <1>  -0.8380 
 18 C       -4.9530     1.0250     1.1480 C.3   1 <1>   0.2090 
 19 C       -4.0960    -0.6550    -0.4510 C.ar  1 <1>   0.4100 
 20 N       -4.2890    -0.0040    -1.5790 N.ar  1 <1>  -0.6200 
 21 C       -4.0790    -2.0580    -0.4020 C.ar  1 <1>   0.0000 
 22 C       -4.4830    -0.7730    -2.6660 C.ar  1 <1>   0.4700 
 23 C       -4.2730    -2.7080    -1.6020 C.ar  1 <1>   0.1050 
 24 C       -3.8990    -3.0780     0.5680 C.2   1 <1>  -0.1810 
 25 N       -4.4840    -2.0760    -2.7580 N.ar  1 <1>  -0.5670 
 26 N       -4.2120    -4.0520    -1.4030 N.pl3 1 <1>   0.0330 
 27 C       -3.9810    -4.2700    -0.0730 C.2   1 <1>  -0.3020 
 28 C       -3.6670    -2.8670     2.0520 C.3   1 <1>   0.0210 
 29 C       -4.9930    -2.6140     2.7690 C.3   1 <1>  -0.2400 
 30 H        4.4860     2.0900     0.1960 H     1 <1>   0.1500 
 31 H        1.1820     4.2330    -2.7800 H     1 <1>   0.1500 
 32 H        0.2540     2.7130     1.3790 H     1 <1>   0.3700 
 33 H        3.5620     4.1780    -3.4050 H     1 <1>   0.1500 
 34 H       -1.7800     3.1230     2.2870 H     1 <1>   0.0800 
 35 H       -2.0870     4.2550     1.0090 H     1 <1>   0.0800 
 36 H       -3.8560     3.3460    -0.8970 H     1 <1>   0.4500 
 37 H       -3.6530     1.6920    -1.1360 H     1 <1>   0.4500 
 38 H       -2.3440     2.7490    -1.2530 H     1 <1>   0.4500 
 39 H       -2.1680     0.5980     1.7820 H     1 <1>   0.0800 
 40 H       -1.8680     0.4840     0.0570 H     1 <1>   0.0800 
 41 H       -4.0640     2.4160     2.4850 H     1 <1>   0.0800 
 42 H       -4.8630     3.2030     1.1530 H     1 <1>   0.0800 
 43 H       -5.7140     1.1340     0.3910 H     1 <1>   0.0800 
 44 H       -5.4070     0.6280     2.0410 H     1 <1>   0.0800 
 45 H       -4.6580    -0.2380    -3.5860 H     1 <1>   0.1500 
 46 H       -4.3270    -4.7490    -2.1440 H     1 <1>   0.2700 
 47 H       -3.8950    -5.2630     0.3350 H     1 <1>   0.1500 
 48 H       -3.2010    -3.7430     2.4670 H     1 <1>   0.0800 
 49 H       -3.0000    -2.0360     2.2000 H     1 <1>   0.0800 
 50 H       -5.6420    -3.4640     2.6490 H     1 <1>   0.0800 
 51 H       -5.4810    -1.7510     2.3550 H     1 <1>   0.0800 
 52 H       -4.8240    -2.4520     3.8180 H     1 <1>   0.0800 
@<TRIPOS>BOND
  1   1   2  1   
  2   2   3  ar  
  3   2   4  ar  
  4   3   5  1   
  5   3   6  ar  
  6   4   7  ar  
  7   4  30  1   
  8   5   8  2   
  9   5   9  am  
 10   6  10  ar  
 11   6  31  1   
 12   7  10  ar  
 13   7  11  1   
 14   9  12  1   
 15   9  32  1   
 16  10  33  1   
 17  12  13  1   
 18  12  34  1   
 19  12  35  1   
 20  13  14  1   
 21  13  15  1   
 22  13  16  1   
 23  14  36  1   
 24  14  37  1   
 25  14  38  1   
 26  15  17  1   
 27  15  39  1   
 28  15  40  1   
 29  16  18  1   
 30  16  41  1   
 31  16  42  1   
 32  17  18  1   
 33  17  19  1   
 34  18  43  1   
 35  18  44  1   
 36  19  20  ar  
 37  19  21  ar  
 38  20  22  ar  
 39  21  23  ar  
 40  21  24  1   
 41  22  25  ar  
 42  22  45  1   
 43  23  25  ar  
 44  23  26  1   
 45  24  27  2   
 46  24  28  1   
 47  26  27  1   
 48  26  46  1   
 49  27  47  1   
 50  28  29  1   
 51  28  48  1   
 52  28  49  1   
 53  29  50  1   
 54  29  51  1   
 55  29  52  1   
@<TRIPOS>SUBSTRUCTURE
  1 ****  15 GROUP 4 **** **** 0

# MOE 2024.06 (io_trps.svl 2023.06)
