@<TRIPOS>MOLECULE
NONAME
62 65 1 0 0 
SMALL
USER_CHARGES


@<TRIPOS>ATOM
  1 O        1.0130    -0.4990     1.0150 O.3   1 <1>  -0.6800 
  2 C        1.5670     0.4780     0.2090 C.3   1 <1>   0.2000 
  3 C        2.7810    -0.1060    -0.5570 C.3   1 <1>   0.0000 
  4 C        1.8800     1.7140     1.0690 C.3   1 <1>  -0.1600 
  5 C        3.3850     1.0580    -1.3730 C.3   1 <1>   0.3430 
  6 C        2.2240    -1.1400    -1.5650 C.3   1 <1>   0.1200 
  7 C        3.8150    -0.8190     0.3880 C.3   1 <1>  -0.0170 
  8 C        3.2870     2.2650     0.8480 C.3   1 <1>   0.3430 
  9 N        3.6190     2.3330    -0.6060 N.4   1 <1>  -0.9590 
 10 O        3.1770    -1.4240    -2.5320 O.3   1 <1>  -0.6800 
 11 C        5.2810    -0.3880     0.2880 C.ar  1 <1>  -0.1430 
 12 C        5.0270     2.7630    -0.7830 C.3   1 <1>   0.5230 
 13 C        5.9130     0.1920     1.3790 C.ar  1 <1>  -0.1500 
 14 C        6.0140    -0.6040    -0.8710 C.ar  1 <1>  -0.1500 
 15 C        5.1580     4.1980    -0.3220 C.2   1 <1>  -0.3320 
 16 C        7.2390     0.5820     1.3020 C.ar  1 <1>  -0.1500 
 17 C        7.3370    -0.2090    -0.9530 C.ar  1 <1>  -0.1500 
 18 N        6.3230     4.7460     0.1030 N.pl3 1 <1>   0.0480 
 19 C        4.2280     5.1800    -0.2470 C.2   1 <1>   0.0770 
 20 C        7.9510     0.3880     0.1320 C.ar  1 <1>  -0.1500 
 21 C        6.0000     6.0220     0.4150 C.2   1 <1>   0.0360 
 22 C        7.6770     4.1350     0.2000 C.3   1 <1>   0.1760 
 23 N        4.7570     6.3150     0.2250 N.2   1 <1>  -0.5650 
 24 C        8.2310     4.2510     1.6310 C.3   1 <1>  -0.1600 
 25 C        8.6300     4.7800    -0.8200 C.3   1 <1>  -0.1600 
 26 C        9.6420     3.6530     1.7320 C.3   1 <1>  -0.1600 
 27 C       10.0360     4.1720    -0.7210 C.3   1 <1>  -0.1600 
 28 C       10.5900     4.2880     0.7060 C.3   1 <1>  -0.1600 
 29 H        0.1730    -0.1990     1.4210 H     1 <1>   0.4000 
 30 H        0.8080     0.7550    -0.5050 H     1 <1>   0.0800 
 31 H        1.1700     2.4890     0.8430 H     1 <1>   0.0800 
 32 H        1.7810     1.4820     2.1160 H     1 <1>   0.0800 
 33 H        2.7080     1.2720    -2.1830 H     1 <1>   0.0800 
 34 H        4.3000     0.7220    -1.8300 H     1 <1>   0.0800 
 35 H        1.3540    -0.7600    -2.0750 H     1 <1>   0.0800 
 36 H        1.9520    -2.0560    -1.0670 H     1 <1>   0.0800 
 37 H        3.5070    -0.7040     1.4120 H     1 <1>   0.0800 
 38 H        3.7900    -1.8810     0.2140 H     1 <1>   0.0800 
 39 H        3.9890     1.6210     1.3440 H     1 <1>   0.0800 
 40 H        3.3690     3.2430     1.2980 H     1 <1>   0.0800 
 41 H        3.0520     3.0750    -1.0300 H     1 <1>   0.4500 
 42 H        2.8990    -2.1920    -3.0770 H     1 <1>   0.4000 
 43 H        5.6770     2.1250    -0.2090 H     1 <1>   0.0800 
 44 H        5.3150     2.6930    -1.8200 H     1 <1>   0.0800 
 45 H        5.3870     0.3280     2.3090 H     1 <1>   0.1500 
 46 H        5.5650    -1.0970    -1.7160 H     1 <1>   0.1500 
 47 H        7.7210     1.0210     2.1590 H     1 <1>   0.1500 
 48 H        7.8960    -0.3840    -1.8580 H     1 <1>   0.1500 
 49 H        3.1840     5.1530    -0.5080 H     1 <1>   0.1500 
 50 H        8.9860     0.6790     0.0710 H     1 <1>   0.1500 
 51 H        6.7290     6.7230     0.7860 H     1 <1>   0.1500 
 52 H        7.5960     3.0920    -0.0400 H     1 <1>   0.0800 
 53 H        8.2800     5.2860     1.9210 H     1 <1>   0.0800 
 54 H        7.5790     3.7390     2.3160 H     1 <1>   0.0800 
 55 H        8.2510     4.6340    -1.8160 H     1 <1>   0.0800 
 56 H        8.6970     5.8390    -0.6360 H     1 <1>   0.0800 
 57 H       10.0310     3.8140     2.7240 H     1 <1>   0.0800 
 58 H        9.6020     2.5910     1.5670 H     1 <1>   0.0800 
 59 H       10.0040     3.1350    -1.0090 H     1 <1>   0.0800 
 60 H       10.6970     4.6810    -1.4030 H     1 <1>   0.0800 
 61 H       11.5520     3.8070     0.7590 H     1 <1>   0.0800 
 62 H       10.7330     5.3280     0.9490 H     1 <1>   0.0800 
@<TRIPOS>BOND
  1   1   2  1   
  2   1  29  1   
  3   2   3  1   
  4   2   4  1   
  5   2  30  1   
  6   3   5  1   
  7   3   6  1   
  8   3   7  1   
  9   4   8  1   
 10   4  31  1   
 11   4  32  1   
 12   5   9  1   
 13   5  33  1   
 14   5  34  1   
 15   6  10  1   
 16   6  35  1   
 17   6  36  1   
 18   7  11  1   
 19   7  37  1   
 20   7  38  1   
 21   8   9  1   
 22   8  39  1   
 23   8  40  1   
 24   9  12  1   
 25   9  41  1   
 26  10  42  1   
 27  11  13  ar  
 28  11  14  ar  
 29  12  15  1   
 30  12  43  1   
 31  12  44  1   
 32  13  16  ar  
 33  13  45  1   
 34  14  17  ar  
 35  14  46  1   
 36  15  18  1   
 37  15  19  2   
 38  16  20  ar  
 39  16  47  1   
 40  17  20  ar  
 41  17  48  1   
 42  18  21  1   
 43  18  22  1   
 44  19  23  1   
 45  19  49  1   
 46  20  50  1   
 47  21  23  2   
 48  21  51  1   
 49  22  24  1   
 50  22  25  1   
 51  22  52  1   
 52  24  26  1   
 53  24  53  1   
 54  24  54  1   
 55  25  27  1   
 56  25  55  1   
 57  25  56  1   
 58  26  28  1   
 59  26  57  1   
 60  26  58  1   
 61  27  28  1   
 62  27  59  1   
 63  27  60  1   
 64  28  61  1   
 65  28  62  1   
@<TRIPOS>SUBSTRUCTURE
  1 ****  12 GROUP 4 **** **** 0

# MOE 2024.06 (io_trps.svl 2023.06)
