@<TRIPOS>MOLECULE
NONAME
46 48 1 0 0 
SMALL
USER_CHARGES


@<TRIPOS>ATOM
  1 O       -0.1210     1.5360     1.0300 O.3   1 <1>  -0.0190 
  2 N       -0.3920     2.2360    -0.0320 N.2   1 <1>  -0.4100 
  3 C        1.1610     1.4900     1.2700 C.2   1 <1>  -0.0400 
  4 C        0.7350     2.6500    -0.4860 C.2   1 <1>   0.1080 
  5 C        1.7850     2.1970     0.3140 C.2   1 <1>  -0.1810 
  6 C        1.6550     0.7190     2.4770 C.3   1 <1>  -0.0600 
  7 C        0.8680     3.5140    -1.7220 C.3   1 <1>  -0.0590 
  8 C        3.2580     2.4670     0.1070 C.3   1 <1>   0.3900 
  9 N        3.5140     3.8780     0.4480 N.pl3 1 <1>  -0.8690 
 10 C        4.5740     4.6570     0.1980 C.ar  1 <1>   0.4100 
 11 N        4.4480     5.9020     0.5910 N.ar  1 <1>  -0.6200 
 12 C        5.7380     4.1850    -0.4340 C.ar  1 <1>  -0.1500 
 13 C        5.4620     6.7340     0.3870 C.ar  1 <1>   0.7710 
 14 C        6.7630     5.0470    -0.6410 C.ar  1 <1>   0.2180 
 15 N        6.5920     6.3220    -0.2170 N.ar  1 <1>  -0.1790 
 16 N        5.3630     8.0310     0.7860 N.pl3 1 <1>  -0.8380 
 17 C        8.0700     4.6620    -1.3130 C.3   1 <1>  -0.0970 
 18 C        4.0730     8.6000     1.3030 C.3   1 <1>   0.2090 
 19 C        6.4370     9.0730     0.7650 C.3   1 <1>   0.2090 
 20 C        3.6110     9.7220     0.3660 C.3   1 <1>  -0.1600 
 21 C        6.0310    10.1920    -0.1980 C.3   1 <1>  -0.1600 
 22 C        4.6840    10.8100     0.2030 C.3   1 <1>  -0.1600 
 23 H        1.2160     1.1280     3.3690 H     1 <1>   0.0800 
 24 H        2.7240     0.7770     2.5590 H     1 <1>   0.0800 
 25 H        1.3660    -0.3130     2.3910 H     1 <1>   0.0800 
 26 H       -0.1080     3.7700    -2.0950 H     1 <1>   0.0800 
 27 H        1.4000     2.9810    -2.4870 H     1 <1>   0.0800 
 28 H        1.3940     4.4200    -1.4840 H     1 <1>   0.0800 
 29 H        3.5250     2.2760    -0.9180 H     1 <1>   0.0800 
 30 H        3.8440     1.8310     0.7470 H     1 <1>   0.0800 
 31 H        2.7270     4.3100     0.9450 H     1 <1>   0.4000 
 32 H        5.7900     3.1560    -0.7340 H     1 <1>   0.1500 
 33 H        7.2950     7.0360    -0.3510 H     1 <1>   0.4570 
 34 H        8.0570     3.6230    -1.5940 H     1 <1>   0.0800 
 35 H        8.8980     4.8170    -0.6430 H     1 <1>   0.0800 
 36 H        8.2230     5.2470    -2.2030 H     1 <1>   0.0800 
 37 H        4.2280     8.9940     2.2930 H     1 <1>   0.0800 
 38 H        3.2950     7.8590     1.3690 H     1 <1>   0.0800 
 39 H        7.3900     8.6700     0.4740 H     1 <1>   0.0800 
 40 H        6.5490     9.4820     1.7560 H     1 <1>   0.0800 
 41 H        2.7110    10.1620     0.7590 H     1 <1>   0.0800 
 42 H        3.3720     9.2970    -0.5930 H     1 <1>   0.0800 
 43 H        5.9650     9.8000    -1.1980 H     1 <1>   0.0800 
 44 H        6.7860    10.9590    -0.1960 H     1 <1>   0.0800 
 45 H        4.7970    11.3380     1.1350 H     1 <1>   0.0800 
 46 H        4.3700    11.5210    -0.5420 H     1 <1>   0.0800 
@<TRIPOS>BOND
  1   1   2  1   
  2   1   3  1   
  3   2   4  2   
  4   3   5  2   
  5   3   6  1   
  6   4   5  1   
  7   4   7  1   
  8   5   8  1   
  9   6  23  1   
 10   6  24  1   
 11   6  25  1   
 12   7  26  1   
 13   7  27  1   
 14   7  28  1   
 15   8   9  1   
 16   8  29  1   
 17   8  30  1   
 18   9  10  1   
 19   9  31  1   
 20  10  11  ar  
 21  10  12  ar  
 22  11  13  ar  
 23  12  14  ar  
 24  12  32  1   
 25  13  15  ar  
 26  13  16  1   
 27  14  15  ar  
 28  14  17  1   
 29  15  33  1   
 30  16  18  1   
 31  16  19  1   
 32  17  34  1   
 33  17  35  1   
 34  17  36  1   
 35  18  20  1   
 36  18  37  1   
 37  18  38  1   
 38  19  21  1   
 39  19  39  1   
 40  19  40  1   
 41  20  22  1   
 42  20  41  1   
 43  20  42  1   
 44  21  22  1   
 45  21  43  1   
 46  21  44  1   
 47  22  45  1   
 48  22  46  1   
@<TRIPOS>SUBSTRUCTURE
  1 ****  10 GROUP 4 **** **** 0

# MOE 2024.06 (io_trps.svl 2023.06)
