@<TRIPOS>MOLECULE
NONAME
47 50 1 0 0 
SMALL
USER_CHARGES


@<TRIPOS>ATOM
  1 O       -1.1010    -1.5530     0.5150 O.2   1 <1>  -0.5700 
  2 C        0.0430    -1.9280     0.6530 C.2   1 <1>   0.7800 
  3 O        0.7090    -1.7600     1.7850 O.3   1 <1>  -0.4300 
  4 N        0.7740    -2.5930    -0.2650 N.am  1 <1>  -0.6600 
  5 C        1.9910    -2.3570     1.7080 C.3   1 <1>   0.1200 
  6 C        2.0590    -2.9930     0.3130 C.3   1 <1>   0.1400 
  7 C        0.2470    -3.2030    -1.5220 C.3   1 <1>   0.2010 
  8 C        0.0410    -4.7150    -1.4090 C.2   1 <1>   0.5690 
  9 O        0.9490    -5.4320    -1.7620 O.2   1 <1>  -0.5700 
 10 N       -1.1260    -5.2350    -0.9130 N.am  1 <1>  -0.6600 
 11 C       -2.2770    -4.4660    -0.3720 C.3   1 <1>   0.1400 
 12 C       -1.3490    -6.6920    -0.7490 C.3   1 <1>   0.1400 
 13 C       -3.3110    -5.5260     0.0080 C.3   1 <1>   0.2000 
 14 C       -2.5090    -6.8040     0.2410 C.3   1 <1>  -0.0800 
 15 O       -4.0050    -5.1820     1.1570 O.3   1 <1>  -0.6800 
 16 C       -3.3520    -8.0780     0.0690 C.3   1 <1>  -0.0170 
 17 C       -2.5160    -9.3250     0.3000 C.ar  1 <1>   0.1670 
 18 N       -1.8870    -9.8200    -0.7210 N.ar  1 <1>  -0.6200 
 19 C       -2.4540    -9.8710     1.5920 C.ar  1 <1>  -0.1500 
 20 C       -1.1230   -10.9240    -0.5180 C.ar  1 <1>   0.3100 
 21 C       -1.6990   -10.9800     1.8230 C.ar  1 <1>  -0.1500 
 22 C       -0.9980   -11.5440     0.7440 C.ar  1 <1>   0.0000 
 23 C       -0.4230   -11.4740    -1.6040 C.ar  1 <1>  -0.1500 
 24 C       -0.1820   -12.6860     0.8690 C.ar  1 <1>  -0.1500 
 25 C        0.3650   -12.5860    -1.4630 C.ar  1 <1>  -0.1500 
 26 C        0.4860   -13.1980    -0.2110 C.ar  1 <1>  -0.1500 
 27 H        2.7360    -1.5900     1.8300 H     1 <1>   0.0800 
 28 H        2.0810    -3.0930     2.4870 H     1 <1>   0.0800 
 29 H        2.1360    -4.0650     0.3790 H     1 <1>   0.0800 
 30 H        2.8790    -2.5980    -0.2620 H     1 <1>   0.0800 
 31 H       -0.6830    -2.7340    -1.7860 H     1 <1>   0.0800 
 32 H        0.9440    -3.0120    -2.3170 H     1 <1>   0.0800 
 33 H       -1.9610    -3.9220     0.5000 H     1 <1>   0.0800 
 34 H       -2.6720    -3.7910    -1.1120 H     1 <1>   0.0800 
 35 H       -1.6140    -7.1160    -1.7030 H     1 <1>   0.0800 
 36 H       -0.4640    -7.1830    -0.3800 H     1 <1>   0.0800 
 37 H       -4.0190    -5.6510    -0.7930 H     1 <1>   0.0800 
 38 H       -2.0860    -6.7860     1.2300 H     1 <1>   0.0800 
 39 H       -3.3850    -4.9330     1.8700 H     1 <1>   0.4000 
 40 H       -3.7670    -8.1130    -0.9230 H     1 <1>   0.0800 
 41 H       -4.1740    -8.0610     0.7620 H     1 <1>   0.0800 
 42 H       -3.0060    -9.4030     2.3870 H     1 <1>   0.1500 
 43 H       -1.6270   -11.4270     2.7980 H     1 <1>   0.1500 
 44 H       -0.5280   -10.9880    -2.5570 H     1 <1>   0.1500 
 45 H       -0.0930   -13.1510     1.8340 H     1 <1>   0.1500 
 46 H        0.8960   -12.9960    -2.3040 H     1 <1>   0.1500 
 47 H        1.1090   -14.0700    -0.1130 H     1 <1>   0.1500 
@<TRIPOS>BOND
  1   1   2  2   
  2   2   3  1   
  3   2   4  am  
  4   3   5  1   
  5   4   6  1   
  6   4   7  1   
  7   5   6  1   
  8   5  27  1   
  9   5  28  1   
 10   6  29  1   
 11   6  30  1   
 12   7   8  1   
 13   7  31  1   
 14   7  32  1   
 15   8   9  2   
 16   8  10  am  
 17  10  11  1   
 18  10  12  1   
 19  11  13  1   
 20  11  33  1   
 21  11  34  1   
 22  12  14  1   
 23  12  35  1   
 24  12  36  1   
 25  13  14  1   
 26  13  15  1   
 27  13  37  1   
 28  14  16  1   
 29  14  38  1   
 30  15  39  1   
 31  16  17  1   
 32  16  40  1   
 33  16  41  1   
 34  17  18  ar  
 35  17  19  ar  
 36  18  20  ar  
 37  19  21  ar  
 38  19  42  1   
 39  20  22  ar  
 40  20  23  ar  
 41  21  22  ar  
 42  21  43  1   
 43  22  24  ar  
 44  23  25  ar  
 45  23  44  1   
 46  24  26  ar  
 47  24  45  1   
 48  25  26  ar  
 49  25  46  1   
 50  26  47  1   
@<TRIPOS>SUBSTRUCTURE
  1 ****  12 GROUP 4 **** **** 0

# MOE 2024.06 (io_trps.svl 2023.06)
