@<TRIPOS>MOLECULE
NONAME
43 45 1 0 0 
SMALL
USER_CHARGES


@<TRIPOS>ATOM
  1 S        0.2500     0.1590     0.2810 S.3   1 <1>  -0.4600 
  2 C        0.4940     1.9500     0.4710 C.3   1 <1>   0.0700 
  3 C        1.9580    -0.4520     0.2030 C.3   1 <1>   0.0700 
  4 C        1.4450     2.4640    -0.6170 C.3   1 <1>   0.2090 
  5 C        2.7280     0.3370    -0.8630 C.3   1 <1>   0.2090 
  6 N        2.7890     1.7960    -0.5210 N.pl3 1 <1>  -0.8380 
  7 C        3.9360     2.4810    -0.2580 C.ar  1 <1>   0.4100 
  8 N        3.9570     3.7730    -0.5250 N.ar  1 <1>  -0.6200 
  9 C        5.0660     1.8370     0.2830 C.ar  1 <1>  -0.1500 
 10 C        5.0680     4.4570    -0.3030 C.ar  1 <1>   0.7710 
 11 C        6.1980     2.5470     0.5030 C.ar  1 <1>   0.2170 
 12 N        6.1690     3.8630     0.1900 N.ar  1 <1>  -0.1790 
 13 N        5.1020     5.7880    -0.5860 N.pl3 1 <1>  -0.8380 
 14 C        7.4760     1.9480     1.0770 C.3   1 <1>  -0.0170 
 15 C        3.9750     6.4730    -1.3220 C.3   1 <1>   0.2090 
 16 C        6.1720     6.7800    -0.2130 C.3   1 <1>   0.2090 
 17 C        8.6450     2.0200     0.0860 C.3   1 <1>  -0.2400 
 18 C        3.4910     7.7200    -0.5630 C.3   1 <1>   0.1200 
 19 C        5.5660     8.0110     0.4890 C.3   1 <1>   0.1200 
 20 O        4.5620     8.5790    -0.2970 O.3   1 <1>  -0.5600 
 21 H        0.8990     2.1230     1.4510 H     1 <1>   0.0800 
 22 H       -0.4740     2.4100     0.3900 H     1 <1>   0.0800 
 23 H        1.9070    -1.4970    -0.0460 H     1 <1>   0.0800 
 24 H        2.3960    -0.3270     1.1760 H     1 <1>   0.0800 
 25 H        1.5350     3.5300    -0.5090 H     1 <1>   0.0800 
 26 H        1.0180     2.2720    -1.5870 H     1 <1>   0.0800 
 27 H        2.2300     0.2180    -1.8110 H     1 <1>   0.0800 
 28 H        3.7150    -0.0720    -0.9740 H     1 <1>   0.0800 
 29 H        5.0060     0.7940     0.5250 H     1 <1>   0.1500 
 30 H        6.9850     4.4500     0.2850 H     1 <1>   0.4570 
 31 H        7.3030     0.9150     1.3310 H     1 <1>   0.0800 
 32 H        7.7390     2.4590     1.9880 H     1 <1>   0.0800 
 33 H        3.1330     5.8200    -1.4750 H     1 <1>   0.0800 
 34 H        4.3210     6.7770    -2.2950 H     1 <1>   0.0800 
 35 H        6.6770     7.1120    -1.1060 H     1 <1>   0.0800 
 36 H        6.9040     6.3470     0.4420 H     1 <1>   0.0800 
 37 H        8.3960     1.5110    -0.8300 H     1 <1>   0.0800 
 38 H        9.5100     1.5360     0.5090 H     1 <1>   0.0800 
 39 H        8.9120     3.0360    -0.1410 H     1 <1>   0.0800 
 40 H        3.0260     7.4440     0.3670 H     1 <1>   0.0800 
 41 H        2.7770     8.2620    -1.1580 H     1 <1>   0.0800 
 42 H        6.3210     8.7630     0.6430 H     1 <1>   0.0800 
 43 H        5.1460     7.7440     1.4430 H     1 <1>   0.0800 
@<TRIPOS>BOND
  1   1   2  1   
  2   1   3  1   
  3   2   4  1   
  4   2  21  1   
  5   2  22  1   
  6   3   5  1   
  7   3  23  1   
  8   3  24  1   
  9   4   6  1   
 10   4  25  1   
 11   4  26  1   
 12   5   6  1   
 13   5  27  1   
 14   5  28  1   
 15   6   7  1   
 16   7   8  ar  
 17   7   9  ar  
 18   8  10  ar  
 19   9  11  ar  
 20   9  29  1   
 21  10  12  ar  
 22  10  13  1   
 23  11  12  ar  
 24  11  14  1   
 25  12  30  1   
 26  13  15  1   
 27  13  16  1   
 28  14  17  1   
 29  14  31  1   
 30  14  32  1   
 31  15  18  1   
 32  15  33  1   
 33  15  34  1   
 34  16  19  1   
 35  16  35  1   
 36  16  36  1   
 37  17  37  1   
 38  17  38  1   
 39  17  39  1   
 40  18  20  1   
 41  18  40  1   
 42  18  41  1   
 43  19  20  1   
 44  19  42  1   
 45  19  43  1   
@<TRIPOS>SUBSTRUCTURE
  1 ****   8 GROUP 4 **** **** 0

# MOE 2024.06 (io_trps.svl 2023.06)
