@<TRIPOS>MOLECULE
NONAME
60 64 1 0 0 
SMALL
USER_CHARGES


@<TRIPOS>ATOM
  1 O       -0.7910     0.1970    -0.3890 O.3   1 <1>  -0.5600 
  2 C       -1.3470     0.2750     0.8870 C.3   1 <1>   0.1200 
  3 C       -1.2350     1.1820    -1.2690 C.3   1 <1>   0.1200 
  4 C       -2.8740     0.0800     0.8170 C.3   1 <1>   0.2090 
  5 C       -2.7530     1.0420    -1.4850 C.3   1 <1>   0.2090 
  6 N       -3.5230     1.0170    -0.1790 N.pl3 1 <1>  -0.8380 
  7 C       -4.5310     1.8600     0.1330 C.ar  1 <1>   0.4610 
  8 N       -4.4350     3.1390    -0.2550 N.ar  1 <1>  -0.1790 
  9 C       -5.7030     1.4840     0.8570 C.ar  1 <1>  -0.1440 
 10 C       -5.3590     4.1270     0.0360 C.ar  1 <1>   0.3610 
 11 C       -6.6450     2.4180     1.1740 C.ar  1 <1>  -0.1500 
 12 C       -5.9690     0.0370     1.2490 C.3   1 <1>   0.4860 
 13 C       -6.4960     3.7740     0.7790 C.ar  1 <1>   0.0000 
 14 C       -5.1840     5.4500    -0.3820 C.ar  1 <1>  -0.1500 
 15 N       -6.1990    -0.8110     0.0400 N.4   1 <1>  -0.9590 
 16 C       -7.4330     4.7670     1.0890 C.ar  1 <1>  -0.1500 
 17 C       -6.1190     6.4080    -0.0680 C.ar  1 <1>  -0.1500 
 18 C       -7.4210    -0.3820    -0.7160 C.3   1 <1>   0.3430 
 19 C       -6.4690    -2.2270     0.4540 C.3   1 <1>   0.3430 
 20 C       -7.2480     6.0630     0.6710 C.ar  1 <1>  -0.1500 
 21 C       -8.5890    -1.1370    -0.0770 C.3   1 <1>   0.2000 
 22 C       -7.9770    -2.4900     0.2880 C.3   1 <1>  -0.0800 
 23 O       -8.9450    -0.4820     1.0980 O.3   1 <1>  -0.6800 
 24 C       -8.2460    -3.5480    -0.8000 C.3   1 <1>  -0.0170 
 25 C       -7.4830    -4.8310    -0.5080 C.ar  1 <1>  -0.1440 
 26 C       -7.7820    -5.6230     0.5830 C.ar  1 <1>  -0.1500 
 27 C       -6.4540    -5.2730    -1.3170 C.ar  1 <1>  -0.1500 
 28 C       -7.0450    -6.7720     0.8190 C.ar  1 <1>   0.1600 
 29 C       -5.7790    -6.4380    -0.9920 C.ar  1 <1>   0.1600 
 30 N       -6.0440    -7.1880     0.0630 N.ar  1 <1>  -0.6200 
 31 H       -0.8990    -0.4990     1.4850 H     1 <1>   0.0800 
 32 H       -1.0950     1.2290     1.3190 H     1 <1>   0.0800 
 33 H       -0.9780     2.1460    -0.8680 H     1 <1>   0.0800 
 34 H       -0.7110     1.0450    -2.1990 H     1 <1>   0.0800 
 35 H       -3.2650     0.2480     1.8050 H     1 <1>   0.0800 
 36 H       -3.0710    -0.9420     0.5400 H     1 <1>   0.0800 
 37 H       -2.9240     0.1160    -2.0090 H     1 <1>   0.0800 
 38 H       -3.0970     1.8330    -2.1280 H     1 <1>   0.0800 
 39 H       -3.5800     3.4190    -0.7260 H     1 <1>   0.4570 
 40 H       -7.5420     2.1630     1.7210 H     1 <1>   0.1500 
 41 H       -6.8380    -0.0010     1.8860 H     1 <1>   0.0800 
 42 H       -5.1430    -0.3500     1.8180 H     1 <1>   0.0800 
 43 H       -4.3170     5.7350    -0.9530 H     1 <1>   0.1500 
 44 H       -5.3600    -0.7510    -0.5540 H     1 <1>   0.4500 
 45 H       -8.3110     4.5130     1.6620 H     1 <1>   0.1500 
 46 H       -5.9940     7.4310    -0.3860 H     1 <1>   0.1500 
 47 H       -7.5820     0.6820    -0.6810 H     1 <1>   0.0800 
 48 H       -7.3320    -0.6910    -1.7450 H     1 <1>   0.0800 
 49 H       -5.9090    -2.9090    -0.1670 H     1 <1>   0.0800 
 50 H       -6.1780    -2.3900     1.4790 H     1 <1>   0.0800 
 51 H       -7.9730     6.8240     0.9130 H     1 <1>   0.1500 
 52 H       -9.4520    -1.1930    -0.7190 H     1 <1>   0.0800 
 53 H       -8.3850    -2.8550     1.2150 H     1 <1>   0.0800 
 54 H       -9.8090    -0.8100     1.4350 H     1 <1>   0.4000 
 55 H       -7.9630    -3.1760    -1.7690 H     1 <1>   0.0800 
 56 H       -9.2990    -3.7730    -0.8360 H     1 <1>   0.0800 
 57 H       -8.5830    -5.3700     1.2540 H     1 <1>   0.1500 
 58 H       -6.1670    -4.7360    -2.2030 H     1 <1>   0.1500 
 59 H       -7.2900    -7.3800     1.6740 H     1 <1>   0.1500 
 60 H       -4.9800    -6.7720    -1.6340 H     1 <1>   0.1500 
@<TRIPOS>BOND
  1   1   2  1   
  2   1   3  1   
  3   2   4  1   
  4   2  31  1   
  5   2  32  1   
  6   3   5  1   
  7   3  33  1   
  8   3  34  1   
  9   4   6  1   
 10   4  35  1   
 11   4  36  1   
 12   5   6  1   
 13   5  37  1   
 14   5  38  1   
 15   6   7  1   
 16   7   8  ar  
 17   7   9  ar  
 18   8  10  ar  
 19   8  39  1   
 20   9  11  ar  
 21   9  12  1   
 22  10  13  ar  
 23  10  14  ar  
 24  11  13  ar  
 25  11  40  1   
 26  12  15  1   
 27  12  41  1   
 28  12  42  1   
 29  13  16  ar  
 30  14  17  ar  
 31  14  43  1   
 32  15  18  1   
 33  15  19  1   
 34  15  44  1   
 35  16  20  ar  
 36  16  45  1   
 37  17  20  ar  
 38  17  46  1   
 39  18  21  1   
 40  18  47  1   
 41  18  48  1   
 42  19  22  1   
 43  19  49  1   
 44  19  50  1   
 45  20  51  1   
 46  21  22  1   
 47  21  23  1   
 48  21  52  1   
 49  22  24  1   
 50  22  53  1   
 51  23  54  1   
 52  24  25  1   
 53  24  55  1   
 54  24  56  1   
 55  25  26  ar  
 56  25  27  ar  
 57  26  28  ar  
 58  26  57  1   
 59  27  29  ar  
 60  27  58  1   
 61  28  30  ar  
 62  28  59  1   
 63  29  30  ar  
 64  29  60  1   
@<TRIPOS>SUBSTRUCTURE
  1 ****  15 GROUP 4 **** **** 0

# MOE 2024.06 (io_trps.svl 2023.06)
