@<TRIPOS>MOLECULE
NONAME
39 40 1 0 0 
SMALL
USER_CHARGES


@<TRIPOS>ATOM
  1 F       -0.7730    -0.0160    -0.3670 F     1 <1>  -0.3400 
  2 C       -1.8110     0.0270     0.4590 C.3   1 <1>   0.8800 
  3 F       -1.5430     0.9860     1.3320 F     1 <1>  -0.3400 
  4 O       -1.8830    -1.1920     1.1620 O.3   1 <1>  -0.3630 
  5 C       -2.3290    -2.3280     0.5700 C.ar  1 <1>   0.0820 
  6 C       -2.4360    -3.4430     1.3840 C.ar  1 <1>  -0.1500 
  7 C       -2.6710    -2.4310    -0.7760 C.ar  1 <1>  -0.1500 
  8 C       -2.8800    -4.6490     0.8730 C.ar  1 <1>  -0.1500 
  9 C       -3.1180    -3.6380    -1.2870 C.ar  1 <1>  -0.1500 
 10 C       -3.2270    -4.7530    -0.4660 C.ar  1 <1>  -0.1440 
 11 C       -3.7130    -6.0790    -1.0180 C.3   1 <1>   0.4870 
 12 N       -5.0830    -6.3320    -0.5060 N.4   1 <1>  -0.9590 
 13 C       -5.4680    -7.7610    -0.6460 C.3   1 <1>   0.5230 
 14 C       -6.0980    -5.3550    -1.0050 C.3   1 <1>   0.3430 
 15 C       -4.9260    -8.4900     0.5780 C.2   1 <1>   0.0070 
 16 C       -7.3390    -5.2920    -0.1020 C.3   1 <1>   0.1200 
 17 N       -4.4370    -7.8700     1.6100 N.2   1 <1>  -0.5650 
 18 N       -4.9120    -9.8390     0.7040 N.pl3 1 <1>   0.0330 
 19 O       -8.3400    -4.6510    -0.8100 O.3   1 <1>  -0.6800 
 20 C       -4.0850    -8.8640     2.4490 C.2   1 <1>   0.0770 
 21 C       -4.3680   -10.0690     1.9110 C.2   1 <1>  -0.3020 
 22 H       -2.7120     0.2610    -0.0790 H     1 <1>   0.0800 
 23 H       -2.1640    -3.3610     2.4230 H     1 <1>   0.1500 
 24 H       -2.5870    -1.5950    -1.4450 H     1 <1>   0.1500 
 25 H       -2.9420    -5.5000     1.5320 H     1 <1>   0.1500 
 26 H       -3.3700    -3.6970    -2.3320 H     1 <1>   0.1500 
 27 H       -3.0460    -6.8580    -0.6820 H     1 <1>   0.0800 
 28 H       -3.7080    -6.0600    -2.0960 H     1 <1>   0.0800 
 29 H       -4.9790    -6.2260     0.5210 H     1 <1>   0.4500 
 30 H       -5.0610    -8.1790    -1.5520 H     1 <1>   0.0800 
 31 H       -6.5400    -7.8610    -0.6650 H     1 <1>   0.0800 
 32 H       -6.4040    -5.6290    -2.0020 H     1 <1>   0.0800 
 33 H       -5.6680    -4.3680    -1.0420 H     1 <1>   0.0800 
 34 H       -7.1340    -4.7230     0.7890 H     1 <1>   0.0800 
 35 H       -7.7010    -6.2710     0.1560 H     1 <1>   0.0800 
 36 H       -5.2410   -10.5570     0.0480 H     1 <1>   0.2700 
 37 H       -9.1470    -4.5240    -0.2650 H     1 <1>   0.4000 
 38 H       -3.6410    -8.6610     3.4120 H     1 <1>   0.1500 
 39 H       -4.2140   -11.0530     2.3190 H     1 <1>   0.1500 
@<TRIPOS>BOND
  1   1   2  1   
  2   2   3  1   
  3   2   4  1   
  4   2  22  1   
  5   4   5  1   
  6   5   6  ar  
  7   5   7  ar  
  8   6   8  ar  
  9   6  23  1   
 10   7   9  ar  
 11   7  24  1   
 12   8  10  ar  
 13   8  25  1   
 14   9  10  ar  
 15   9  26  1   
 16  10  11  1   
 17  11  12  1   
 18  11  27  1   
 19  11  28  1   
 20  12  13  1   
 21  12  14  1   
 22  12  29  1   
 23  13  15  1   
 24  13  30  1   
 25  13  31  1   
 26  14  16  1   
 27  14  32  1   
 28  14  33  1   
 29  15  17  2   
 30  15  18  1   
 31  16  19  1   
 32  16  34  1   
 33  16  35  1   
 34  17  20  1   
 35  18  21  1   
 36  18  36  1   
 37  19  37  1   
 38  20  21  2   
 39  20  38  1   
 40  21  39  1   
@<TRIPOS>SUBSTRUCTURE
  1 ****  10 GROUP 4 **** **** 0

# MOE 2024.06 (io_trps.svl 2023.06)
