@<TRIPOS>MOLECULE
NONAME
38 41 1 0 0 
SMALL
USER_CHARGES


@<TRIPOS>ATOM
  1 O       -0.6050     0.4560     0.3300 O.2   1 <1>  -0.5700 
  2 C       -1.6800     1.0220     0.2620 C.2   1 <1>   0.5440 
  3 N       -2.8320     0.2950     0.3920 N.am  1 <1>  -0.6600 
  4 C       -1.6900     2.4440     0.0470 C.ar  1 <1>   0.0860 
  5 C       -4.1950     0.8300     0.6830 C.3   1 <1>   0.2350 
  6 C       -2.8460    -1.1910     0.5100 C.3   1 <1>   0.2350 
  7 C       -0.9230     3.2920     0.8170 C.ar  1 <1>   0.1600 
  8 C       -2.4160     3.0590    -0.9520 C.ar  1 <1>   0.1600 
  9 C       -5.1380    -0.3350     0.4430 C.3   1 <1>  -0.2420 
 10 C       -4.3020    -1.5880     0.3400 C.3   1 <1>  -0.2420 
 11 N       -0.8790     4.5930     0.6380 N.ar  1 <1>  -0.6200 
 12 N       -2.3930     4.3550    -1.1650 N.ar  1 <1>  -0.6200 
 13 C       -6.4980    -0.0660     1.0950 C.2   1 <1>   0.9470 
 14 C       -5.0920    -1.1080    -0.8510 C.3   1 <1>  -0.2000 
 15 C       -4.5390    -3.0080     0.8600 C.2   1 <1>   0.9470 
 16 C       -1.6290     5.1020    -0.3530 C.ar  1 <1>   0.6200 
 17 O       -7.5270    -0.1220     0.4090 O.co2 1 <1>  -0.9000 
 18 O       -6.5240     0.3750     2.2520 O.co2 1 <1>  -0.9000 
 19 O       -4.2020    -3.2890     2.0170 O.co2 1 <1>  -0.9000 
 20 O       -4.9090    -3.8880     0.0700 O.co2 1 <1>  -0.9000 
 21 C       -1.5790     6.5510    -0.5640 C.ar  1 <1>   0.3100 
 22 N       -2.7080     7.2390    -0.8210 N.ar  1 <1>  -0.6200 
 23 C       -0.3450     7.2060    -0.4900 C.ar  1 <1>  -0.1500 
 24 C       -2.5970     8.5410    -1.0040 C.ar  1 <1>   0.1600 
 25 C       -0.2420     8.5660    -0.6810 C.ar  1 <1>  -0.1500 
 26 C       -1.4090     9.2450    -0.9460 C.ar  1 <1>  -0.1500 
 27 H       -4.2420     1.1370     1.7140 H     1 <1>   0.0800 
 28 H       -4.4580     1.6530     0.0460 H     1 <1>   0.0800 
 29 H       -2.2320    -1.6480    -0.2460 H     1 <1>   0.0800 
 30 H       -2.4940    -1.4770     1.4860 H     1 <1>   0.0800 
 31 H       -0.3240     2.8650     1.6040 H     1 <1>   0.1500 
 32 H       -3.0270     2.4500    -1.5980 H     1 <1>   0.1500 
 33 H       -4.5740    -0.7040    -1.6990 H     1 <1>   0.1000 
 34 H       -5.9650    -1.6750    -1.1310 H     1 <1>   0.1000 
 35 H        0.5400     6.6330    -0.2800 H     1 <1>   0.1500 
 36 H       -3.5050     9.0810    -1.2120 H     1 <1>   0.1500 
 37 H        0.7060     9.0730    -0.6250 H     1 <1>   0.1500 
 38 H       -1.4010    10.3080    -1.1060 H     1 <1>   0.1500 
@<TRIPOS>BOND
  1   1   2  2   
  2   2   3  am  
  3   2   4  1   
  4   3   5  1   
  5   3   6  1   
  6   4   7  ar  
  7   4   8  ar  
  8   5   9  1   
  9   5  27  1   
 10   5  28  1   
 11   6  10  1   
 12   6  29  1   
 13   6  30  1   
 14   7  11  ar  
 15   7  31  1   
 16   8  12  ar  
 17   8  32  1   
 18   9  10  1   
 19   9  13  1   
 20   9  14  1   
 21  10  14  1   
 22  10  15  1   
 23  11  16  ar  
 24  12  16  ar  
 25  13  17  ar  
 26  13  18  ar  
 27  14  33  1   
 28  14  34  1   
 29  15  19  ar  
 30  15  20  ar  
 31  16  21  1   
 32  21  22  ar  
 33  21  23  ar  
 34  22  24  ar  
 35  23  25  ar  
 36  23  35  1   
 37  24  26  ar  
 38  24  36  1   
 39  25  26  ar  
 40  25  37  1   
 41  26  38  1   
@<TRIPOS>SUBSTRUCTURE
  1 ****   4 GROUP 4 **** **** 0

# MOE 2024.06 (io_trps.svl 2023.06)
