@<TRIPOS>MOLECULE
NONAME
56 59 1 0 0 
SMALL
USER_CHARGES


@<TRIPOS>ATOM
  1 F        1.5270     0.7000     0.0850 F     1 <1>  -0.3400 
  2 C        2.5490     0.0880     0.6660 C.3   1 <1>   0.6800 
  3 F        3.0490     0.9860     1.5040 F     1 <1>  -0.3400 
  4 C        2.0420    -1.1140     1.4800 C.3   1 <1>  -0.1600 
  5 C        3.6000    -0.2480    -0.4040 C.3   1 <1>  -0.1600 
  6 C        2.2100    -2.4280     0.6990 C.3   1 <1>  -0.1600 
  7 C        4.4970    -1.4130     0.0510 C.3   1 <1>  -0.1600 
  8 C        3.6910    -2.7060     0.3350 C.3   1 <1>  -0.0800 
  9 C        3.8000    -3.6810    -0.8560 C.3   1 <1>   0.1400 
 10 N        3.0870    -4.9690    -0.5880 N.am  1 <1>  -0.6600 
 11 C        1.8830    -5.2370    -1.1980 C.2   1 <1>   0.5690 
 12 C        3.7940    -5.8910     0.3550 C.3   1 <1>   0.1400 
 13 O        1.3780    -4.4360    -1.9490 O.2   1 <1>  -0.5700 
 14 C        1.0690    -6.5010    -0.9720 C.3   1 <1>  -0.0990 
 15 C        4.0850    -7.3160    -0.2000 C.3   1 <1>   0.2800 
 16 C        1.7030    -7.6530    -0.1950 C.3   1 <1>   0.1200 
 17 O        2.9500    -7.9400    -0.7390 O.3   1 <1>  -0.5600 
 18 C        5.0950    -7.2580    -1.3670 C.3   1 <1>  -0.1600 
 19 C        4.5890    -8.2190     0.9450 C.3   1 <1>  -0.1600 
 20 C        6.5400    -7.4060    -0.8930 C.3   1 <1>   0.2090 
 21 C        5.5080    -9.3230     0.4310 C.3   1 <1>   0.2090 
 22 N        6.7220    -8.6990    -0.1680 N.pl3 1 <1>  -0.8380 
 23 C        7.9740    -9.0170     0.3470 C.ar  1 <1>   0.4100 
 24 N        8.7540    -8.0000     0.6960 N.ar  1 <1>  -0.6200 
 25 C        8.3840   -10.3560     0.4930 C.ar  1 <1>   0.1600 
 26 C        9.9150    -8.3960     1.1900 C.ar  1 <1>   0.1600 
 27 N        9.5410   -10.7540     0.9910 N.ar  1 <1>  -0.6200 
 28 C       10.2970    -9.7220     1.3360 C.ar  1 <1>   0.1600 
 29 H        1.0090    -0.9660     1.7410 H     1 <1>   0.0800 
 30 H        2.6150    -1.1910     2.3870 H     1 <1>   0.0800 
 31 H        4.1910     0.6250    -0.6150 H     1 <1>   0.0800 
 32 H        3.0950    -0.5440    -1.3060 H     1 <1>   0.0800 
 33 H        1.6210    -2.3630    -0.2020 H     1 <1>   0.0800 
 34 H        1.8200    -3.2490     1.2750 H     1 <1>   0.0800 
 35 H        5.0000    -1.1130     0.9550 H     1 <1>   0.0800 
 36 H        5.2610    -1.5920    -0.6870 H     1 <1>   0.0800 
 37 H        4.1600    -3.1770     1.1820 H     1 <1>   0.0800 
 38 H        4.8350    -3.8930    -1.0610 H     1 <1>   0.0800 
 39 H        3.3960    -3.2090    -1.7360 H     1 <1>   0.0800 
 40 H        3.2250    -5.9560     1.2650 H     1 <1>   0.0800 
 41 H        4.7390    -5.4560     0.6290 H     1 <1>   0.0800 
 42 H        0.7920    -6.8760    -1.9400 H     1 <1>   0.0800 
 43 H        0.1590    -6.2180    -0.4780 H     1 <1>   0.0800 
 44 H        1.0960    -8.5340    -0.3120 H     1 <1>   0.0800 
 45 H        1.7840    -7.4450     0.8570 H     1 <1>   0.0800 
 46 H        4.9920    -6.3370    -1.9090 H     1 <1>   0.0800 
 47 H        4.9010    -8.0580    -2.0600 H     1 <1>   0.0800 
 48 H        3.7610    -8.6530     1.4750 H     1 <1>   0.0800 
 49 H        5.1560    -7.6420     1.6540 H     1 <1>   0.0800 
 50 H        6.7950    -6.5890    -0.2400 H     1 <1>   0.0800 
 51 H        7.2090    -7.3820    -1.7370 H     1 <1>   0.0800 
 52 H        4.9990    -9.9110    -0.3150 H     1 <1>   0.0800 
 53 H        5.7850    -9.9690     1.2470 H     1 <1>   0.0800 
 54 H        7.7000   -11.1160     0.1670 H     1 <1>   0.1500 
 55 H       10.6020    -7.6270     1.4960 H     1 <1>   0.1500 
 56 H       11.2650    -9.9420     1.7510 H     1 <1>   0.1500 
@<TRIPOS>BOND
  1   1   2  1   
  2   2   3  1   
  3   2   4  1   
  4   2   5  1   
  5   4   6  1   
  6   4  29  1   
  7   4  30  1   
  8   5   7  1   
  9   5  31  1   
 10   5  32  1   
 11   6   8  1   
 12   6  33  1   
 13   6  34  1   
 14   7   8  1   
 15   7  35  1   
 16   7  36  1   
 17   8   9  1   
 18   8  37  1   
 19   9  10  1   
 20   9  38  1   
 21   9  39  1   
 22  10  11  am  
 23  10  12  1   
 24  11  13  2   
 25  11  14  1   
 26  12  15  1   
 27  12  40  1   
 28  12  41  1   
 29  14  16  1   
 30  14  42  1   
 31  14  43  1   
 32  15  17  1   
 33  15  18  1   
 34  15  19  1   
 35  16  17  1   
 36  16  44  1   
 37  16  45  1   
 38  18  20  1   
 39  18  46  1   
 40  18  47  1   
 41  19  21  1   
 42  19  48  1   
 43  19  49  1   
 44  20  22  1   
 45  20  50  1   
 46  20  51  1   
 47  21  22  1   
 48  21  52  1   
 49  21  53  1   
 50  22  23  1   
 51  23  24  ar  
 52  23  25  ar  
 53  24  26  ar  
 54  25  27  ar  
 55  25  54  1   
 56  26  28  ar  
 57  26  55  1   
 58  27  28  ar  
 59  28  56  1   
@<TRIPOS>SUBSTRUCTURE
  1 ****  12 GROUP 4 **** **** 0

# MOE 2024.06 (io_trps.svl 2023.06)
