@<TRIPOS>MOLECULE
NONAME
57 59 1 0 0 
SMALL
USER_CHARGES


@<TRIPOS>ATOM
  1 O        0.3370     0.9680    -1.1950 O.2   1 <1>  -0.5700 
  2 C        0.1580     2.1100    -0.8410 C.2   1 <1>   0.5690 
  3 N       -1.0740     2.5750    -0.4640 N.am  1 <1>  -0.6600 
  4 C        1.3600     3.0590    -0.8530 C.3   1 <1>   0.1810 
  5 C       -1.2710     3.9980    -0.0260 C.3   1 <1>   0.3640 
  6 C       -2.2580     1.6760    -0.3370 C.3   1 <1>   0.0600 
  7 O        1.1770     4.2030    -0.0550 O.3   1 <1>  -0.5600 
  8 C       -2.5000     4.5860    -0.7390 C.ar  1 <1>  -0.1430 
  9 C       -0.0340     4.8890    -0.3010 C.3   1 <1>   0.2610 
 10 C       -3.5890     5.1220    -0.0500 C.ar  1 <1>  -0.1430 
 11 C       -2.5220     4.5790    -2.1300 C.ar  1 <1>  -0.1500 
 12 C       -0.0970     6.1820     0.5200 C.2   1 <1>   0.5690 
 13 C       -4.6530     5.6560    -0.7630 C.ar  1 <1>  -0.1500 
 14 C       -3.6720     5.1470     1.4710 C.3   1 <1>  -0.0960 
 15 C       -3.5880     5.1100    -2.8310 C.ar  1 <1>  -0.1500 
 16 O       -0.4370     6.1460     1.6810 O.2   1 <1>  -0.5700 
 17 N        0.2320     7.3620    -0.0790 N.am  1 <1>  -0.7300 
 18 C       -4.6550     5.6540    -2.1450 C.ar  1 <1>  -0.1500 
 19 C        0.2600     8.6740     0.5960 C.3   1 <1>   0.1400 
 20 C        1.5630     9.3830     0.2390 C.3   1 <1>  -0.1600 
 21 C        1.6650    10.7250     0.9580 C.3   1 <1>   0.1200 
 22 O        2.8440    11.3280     0.5400 O.3   1 <1>  -0.5600 
 23 C        3.1040    12.5760     1.1030 C.3   1 <1>   0.2000 
 24 C        2.4490    13.6650     0.2550 C.3   1 <1>  -0.1600 
 25 C        4.5930    12.8500     0.9370 C.3   1 <1>  -0.1600 
 26 C        3.3820    13.8610    -0.9440 C.3   1 <1>  -0.1600 
 27 C        4.7640    13.3700    -0.4950 C.3   1 <1>  -0.1600 
 28 H        1.5560     3.3740    -1.8610 H     1 <1>   0.0800 
 29 H        2.2230     2.5380    -0.4810 H     1 <1>   0.0800 
 30 H       -1.4290     3.9780     1.0360 H     1 <1>   0.0800 
 31 H       -2.6960     1.7840     0.6400 H     1 <1>   0.0800 
 32 H       -1.9720     0.6470    -0.4730 H     1 <1>   0.0800 
 33 H       -2.9920     1.9290    -1.0820 H     1 <1>   0.0800 
 34 H       -0.0290     5.1650    -1.3390 H     1 <1>   0.0800 
 35 H       -1.7060     4.1460    -2.6830 H     1 <1>   0.1500 
 36 H       -5.4950     6.0790    -0.2440 H     1 <1>   0.1500 
 37 H       -4.6480     5.4540     1.7990 H     1 <1>   0.0800 
 38 H       -2.9560     5.8390     1.8730 H     1 <1>   0.0800 
 39 H       -3.4850     4.1690     1.8760 H     1 <1>   0.0800 
 40 H       -3.5890     5.0970    -3.9070 H     1 <1>   0.1500 
 41 H        0.5610     7.3680    -1.0460 H     1 <1>   0.3700 
 42 H       -5.4880     6.0710    -2.6840 H     1 <1>   0.1500 
 43 H       -0.5850     9.2580     0.2720 H     1 <1>   0.0800 
 44 H        0.1940     8.5390     1.6630 H     1 <1>   0.0800 
 45 H        1.6020     9.5550    -0.8220 H     1 <1>   0.0800 
 46 H        2.3960     8.7700     0.5350 H     1 <1>   0.0800 
 47 H        1.7070    10.5830     2.0250 H     1 <1>   0.0800 
 48 H        0.8350    11.3600     0.7010 H     1 <1>   0.0800 
 49 H        2.8010    12.5860     2.1370 H     1 <1>   0.0800 
 50 H        1.4460    13.4190    -0.0430 H     1 <1>   0.0800 
 51 H        2.4260    14.5740     0.8280 H     1 <1>   0.0800 
 52 H        4.8800    13.6230     1.6270 H     1 <1>   0.0800 
 53 H        5.1840    11.9720     1.1300 H     1 <1>   0.0800 
 54 H        3.0410    13.2520    -1.7650 H     1 <1>   0.0800 
 55 H        3.4060    14.8900    -1.2570 H     1 <1>   0.0800 
 56 H        5.4960    14.1570    -0.5340 H     1 <1>   0.0800 
 57 H        5.0820    12.5640    -1.1360 H     1 <1>   0.0800 
@<TRIPOS>BOND
  1   1   2  2   
  2   2   3  am  
  3   2   4  1   
  4   3   5  1   
  5   3   6  1   
  6   4   7  1   
  7   4  28  1   
  8   4  29  1   
  9   5   8  1   
 10   5   9  1   
 11   5  30  1   
 12   6  31  1   
 13   6  32  1   
 14   6  33  1   
 15   7   9  1   
 16   8  10  ar  
 17   8  11  ar  
 18   9  12  1   
 19   9  34  1   
 20  10  13  ar  
 21  10  14  1   
 22  11  15  ar  
 23  11  35  1   
 24  12  16  2   
 25  12  17  am  
 26  13  18  ar  
 27  13  36  1   
 28  14  37  1   
 29  14  38  1   
 30  14  39  1   
 31  15  18  ar  
 32  15  40  1   
 33  17  19  1   
 34  17  41  1   
 35  18  42  1   
 36  19  20  1   
 37  19  43  1   
 38  19  44  1   
 39  20  21  1   
 40  20  45  1   
 41  20  46  1   
 42  21  22  1   
 43  21  47  1   
 44  21  48  1   
 45  22  23  1   
 46  23  24  1   
 47  23  25  1   
 48  23  49  1   
 49  24  26  1   
 50  24  50  1   
 51  24  51  1   
 52  25  27  1   
 53  25  52  1   
 54  25  53  1   
 55  26  27  1   
 56  26  54  1   
 57  26  55  1   
 58  27  56  1   
 59  27  57  1   
@<TRIPOS>SUBSTRUCTURE
  1 ****  17 GROUP 4 **** **** 0

# MOE 2024.06 (io_trps.svl 2023.06)
