@<TRIPOS>MOLECULE
NONAME
45 46 1 0 0 
SMALL
USER_CHARGES


@<TRIPOS>ATOM
  1 S        0.2210    -0.0010    -1.0850 S.o2  1 <1>   1.3330 
  2 O       -0.6630    -1.1430    -1.0370 O.2   1 <1>  -0.6500 
  3 O        1.0310     0.2290    -2.2600 O.2   1 <1>  -0.6500 
  4 N        1.2530    -0.0970     0.2610 N.am  1 <1>  -0.8490 
  5 C       -0.7330     1.4880    -0.7760 C.3   1 <1>  -0.0550 
  6 C        2.5380    -0.7260    -0.0580 C.3   1 <1>   0.1160 
  7 C        0.6440    -0.7600     1.4190 C.3   1 <1>   0.1160 
  8 C        0.0810     2.7970    -0.8750 C.3   1 <1>  -0.0800 
  9 C       -0.7670     4.0690    -0.7970 C.3   1 <1>   0.2000 
 10 C        1.1380     2.9840     0.2220 C.3   1 <1>   0.1400 
 11 O       -1.6710     3.9470     0.2480 O.3   1 <1>  -0.6800 
 12 C        0.2410     5.1530    -0.4250 C.3   1 <1>   0.1400 
 13 N        1.2310     4.4520     0.4340 N.am  1 <1>  -0.6600 
 14 C        2.3520     5.0520     0.9620 C.2   1 <1>   0.5440 
 15 O        3.2520     4.3390     1.3690 O.2   1 <1>  -0.5700 
 16 C        2.4740     6.4860     1.0240 C.ar  1 <1>   0.0860 
 17 C        3.4930     7.1460     0.3150 C.ar  1 <1>   0.4100 
 18 C        1.5910     7.2570     1.7690 C.ar  1 <1>  -0.1500 
 19 N        3.6390     8.4710     0.2930 N.ar  1 <1>  -0.6200 
 20 N        4.4080     6.4200    -0.4140 N.pl3 1 <1>  -0.8690 
 21 C        1.7530     8.6230     1.7550 C.ar  1 <1>  -0.1500 
 22 C        2.7800     9.1710     1.0060 C.ar  1 <1>   0.1600 
 23 C        5.6270     7.0030    -1.0270 C.3   1 <1>   0.1290 
 24 H       -1.5220     1.5340    -1.5010 H     1 <1>   0.0800 
 25 H       -1.1940     1.4190     0.1890 H     1 <1>   0.0800 
 26 H        3.1680    -0.7540     0.8140 H     1 <1>   0.0800 
 27 H        3.0470    -0.1590    -0.8200 H     1 <1>   0.0800 
 28 H        2.3840    -1.7300    -0.4180 H     1 <1>   0.0800 
 29 H        1.3040    -0.7020     2.2680 H     1 <1>   0.0800 
 30 H        0.4470    -1.7970     1.1990 H     1 <1>   0.0800 
 31 H       -0.2840    -0.2800     1.6770 H     1 <1>   0.0800 
 32 H        0.5950     2.8090    -1.8210 H     1 <1>   0.0800 
 33 H       -1.3100     4.2830    -1.7020 H     1 <1>   0.0800 
 34 H        2.0890     2.5760    -0.0800 H     1 <1>   0.0800 
 35 H        0.8310     2.5180     1.1430 H     1 <1>   0.0800 
 36 H       -1.1700     3.9390     1.0890 H     1 <1>   0.4000 
 37 H       -0.2310     5.9740     0.0840 H     1 <1>   0.0800 
 38 H        0.7390     5.5130    -1.3100 H     1 <1>   0.0800 
 39 H        0.8070     6.7900     2.3390 H     1 <1>   0.1500 
 40 H        4.5030     5.4370    -0.1150 H     1 <1>   0.4000 
 41 H        1.0940     9.2630     2.3160 H     1 <1>   0.1500 
 42 H        2.8980    10.2410     0.9970 H     1 <1>   0.1500 
 43 H        5.3660     7.8730    -1.6040 H     1 <1>   0.0800 
 44 H        6.0920     6.2810    -1.6750 H     1 <1>   0.0800 
 45 H        6.3200     7.2890    -0.2540 H     1 <1>   0.0800 
@<TRIPOS>BOND
  1   1   2  2   
  2   1   3  2   
  3   1   4  am  
  4   1   5  1   
  5   4   6  1   
  6   4   7  1   
  7   5   8  1   
  8   5  24  1   
  9   5  25  1   
 10   6  26  1   
 11   6  27  1   
 12   6  28  1   
 13   7  29  1   
 14   7  30  1   
 15   7  31  1   
 16   8   9  1   
 17   8  10  1   
 18   8  32  1   
 19   9  11  1   
 20   9  12  1   
 21   9  33  1   
 22  10  13  1   
 23  10  34  1   
 24  10  35  1   
 25  11  36  1   
 26  12  13  1   
 27  12  37  1   
 28  12  38  1   
 29  13  14  am  
 30  14  15  2   
 31  14  16  1   
 32  16  17  ar  
 33  16  18  ar  
 34  17  19  ar  
 35  17  20  1   
 36  18  21  ar  
 37  18  39  1   
 38  19  22  ar  
 39  20  23  1   
 40  20  40  1   
 41  21  22  ar  
 42  21  41  1   
 43  22  42  1   
 44  23  43  1   
 45  23  44  1   
 46  23  45  1   
@<TRIPOS>SUBSTRUCTURE
  1 ****  13 GROUP 4 **** **** 0

# MOE 2024.06 (io_trps.svl 2023.06)
