@<TRIPOS>MOLECULE
NONAME
47 50 1 0 0 
SMALL
USER_CHARGES


@<TRIPOS>ATOM
  1 O        0.3290    -0.5660     0.9360 O.3   1 <1>  -0.0190 
  2 N       -0.5510    -1.5020     0.8320 N.2   1 <1>  -0.4100 
  3 C        1.4950    -1.0230     0.5720 C.2   1 <1>   0.5620 
  4 C        0.1180    -2.5180     0.4040 C.2   1 <1>   0.4620 
  5 N        1.4310    -2.2500     0.2240 N.2   1 <1>  -0.5650 
  6 N        2.6260    -0.2300     0.5810 N.pl3 1 <1>  -0.8220 
  7 C       -0.4450    -3.8310     0.1290 C.ar  1 <1>   0.0540 
  8 C        2.5360     1.2530     0.5690 C.3   1 <1>   0.2090 
  9 C        3.8570    -0.6760    -0.1020 C.3   1 <1>   0.2090 
 10 C       -1.8090    -4.0840     0.2930 C.ar  1 <1>  -0.1500 
 11 C        0.3480    -4.8940    -0.3090 C.ar  1 <1>  -0.1500 
 12 C        3.6660     1.7140    -0.3520 C.3   1 <1>   0.0640 
 13 C        4.6980     0.5880    -0.2280 C.3   1 <1>  -0.1600 
 14 C       -2.3540    -5.3290     0.0330 C.ar  1 <1>  -0.1500 
 15 C       -0.1890    -6.1420    -0.5710 C.ar  1 <1>  -0.1500 
 16 C        4.1250     3.1530    -0.0600 C.ar  1 <1>  -0.1430 
 17 C       -1.5430    -6.3620    -0.4010 C.ar  1 <1>  -0.1500 
 18 C        3.2650     4.2130    -0.3570 C.ar  1 <1>   0.0830 
 19 C        5.3720     3.4360     0.4860 C.ar  1 <1>  -0.1500 
 20 O        2.0480     3.8940    -0.8860 O.3   1 <1>  -0.3630 
 21 C        3.6630     5.5400    -0.1290 C.ar  1 <1>   0.0830 
 22 C        5.7590     4.7390     0.7340 C.ar  1 <1>  -0.1500 
 23 C        0.8800     4.4880    -0.3600 C.3   1 <1>   0.0400 
 24 O        2.8280     6.5640    -0.4750 O.3   1 <1>  -0.3630 
 25 C        4.9120     5.7870     0.4300 C.ar  1 <1>  -0.1500 
 26 C        3.2800     7.8980    -0.5540 C.3   1 <1>   0.0400 
 27 H        2.6950     1.6250     1.5660 H     1 <1>   0.0800 
 28 H        1.5800     1.5890     0.2060 H     1 <1>   0.0800 
 29 H        3.6080    -1.0660    -1.0750 H     1 <1>   0.0800 
 30 H        4.3590    -1.4340     0.4750 H     1 <1>   0.0800 
 31 H       -2.4550    -3.2920     0.6300 H     1 <1>   0.1500 
 32 H        1.4040    -4.7430    -0.4470 H     1 <1>   0.1500 
 33 H        3.2860     1.6890    -1.3590 H     1 <1>   0.0800 
 34 H        5.3650     0.5480    -1.0700 H     1 <1>   0.0800 
 35 H        5.2650     0.6800     0.6790 H     1 <1>   0.0800 
 36 H       -3.4090    -5.4940     0.1680 H     1 <1>   0.1500 
 37 H        0.4470    -6.9420    -0.9080 H     1 <1>   0.1500 
 38 H       -1.9640    -7.3310    -0.6040 H     1 <1>   0.1500 
 39 H        6.0690     2.6570     0.7290 H     1 <1>   0.1500 
 40 H        6.7260     4.9370     1.1630 H     1 <1>   0.1500 
 41 H        0.0580     3.8150    -0.5230 H     1 <1>   0.0800 
 42 H        0.6980     5.4120    -0.8770 H     1 <1>   0.0800 
 43 H        1.0140     4.6620     0.6930 H     1 <1>   0.0800 
 44 H        5.2490     6.7840     0.6360 H     1 <1>   0.1500 
 45 H        2.4870     8.4950    -0.9660 H     1 <1>   0.0800 
 46 H        4.1400     7.9370    -1.2000 H     1 <1>   0.0800 
 47 H        3.5210     8.2450     0.4350 H     1 <1>   0.0800 
@<TRIPOS>BOND
  1   1   2  1   
  2   1   3  1   
  3   2   4  2   
  4   3   5  2   
  5   3   6  1   
  6   4   5  1   
  7   4   7  1   
  8   6   8  1   
  9   6   9  1   
 10   7  10  ar  
 11   7  11  ar  
 12   8  12  1   
 13   8  27  1   
 14   8  28  1   
 15   9  13  1   
 16   9  29  1   
 17   9  30  1   
 18  10  14  ar  
 19  10  31  1   
 20  11  15  ar  
 21  11  32  1   
 22  12  13  1   
 23  12  16  1   
 24  12  33  1   
 25  13  34  1   
 26  13  35  1   
 27  14  17  ar  
 28  14  36  1   
 29  15  17  ar  
 30  15  37  1   
 31  16  18  ar  
 32  16  19  ar  
 33  17  38  1   
 34  18  20  1   
 35  18  21  ar  
 36  19  22  ar  
 37  19  39  1   
 38  20  23  1   
 39  21  24  1   
 40  21  25  ar  
 41  22  25  ar  
 42  22  40  1   
 43  23  41  1   
 44  23  42  1   
 45  23  43  1   
 46  24  26  1   
 47  25  44  1   
 48  26  45  1   
 49  26  46  1   
 50  26  47  1   
@<TRIPOS>SUBSTRUCTURE
  1 ****   8 GROUP 4 **** **** 0

# MOE 2024.06 (io_trps.svl 2023.06)
