@<TRIPOS>MOLECULE
NONAME
43 45 1 0 0 
SMALL
USER_CHARGES


@<TRIPOS>ATOM
  1 O       -1.5800    -0.4990     0.2580 O.3   1 <1>  -0.5600 
  2 C       -0.3210    -1.0830     0.3830 C.3   1 <1>   0.1200 
  3 C       -1.5760     0.8840     0.4070 C.3   1 <1>   0.0400 
  4 C       -0.4450    -2.5930     0.1290 C.3   1 <1>   0.0000 
  5 C       -0.6410    -2.9260    -1.3810 C.3   1 <1>   0.0000 
  6 C        0.9430    -3.2940     0.0580 C.3   1 <1>   0.0000 
  7 C       -1.4560    -3.2380     1.1070 C.3   1 <1>   0.2090 
  8 C        0.5000    -3.9710    -1.2670 C.3   1 <1>   0.0000 
  9 N       -1.6290    -4.7110     0.9130 N.pl3 1 <1>  -0.8690 
 10 C       -2.6280    -5.3860     0.3030 C.ar  1 <1>   0.1000 
 11 C       -2.6020    -6.8130     0.2310 C.ar  1 <1>   0.0000 
 12 C       -3.7080    -4.7270    -0.2910 C.ar  1 <1>  -0.1500 
 13 C       -3.6550    -7.4850    -0.4220 C.ar  1 <1>   0.3610 
 14 C       -1.5730    -7.6040     0.7820 C.ar  1 <1>  -0.1500 
 15 C       -4.7160    -5.4080    -0.9190 C.ar  1 <1>   0.2170 
 16 N       -4.6800    -6.7500    -0.9750 N.ar  1 <1>  -0.1790 
 17 C       -3.6550    -8.8850    -0.5080 C.ar  1 <1>  -0.1500 
 18 C       -1.5880    -8.9720     0.6890 C.ar  1 <1>  -0.1500 
 19 C       -5.8860    -4.6850    -1.5650 C.3   1 <1>  -0.0970 
 20 C       -2.6360    -9.6210     0.0400 C.ar  1 <1>  -0.1500 
 21 H        0.0460    -0.8980     1.3780 H     1 <1>   0.0800 
 22 H        0.3430    -0.6300    -0.3350 H     1 <1>   0.0800 
 23 H       -2.5880     1.2350     0.3010 H     1 <1>   0.0800 
 24 H       -0.9600     1.3240    -0.3580 H     1 <1>   0.0800 
 25 H       -1.2060     1.1370     1.3850 H     1 <1>   0.0800 
 26 H       -0.3700    -2.1140    -2.0330 H     1 <1>   0.0000 
 27 H       -1.5950    -3.3560    -1.6280 H     1 <1>   0.0000 
 28 H        1.1290    -3.9930     0.8550 H     1 <1>   0.0000 
 29 H        1.7570    -2.6070    -0.0970 H     1 <1>   0.0000 
 30 H       -2.4020    -2.7380     1.0200 H     1 <1>   0.0800 
 31 H       -1.1140    -3.0700     2.1140 H     1 <1>   0.0800 
 32 H        1.2310    -3.8920    -2.0520 H     1 <1>   0.0000 
 33 H        0.1390    -4.9740    -1.1260 H     1 <1>   0.0000 
 34 H       -0.8310    -5.2320     1.2920 H     1 <1>   0.4000 
 35 H       -3.7450    -3.6540    -0.2610 H     1 <1>   0.1500 
 36 H       -0.7530    -7.1290     1.2890 H     1 <1>   0.1500 
 37 H       -5.4280    -7.2630    -1.4430 H     1 <1>   0.4570 
 38 H       -4.4580    -9.3970    -1.0060 H     1 <1>   0.1500 
 39 H       -0.7910    -9.5590     1.1170 H     1 <1>   0.1500 
 40 H       -5.7850    -3.6200    -1.4470 H     1 <1>   0.0800 
 41 H       -6.8130    -4.9830    -1.1080 H     1 <1>   0.0800 
 42 H       -5.9270    -4.9000    -2.6190 H     1 <1>   0.0800 
 43 H       -2.6280   -10.6980    -0.0220 H     1 <1>   0.1500 
@<TRIPOS>BOND
  1   1   2  1   
  2   1   3  1   
  3   2   4  1   
  4   2  21  1   
  5   2  22  1   
  6   3  23  1   
  7   3  24  1   
  8   3  25  1   
  9   4   5  1   
 10   4   6  1   
 11   4   7  1   
 12   5   8  1   
 13   5  26  1   
 14   5  27  1   
 15   6   8  1   
 16   6  28  1   
 17   6  29  1   
 18   7   9  1   
 19   7  30  1   
 20   7  31  1   
 21   8  32  1   
 22   8  33  1   
 23   9  10  1   
 24   9  34  1   
 25  10  11  ar  
 26  10  12  ar  
 27  11  13  ar  
 28  11  14  ar  
 29  12  15  ar  
 30  12  35  1   
 31  13  16  ar  
 32  13  17  ar  
 33  14  18  ar  
 34  14  36  1   
 35  15  16  ar  
 36  15  19  1   
 37  16  37  1   
 38  17  20  ar  
 39  17  38  1   
 40  18  20  ar  
 41  18  39  1   
 42  19  40  1   
 43  19  41  1   
 44  19  42  1   
 45  20  43  1   
@<TRIPOS>SUBSTRUCTURE
  1 ****  10 GROUP 4 **** **** 0

# MOE 2024.06 (io_trps.svl 2023.06)
