@<TRIPOS>MOLECULE
NONAME
59 62 1 0 0 
SMALL
USER_CHARGES


@<TRIPOS>ATOM
  1 F       -0.4650    -3.1410    -3.1680 F     1 <1>  -0.1900 
  2 C       -1.1180    -3.7010    -2.1810 C.ar  1 <1>   0.1900 
  3 C       -0.6970    -3.5830    -0.8510 C.ar  1 <1>   0.0830 
  4 C       -2.2510    -4.4150    -2.5200 C.ar  1 <1>  -0.1500 
  5 O        0.3970    -2.9080    -0.3930 O.3   1 <1>  -0.3630 
  6 C       -1.4600    -4.2110     0.1210 C.ar  1 <1>  -0.1500 
  7 C       -2.9890    -5.0270    -1.5240 C.ar  1 <1>  -0.1500 
  8 C        1.3150    -2.2620    -1.2470 C.3   1 <1>   0.0400 
  9 C       -2.6100    -4.9440    -0.1820 C.ar  1 <1>   0.0530 
 10 C       -3.3730    -5.5810     0.8660 C.2   1 <1>   0.0870 
 11 O       -3.3920    -5.0600     2.0700 O.3   1 <1>  -0.0190 
 12 C       -4.1530    -6.6910     0.9090 C.2   1 <1>  -0.2330 
 13 N       -4.1320    -5.7380     2.9060 N.2   1 <1>  -0.4100 
 14 C       -4.5970    -6.7340     2.2370 C.2   1 <1>   0.3720 
 15 C       -4.4960    -7.5970    -0.1380 C.2   1 <1>   1.0330 
 16 N       -5.4420    -7.6870     2.8310 N.pl3 1 <1>  -0.8210 
 17 O       -5.3990    -7.3360    -0.9500 O.co2 1 <1>  -0.9000 
 18 O       -3.9920    -8.7320    -0.2230 O.co2 1 <1>  -0.9000 
 19 C       -5.2940    -9.1280     2.5160 C.3   1 <1>   0.2090 
 20 C       -6.4170    -7.2670     3.8650 C.3   1 <1>   0.2090 
 21 C       -6.3840    -9.5170     1.5090 C.3   1 <1>   0.2000 
 22 C       -7.6140    -8.2250     3.9960 C.3   1 <1>  -0.1600 
 23 O       -7.6170    -9.7790     2.1330 O.3   1 <1>  -0.5600 
 24 C       -5.9580   -10.7340     0.6790 C.3   1 <1>   0.3430 
 25 C       -8.2560    -8.6500     2.6650 C.3   1 <1>   0.1200 
 26 N       -6.8930   -10.9780    -0.4620 N.4   1 <1>  -0.9590 
 27 C       -6.6870   -12.3350    -1.0230 C.3   1 <1>   0.3430 
 28 C       -6.6940    -9.9040    -1.4910 C.3   1 <1>   0.3430 
 29 C       -7.6660   -12.5830    -2.1710 C.3   1 <1>  -0.1600 
 30 C       -7.6430   -10.1180    -2.6720 C.3   1 <1>  -0.1600 
 31 C       -7.5160   -11.5240    -3.2700 C.3   1 <1>  -0.1600 
 32 H       -2.5540    -4.4900    -3.5480 H     1 <1>   0.1500 
 33 H       -1.1460    -4.1300     1.1460 H     1 <1>   0.1500 
 34 H       -3.8770    -5.5710    -1.7950 H     1 <1>   0.1500 
 35 H        2.0950    -1.8380    -0.6410 H     1 <1>   0.0800 
 36 H        0.8050    -1.4820    -1.7830 H     1 <1>   0.0800 
 37 H        1.7320    -2.9870    -1.9240 H     1 <1>   0.0800 
 38 H       -5.3650    -9.7250     3.4070 H     1 <1>   0.0800 
 39 H       -4.3170    -9.2880     2.0960 H     1 <1>   0.0800 
 40 H       -6.7790    -6.2860     3.6050 H     1 <1>   0.0800 
 41 H       -5.9090    -7.1870     4.8110 H     1 <1>   0.0800 
 42 H       -6.5320    -8.6890     0.8440 H     1 <1>   0.0800 
 43 H       -8.3600    -7.7090     4.5730 H     1 <1>   0.0800 
 44 H       -7.3370    -9.0960     4.5620 H     1 <1>   0.0800 
 45 H       -5.9320   -11.5900     1.3300 H     1 <1>   0.0800 
 46 H       -4.9640   -10.5810     0.2960 H     1 <1>   0.0800 
 47 H       -8.2390    -7.8480     1.9450 H     1 <1>   0.0800 
 48 H       -9.2800    -8.9300     2.8400 H     1 <1>   0.0800 
 49 H       -7.8440   -10.8810    -0.0810 H     1 <1>   0.4500 
 50 H       -6.8350   -13.0760    -0.2540 H     1 <1>   0.0800 
 51 H       -5.6770   -12.4200    -1.3900 H     1 <1>   0.0800 
 52 H       -5.6690    -9.9000    -1.8290 H     1 <1>   0.0800 
 53 H       -6.8950    -8.9370    -1.0630 H     1 <1>   0.0800 
 54 H       -8.6720   -12.5800    -1.7900 H     1 <1>   0.0800 
 55 H       -7.4790   -13.5570    -2.5880 H     1 <1>   0.0800 
 56 H       -7.4200    -9.3820    -3.4250 H     1 <1>   0.0800 
 57 H       -8.6530    -9.9450    -2.3430 H     1 <1>   0.0800 
 58 H       -8.2680   -11.6680    -4.0280 H     1 <1>   0.0800 
 59 H       -6.5510   -11.6240    -3.7380 H     1 <1>   0.0800 
@<TRIPOS>BOND
  1   1   2  1   
  2   2   3  ar  
  3   2   4  ar  
  4   3   5  1   
  5   3   6  ar  
  6   4   7  ar  
  7   4  32  1   
  8   5   8  1   
  9   6   9  ar  
 10   6  33  1   
 11   7   9  ar  
 12   7  34  1   
 13   8  35  1   
 14   8  36  1   
 15   8  37  1   
 16   9  10  1   
 17  10  11  1   
 18  10  12  2   
 19  11  13  1   
 20  12  14  1   
 21  12  15  1   
 22  13  14  2   
 23  14  16  1   
 24  15  17  ar  
 25  15  18  ar  
 26  16  19  1   
 27  16  20  1   
 28  19  21  1   
 29  19  38  1   
 30  19  39  1   
 31  20  22  1   
 32  20  40  1   
 33  20  41  1   
 34  21  23  1   
 35  21  24  1   
 36  21  42  1   
 37  22  25  1   
 38  22  43  1   
 39  22  44  1   
 40  23  25  1   
 41  24  26  1   
 42  24  45  1   
 43  24  46  1   
 44  25  47  1   
 45  25  48  1   
 46  26  27  1   
 47  26  28  1   
 48  26  49  1   
 49  27  29  1   
 50  27  50  1   
 51  27  51  1   
 52  28  30  1   
 53  28  52  1   
 54  28  53  1   
 55  29  31  1   
 56  29  54  1   
 57  29  55  1   
 58  30  31  1   
 59  30  56  1   
 60  30  57  1   
 61  31  58  1   
 62  31  59  1   
@<TRIPOS>SUBSTRUCTURE
  1 ****  15 GROUP 4 **** **** 0

# MOE 2024.06 (io_trps.svl 2023.06)
