@<TRIPOS>MOLECULE
NONAME
51 54 1 0 0 
SMALL
USER_CHARGES


@<TRIPOS>ATOM
  1 O        1.2670     0.8760     2.6770 O.2   1 <1>  -0.5700 
  2 C        1.5640     0.5850     1.5310 C.2   1 <1>   0.5440 
  3 N        0.6900     0.9400     0.5260 N.am  1 <1>  -0.6600 
  4 C        2.8190    -0.0800     1.2770 C.ar  1 <1>   0.0860 
  5 C       -0.6170     1.5760     0.7980 C.3   1 <1>   0.1400 
  6 C        1.0270     1.0140    -0.9140 C.3   1 <1>   0.1400 
  7 C        2.8950    -1.2980     0.5720 C.ar  1 <1>   0.4100 
  8 C        4.0030     0.4620     1.7560 C.ar  1 <1>  -0.1500 
  9 C       -1.1910     1.8940    -0.5790 C.3   1 <1>  -0.1600 
 10 C        0.0290     2.0130    -1.4880 C.3   1 <1>  -0.1600 
 11 N        4.0330    -1.9440     0.3260 N.ar  1 <1>  -0.6200 
 12 N        1.7700    -1.9060     0.0800 N.pl3 1 <1>  -0.8690 
 13 C        5.1780    -0.2070     1.5030 C.ar  1 <1>  -0.1500 
 14 C        5.1360    -1.3920     0.7900 C.ar  1 <1>   0.1600 
 15 C        1.6440    -3.3800    -0.1330 C.3   1 <1>   0.3530 
 16 C        0.1870    -3.8710    -0.1200 C.ar  1 <1>   0.4770 
 17 N       -0.0040    -5.1220    -0.5060 N.ar  1 <1>  -0.6200 
 18 N       -0.7450    -3.0090     0.2740 N.ar  1 <1>  -0.6200 
 19 C       -1.2470    -5.5490    -0.4930 C.ar  1 <1>   0.1670 
 20 C       -1.9810    -3.4490     0.2800 C.ar  1 <1>   0.1670 
 21 C       -2.2960    -4.7420    -0.0940 C.ar  1 <1>  -0.1430 
 22 C       -1.4520    -6.9930    -0.9290 C.3   1 <1>  -0.0170 
 23 C       -3.0240    -2.4410     0.7270 C.3   1 <1>  -0.0970 
 24 C       -3.7370    -5.2550    -0.0780 C.3   1 <1>  -0.0170 
 25 C       -2.9160    -7.3330    -1.2340 C.3   1 <1>  -0.1600 
 26 C       -3.8280    -6.7840    -0.1350 C.3   1 <1>  -0.1600 
 27 H       -0.4570     2.4790     1.3630 H     1 <1>   0.0800 
 28 H       -1.2530     0.9100     1.3550 H     1 <1>   0.0800 
 29 H        0.8770     0.0490    -1.3670 H     1 <1>   0.0800 
 30 H        2.0440     1.3330    -1.0650 H     1 <1>   0.0800 
 31 H        3.9880     1.3820     2.3150 H     1 <1>   0.1500 
 32 H       -1.7840     2.7910    -0.5660 H     1 <1>   0.0800 
 33 H       -1.8050     1.0700    -0.8980 H     1 <1>   0.0800 
 34 H       -0.2010     1.8010    -2.5160 H     1 <1>   0.0800 
 35 H        0.4450     3.0030    -1.4160 H     1 <1>   0.0800 
 36 H        0.8570    -1.5100     0.3510 H     1 <1>   0.4000 
 37 H        6.1180     0.1790     1.8550 H     1 <1>   0.1500 
 38 H        6.0590    -1.9100     0.5950 H     1 <1>   0.1500 
 39 H        2.1840    -3.8980     0.6400 H     1 <1>   0.0800 
 40 H        2.0870    -3.6330    -1.0780 H     1 <1>   0.0800 
 41 H       -1.0950    -7.6290    -0.1390 H     1 <1>   0.0800 
 42 H       -0.8540    -7.1890    -1.8010 H     1 <1>   0.0800 
 43 H       -2.6460    -1.4410     0.6080 H     1 <1>   0.0800 
 44 H       -3.2540    -2.5980     1.7640 H     1 <1>   0.0800 
 45 H       -3.9200    -2.5290     0.1420 H     1 <1>   0.0800 
 46 H       -4.2520    -4.8430    -0.9290 H     1 <1>   0.0800 
 47 H       -4.2400    -4.9180     0.8110 H     1 <1>   0.0800 
 48 H       -3.0290    -8.4010    -1.3110 H     1 <1>   0.0800 
 49 H       -3.1930    -6.8990    -2.1800 H     1 <1>   0.0800 
 50 H       -4.8460    -7.0780    -0.3210 H     1 <1>   0.0800 
 51 H       -3.5310    -7.1960     0.8150 H     1 <1>   0.0800 
@<TRIPOS>BOND
  1   1   2  2   
  2   2   3  am  
  3   2   4  1   
  4   3   5  1   
  5   3   6  1   
  6   4   7  ar  
  7   4   8  ar  
  8   5   9  1   
  9   5  27  1   
 10   5  28  1   
 11   6  10  1   
 12   6  29  1   
 13   6  30  1   
 14   7  11  ar  
 15   7  12  1   
 16   8  13  ar  
 17   8  31  1   
 18   9  10  1   
 19   9  32  1   
 20   9  33  1   
 21  10  34  1   
 22  10  35  1   
 23  11  14  ar  
 24  12  15  1   
 25  12  36  1   
 26  13  14  ar  
 27  13  37  1   
 28  14  38  1   
 29  15  16  1   
 30  15  39  1   
 31  15  40  1   
 32  16  17  ar  
 33  16  18  ar  
 34  17  19  ar  
 35  18  20  ar  
 36  19  21  ar  
 37  19  22  1   
 38  20  21  ar  
 39  20  23  1   
 40  21  24  1   
 41  22  25  1   
 42  22  41  1   
 43  22  42  1   
 44  23  43  1   
 45  23  44  1   
 46  23  45  1   
 47  24  26  1   
 48  24  46  1   
 49  24  47  1   
 50  25  26  1   
 51  25  48  1   
 52  25  49  1   
 53  26  50  1   
 54  26  51  1   
@<TRIPOS>SUBSTRUCTURE
  1 ****  18 GROUP 4 **** **** 0

# MOE 2024.06 (io_trps.svl 2023.06)
