@<TRIPOS>MOLECULE
NONAME
54 55 1 0 0 
SMALL
USER_CHARGES


@<TRIPOS>ATOM
  1 O        0.4750     0.3580     0.2570 O.2   1 <1>  -0.5700 
  2 C        1.1140    -0.1740     1.1320 C.2   1 <1>   0.5690 
  3 N        1.8330     0.5550     2.0150 N.am  1 <1>  -0.7300 
  4 C        1.1610    -1.6970     1.2480 C.3   1 <1>  -0.0190 
  5 C        2.0400     2.0030     1.9250 C.3   1 <1>   0.4000 
  6 C        2.4790    -2.2450     0.6700 C.3   1 <1>  -0.1600 
  7 C       -0.0380    -2.3890     0.5690 C.3   1 <1>  -0.1600 
  8 C        3.4840     2.2370     1.4920 C.2   1 <1>   0.0060 
  9 C        1.7250     2.6110     3.2900 C.3   1 <1>  -0.2400 
 10 C        2.5440    -3.7710     0.7600 C.3   1 <1>   0.1400 
 11 C        0.0590    -3.9140     0.6540 C.3   1 <1>   0.1400 
 12 N        4.4960     2.3000     2.2930 N.2   1 <1>  -0.3380 
 13 N        3.8670     2.3720     0.2150 N.pl3 1 <1>   0.0480 
 14 N        1.3590    -4.3600     0.0770 N.am  1 <1>  -0.6600 
 15 N        5.5820     2.4860     1.5440 N.2   1 <1>  -0.3380 
 16 C        5.1880     2.5230     0.3200 C.2   1 <1>   0.0360 
 17 C        3.0780     2.3750    -1.0340 C.3   1 <1>   0.0960 
 18 C        1.5180    -5.1710    -1.0270 C.2   1 <1>   0.5690 
 19 C        2.5840     3.7880    -1.3310 C.3   1 <1>   0.1200 
 20 O        2.6180    -5.3900    -1.4830 O.2   1 <1>  -0.5700 
 21 C        0.3100    -5.8210    -1.7300 C.3   1 <1>  -0.0190 
 22 O        2.0060     3.7810    -2.5940 O.3   1 <1>  -0.5600 
 23 C        0.6700    -7.1270    -2.4620 C.3   1 <1>  -0.2400 
 24 C       -0.3430    -4.8470    -2.7260 C.3   1 <1>  -0.2400 
 25 C        1.4570     5.0010    -2.9760 C.3   1 <1>   0.0400 
 26 H        2.4690     0.1010     2.6710 H     1 <1>   0.3700 
 27 H        1.1270    -1.9390     2.2960 H     1 <1>   0.0800 
 28 H        1.3690     2.4290     1.1990 H     1 <1>   0.0800 
 29 H        3.3170    -1.8270     1.2000 H     1 <1>   0.0800 
 30 H        2.5710    -1.9570    -0.3640 H     1 <1>   0.0800 
 31 H       -0.0820    -2.1040    -0.4690 H     1 <1>   0.0800 
 32 H       -0.9520    -2.0620     1.0330 H     1 <1>   0.0800 
 33 H        2.3570     2.1890     4.0500 H     1 <1>   0.0800 
 34 H        0.6940     2.4390     3.5420 H     1 <1>   0.0800 
 35 H        1.8980     3.6710     3.2580 H     1 <1>   0.0800 
 36 H        2.5450    -4.0820     1.7910 H     1 <1>   0.0800 
 37 H        3.4610    -4.1170     0.3130 H     1 <1>   0.0800 
 38 H       -0.7770    -4.3440     0.1360 H     1 <1>   0.0800 
 39 H        0.0080    -4.2280     1.6820 H     1 <1>   0.0800 
 40 H        5.8350     2.6590    -0.5270 H     1 <1>   0.1500 
 41 H        2.2450     1.7040    -0.9370 H     1 <1>   0.0800 
 42 H        3.7050     2.0360    -1.8380 H     1 <1>   0.0800 
 43 H        3.4050     4.4860    -1.3400 H     1 <1>   0.0800 
 44 H        1.8410     4.0900    -0.6120 H     1 <1>   0.0800 
 45 H       -0.4110    -6.0890    -0.9810 H     1 <1>   0.0800 
 46 H        1.3690    -6.9320    -3.2570 H     1 <1>   0.0800 
 47 H       -0.2090    -7.5840    -2.8790 H     1 <1>   0.0800 
 48 H        1.1260    -7.8190    -1.7760 H     1 <1>   0.0800 
 49 H        0.3580    -4.5900    -3.5010 H     1 <1>   0.0800 
 50 H       -0.6430    -3.9420    -2.2300 H     1 <1>   0.0800 
 51 H       -1.2110    -5.2940    -3.1780 H     1 <1>   0.0800 
 52 H        1.0460     4.8880    -3.9640 H     1 <1>   0.0800 
 53 H        2.2280     5.7520    -2.9880 H     1 <1>   0.0800 
 54 H        0.6740     5.2710    -2.2880 H     1 <1>   0.0800 
@<TRIPOS>BOND
  1   1   2  2   
  2   2   3  am  
  3   2   4  1   
  4   3   5  1   
  5   3  26  1   
  6   4   6  1   
  7   4   7  1   
  8   4  27  1   
  9   5   8  1   
 10   5   9  1   
 11   5  28  1   
 12   6  10  1   
 13   6  29  1   
 14   6  30  1   
 15   7  11  1   
 16   7  31  1   
 17   7  32  1   
 18   8  12  2   
 19   8  13  1   
 20   9  33  1   
 21   9  34  1   
 22   9  35  1   
 23  10  14  1   
 24  10  36  1   
 25  10  37  1   
 26  11  14  1   
 27  11  38  1   
 28  11  39  1   
 29  12  15  1   
 30  13  16  1   
 31  13  17  1   
 32  14  18  am  
 33  15  16  2   
 34  16  40  1   
 35  17  19  1   
 36  17  41  1   
 37  17  42  1   
 38  18  20  2   
 39  18  21  1   
 40  19  22  1   
 41  19  43  1   
 42  19  44  1   
 43  21  23  1   
 44  21  24  1   
 45  21  45  1   
 46  22  25  1   
 47  23  46  1   
 48  23  47  1   
 49  23  48  1   
 50  24  49  1   
 51  24  50  1   
 52  24  51  1   
 53  25  52  1   
 54  25  53  1   
 55  25  54  1   
@<TRIPOS>SUBSTRUCTURE
  1 ****   2 GROUP 4 **** **** 0

# MOE 2024.06 (io_trps.svl 2023.06)
