@<TRIPOS>MOLECULE
Untitled Document
44 45 1 0 0 
SMALL
USER_CHARGES


@<TRIPOS>ATOM
  1 O        0.0340    -0.4260    -0.4540 O.3   1 <1>  -0.5600 
  2 C       -1.0190    -1.2060    -0.8880 C.3   1 <1>   0.2000 
  3 C        1.3060    -0.7840    -0.9120 C.3   1 <1>   0.2640 
  4 C       -2.2370    -0.2840    -0.9160 C.3   1 <1>  -0.1600 
  5 C       -1.2020    -2.3510     0.1140 C.3   1 <1>  -0.1600 
  6 C        2.3410     0.0820    -0.2130 C.ar  1 <1>  -0.1440 
  7 C       -3.5340    -1.0650    -1.0880 C.3   1 <1>   0.3430 
  8 C       -2.5360    -3.0640    -0.0810 C.3   1 <1>   0.3430 
  9 C        2.2440     1.4650    -0.2610 C.ar  1 <1>  -0.1500 
 10 C        3.3990    -0.4980     0.4720 C.ar  1 <1>  -0.1500 
 11 N       -3.6570    -2.0730     0.0150 N.4   1 <1>  -0.9590 
 12 C        3.1890     2.2580     0.3660 C.ar  1 <1>  -0.1500 
 13 C        4.3460     0.2930     1.0990 C.ar  1 <1>  -0.1500 
 14 C       -4.9880    -2.7840     0.0490 C.3   1 <1>   0.3430 
 15 C        4.2420     1.6720     1.0460 C.ar  1 <1>  -0.1500 
 16 C       -6.2010    -1.8730     0.4070 C.3   1 <1>   0.3430 
 17 N       -7.5150    -2.6060     0.5030 N.4   1 <1>  -0.9060 
 18 C       -8.6480    -1.6870     0.8560 C.3   1 <1>   0.2630 
 19 H       -0.8110    -1.5780    -1.8800 H     1 <1>   0.0800 
 20 H        1.3480    -0.6210    -1.9750 H     1 <1>   0.0800 
 21 H        1.4800    -1.8230    -0.6950 H     1 <1>   0.0800 
 22 H       -2.1300     0.4070    -1.7330 H     1 <1>   0.0800 
 23 H       -2.2820     0.2880    -0.0050 H     1 <1>   0.0800 
 24 H       -1.1460    -1.9670     1.1180 H     1 <1>   0.0800 
 25 H       -0.4080    -3.0660    -0.0100 H     1 <1>   0.0800 
 26 H       -3.5310    -1.5610    -2.0460 H     1 <1>   0.0800 
 27 H       -4.3600    -0.3730    -1.0640 H     1 <1>   0.0800 
 28 H       -2.6410    -3.8220     0.6800 H     1 <1>   0.0800 
 29 H       -2.5500    -3.5470    -1.0450 H     1 <1>   0.0800 
 30 H        1.4250     1.9270    -0.7850 H     1 <1>   0.1500 
 31 H        3.4940    -1.5680     0.5240 H     1 <1>   0.1500 
 32 H       -3.4890    -1.5680     0.9020 H     1 <1>   0.4500 
 33 H        3.1050     3.3290     0.3240 H     1 <1>   0.1500 
 34 H        5.1640    -0.1630     1.6290 H     1 <1>   0.1500 
 35 H       -4.9330    -3.5720     0.7840 H     1 <1>   0.0800 
 36 H       -5.1630    -3.2390    -0.9120 H     1 <1>   0.0800 
 37 H        4.9770     2.2870     1.5340 H     1 <1>   0.1500 
 38 H       -6.2880    -1.1030    -0.3420 H     1 <1>   0.0800 
 39 H       -6.0030    -1.3960     1.3540 H     1 <1>   0.0800 
 40 H       -7.4840    -3.3480     1.2210 H     1 <1>   0.4500 
 41 H       -7.7570    -3.0730    -0.3850 H     1 <1>   0.4500 
 42 H       -8.4710    -1.2130     1.8090 H     1 <1>   0.0800 
 43 H       -9.5730    -2.2390     0.9190 H     1 <1>   0.0800 
 44 H       -8.7630    -0.9200     0.1060 H     1 <1>   0.0800 
@<TRIPOS>BOND
  1   1   2  1   
  2   1   3  1   
  3   2   4  1   
  4   2   5  1   
  5   2  19  1   
  6   3   6  1   
  7   3  20  1   
  8   3  21  1   
  9   4   7  1   
 10   4  22  1   
 11   4  23  1   
 12   5   8  1   
 13   5  24  1   
 14   5  25  1   
 15   6   9  ar  
 16   6  10  ar  
 17   7  11  1   
 18   7  26  1   
 19   7  27  1   
 20   8  11  1   
 21   8  28  1   
 22   8  29  1   
 23   9  12  ar  
 24   9  30  1   
 25  10  13  ar  
 26  10  31  1   
 27  11  14  1   
 28  11  32  1   
 29  12  15  ar  
 30  12  33  1   
 31  13  15  ar  
 32  13  34  1   
 33  14  16  1   
 34  14  35  1   
 35  14  36  1   
 36  15  37  1   
 37  16  17  1   
 38  16  38  1   
 39  16  39  1   
 40  17  18  1   
 41  17  40  1   
 42  17  41  1   
 43  18  42  1   
 44  18  43  1   
 45  18  44  1   
@<TRIPOS>SUBSTRUCTURE
  1 ****   2 GROUP 4 **** **** 0

# MOE 2024.06 (io_trps.svl 2023.06)
