@<TRIPOS>MOLECULE
NONAME
46 48 1 0 0 
SMALL
USER_CHARGES


@<TRIPOS>ATOM
  1 O        0.2450    -1.6360     0.4330 O.2   1 <1>  -0.5700 
  2 C       -0.8170    -1.9380    -0.0540 C.2   1 <1>   0.5690 
  3 N       -2.0370    -1.6820     0.4720 N.am  1 <1>  -0.6600 
  4 C       -0.9360    -2.6850    -1.3530 C.3   1 <1>  -0.0990 
  5 C       -3.1180    -2.2340    -0.3700 C.3   1 <1>   0.1400 
  6 C       -2.3080    -0.9690     1.7370 C.3   1 <1>   0.1400 
  7 C       -2.3800    -3.1940    -1.3190 C.3   1 <1>   0.2200 
  8 C       -2.9680     0.3740     1.4380 C.3   1 <1>  -0.2400 
  9 N       -2.3880    -4.5570    -0.7350 N.am  1 <1>  -0.7300 
 10 C       -3.3070    -5.5200    -1.0350 C.2   1 <1>   0.5440 
 11 O       -4.1760    -5.2510    -1.8410 O.2   1 <1>  -0.5700 
 12 C       -3.2630    -6.8180    -0.3850 C.ar  1 <1>   0.0860 
 13 C       -4.4280    -7.5550    -0.1810 C.ar  1 <1>  -0.1500 
 14 C       -2.0640    -7.3800     0.0600 C.ar  1 <1>  -0.1500 
 15 C       -4.4290    -8.7970     0.4410 C.ar  1 <1>   0.0000 
 16 C       -2.0390    -8.6130     0.6850 C.ar  1 <1>  -0.1500 
 17 C       -5.6580    -9.5330     0.6350 C.ar  1 <1>   0.0000 
 18 C       -3.2140    -9.3140     0.8740 C.ar  1 <1>  -0.1500 
 19 C       -6.3060   -10.1940    -0.4120 C.ar  1 <1>  -0.1440 
 20 C       -6.2210    -9.5930     1.9060 C.ar  1 <1>  -0.1500 
 21 C       -7.4840   -10.8840    -0.1740 C.ar  1 <1>  -0.1500 
 22 C       -5.7320   -10.1670    -1.8220 C.3   1 <1>  -0.0970 
 23 C       -7.3950   -10.2840     2.1400 C.ar  1 <1>  -0.1500 
 24 C       -8.0290   -10.9320     1.0960 C.ar  1 <1>  -0.1500 
 25 H       -0.2130    -3.4750    -1.4300 H     1 <1>   0.0800 
 26 H       -0.8020    -1.9860    -2.1570 H     1 <1>   0.0800 
 27 H       -3.5770    -1.4360    -0.9260 H     1 <1>   0.0800 
 28 H       -3.8600    -2.7470     0.2180 H     1 <1>   0.0800 
 29 H       -1.3800    -0.8070     2.2610 H     1 <1>   0.0800 
 30 H       -2.9470    -1.5720     2.3600 H     1 <1>   0.0800 
 31 H       -2.8300    -3.2090    -2.2980 H     1 <1>   0.0800 
 32 H       -2.3300     0.9630     0.8040 H     1 <1>   0.0800 
 33 H       -3.1240     0.9100     2.3560 H     1 <1>   0.0800 
 34 H       -3.9210     0.2320     0.9610 H     1 <1>   0.0800 
 35 H       -1.7960    -4.6750     0.0890 H     1 <1>   0.3700 
 36 H       -5.3660    -7.1480    -0.5180 H     1 <1>   0.1500 
 37 H       -1.1400    -6.8520    -0.0920 H     1 <1>   0.1500 
 38 H       -1.1050    -9.0300     1.0220 H     1 <1>   0.1500 
 39 H       -3.1980   -10.2760     1.3580 H     1 <1>   0.1500 
 40 H       -5.7310    -9.0880     2.7190 H     1 <1>   0.1500 
 41 H       -7.9870   -11.3910    -0.9790 H     1 <1>   0.1500 
 42 H       -4.6960   -10.4560    -1.8050 H     1 <1>   0.0800 
 43 H       -5.8090    -9.1760    -2.2310 H     1 <1>   0.0800 
 44 H       -6.2600   -10.8450    -2.4680 H     1 <1>   0.0800 
 45 H       -7.8150   -10.3180     3.1300 H     1 <1>   0.1500 
 46 H       -8.9440   -11.4700     1.2710 H     1 <1>   0.1500 
@<TRIPOS>BOND
  1   1   2  2   
  2   2   3  am  
  3   2   4  1   
  4   3   5  1   
  5   3   6  1   
  6   4   7  1   
  7   4  25  1   
  8   4  26  1   
  9   5   7  1   
 10   5  27  1   
 11   5  28  1   
 12   6   8  1   
 13   6  29  1   
 14   6  30  1   
 15   7   9  1   
 16   7  31  1   
 17   8  32  1   
 18   8  33  1   
 19   8  34  1   
 20   9  10  am  
 21   9  35  1   
 22  10  11  2   
 23  10  12  1   
 24  12  13  ar  
 25  12  14  ar  
 26  13  15  ar  
 27  13  36  1   
 28  14  16  ar  
 29  14  37  1   
 30  15  17  1   
 31  15  18  ar  
 32  16  18  ar  
 33  16  38  1   
 34  17  19  ar  
 35  17  20  ar  
 36  18  39  1   
 37  19  21  ar  
 38  19  22  1   
 39  20  23  ar  
 40  20  40  1   
 41  21  24  ar  
 42  21  41  1   
 43  22  42  1   
 44  22  43  1   
 45  22  44  1   
 46  23  24  ar  
 47  23  45  1   
 48  24  46  1   
@<TRIPOS>SUBSTRUCTURE
  1 ****  12 GROUP 4 **** **** 0

# MOE 2024.06 (io_trps.svl 2023.06)
