@<TRIPOS>MOLECULE
NONAME
61 65 1 0 0 
SMALL
USER_CHARGES


@<TRIPOS>ATOM
  1 O        1.9810    -0.0570     1.7910 O.3   1 <1>  -0.5600 
  2 C        2.4030    -0.8400     0.6740 C.3   1 <1>   0.4240 
  3 C        0.8480    -0.5000     2.4810 C.3   1 <1>   0.1200 
  4 C        2.1820    -2.3600     0.9040 C.ar  1 <1>  -0.1440 
  5 C        3.9140    -0.5260     0.5110 C.3   1 <1>  -0.1600 
  6 C        1.5980    -0.3030    -0.5280 C.3   1 <1>  -0.1600 
  7 C        1.1760    -1.8250     3.1510 C.3   1 <1>  -0.0160 
  8 C        2.5450    -3.3110    -0.0590 C.ar  1 <1>   0.0820 
  9 C        1.6120    -2.8120     2.0920 C.ar  1 <1>  -0.1440 
 10 C        4.2130     0.5950    -0.4950 C.3   1 <1>   0.2090 
 11 C        1.7990     1.2030    -0.7470 C.3   1 <1>   0.2090 
 12 O        3.0950    -2.8840    -1.2290 O.3   1 <1>  -0.3630 
 13 C        2.3450    -4.6680     0.1860 C.ar  1 <1>  -0.1500 
 14 C        1.4210    -4.1630     2.3270 C.ar  1 <1>  -0.1500 
 15 N        3.1730     1.6350    -0.3370 N.pl3 1 <1>  -0.8380 
 16 C        3.4820    -3.7730    -2.2550 C.3   1 <1>   0.0400 
 17 C        1.7880    -5.0920     1.3750 C.ar  1 <1>  -0.1500 
 18 C        3.4050     2.6380     0.5270 C.ar  1 <1>   0.7710 
 19 N        4.2440     3.6040     0.2020 N.ar  1 <1>  -0.6200 
 20 N        2.8010     2.5670     1.7180 N.ar  1 <1>  -0.1790 
 21 C        4.4530     4.5630     1.0860 C.ar  1 <1>   0.4100 
 22 C        2.9740     3.5300     2.6500 C.ar  1 <1>   0.2110 
 23 N        5.3230     5.5550     0.7530 N.pl3 1 <1>  -0.8380 
 24 C        3.8000     4.5560     2.3370 C.ar  1 <1>  -0.1500 
 25 C        6.1920     6.2850     1.7350 C.3   1 <1>   0.2090 
 26 C        5.6380     5.8950    -0.6710 C.3   1 <1>   0.2090 
 27 C        7.6810     6.0190     1.4450 C.3   1 <1>   0.2000 
 28 C        7.1070     5.5740    -0.9670 C.3   1 <1>  -0.1600 
 29 O        8.4620     6.8140     2.2650 O.3   1 <1>  -0.6800 
 30 C        8.0560     6.3150    -0.0110 C.3   1 <1>  -0.1600 
 31 H        0.0280    -0.6130     1.7930 H     1 <1>   0.0800 
 32 H        0.5890     0.2360     3.2220 H     1 <1>   0.0800 
 33 H        4.4490    -1.3940     0.1780 H     1 <1>   0.0800 
 34 H        4.3340    -0.2800     1.4690 H     1 <1>   0.0800 
 35 H        0.5540    -0.5280    -0.4150 H     1 <1>   0.0800 
 36 H        1.9090    -0.7990    -1.4270 H     1 <1>   0.0800 
 37 H        0.3030    -2.1900     3.6620 H     1 <1>   0.0800 
 38 H        1.9610    -1.6900     3.8740 H     1 <1>   0.0800 
 39 H        4.1840     0.2120    -1.5020 H     1 <1>   0.0800 
 40 H        5.1950     1.0060    -0.3220 H     1 <1>   0.0800 
 41 H        1.0600     1.7500    -0.1870 H     1 <1>   0.0800 
 42 H        1.6530     1.4360    -1.7890 H     1 <1>   0.0800 
 43 H        2.6150    -5.4180    -0.5320 H     1 <1>   0.1500 
 44 H        0.9850    -4.5020     3.2510 H     1 <1>   0.1500 
 45 H        3.8800    -3.1940    -3.0690 H     1 <1>   0.0800 
 46 H        2.6180    -4.3220    -2.5870 H     1 <1>   0.0800 
 47 H        4.2390    -4.4360    -1.8760 H     1 <1>   0.0800 
 48 H        1.6380    -6.1410     1.5610 H     1 <1>   0.1500 
 49 H        2.3050     1.6790     1.8630 H     1 <1>   0.4570 
 50 H        2.4580     3.4490     3.5940 H     1 <1>   0.1500 
 51 H        3.9620     5.3670     3.0200 H     1 <1>   0.1500 
 52 H        5.9900     5.9660     2.7410 H     1 <1>   0.0800 
 53 H        5.9910     7.3390     1.6580 H     1 <1>   0.0800 
 54 H        5.4570     6.9450    -0.8290 H     1 <1>   0.0800 
 55 H        5.0040     5.3520    -1.3510 H     1 <1>   0.0800 
 56 H        7.9040     4.9930     1.6840 H     1 <1>   0.0800 
 57 H        7.3310     5.8490    -1.9820 H     1 <1>   0.0800 
 58 H        7.2500     4.5110    -0.8770 H     1 <1>   0.0800 
 59 H        8.4960     7.7280     1.9230 H     1 <1>   0.4000 
 60 H        9.0680     5.9980    -0.1940 H     1 <1>   0.0800 
 61 H        7.9820     7.3710    -0.2000 H     1 <1>   0.0800 
@<TRIPOS>BOND
  1   1   2  1   
  2   1   3  1   
  3   2   4  1   
  4   2   5  1   
  5   2   6  1   
  6   3   7  1   
  7   3  31  1   
  8   3  32  1   
  9   4   8  ar  
 10   4   9  ar  
 11   5  10  1   
 12   5  33  1   
 13   5  34  1   
 14   6  11  1   
 15   6  35  1   
 16   6  36  1   
 17   7   9  1   
 18   7  37  1   
 19   7  38  1   
 20   8  12  1   
 21   8  13  ar  
 22   9  14  ar  
 23  10  15  1   
 24  10  39  1   
 25  10  40  1   
 26  11  15  1   
 27  11  41  1   
 28  11  42  1   
 29  12  16  1   
 30  13  17  ar  
 31  13  43  1   
 32  14  17  ar  
 33  14  44  1   
 34  15  18  1   
 35  16  45  1   
 36  16  46  1   
 37  16  47  1   
 38  17  48  1   
 39  18  19  ar  
 40  18  20  ar  
 41  19  21  ar  
 42  20  22  ar  
 43  20  49  1   
 44  21  23  1   
 45  21  24  ar  
 46  22  24  ar  
 47  22  50  1   
 48  23  25  1   
 49  23  26  1   
 50  24  51  1   
 51  25  27  1   
 52  25  52  1   
 53  25  53  1   
 54  26  28  1   
 55  26  54  1   
 56  26  55  1   
 57  27  29  1   
 58  27  30  1   
 59  27  56  1   
 60  28  30  1   
 61  28  57  1   
 62  28  58  1   
 63  29  59  1   
 64  30  60  1   
 65  30  61  1   
@<TRIPOS>SUBSTRUCTURE
  1 ****  15 GROUP 4 **** **** 0

# MOE 2024.06 (io_trps.svl 2023.06)
