@<TRIPOS>MOLECULE
NONAME
35 38 1 0 0 
SMALL
USER_CHARGES


@<TRIPOS>ATOM
  1 O       -0.6800    -0.0640    -0.6950 O.2   1 <1>  -0.5700 
  2 C       -1.6440     0.6570    -0.4770 C.2   1 <1>   0.7160 
  3 N       -2.8320     0.0730    -0.1110 N.am  1 <1>  -0.6600 
  4 C       -1.5170     2.0720    -0.6330 C.2   1 <1>  -0.0860 
  5 C       -3.8590     0.7480     0.7350 C.3   1 <1>   0.2350 
  6 C       -2.9590    -1.4050     0.0460 C.3   1 <1>   0.2350 
  7 C       -0.4580     2.8940    -0.3390 C.2   1 <1>  -0.0680 
  8 C       -2.4570     2.9670    -1.1680 C.2   1 <1>   0.1390 
  9 C       -4.9230    -0.3010     0.9990 C.3   1 <1>  -0.2420 
 10 C       -4.3630    -1.6370     0.5750 C.3   1 <1>  -0.2420 
 11 N       -0.8080     4.1410    -0.6830 N.pl3 1 <1>   0.6010 
 12 N        0.8220     2.8960     0.1760 N.pl3 1 <1>  -0.5530 
 13 N       -2.0560     4.2050    -1.2080 N.2   1 <1>  -0.7070 
 14 C       -5.8060     0.1120     2.1810 C.2   1 <1>   0.9470 
 15 C       -5.5540    -1.0570    -0.1440 C.3   1 <1>  -0.2000 
 16 C       -4.4790    -3.0260     1.2060 C.2   1 <1>   0.9470 
 17 C        0.2590     4.9710    -0.3910 C.2   1 <1>  -0.1810 
 18 C        1.2480     4.2140     0.1290 C.2   1 <1>  -0.0500 
 19 C        1.5680     1.7020     0.6290 C.3   1 <1>   0.1290 
 20 O       -7.0360     0.1610     2.0410 O.co2 1 <1>  -0.9000 
 21 O       -5.2610     0.5600     3.1990 O.co2 1 <1>  -0.9000 
 22 O       -5.2560    -3.8550     0.7110 O.co2 1 <1>  -0.9000 
 23 O       -3.6780    -3.3490     2.0930 O.co2 1 <1>  -0.9000 
 24 H       -3.4070     1.0620     1.6620 H     1 <1>   0.0800 
 25 H       -4.2970     1.5930     0.2400 H     1 <1>   0.0800 
 26 H       -2.8150    -1.9070    -0.8940 H     1 <1>   0.0800 
 27 H       -2.2310    -1.7550     0.7590 H     1 <1>   0.0800 
 28 H       -3.4250     2.6550    -1.5250 H     1 <1>   0.1500 
 29 H       -5.4420    -0.6980    -1.1490 H     1 <1>   0.1000 
 30 H       -6.5120    -1.5210     0.0250 H     1 <1>   0.1000 
 31 H        0.1950     6.0220    -0.5910 H     1 <1>   0.1500 
 32 H        2.2270     4.5080     0.4710 H     1 <1>   0.1500 
 33 H        2.4900     1.9970     1.0960 H     1 <1>   0.0800 
 34 H        1.7780     1.0710    -0.2170 H     1 <1>   0.0800 
 35 H        0.9690     1.1510     1.3320 H     1 <1>   0.0800 
@<TRIPOS>BOND
  1   1   2  2   
  2   2   3  am  
  3   2   4  1   
  4   3   5  1   
  5   3   6  1   
  6   4   7  2   
  7   4   8  1   
  8   5   9  1   
  9   5  24  1   
 10   5  25  1   
 11   6  10  1   
 12   6  26  1   
 13   6  27  1   
 14   7  11  1   
 15   7  12  1   
 16   8  13  2   
 17   8  28  1   
 18   9  10  1   
 19   9  14  1   
 20   9  15  1   
 21  10  15  1   
 22  10  16  1   
 23  11  13  1   
 24  11  17  1   
 25  12  18  1   
 26  12  19  1   
 27  14  20  ar  
 28  14  21  ar  
 29  15  29  1   
 30  15  30  1   
 31  16  22  ar  
 32  16  23  ar  
 33  17  18  2   
 34  17  31  1   
 35  18  32  1   
 36  19  33  1   
 37  19  34  1   
 38  19  35  1   
@<TRIPOS>SUBSTRUCTURE
  1 ****   3 GROUP 4 **** **** 0

# MOE 2024.06 (io_trps.svl 2023.06)
