@<TRIPOS>MOLECULE
NONAME
40 41 1 0 0 
SMALL
USER_CHARGES


@<TRIPOS>ATOM
  1 CL       1.5230     0.5700    -1.6110 Cl    1 <1>  -0.1770 
  2 C        0.6350     1.7470    -0.6690 C.ar  1 <1>   0.1770 
  3 C        1.2030     2.3810     0.4330 C.ar  1 <1>  -0.1440 
  4 C       -0.6590     2.0210    -1.0730 C.ar  1 <1>  -0.1500 
  5 C        0.4300     3.3120     1.1170 C.ar  1 <1>  -0.1500 
  6 C        2.6240     2.1040     0.9240 C.3   1 <1>   0.3640 
  7 C       -1.4140     2.9470    -0.3770 C.ar  1 <1>  -0.1500 
  8 C       -0.8660     3.5920     0.7170 C.ar  1 <1>  -0.1500 
  9 N        2.7140     0.6770     1.3200 N.am  1 <1>  -0.7300 
 10 C        3.7200     2.5330    -0.0940 C.3   1 <1>   0.2610 
 11 C        3.6880    -0.1570     0.8960 C.2   1 <1>   0.5690 
 12 O        4.9200     1.7790     0.0660 O.3   1 <1>  -0.5600 
 13 C        4.0060     4.0300     0.0660 C.2   1 <1>   0.5690 
 14 O        3.7130    -1.3080     1.2510 O.2   1 <1>  -0.5700 
 15 C        4.7540     0.3830    -0.0580 C.3   1 <1>   0.1810 
 16 O        3.1020     4.8240    -0.0390 O.2   1 <1>  -0.5700 
 17 N        5.2770     4.4320     0.3320 N.am  1 <1>  -0.7300 
 18 C        5.7540     5.8250     0.4660 C.3   1 <1>   0.1400 
 19 C        6.8870     6.1030    -0.5350 C.3   1 <1>  -0.0800 
 20 C        8.1020     5.1870    -0.3120 C.3   1 <1>  -0.2400 
 21 C        7.3250     7.5690    -0.4360 C.3   1 <1>  -0.2400 
 22 H       -1.0690     1.5130    -1.9280 H     1 <1>   0.1500 
 23 H        0.8330     3.8360     1.9680 H     1 <1>   0.1500 
 24 H        2.7870     2.6810     1.8180 H     1 <1>   0.0800 
 25 H       -2.4220     3.1670    -0.6860 H     1 <1>   0.1500 
 26 H       -1.4490     4.3180     1.2580 H     1 <1>   0.1500 
 27 H        1.9730     0.3000     1.9120 H     1 <1>   0.3700 
 28 H        3.3750     2.3790    -1.0980 H     1 <1>   0.0800 
 29 H        4.4790     0.1570    -1.0730 H     1 <1>   0.0800 
 30 H        5.6970    -0.0830     0.1610 H     1 <1>   0.0800 
 31 H        5.9920     3.6990     0.3920 H     1 <1>   0.3700 
 32 H        4.9370     6.5040     0.2850 H     1 <1>   0.0800 
 33 H        6.1040     5.9830     1.4720 H     1 <1>   0.0800 
 34 H        6.5030     5.9380    -1.5290 H     1 <1>   0.0800 
 35 H        8.4790     5.2950     0.6900 H     1 <1>   0.0800 
 36 H        8.8880     5.4390    -1.0020 H     1 <1>   0.0800 
 37 H        7.8400     4.1570    -0.4740 H     1 <1>   0.0800 
 38 H        7.7180     7.7840     0.5430 H     1 <1>   0.0800 
 39 H        6.4900     8.2220    -0.6230 H     1 <1>   0.0800 
 40 H        8.0870     7.7820    -1.1650 H     1 <1>   0.0800 
@<TRIPOS>BOND
  1   1   2  1   
  2   2   3  ar  
  3   2   4  ar  
  4   3   5  ar  
  5   3   6  1   
  6   4   7  ar  
  7   4  22  1   
  8   5   8  ar  
  9   5  23  1   
 10   6   9  1   
 11   6  10  1   
 12   6  24  1   
 13   7   8  ar  
 14   7  25  1   
 15   8  26  1   
 16   9  11  am  
 17   9  27  1   
 18  10  12  1   
 19  10  13  1   
 20  10  28  1   
 21  11  14  2   
 22  11  15  1   
 23  12  15  1   
 24  13  16  2   
 25  13  17  am  
 26  15  29  1   
 27  15  30  1   
 28  17  18  1   
 29  17  31  1   
 30  18  19  1   
 31  18  32  1   
 32  18  33  1   
 33  19  20  1   
 34  19  21  1   
 35  19  34  1   
 36  20  35  1   
 37  20  36  1   
 38  20  37  1   
 39  21  38  1   
 40  21  39  1   
 41  21  40  1   
@<TRIPOS>SUBSTRUCTURE
  1 ****  10 GROUP 4 **** **** 0

# MOE 2024.06 (io_trps.svl 2023.06)
