@<TRIPOS>MOLECULE
NONAME
51 53 1 0 0 
SMALL
USER_CHARGES


@<TRIPOS>ATOM
  1 O        0.9660    -0.4490     1.1460 O.3   1 <1>  -0.6800 
  2 C        1.5050     0.4810     0.2770 C.3   1 <1>   0.2000 
  3 C        2.8280    -0.0680    -0.3230 C.3   1 <1>   0.0000 
  4 C        1.6310     1.8320     1.0040 C.3   1 <1>  -0.1600 
  5 C        3.4220     1.0780    -1.1690 C.3   1 <1>   0.3430 
  6 C        2.4430    -1.2070    -1.2950 C.3   1 <1>   0.1200 
  7 C        3.8120    -0.6390     0.7640 C.3   1 <1>  -0.0170 
  8 C        3.0370     2.4260     0.9450 C.3   1 <1>   0.3430 
  9 N        3.5740     2.3860    -0.4450 N.4   1 <1>  -0.9590 
 10 O        3.5150    -1.5040    -2.1250 O.3   1 <1>  -0.6800 
 11 C        5.2430    -0.0960     0.7910 C.ar  1 <1>  -0.1440 
 12 C        4.9930     2.8410    -0.4720 C.3   1 <1>   0.5230 
 13 C        6.1060    -0.2910    -0.2780 C.ar  1 <1>  -0.1500 
 14 C        5.7120     0.5720     1.9150 C.ar  1 <1>  -0.1500 
 15 C        5.0140     4.3550    -0.3710 C.2   1 <1>   0.0060 
 16 C        7.3940     0.2140    -0.2470 C.ar  1 <1>  -0.1500 
 17 C        7.0010     1.0750     1.9510 C.ar  1 <1>  -0.1500 
 18 N        3.9980     5.1170    -0.6000 N.2   1 <1>  -0.5650 
 19 N        6.0990     5.0670    -0.0370 N.pl3 1 <1>   0.3140 
 20 C        7.8420     0.9020     0.8660 C.ar  1 <1>  -0.1500 
 21 C        4.5260     6.3310    -0.3860 C.2   1 <1>   0.3660 
 22 N        5.7700     6.3480    -0.0450 N.2   1 <1>  -0.7070 
 23 C        7.4680     4.6210     0.3130 C.3   1 <1>   0.0960 
 24 C        8.2390     4.1320    -0.9220 C.3   1 <1>  -0.2400 
 25 H        0.0660    -0.1910     1.4360 H     1 <1>   0.4000 
 26 H        0.7890     0.6050    -0.5200 H     1 <1>   0.0800 
 27 H        0.9530     2.5350     0.5550 H     1 <1>   0.0800 
 28 H        1.3540     1.7360     2.0390 H     1 <1>   0.0800 
 29 H        2.7700     1.2330    -2.0130 H     1 <1>   0.0800 
 30 H        4.3680     0.7600    -1.5730 H     1 <1>   0.0800 
 31 H        1.6180    -0.9230    -1.9260 H     1 <1>   0.0800 
 32 H        2.1670    -2.0980    -0.7540 H     1 <1>   0.0800 
 33 H        3.3900    -0.4950     1.7430 H     1 <1>   0.0800 
 34 H        3.8880    -1.7070     0.6560 H     1 <1>   0.0800 
 35 H        3.6770     1.8570     1.5950 H     1 <1>   0.0800 
 36 H        3.0190     3.4440     1.3030 H     1 <1>   0.0800 
 37 H        3.0920     3.1380    -0.9660 H     1 <1>   0.4500 
 38 H        3.3400    -2.3240    -2.6360 H     1 <1>   0.4000 
 39 H        5.5470     2.4040     0.3380 H     1 <1>   0.0800 
 40 H        5.4570     2.5490    -1.4000 H     1 <1>   0.0800 
 41 H        5.7870    -0.8530    -1.1400 H     1 <1>   0.1500 
 42 H        5.0830     0.6940     2.7810 H     1 <1>   0.1500 
 43 H        8.0550     0.0530    -1.0820 H     1 <1>   0.1500 
 44 H        7.3580     1.5830     2.8320 H     1 <1>   0.1500 
 45 H        8.8500     1.2800     0.8960 H     1 <1>   0.1500 
 46 H        3.9320     7.2250    -0.4970 H     1 <1>   0.1500 
 47 H        7.9880     5.4560     0.7500 H     1 <1>   0.0800 
 48 H        7.4050     3.8440     1.0510 H     1 <1>   0.0800 
 49 H        8.2920     4.9170    -1.6570 H     1 <1>   0.0800 
 50 H        7.7770     3.2650    -1.3560 H     1 <1>   0.0800 
 51 H        9.2430     3.8720    -0.6390 H     1 <1>   0.0800 
@<TRIPOS>BOND
  1   1   2  1   
  2   1  25  1   
  3   2   3  1   
  4   2   4  1   
  5   2  26  1   
  6   3   5  1   
  7   3   6  1   
  8   3   7  1   
  9   4   8  1   
 10   4  27  1   
 11   4  28  1   
 12   5   9  1   
 13   5  29  1   
 14   5  30  1   
 15   6  10  1   
 16   6  31  1   
 17   6  32  1   
 18   7  11  1   
 19   7  33  1   
 20   7  34  1   
 21   8   9  1   
 22   8  35  1   
 23   8  36  1   
 24   9  12  1   
 25   9  37  1   
 26  10  38  1   
 27  11  13  ar  
 28  11  14  ar  
 29  12  15  1   
 30  12  39  1   
 31  12  40  1   
 32  13  16  ar  
 33  13  41  1   
 34  14  17  ar  
 35  14  42  1   
 36  15  18  2   
 37  15  19  1   
 38  16  20  ar  
 39  16  43  1   
 40  17  20  ar  
 41  17  44  1   
 42  18  21  1   
 43  19  22  1   
 44  19  23  1   
 45  20  45  1   
 46  21  22  2   
 47  21  46  1   
 48  23  24  1   
 49  23  47  1   
 50  23  48  1   
 51  24  49  1   
 52  24  50  1   
 53  24  51  1   
@<TRIPOS>SUBSTRUCTURE
  1 ****  12 GROUP 4 **** **** 0

# MOE 2024.06 (io_trps.svl 2023.06)
