@<TRIPOS>MOLECULE
NONAME
35 36 1 0 0 
SMALL
USER_CHARGES


@<TRIPOS>ATOM
  1 S        0.2520     0.2160    -1.6520 S.3   1 <1>  -0.0800 
  2 C        1.4950    -0.3830    -0.5480 C.2   1 <1>  -0.0450 
  3 C       -0.4360    -1.3760    -1.8710 C.2   1 <1>  -0.1100 
  4 C        2.4480     0.5410     0.0000 C.2   1 <1>   0.5940 
  5 C        1.3250    -1.7240    -0.4020 C.2   1 <1>  -0.1500 
  6 C        0.2390    -2.2840    -1.1390 C.2   1 <1>  -0.1810 
  7 O        2.4400     1.7270    -0.2060 O.2   1 <1>  -0.5700 
  8 C        3.5360    -0.0020     0.9020 C.3   1 <1>  -0.1790 
  9 C       -0.0530    -3.7660    -1.0490 C.3   1 <1>   0.5240 
 10 N       -0.6820    -4.0120     0.2720 N.4   1 <1>  -0.9590 
 11 C       -0.4220    -5.4330     0.7380 C.3   1 <1>   0.3170 
 12 C       -2.1060    -3.5850     0.3480 C.3   1 <1>   0.3430 
 13 C        1.0890    -5.7320     0.9160 C.2   1 <1>   0.9060 
 14 C       -1.1700    -6.4210    -0.1840 C.3   1 <1>  -0.1600 
 15 C       -3.0680    -4.7820     0.2530 C.3   1 <1>  -0.1600 
 16 O        1.8300    -4.7420     1.0290 O.co2 1 <1>  -0.9000 
 17 O        1.5090    -6.8890     0.8840 O.co2 1 <1>  -0.9000 
 18 C       -2.5470    -5.9090    -0.6550 C.3   1 <1>  -0.1600 
 19 H       -1.2810    -1.4550    -2.5330 H     1 <1>   0.1500 
 20 H        1.9560    -2.3520     0.2100 H     1 <1>   0.1500 
 21 H        4.0960    -0.7580     0.3840 H     1 <1>   0.0800 
 22 H        3.0980    -0.4260     1.7860 H     1 <1>   0.0800 
 23 H        4.2040     0.7900     1.1890 H     1 <1>   0.0800 
 24 H        0.8760    -4.3090    -1.1320 H     1 <1>   0.0800 
 25 H       -0.7100    -4.0790    -1.8420 H     1 <1>   0.0800 
 26 H       -0.0830    -3.4520     0.9010 H     1 <1>   0.4500 
 27 H       -0.8440    -5.5350     1.7210 H     1 <1>   0.0800 
 28 H       -2.3110    -2.8930    -0.4530 H     1 <1>   0.0800 
 29 H       -2.2800    -3.0700     1.2780 H     1 <1>   0.0800 
 30 H       -1.2940    -7.3380     0.3670 H     1 <1>   0.0800 
 31 H       -0.5550    -6.6630    -1.0340 H     1 <1>   0.0800 
 32 H       -4.0220    -4.4360    -0.1040 H     1 <1>   0.0800 
 33 H       -3.2290    -5.1740     1.2430 H     1 <1>   0.0800 
 34 H       -3.2490    -6.7260    -0.6710 H     1 <1>   0.0800 
 35 H       -2.4640    -5.5380    -1.6620 H     1 <1>   0.0800 
@<TRIPOS>BOND
  1   1   2  1   
  2   1   3  1   
  3   2   4  1   
  4   2   5  2   
  5   3   6  2   
  6   3  19  1   
  7   4   7  2   
  8   4   8  1   
  9   5   6  1   
 10   5  20  1   
 11   6   9  1   
 12   8  21  1   
 13   8  22  1   
 14   8  23  1   
 15   9  10  1   
 16   9  24  1   
 17   9  25  1   
 18  10  11  1   
 19  10  12  1   
 20  10  26  1   
 21  11  13  1   
 22  11  14  1   
 23  11  27  1   
 24  12  15  1   
 25  12  28  1   
 26  12  29  1   
 27  13  16  ar  
 28  13  17  ar  
 29  14  18  1   
 30  14  30  1   
 31  14  31  1   
 32  15  18  1   
 33  15  32  1   
 34  15  33  1   
 35  18  34  1   
 36  18  35  1   
@<TRIPOS>SUBSTRUCTURE
  1 ****   9 GROUP 4 **** **** 0

# MOE 2024.06 (io_trps.svl 2023.06)
