@<TRIPOS>MOLECULE
NONAME
59 61 1 0 0 
SMALL
USER_CHARGES


@<TRIPOS>ATOM
  1 S        0.9510     0.8800     1.7620 S.3   1 <1>  -0.4600 
  2 C        0.4060     2.4050     0.9660 C.3   1 <1>   0.0700 
  3 C       -0.5880     0.1170     2.3500 C.3   1 <1>  -0.0100 
  4 C        1.6720     3.0650     0.4080 C.3   1 <1>   0.3430 
  5 N        1.3990     4.3730    -0.2880 N.4   1 <1>  -0.9590 
  6 C        2.6130     4.7700    -1.0610 C.3   1 <1>   0.3430 
  7 C        0.9610     5.4200     0.6870 C.3   1 <1>   0.3430 
  8 C        2.3630     6.0870    -1.8000 C.3   1 <1>  -0.1600 
  9 C        0.7020     6.7420    -0.0400 C.3   1 <1>  -0.1600 
 10 C        1.9400     7.1830    -0.8220 C.3   1 <1>   0.4230 
 11 N        1.6440     8.4340    -1.5670 N.4   1 <1>  -0.9060 
 12 C        2.4820     9.6170    -1.2120 C.3   1 <1>   0.4230 
 13 C        3.9570     9.3510    -1.5530 C.3   1 <1>  -0.1600 
 14 C        2.2510    10.0160     0.2540 C.3   1 <1>  -0.1600 
 15 C        4.8210    10.5330    -1.1230 C.3   1 <1>   0.2090 
 16 C        3.1600    11.1800     0.6340 C.3   1 <1>   0.2090 
 17 N        4.5360    10.7650     0.3040 N.pl3 1 <1>  -0.8380 
 18 C        5.5830    11.1940     1.1200 C.ar  1 <1>   0.1000 
 19 C        5.9730    12.5370     1.2330 C.ar  1 <1>  -0.1440 
 20 C        6.2640    10.2210     1.8490 C.ar  1 <1>  -0.1500 
 21 C        7.0230    12.8750     2.0730 C.ar  1 <1>  -0.1500 
 22 C        5.2850    13.6570     0.4640 C.3   1 <1>  -0.0960 
 23 C        7.3130    10.5540     2.6840 C.ar  1 <1>  -0.1500 
 24 C        7.6720    11.8820     2.7810 C.ar  1 <1>   0.1900 
 25 F        8.6640    12.2130     3.5690 F     1 <1>  -0.1900 
 26 H       -0.0730     2.9960     1.7250 H     1 <1>   0.0800 
 27 H       -0.2840     2.1260     0.1900 H     1 <1>   0.0800 
 28 H       -0.3290    -0.8050     2.8410 H     1 <1>   0.0800 
 29 H       -1.2190    -0.0720     1.5000 H     1 <1>   0.0800 
 30 H       -1.0590     0.7930     3.0410 H     1 <1>   0.0800 
 31 H        2.1230     2.3740    -0.2860 H     1 <1>   0.0800 
 32 H        2.3690     3.2170     1.2170 H     1 <1>   0.0800 
 33 H        0.6340     4.1920    -0.9570 H     1 <1>   0.4500 
 34 H        2.8630     3.9980    -1.7740 H     1 <1>   0.0800 
 35 H        3.4510     4.8840    -0.3890 H     1 <1>   0.0800 
 36 H        1.7260     5.5600     1.4360 H     1 <1>   0.0800 
 37 H        0.0590     5.1050     1.1890 H     1 <1>   0.0800 
 38 H        1.6080     5.9270    -2.5500 H     1 <1>   0.0800 
 39 H        3.2750     6.3720    -2.2940 H     1 <1>   0.0800 
 40 H        0.4540     7.4860     0.6970 H     1 <1>   0.0800 
 41 H       -0.1430     6.6190    -0.6950 H     1 <1>   0.0800 
 42 H        2.7470     7.3580    -0.1260 H     1 <1>   0.0800 
 43 H        0.6610     8.6980    -1.4280 H     1 <1>   0.4500 
 44 H        1.7500     8.2710    -2.5760 H     1 <1>   0.4500 
 45 H        2.1660    10.4530    -1.8170 H     1 <1>   0.0800 
 46 H        4.0780     9.2100    -2.6120 H     1 <1>   0.0800 
 47 H        4.3320     8.4860    -1.0400 H     1 <1>   0.0800 
 48 H        2.4790     9.2090     0.9260 H     1 <1>   0.0800 
 49 H        1.2300    10.3190     0.4050 H     1 <1>   0.0800 
 50 H        4.5840    11.4150    -1.6940 H     1 <1>   0.0800 
 51 H        5.8680    10.3090    -1.2560 H     1 <1>   0.0800 
 52 H        3.0850    11.3960     1.6880 H     1 <1>   0.0800 
 53 H        2.9020    12.0680     0.0810 H     1 <1>   0.0800 
 54 H        5.9610     9.1960     1.7550 H     1 <1>   0.1500 
 55 H        7.3470    13.8930     2.1870 H     1 <1>   0.1500 
 56 H        5.1590    13.3840    -0.5660 H     1 <1>   0.0800 
 57 H        5.8700    14.5590     0.4970 H     1 <1>   0.0800 
 58 H        4.3240    13.8630     0.8980 H     1 <1>   0.0800 
 59 H        7.8420     9.8090     3.2500 H     1 <1>   0.1500 
@<TRIPOS>BOND
  1   1   2  1   
  2   1   3  1   
  3   2   4  1   
  4   2  26  1   
  5   2  27  1   
  6   3  28  1   
  7   3  29  1   
  8   3  30  1   
  9   4   5  1   
 10   4  31  1   
 11   4  32  1   
 12   5   6  1   
 13   5   7  1   
 14   5  33  1   
 15   6   8  1   
 16   6  34  1   
 17   6  35  1   
 18   7   9  1   
 19   7  36  1   
 20   7  37  1   
 21   8  10  1   
 22   8  38  1   
 23   8  39  1   
 24   9  10  1   
 25   9  40  1   
 26   9  41  1   
 27  10  11  1   
 28  10  42  1   
 29  11  12  1   
 30  11  43  1   
 31  11  44  1   
 32  12  13  1   
 33  12  14  1   
 34  12  45  1   
 35  13  15  1   
 36  13  46  1   
 37  13  47  1   
 38  14  16  1   
 39  14  48  1   
 40  14  49  1   
 41  15  17  1   
 42  15  50  1   
 43  15  51  1   
 44  16  17  1   
 45  16  52  1   
 46  16  53  1   
 47  17  18  1   
 48  18  19  ar  
 49  18  20  ar  
 50  19  21  ar  
 51  19  22  1   
 52  20  23  ar  
 53  20  54  1   
 54  21  24  ar  
 55  21  55  1   
 56  22  56  1   
 57  22  57  1   
 58  22  58  1   
 59  23  24  ar  
 60  23  59  1   
 61  24  25  1   
@<TRIPOS>SUBSTRUCTURE
  1 ****  14 GROUP 4 **** **** 0

# MOE 2024.06 (io_trps.svl 2023.06)
