@<TRIPOS>MOLECULE
NONAME
43 44 1 0 0 
SMALL
USER_CHARGES


@<TRIPOS>ATOM
  1 N       -0.3600     0.5710     1.1400 N.ar  1 <1>  -0.6200 
  2 C        0.1870     1.6780     0.6840 C.ar  1 <1>   0.7710 
  3 C       -0.7900    -0.3180     0.2600 C.ar  1 <1>   0.4100 
  4 N        0.3370     1.9330    -0.6220 N.ar  1 <1>  -0.1790 
  5 N        0.5900     2.5570     1.6060 N.pl3 1 <1>  -0.8690 
  6 N       -1.3770    -1.4500     0.7350 N.pl3 1 <1>  -0.8380 
  7 C       -0.6430    -0.1000    -1.1260 C.ar  1 <1>  -0.1500 
  8 C       -0.0710     1.0480    -1.5600 C.ar  1 <1>   0.2110 
  9 C        1.1770     3.9220     1.5580 C.3   1 <1>   0.3040 
 10 C       -2.3220    -2.3040    -0.0430 C.3   1 <1>   0.1290 
 11 C       -1.2080    -1.9030     2.1510 C.3   1 <1>   0.1290 
 12 C        2.0960     4.1140     0.3420 C.3   1 <1>  -0.1950 
 13 C        2.5970     5.4530    -0.1290 C.3   1 <1>  -0.1900 
 14 C        1.5780     4.7060    -0.9400 C.3   1 <1>  -0.2000 
 15 C        2.1800     6.7410     0.6240 C.3   1 <1>  -0.0650 
 16 C        4.0570     5.4810    -0.6310 C.3   1 <1>  -0.0650 
 17 C        1.4500     7.7600    -0.2610 C.3   1 <1>  -0.2400 
 18 C        4.3300     6.5640    -1.6780 C.3   1 <1>  -0.2400 
 19 H        0.7970     2.8180    -0.8290 H     1 <1>   0.4570 
 20 H        0.4020     2.2370     2.5620 H     1 <1>   0.4000 
 21 H       -0.9760    -0.8520    -1.8150 H     1 <1>   0.1500 
 22 H        0.0750     1.2770    -2.6040 H     1 <1>   0.1500 
 23 H        1.7580     4.0770     2.4520 H     1 <1>   0.0800 
 24 H        0.3790     4.6460     1.5520 H     1 <1>   0.0800 
 25 H       -2.7720    -1.7470    -0.8450 H     1 <1>   0.0800 
 26 H       -3.1130    -2.6550     0.5980 H     1 <1>   0.0800 
 27 H       -1.7990    -3.1540    -0.4460 H     1 <1>   0.0800 
 28 H       -0.3150    -1.4870     2.5850 H     1 <1>   0.0800 
 29 H       -1.1300    -2.9750     2.1890 H     1 <1>   0.0800 
 30 H       -2.0560    -1.5890     2.7360 H     1 <1>   0.0800 
 31 H        2.8390     3.3350     0.3090 H     1 <1>   0.1000 
 32 H        0.5820     5.1140    -0.9840 H     1 <1>   0.1000 
 33 H        1.9130     4.3560    -1.9030 H     1 <1>   0.1000 
 34 H        3.0570     7.2070     1.0410 H     1 <1>   0.0800 
 35 H        1.5380     6.5210     1.4550 H     1 <1>   0.0800 
 36 H        4.3090     4.5300    -1.0690 H     1 <1>   0.0800 
 37 H        4.7200     5.6260     0.2050 H     1 <1>   0.0800 
 38 H        2.0220     8.0010    -1.1370 H     1 <1>   0.0800 
 39 H        1.2870     8.6680     0.2920 H     1 <1>   0.0800 
 40 H        0.4930     7.3840    -0.5710 H     1 <1>   0.0800 
 41 H        3.6220     6.4960    -2.4850 H     1 <1>   0.0800 
 42 H        5.3200     6.4410    -2.0810 H     1 <1>   0.0800 
 43 H        4.2710     7.5420    -1.2370 H     1 <1>   0.0800 
@<TRIPOS>BOND
  1   1   2  ar  
  2   1   3  ar  
  3   2   4  ar  
  4   2   5  1   
  5   3   6  1   
  6   3   7  ar  
  7   4   8  ar  
  8   4  19  1   
  9   5   9  1   
 10   5  20  1   
 11   6  10  1   
 12   6  11  1   
 13   7   8  ar  
 14   7  21  1   
 15   8  22  1   
 16   9  12  1   
 17   9  23  1   
 18   9  24  1   
 19  10  25  1   
 20  10  26  1   
 21  10  27  1   
 22  11  28  1   
 23  11  29  1   
 24  11  30  1   
 25  12  13  1   
 26  12  14  1   
 27  12  31  1   
 28  13  14  1   
 29  13  15  1   
 30  13  16  1   
 31  14  32  1   
 32  14  33  1   
 33  15  17  1   
 34  15  34  1   
 35  15  35  1   
 36  16  18  1   
 37  16  36  1   
 38  16  37  1   
 39  17  38  1   
 40  17  39  1   
 41  17  40  1   
 42  18  41  1   
 43  18  42  1   
 44  18  43  1   
@<TRIPOS>SUBSTRUCTURE
  1 ****   4 GROUP 4 **** **** 0

# MOE 2024.06 (io_trps.svl 2023.06)
