@<TRIPOS>MOLECULE
NONAME
49 51 1 0 0 
SMALL
USER_CHARGES


@<TRIPOS>ATOM
  1 S        1.6100     0.9410    -1.3610 S.3   1 <1>  -0.3320 
  2 C        1.5250    -0.8140    -1.6640 C.ar  1 <1>   0.7220 
  3 C        1.5560     1.0800     0.4950 C.3   1 <1>   0.1310 
  4 N        1.4530    -1.5800    -0.5880 N.ar  1 <1>  -0.6200 
  5 N        1.5440    -1.1550    -2.9410 N.ar  1 <1>  -0.6200 
  6 C        1.5960     2.5280     0.9590 C.2   1 <1>   0.5690 
  7 C        1.3910    -2.8680    -0.8360 C.ar  1 <1>   0.1660 
  8 C        1.4810    -2.4500    -3.1530 C.ar  1 <1>   0.1600 
  9 O        1.6630     2.7500     2.1450 O.2   1 <1>  -0.5700 
 10 N        1.5620     3.5380     0.0490 N.am  1 <1>  -0.7300 
 11 C        1.4030    -3.3580    -2.1230 C.ar  1 <1>  -0.1500 
 12 C        1.3080    -3.7940     0.3590 C.3   1 <1>  -0.0970 
 13 C        1.5680     4.9780     0.3690 C.3   1 <1>   0.1400 
 14 C        2.9920     5.5130     0.2300 C.3   1 <1>  -0.1600 
 15 C        3.0730     6.9870     0.6470 C.3   1 <1>   0.0200 
 16 C        4.4840     7.5200     0.4910 C.2   1 <1>   0.0060 
 17 N        4.8340     8.3610    -0.4170 N.2   1 <1>  -0.5650 
 18 N        5.4980     7.1450     1.3090 N.pl3 1 <1>   0.0330 
 19 C        6.1690     8.5690    -0.2000 C.ar  1 <1>   0.2270 
 20 C        6.5950     7.8130     0.8760 C.ar  1 <1>  -0.1520 
 21 C        7.0720     9.3910    -0.8880 C.ar  1 <1>  -0.1430 
 22 C        7.9200     7.8430     1.3040 C.ar  1 <1>  -0.1500 
 23 C        8.3950     9.4170    -0.4740 C.ar  1 <1>  -0.1430 
 24 C        6.5500    10.2100    -2.0630 C.3   1 <1>  -0.0970 
 25 C        8.8060     8.6450     0.6230 C.ar  1 <1>  -0.1500 
 26 C        9.4430    10.2670    -1.1790 C.3   1 <1>  -0.0970 
 27 H        2.4030     0.5440     0.8800 H     1 <1>   0.0800 
 28 H        0.6480     0.6120     0.8250 H     1 <1>   0.0800 
 29 H        1.4920    -2.7930    -4.1740 H     1 <1>   0.1500 
 30 H        1.5600     3.2890    -0.9460 H     1 <1>   0.3700 
 31 H        1.3520    -4.4110    -2.3240 H     1 <1>   0.1500 
 32 H        0.4280    -3.5640     0.9320 H     1 <1>   0.0800 
 33 H        2.1720    -3.6570     0.9830 H     1 <1>   0.0800 
 34 H        1.2620    -4.8220     0.0500 H     1 <1>   0.0800 
 35 H        1.2190     5.1210     1.3790 H     1 <1>   0.0800 
 36 H        0.9020     5.4970    -0.2990 H     1 <1>   0.0800 
 37 H        3.3150     5.4190    -0.7920 H     1 <1>   0.0800 
 38 H        3.6470     4.9300     0.8540 H     1 <1>   0.0800 
 39 H        2.7610     7.1040     1.6690 H     1 <1>   0.0800 
 40 H        2.4150     7.5730     0.0290 H     1 <1>   0.0800 
 41 H        5.4540     6.4890     2.0920 H     1 <1>   0.2700 
 42 H        8.2360     7.2510     2.1440 H     1 <1>   0.1500 
 43 H        5.5250    10.4900    -1.8930 H     1 <1>   0.0800 
 44 H        6.5970     9.6220    -2.9610 H     1 <1>   0.0800 
 45 H        7.1150    11.1120    -2.2000 H     1 <1>   0.0800 
 46 H        9.8340     8.6800     0.9370 H     1 <1>   0.1500 
 47 H        9.3720    10.1390    -2.2440 H     1 <1>   0.0800 
 48 H       10.4360     9.9860    -0.8770 H     1 <1>   0.0800 
 49 H        9.2930    11.3040    -0.9380 H     1 <1>   0.0800 
@<TRIPOS>BOND
  1   1   2  1   
  2   1   3  1   
  3   2   4  ar  
  4   2   5  ar  
  5   3   6  1   
  6   3  27  1   
  7   3  28  1   
  8   4   7  ar  
  9   5   8  ar  
 10   6   9  2   
 11   6  10  am  
 12   7  11  ar  
 13   7  12  1   
 14   8  11  ar  
 15   8  29  1   
 16  10  13  1   
 17  10  30  1   
 18  11  31  1   
 19  12  32  1   
 20  12  33  1   
 21  12  34  1   
 22  13  14  1   
 23  13  35  1   
 24  13  36  1   
 25  14  15  1   
 26  14  37  1   
 27  14  38  1   
 28  15  16  1   
 29  15  39  1   
 30  15  40  1   
 31  16  17  2   
 32  16  18  1   
 33  17  19  1   
 34  18  20  1   
 35  18  41  1   
 36  19  20  ar  
 37  19  21  ar  
 38  20  22  ar  
 39  21  23  ar  
 40  21  24  1   
 41  22  25  ar  
 42  22  42  1   
 43  23  25  ar  
 44  23  26  1   
 45  24  43  1   
 46  24  44  1   
 47  24  45  1   
 48  25  46  1   
 49  26  47  1   
 50  26  48  1   
 51  26  49  1   
@<TRIPOS>SUBSTRUCTURE
  1 ****  14 GROUP 4 **** **** 0

# MOE 2024.06 (io_trps.svl 2023.06)
