@<TRIPOS>MOLECULE
NONAME
55 58 1 0 0 
SMALL
USER_CHARGES


@<TRIPOS>ATOM
  1 O        3.5210    -2.6820     2.2500 O.2   1 <1>  -0.5700 
  2 C        2.6950    -3.4250     1.7890 C.2   1 <1>   0.5690 
  3 N        2.6550    -4.7300     2.1180 N.am  1 <1>  -0.7300 
  4 C        1.7260    -2.9390     0.7320 C.3   1 <1>  -0.0990 
  5 C        1.9800    -5.7380     1.2710 C.3   1 <1>   0.1400 
  6 C        1.6490    -3.8790    -0.4980 C.3   1 <1>  -0.0800 
  7 C        2.1260    -5.3190    -0.2070 C.3   1 <1>  -0.0800 
  8 C        2.5080    -3.4090    -1.6840 C.3   1 <1>  -0.1600 
  9 C        3.5860    -5.3870    -0.6960 C.3   1 <1>  -0.1600 
 10 C        3.7720    -4.2710    -1.7290 C.3   1 <1>   0.4230 
 11 N        5.0100    -3.4710    -1.5070 N.4   1 <1>  -0.9590 
 12 C        5.0690    -2.6840    -0.2360 C.3   1 <1>   0.4860 
 13 C        6.2550    -4.2780    -1.6990 C.3   1 <1>   0.2630 
 14 C        6.2240    -1.7080    -0.3390 C.ar  1 <1>  -0.1440 
 15 C        6.1920    -0.7630    -1.3370 C.ar  1 <1>   0.0820 
 16 C        7.3200    -1.7820     0.5580 C.ar  1 <1>   0.0000 
 17 O        5.1200    -0.6970    -2.1650 O.3   1 <1>  -0.3630 
 18 C        7.2740     0.1090    -1.5240 C.ar  1 <1>  -0.1500 
 19 C        8.4120    -0.9060     0.3520 C.ar  1 <1>   0.0000 
 20 C        7.3980    -2.6760     1.6540 C.ar  1 <1>  -0.1500 
 21 C        4.4390     0.5360    -2.3110 C.3   1 <1>   0.1200 
 22 C        8.3560     0.0320    -0.6970 C.ar  1 <1>  -0.1500 
 23 C        9.5340    -0.9870     1.2000 C.ar  1 <1>  -0.1500 
 24 C        8.4970    -2.7280     2.4650 C.ar  1 <1>  -0.1500 
 25 C        3.6360     0.8260    -1.0430 C.3   1 <1>  -0.2400 
 26 C        9.5820    -1.8790     2.2330 C.ar  1 <1>  -0.1500 
 27 H        3.2200    -5.0520     2.9090 H     1 <1>   0.3700 
 28 H        0.7580    -2.9080     1.2000 H     1 <1>   0.0800 
 29 H        1.9640    -1.9300     0.4500 H     1 <1>   0.0800 
 30 H        2.4260    -6.7050     1.4310 H     1 <1>   0.0800 
 31 H        0.9390    -5.7910     1.5440 H     1 <1>   0.0800 
 32 H        0.6170    -3.9040    -0.8120 H     1 <1>   0.0800 
 33 H        1.5420    -5.9940    -0.8110 H     1 <1>   0.0800 
 34 H        2.7080    -2.3530    -1.6710 H     1 <1>   0.0800 
 35 H        1.9560    -3.6130    -2.5850 H     1 <1>   0.0800 
 36 H        3.7740    -6.3450    -1.1480 H     1 <1>   0.0800 
 37 H        4.2670    -5.2680     0.1260 H     1 <1>   0.0800 
 38 H        3.8260    -4.7200    -2.7080 H     1 <1>   0.0800 
 39 H        5.0220    -2.7190    -2.2190 H     1 <1>   0.4500 
 40 H        4.1620    -2.1200    -0.1040 H     1 <1>   0.0800 
 41 H        5.1760    -3.3420     0.6060 H     1 <1>   0.0800 
 42 H        6.3380    -5.0290    -0.9310 H     1 <1>   0.0800 
 43 H        7.1250    -3.6420    -1.6520 H     1 <1>   0.0800 
 44 H        6.2410    -4.7640    -2.6610 H     1 <1>   0.0800 
 45 H        7.2530     0.8260    -2.3240 H     1 <1>   0.1500 
 46 H        6.5780    -3.3290     1.8840 H     1 <1>   0.1500 
 47 H        5.1460     1.3220    -2.5110 H     1 <1>   0.0800 
 48 H        3.7790     0.4450    -3.1570 H     1 <1>   0.0800 
 49 H        9.1930     0.6940    -0.8360 H     1 <1>   0.1500 
 50 H       10.3620    -0.3250     1.0220 H     1 <1>   0.1500 
 51 H        8.5430    -3.4130     3.2940 H     1 <1>   0.1500 
 52 H        4.2890     0.9300    -0.1940 H     1 <1>   0.0800 
 53 H        2.9230     0.0430    -0.8590 H     1 <1>   0.0800 
 54 H        3.0980     1.7490    -1.1630 H     1 <1>   0.0800 
 55 H       10.4410    -1.9360     2.8790 H     1 <1>   0.1500 
@<TRIPOS>BOND
  1   1   2  2   
  2   2   3  am  
  3   2   4  1   
  4   3   5  1   
  5   3  27  1   
  6   4   6  1   
  7   4  28  1   
  8   4  29  1   
  9   5   7  1   
 10   5  30  1   
 11   5  31  1   
 12   6   7  1   
 13   6   8  1   
 14   6  32  1   
 15   7   9  1   
 16   7  33  1   
 17   8  10  1   
 18   8  34  1   
 19   8  35  1   
 20   9  10  1   
 21   9  36  1   
 22   9  37  1   
 23  10  11  1   
 24  10  38  1   
 25  11  12  1   
 26  11  13  1   
 27  11  39  1   
 28  12  14  1   
 29  12  40  1   
 30  12  41  1   
 31  13  42  1   
 32  13  43  1   
 33  13  44  1   
 34  14  15  ar  
 35  14  16  ar  
 36  15  17  1   
 37  15  18  ar  
 38  16  19  ar  
 39  16  20  ar  
 40  17  21  1   
 41  18  22  ar  
 42  18  45  1   
 43  19  22  ar  
 44  19  23  ar  
 45  20  24  ar  
 46  20  46  1   
 47  21  25  1   
 48  21  47  1   
 49  21  48  1   
 50  22  49  1   
 51  23  26  ar  
 52  23  50  1   
 53  24  26  ar  
 54  24  51  1   
 55  25  52  1   
 56  25  53  1   
 57  25  54  1   
 58  26  55  1   
@<TRIPOS>SUBSTRUCTURE
  1 ****  12 GROUP 4 **** **** 0

# MOE 2024.06 (io_trps.svl 2023.06)
