@<TRIPOS>MOLECULE
STOCK7S-73499
37 39 1 0 0 
SMALL
USER_CHARGES


@<TRIPOS>ATOM
  1 O       -1.8180    -5.1590     1.0920 O.co2 1 <1>  -0.9000 
  2 C       -1.9530    -3.9420     0.9350 C.2   1 <1>   0.9060 
  3 O       -1.0090    -3.1510     1.0610 O.co2 1 <1>  -0.9000 
  4 C       -3.3440    -3.3840     0.5640 C.3   1 <1>  -0.1060 
  5 C       -3.3140    -1.8380     0.5040 C.3   1 <1>  -0.1600 
  6 C       -3.7890    -3.9070    -0.8240 C.3   1 <1>  -0.1600 
  7 C       -4.4060    -3.8050     1.6070 C.3   1 <1>  -0.1600 
  8 C       -4.6830    -1.2530     0.1220 C.3   1 <1>   0.5030 
  9 C       -5.1700    -3.3450    -1.2100 C.3   1 <1>  -0.0800 
 10 C       -5.7890    -3.2430     1.2350 C.3   1 <1>  -0.0800 
 11 N       -4.5860     0.2470     0.1290 N.4   1 <1>  -0.9590 
 12 C       -5.0990    -1.8060    -1.2590 C.3   1 <1>  -0.1600 
 13 C       -5.7130    -1.7070     1.1810 C.3   1 <1>  -0.1600 
 14 C       -6.1980    -3.7790    -0.1490 C.3   1 <1>  -0.1600 
 15 C       -5.8750     0.9530    -0.1520 C.3   1 <1>   0.2630 
 16 C       -3.5130     0.7890    -0.7700 C.3   1 <1>   0.2630 
 17 H       -2.5650    -1.5750    -0.2200 H     1 <1>   0.0800 
 18 H       -2.9990    -1.4630     1.4620 H     1 <1>   0.0800 
 19 H       -3.8250    -4.9840    -0.7970 H     1 <1>   0.0800 
 20 H       -3.0540    -3.6370    -1.5630 H     1 <1>   0.0800 
 21 H       -4.1100    -3.4610     2.5830 H     1 <1>   0.0800 
 22 H       -4.4480    -4.8810     1.6540 H     1 <1>   0.0800 
 23 H       -5.4580    -3.7320    -2.1730 H     1 <1>   0.0800 
 24 H       -6.5110    -3.5530     1.9730 H     1 <1>   0.0800 
 25 H       -4.3020     0.4650     1.0930 H     1 <1>   0.4500 
 26 H       -4.3830    -1.5260    -2.0090 H     1 <1>   0.0800 
 27 H       -6.0630    -1.4290    -1.5450 H     1 <1>   0.0800 
 28 H       -6.6950    -1.3420     0.9460 H     1 <1>   0.0800 
 29 H       -5.4320    -1.3400     2.1510 H     1 <1>   0.0800 
 30 H       -6.2480    -4.8540    -0.1160 H     1 <1>   0.0800 
 31 H       -7.1770    -3.4190    -0.4120 H     1 <1>   0.0800 
 32 H       -6.2300     0.7050    -1.1390 H     1 <1>   0.0800 
 33 H       -5.7340     2.0210    -0.0960 H     1 <1>   0.0800 
 34 H       -6.6260     0.6740     0.5680 H     1 <1>   0.0800 
 35 H       -3.6980     0.5030    -1.7920 H     1 <1>   0.0800 
 36 H       -2.5460     0.4150    -0.4760 H     1 <1>   0.0800 
 37 H       -3.4860     1.8650    -0.7120 H     1 <1>   0.0800 
@<TRIPOS>BOND
  1   1   2  ar  
  2   2   3  ar  
  3   2   4  1   
  4   4   5  1   
  5   4   6  1   
  6   4   7  1   
  7   5   8  1   
  8   5  17  1   
  9   5  18  1   
 10   6   9  1   
 11   6  19  1   
 12   6  20  1   
 13   7  10  1   
 14   7  21  1   
 15   7  22  1   
 16   8  11  1   
 17   8  12  1   
 18   8  13  1   
 19   9  12  1   
 20   9  14  1   
 21   9  23  1   
 22  10  13  1   
 23  10  14  1   
 24  10  24  1   
 25  11  15  1   
 26  11  16  1   
 27  11  25  1   
 28  12  26  1   
 29  12  27  1   
 30  13  28  1   
 31  13  29  1   
 32  14  30  1   
 33  14  31  1   
 34  15  32  1   
 35  15  33  1   
 36  15  34  1   
 37  16  35  1   
 38  16  36  1   
 39  16  37  1   
@<TRIPOS>SUBSTRUCTURE
  1 ****   5 GROUP 4 **** **** 0

# MOE 2024.06 (io_trps.svl 2023.06)
