@<TRIPOS>MOLECULE
NONAME
55 57 1 0 0 
SMALL
USER_CHARGES


@<TRIPOS>ATOM
  1 O        1.2360     0.4910     2.5680 O.2   1 <1>  -0.5700 
  2 C        1.6230     0.9730     1.5160 C.2   1 <1>   0.5440 
  3 N        1.3330     2.2960     1.2650 N.am  1 <1>  -0.6600 
  4 C        2.3400     0.1490     0.5680 C.ar  1 <1>   0.0860 
  5 C        0.6600     3.1560     2.2670 C.3   1 <1>   0.1400 
  6 C        1.2890     2.9240    -0.0760 C.3   1 <1>   0.1400 
  7 C        1.9220    -1.1680     0.2860 C.ar  1 <1>   0.4100 
  8 C        3.4670     0.6170    -0.0950 C.ar  1 <1>  -0.1500 
  9 C        0.3430     4.4530     1.5290 C.3   1 <1>  -0.1600 
 10 C        0.2730     4.0520     0.0590 C.3   1 <1>  -0.1600 
 11 N        2.4950    -1.9600    -0.6200 N.ar  1 <1>  -0.6200 
 12 N        0.8500    -1.7260     0.9470 N.pl3 1 <1>  -0.8690 
 13 C        4.0780    -0.2080    -1.0110 C.ar  1 <1>  -0.1500 
 14 C        3.5540    -1.4670    -1.2370 C.ar  1 <1>   0.1600 
 15 C        0.8500    -3.1500     1.4380 C.3   1 <1>   0.2090 
 16 C        0.8020    -4.2050     0.3010 C.3   1 <1>   0.5660 
 17 N        0.1070    -3.6710    -0.9180 N.4   1 <1>  -0.9590 
 18 C        0.2500    -5.5660     0.7370 C.ar  1 <1>  -0.1430 
 19 C       -1.3360    -3.3440    -0.7390 C.3   1 <1>   0.2630 
 20 C        0.3370    -4.5260    -2.1130 C.3   1 <1>   0.2630 
 21 C        0.9980    -6.7270     0.5290 C.ar  1 <1>  -0.1430 
 22 C       -0.9950    -5.6700     1.3520 C.ar  1 <1>  -0.1500 
 23 C        0.4780    -7.9550     0.9100 C.ar  1 <1>  -0.1500 
 24 C        2.3900    -6.7080    -0.0940 C.3   1 <1>  -0.0970 
 25 C       -1.5010    -6.8990     1.7300 C.ar  1 <1>  -0.1500 
 26 C       -0.7650    -8.0440     1.5050 C.ar  1 <1>  -0.1500 
 27 H        1.3010     3.3260     3.1150 H     1 <1>   0.0800 
 28 H       -0.2480     2.6770     2.5930 H     1 <1>   0.0800 
 29 H        0.9950     2.2190    -0.8340 H     1 <1>   0.0800 
 30 H        2.2580     3.3310    -0.3080 H     1 <1>   0.0800 
 31 H        3.8540     1.6010     0.1100 H     1 <1>   0.1500 
 32 H        1.1500     5.1480     1.6830 H     1 <1>   0.0800 
 33 H       -0.5720     4.8970     1.8790 H     1 <1>   0.0800 
 34 H       -0.7070     3.6710    -0.1700 H     1 <1>   0.0800 
 35 H        0.4940     4.8720    -0.6010 H     1 <1>   0.0800 
 36 H        0.5320    -1.0870     1.7030 H     1 <1>   0.4000 
 37 H        4.9520     0.1190    -1.5460 H     1 <1>   0.1500 
 38 H        4.0420    -2.0970    -1.9640 H     1 <1>   0.1500 
 39 H        0.0050    -3.2820     2.0890 H     1 <1>   0.0800 
 40 H        1.7320    -3.3240     2.0310 H     1 <1>   0.0800 
 41 H        1.8300    -4.3530     0.0240 H     1 <1>   0.0800 
 42 H        0.6160    -2.7660    -1.0280 H     1 <1>   0.4500 
 43 H       -1.9080    -4.2450    -0.5910 H     1 <1>   0.0800 
 44 H       -1.7120    -2.8350    -1.6110 H     1 <1>   0.0800 
 45 H       -1.4670    -2.6980     0.1150 H     1 <1>   0.0800 
 46 H       -0.1030    -5.4990    -1.9620 H     1 <1>   0.0800 
 47 H        1.3940    -4.6440    -2.2860 H     1 <1>   0.0800 
 48 H       -0.1060    -4.0740    -2.9860 H     1 <1>   0.0800 
 49 H       -1.5950    -4.8010     1.5550 H     1 <1>   0.1500 
 50 H        1.0400    -8.8600     0.7520 H     1 <1>   0.1500 
 51 H        2.3510    -6.3590    -1.1090 H     1 <1>   0.0800 
 52 H        2.8180    -7.6950    -0.1030 H     1 <1>   0.0800 
 53 H        3.0480    -6.0770     0.4760 H     1 <1>   0.0800 
 54 H       -2.4670    -6.9690     2.2030 H     1 <1>   0.1500 
 55 H       -1.1560    -9.0040     1.7960 H     1 <1>   0.1500 
@<TRIPOS>BOND
  1   1   2  2   
  2   2   3  am  
  3   2   4  1   
  4   3   5  1   
  5   3   6  1   
  6   4   7  ar  
  7   4   8  ar  
  8   5   9  1   
  9   5  27  1   
 10   5  28  1   
 11   6  10  1   
 12   6  29  1   
 13   6  30  1   
 14   7  11  ar  
 15   7  12  1   
 16   8  13  ar  
 17   8  31  1   
 18   9  10  1   
 19   9  32  1   
 20   9  33  1   
 21  10  34  1   
 22  10  35  1   
 23  11  14  ar  
 24  12  15  1   
 25  12  36  1   
 26  13  14  ar  
 27  13  37  1   
 28  14  38  1   
 29  15  16  1   
 30  15  39  1   
 31  15  40  1   
 32  16  17  1   
 33  16  18  1   
 34  16  41  1   
 35  17  19  1   
 36  17  20  1   
 37  17  42  1   
 38  18  21  ar  
 39  18  22  ar  
 40  19  43  1   
 41  19  44  1   
 42  19  45  1   
 43  20  46  1   
 44  20  47  1   
 45  20  48  1   
 46  21  23  ar  
 47  21  24  1   
 48  22  25  ar  
 49  22  49  1   
 50  23  26  ar  
 51  23  50  1   
 52  24  51  1   
 53  24  52  1   
 54  24  53  1   
 55  25  26  ar  
 56  25  54  1   
 57  26  55  1   
@<TRIPOS>SUBSTRUCTURE
  1 ****  12 GROUP 4 **** **** 0

# MOE 2024.06 (io_trps.svl 2023.06)
