@<TRIPOS>MOLECULE
NONAME
49 52 1 0 0 
SMALL
USER_CHARGES


@<TRIPOS>ATOM
  1 O       -0.3220     0.7210    -0.3850 O.3   1 <1>  -0.5600 
  2 C       -1.1470     0.3830    -1.4630 C.3   1 <1>   0.1200 
  3 C       -0.9450     0.5780     0.8620 C.3   1 <1>   0.1200 
  4 C       -2.4270     1.2390    -1.4570 C.3   1 <1>   0.1100 
  5 C       -2.2220     1.4340     0.9330 C.3   1 <1>   0.1100 
  6 N       -3.1420     1.0990    -0.1760 N.3   1 <1>  -0.8100 
  7 C       -4.4260     1.8790    -0.1500 C.3   1 <1>   0.3340 
  8 C       -4.2510     3.4100    -0.1250 C.ar  1 <1>   0.1660 
  9 C       -5.3470     1.4020     0.9920 C.3   1 <1>   0.2090 
 10 N       -4.0660     4.0120     1.0490 N.ar  1 <1>  -0.6200 
 11 C       -4.3050     4.0980    -1.3300 C.ar  1 <1>  -0.1500 
 12 N       -5.4710    -0.0870     0.9700 N.pl3 1 <1>  -0.8690 
 13 C       -3.9240     5.3270     1.0130 C.ar  1 <1>   0.1600 
 14 C       -4.1570     5.4680    -1.3530 C.ar  1 <1>  -0.1500 
 15 C       -6.4520    -0.7200     0.2430 C.ar  1 <1>   0.4100 
 16 C       -3.9600     6.0910    -0.1400 C.ar  1 <1>  -0.1500 
 17 N       -7.2420     0.0240    -0.5200 N.ar  1 <1>  -0.6200 
 18 C       -6.5560    -2.1000     0.3290 C.ar  1 <1>  -0.1500 
 19 C       -8.1660    -0.6320    -1.1990 C.ar  1 <1>   0.1600 
 20 C       -7.5160    -2.7950    -0.3840 C.ar  1 <1>   0.0530 
 21 C       -8.3430    -2.0000    -1.1700 C.ar  1 <1>  -0.1500 
 22 C       -7.6430    -4.2320    -0.3090 C.2   1 <1>   0.4250 
 23 O       -8.5790    -4.8640    -0.9630 O.3   1 <1>  -0.0190 
 24 N       -6.9180    -5.0640     0.3550 N.2   1 <1>  -0.5650 
 25 N       -8.4970    -6.1240    -0.7480 N.2   1 <1>  -0.4100 
 26 C       -7.5000    -6.2240     0.0420 C.2   1 <1>   0.3350 
 27 C       -6.9800    -7.5240     0.6050 C.3   1 <1>  -0.0590 
 28 H       -1.3940    -0.6620    -1.3940 H     1 <1>   0.0800 
 29 H       -0.5900     0.5500    -2.3670 H     1 <1>   0.0800 
 30 H       -0.2460     0.8900     1.6160 H     1 <1>   0.0800 
 31 H       -1.1810    -0.4610     1.0120 H     1 <1>   0.0800 
 32 H       -3.0650     0.9220    -2.2630 H     1 <1>   0.0800 
 33 H       -2.1550     2.2680    -1.6210 H     1 <1>   0.0800 
 34 H       -1.9380     2.4720     0.8840 H     1 <1>   0.0800 
 35 H       -2.7070     1.2640     1.8770 H     1 <1>   0.0800 
 36 H       -4.9600     1.6400    -1.0530 H     1 <1>   0.0800 
 37 H       -6.3120     1.8670     0.8990 H     1 <1>   0.0800 
 38 H       -4.9370     1.7030     1.9390 H     1 <1>   0.0800 
 39 H       -4.4620     3.5660    -2.2510 H     1 <1>   0.1500 
 40 H       -4.5350    -0.4620     0.7740 H     1 <1>   0.4000 
 41 H       -3.7710     5.8250     1.9550 H     1 <1>   0.1500 
 42 H       -4.1930     6.0250    -2.2730 H     1 <1>   0.1500 
 43 H       -3.8360     7.1570    -0.0860 H     1 <1>   0.1500 
 44 H       -5.8760    -2.6270     0.9710 H     1 <1>   0.1500 
 45 H       -8.8200    -0.0390    -1.8170 H     1 <1>   0.1500 
 46 H       -9.1230    -2.4460    -1.7590 H     1 <1>   0.1500 
 47 H       -5.9580    -7.6630     0.3040 H     1 <1>   0.0800 
 48 H       -7.5690    -8.3460     0.2430 H     1 <1>   0.0800 
 49 H       -7.0320    -7.4980     1.6770 H     1 <1>   0.0800 
@<TRIPOS>BOND
  1   1   2  1   
  2   1   3  1   
  3   2   4  1   
  4   2  28  1   
  5   2  29  1   
  6   3   5  1   
  7   3  30  1   
  8   3  31  1   
  9   4   6  1   
 10   4  32  1   
 11   4  33  1   
 12   5   6  1   
 13   5  34  1   
 14   5  35  1   
 15   6   7  1   
 16   7   8  1   
 17   7   9  1   
 18   7  36  1   
 19   8  10  ar  
 20   8  11  ar  
 21   9  12  1   
 22   9  37  1   
 23   9  38  1   
 24  10  13  ar  
 25  11  14  ar  
 26  11  39  1   
 27  12  15  1   
 28  12  40  1   
 29  13  16  ar  
 30  13  41  1   
 31  14  16  ar  
 32  14  42  1   
 33  15  17  ar  
 34  15  18  ar  
 35  16  43  1   
 36  17  19  ar  
 37  18  20  ar  
 38  18  44  1   
 39  19  21  ar  
 40  19  45  1   
 41  20  21  ar  
 42  20  22  1   
 43  21  46  1   
 44  22  23  1   
 45  22  24  2   
 46  23  25  1   
 47  24  26  1   
 48  25  26  2   
 49  26  27  1   
 50  27  47  1   
 51  27  48  1   
 52  27  49  1   
@<TRIPOS>SUBSTRUCTURE
  1 ****  12 GROUP 4 **** **** 0

# MOE 2024.06 (io_trps.svl 2023.06)
