@<TRIPOS>MOLECULE
NONAME
44 46 1 0 0 
SMALL
USER_CHARGES


@<TRIPOS>ATOM
  1 S        0.1050    -0.1460     0.0500 S.3   1 <1>  -0.0800 
  2 C       -1.3810    -0.8240     0.7070 C.2   1 <1>  -0.0450 
  3 C       -0.4700     1.5160     0.1630 C.2   1 <1>  -0.0450 
  4 C       -1.4870    -2.2560     0.8470 C.2   1 <1>   0.7150 
  5 C       -2.2260     0.2030     0.9890 C.2   1 <1>  -0.1500 
  6 C        0.3580     2.6070    -0.2610 C.2   1 <1>   0.5940 
  7 C       -1.7250     1.4930     0.6840 C.2   1 <1>  -0.1500 
  8 O       -0.4920    -2.9300     1.0490 O.2   1 <1>  -0.5700 
  9 N       -2.7030    -2.8930     0.7440 N.am  1 <1>  -0.6600 
 10 O       -0.0120     3.7530    -0.2240 O.2   1 <1>  -0.5700 
 11 C        1.7560     2.3490    -0.7840 C.3   1 <1>  -0.1790 
 12 C       -3.8300    -2.3900    -0.0870 C.3   1 <1>   0.1400 
 13 C       -2.8760    -4.3470     0.9730 C.3   1 <1>   0.1400 
 14 C       -4.7260    -3.6040    -0.3710 C.3   1 <1>   0.2000 
 15 C       -3.8040    -4.8070    -0.1500 C.3   1 <1>  -0.0800 
 16 O       -5.7600    -3.6520     0.5700 O.3   1 <1>  -0.5600 
 17 C       -4.5300    -6.1300     0.1540 C.3   1 <1>   0.0200 
 18 C       -6.9050    -2.9310     0.2330 C.3   1 <1>   0.0400 
 19 C       -3.5940    -7.3270     0.1970 C.2   1 <1>  -0.0400 
 20 O       -4.0790    -8.4910     0.5410 O.3   1 <1>  -0.0190 
 21 C       -2.2860    -7.4910    -0.0590 C.2   1 <1>  -0.1500 
 22 N       -3.1680    -9.4210     0.5320 N.2   1 <1>  -0.4100 
 23 C       -2.0760    -8.8460     0.1760 C.2   1 <1>   0.1080 
 24 C       -0.7480    -9.5550     0.0340 C.3   1 <1>  -0.0590 
 25 H       -3.2030     0.0840     1.4230 H     1 <1>   0.1500 
 26 H       -2.3100     2.3790     0.8630 H     1 <1>   0.1500 
 27 H        1.7100     1.7410    -1.6680 H     1 <1>   0.0800 
 28 H        2.3400     1.8490    -0.0330 H     1 <1>   0.0800 
 29 H        2.2330     3.2800    -1.0290 H     1 <1>   0.0800 
 30 H       -4.3760    -1.6220     0.4310 H     1 <1>   0.0800 
 31 H       -3.4390    -1.9990    -1.0100 H     1 <1>   0.0800 
 32 H       -1.9360    -4.8720     0.9560 H     1 <1>   0.0800 
 33 H       -3.3450    -4.4920     1.9320 H     1 <1>   0.0800 
 34 H       -5.1440    -3.5940    -1.3630 H     1 <1>   0.0800 
 35 H       -3.2110    -4.9330    -1.0380 H     1 <1>   0.0800 
 36 H       -5.2740    -6.3100    -0.6010 H     1 <1>   0.0800 
 37 H       -5.0380    -6.0580     1.1000 H     1 <1>   0.0800 
 38 H       -7.6100    -3.0310     1.0390 H     1 <1>   0.0800 
 39 H       -7.3290    -3.3400    -0.6680 H     1 <1>   0.0800 
 40 H       -6.6540    -1.8940     0.0990 H     1 <1>   0.0800 
 41 H       -1.5400    -6.7830    -0.3710 H     1 <1>   0.1500 
 42 H       -0.0170    -9.0910     0.6700 H     1 <1>   0.0800 
 43 H       -0.4160    -9.5040    -0.9860 H     1 <1>   0.0800 
 44 H       -0.8510   -10.5870     0.3160 H     1 <1>   0.0800 
@<TRIPOS>BOND
  1   1   2  1   
  2   1   3  1   
  3   2   4  1   
  4   2   5  2   
  5   3   6  1   
  6   3   7  2   
  7   4   8  2   
  8   4   9  am  
  9   5   7  1   
 10   5  25  1   
 11   6  10  2   
 12   6  11  1   
 13   7  26  1   
 14   9  12  1   
 15   9  13  1   
 16  11  27  1   
 17  11  28  1   
 18  11  29  1   
 19  12  14  1   
 20  12  30  1   
 21  12  31  1   
 22  13  15  1   
 23  13  32  1   
 24  13  33  1   
 25  14  15  1   
 26  14  16  1   
 27  14  34  1   
 28  15  17  1   
 29  15  35  1   
 30  16  18  1   
 31  17  19  1   
 32  17  36  1   
 33  17  37  1   
 34  18  38  1   
 35  18  39  1   
 36  18  40  1   
 37  19  20  1   
 38  19  21  2   
 39  20  22  1   
 40  21  23  1   
 41  21  41  1   
 42  22  23  2   
 43  23  24  1   
 44  24  42  1   
 45  24  43  1   
 46  24  44  1   
@<TRIPOS>SUBSTRUCTURE
  1 ****   9 GROUP 4 **** **** 0

# MOE 2024.06 (io_trps.svl 2023.06)
