@<TRIPOS>MOLECULE
NONAME
42 43 1 0 0 
SMALL
USER_CHARGES


@<TRIPOS>ATOM
  1 O       -1.3820     0.4310    -1.9170 O.2   1 <1>  -0.5700 
  2 C       -1.0600     0.0830    -0.7840 C.2   1 <1>   0.5690 
  3 N       -1.2870    -1.1860    -0.3560 N.am  1 <1>  -0.7300 
  4 C       -0.4080     1.0850     0.1870 C.3   1 <1>   0.2010 
  5 C       -1.8880    -2.2640    -1.1780 C.3   1 <1>   0.2200 
  6 N       -0.4260     2.4640    -0.3040 N.am  1 <1>  -0.7300 
  7 C       -3.3370    -2.5170    -0.7840 C.3   1 <1>  -0.0800 
  8 C       -1.2580    -3.5900    -0.7740 C.3   1 <1>   0.1200 
  9 C       -0.0930     3.5360     0.4500 C.2   1 <1>   0.5690 
 10 C       -3.2110    -3.4690     0.4120 C.3   1 <1>   0.1200 
 11 C       -4.1930    -1.2650    -0.5130 C.3   1 <1>  -0.0170 
 12 O       -1.8930    -3.9360     0.4180 O.3   1 <1>  -0.5600 
 13 O        0.2570     3.4180     1.5980 O.2   1 <1>  -0.5700 
 14 C       -0.1660     4.9160    -0.1740 C.3   1 <1>  -0.0990 
 15 C       -5.6340    -1.6470    -0.2140 C.ar  1 <1>  -0.1440 
 16 C       -1.6090     5.3720    -0.4420 C.3   1 <1>  -0.2400 
 17 C       -6.5280    -1.9500    -1.2200 C.ar  1 <1>  -0.1500 
 18 C       -6.1230    -1.7120     1.0760 C.ar  1 <1>  -0.1500 
 19 C       -7.8290    -2.2990    -0.8990 C.ar  1 <1>   0.1600 
 20 C       -7.4430    -2.0730     1.2890 C.ar  1 <1>   0.1600 
 21 N       -8.3070    -2.3710     0.3320 N.ar  1 <1>  -0.6200 
 22 H       -1.0550    -1.4840     0.5960 H     1 <1>   0.3700 
 23 H        0.6220     0.7760     0.3620 H     1 <1>   0.0800 
 24 H       -0.9400     1.0360     1.1380 H     1 <1>   0.0800 
 25 H       -1.7700    -2.0560    -2.2280 H     1 <1>   0.0800 
 26 H       -0.7400     2.5910    -1.2560 H     1 <1>   0.3700 
 27 H       -3.8000    -3.0690    -1.5830 H     1 <1>   0.0800 
 28 H       -0.1960    -3.5200    -0.6170 H     1 <1>   0.0800 
 29 H       -1.4740    -4.3550    -1.5000 H     1 <1>   0.0800 
 30 H       -3.8810    -4.3080     0.3250 H     1 <1>   0.0800 
 31 H       -3.3820    -2.9630     1.3470 H     1 <1>   0.0800 
 32 H       -4.1660    -0.6210    -1.3760 H     1 <1>   0.0800 
 33 H       -3.7950    -0.7080     0.3160 H     1 <1>   0.0800 
 34 H        0.3090     5.6160     0.4900 H     1 <1>   0.0800 
 35 H        0.3900     4.9090    -1.0940 H     1 <1>   0.0800 
 36 H       -2.1670     5.3880     0.4790 H     1 <1>   0.0800 
 37 H       -2.0970     4.7040    -1.1290 H     1 <1>   0.0800 
 38 H       -1.6130     6.3620    -0.8620 H     1 <1>   0.0800 
 39 H       -6.2260    -1.9170    -2.2510 H     1 <1>   0.1500 
 40 H       -5.4940    -1.4860     1.9160 H     1 <1>   0.1500 
 41 H       -8.5120    -2.5330    -1.6980 H     1 <1>   0.1500 
 42 H       -7.8080    -2.1190     2.3010 H     1 <1>   0.1500 
@<TRIPOS>BOND
  1   1   2  2   
  2   2   3  am  
  3   2   4  1   
  4   3   5  1   
  5   3  22  1   
  6   4   6  1   
  7   4  23  1   
  8   4  24  1   
  9   5   7  1   
 10   5   8  1   
 11   5  25  1   
 12   6   9  am  
 13   6  26  1   
 14   7  10  1   
 15   7  11  1   
 16   7  27  1   
 17   8  12  1   
 18   8  28  1   
 19   8  29  1   
 20   9  13  2   
 21   9  14  1   
 22  10  12  1   
 23  10  30  1   
 24  10  31  1   
 25  11  15  1   
 26  11  32  1   
 27  11  33  1   
 28  14  16  1   
 29  14  34  1   
 30  14  35  1   
 31  15  17  ar  
 32  15  18  ar  
 33  16  36  1   
 34  16  37  1   
 35  16  38  1   
 36  17  19  ar  
 37  17  39  1   
 38  18  20  ar  
 39  18  40  1   
 40  19  21  ar  
 41  19  41  1   
 42  20  21  ar  
 43  20  42  1   
@<TRIPOS>SUBSTRUCTURE
  1 ****  11 GROUP 4 **** **** 0

# MOE 2024.06 (io_trps.svl 2023.06)
