@<TRIPOS>MOLECULE
NONAME
43 45 1 0 0 
SMALL
USER_CHARGES


@<TRIPOS>ATOM
  1 N        0.1280     0.6390    -0.7790 N.ar  1 <1>  -0.6250 
  2 C       -0.9930    -0.0020    -1.0370 C.ar  1 <1>   0.7670 
  3 C        0.0530     1.7180    -0.0210 C.ar  1 <1>   0.4030 
  4 N       -2.1930     0.3860    -0.5720 N.ar  1 <1>  -0.1880 
  5 N       -0.8950    -1.0850    -1.8040 N.pl3 1 <1>  -0.9030 
  6 N        1.2080     2.3850     0.2390 N.pl3 1 <1>  -0.8420 
  7 C       -1.1780     2.1630     0.5030 C.ar  1 <1>  -0.1590 
  8 C       -2.3130     1.4800     0.2150 C.ar  1 <1>   0.2090 
  9 C        2.5340     1.6920     0.2910 C.3   1 <1>   0.2010 
 10 C        1.3060     3.8720     0.3600 C.3   1 <1>   0.2010 
 11 C       -3.6890     1.8690     0.7280 C.3   1 <1>  -0.1060 
 12 C        3.4720     2.2460    -0.7940 C.3   1 <1>   0.1590 
 13 C        2.2680     4.4470    -0.7000 C.3   1 <1>   0.1590 
 14 N        3.5910     3.7400    -0.7070 N.pl3 1 <1>  -0.5970 
 15 C        4.7790     4.3770    -0.5640 C.cat 1 <1>   1.0680 
 16 N        5.7940     3.9100     0.1310 N.pl3 1 <1>  -0.7050 
 17 N        5.1640     5.5580    -1.0580 N.pl3 1 <1>  -0.4630 
 18 C        6.7830     4.8420     0.0570 C.2   1 <1>   0.4790 
 19 N        6.4380     5.8470    -0.6530 N.2   1 <1>  -0.2680 
 20 C        4.4750     6.4660    -2.0080 C.3   1 <1>   0.2660 
 21 C        8.1130     4.6580     0.7530 C.3   1 <1>  -0.0810 
 22 H       -2.9960    -0.1770    -0.8280 H     1 <1>   0.4510 
 23 H       -1.6350    -1.7150    -2.1160 H     1 <1>   0.3930 
 24 H        0.0380    -1.3450    -2.1380 H     1 <1>   0.3930 
 25 H       -1.1930     3.0280     1.1370 H     1 <1>   0.1410 
 26 H        2.4180     0.6300     0.1550 H     1 <1>   0.0710 
 27 H        2.9710     1.8430     1.2620 H     1 <1>   0.0710 
 28 H        1.6560     4.1250     1.3460 H     1 <1>   0.0710 
 29 H        0.3410     4.3270     0.2250 H     1 <1>   0.0710 
 30 H       -4.1050     1.0760     1.3240 H     1 <1>   0.0710 
 31 H       -4.3510     2.0760    -0.0940 H     1 <1>   0.0710 
 32 H       -3.6270     2.7510     1.3410 H     1 <1>   0.0710 
 33 H        3.0680     1.9820    -1.7570 H     1 <1>   0.0710 
 34 H        4.4360     1.7770    -0.7070 H     1 <1>   0.0710 
 35 H        2.4030     5.4960    -0.5000 H     1 <1>   0.0710 
 36 H        1.8110     4.3460    -1.6690 H     1 <1>   0.0710 
 37 H        5.8140     3.0430     0.6550 H     1 <1>   0.4440 
 38 H        3.7480     5.9250    -2.5880 H     1 <1>   0.0710 
 39 H        5.1970     6.8970    -2.6810 H     1 <1>   0.0710 
 40 H        3.9900     7.2590    -1.4660 H     1 <1>   0.0710 
 41 H        8.6040     3.7750     0.3860 H     1 <1>   0.0710 
 42 H        7.9660     4.5670     1.8140 H     1 <1>   0.0710 
 43 H        8.7470     5.5060     0.5660 H     1 <1>   0.0710 
@<TRIPOS>BOND
  1   1   2  ar  
  2   1   3  ar  
  3   2   4  ar  
  4   2   5  1   
  5   3   6  1   
  6   3   7  ar  
  7   4   8  ar  
  8   4  22  1   
  9   5  23  1   
 10   5  24  1   
 11   6   9  1   
 12   6  10  1   
 13   7   8  ar  
 14   7  25  1   
 15   8  11  1   
 16   9  12  1   
 17   9  26  1   
 18   9  27  1   
 19  10  13  1   
 20  10  28  1   
 21  10  29  1   
 22  11  30  1   
 23  11  31  1   
 24  11  32  1   
 25  12  14  1   
 26  12  33  1   
 27  12  34  1   
 28  13  14  1   
 29  13  35  1   
 30  13  36  1   
 31  14  15  ar  
 32  15  16  ar  
 33  15  17  ar  
 34  16  18  1   
 35  16  37  1   
 36  17  19  1   
 37  17  20  1   
 38  18  19  2   
 39  18  21  1   
 40  20  38  1   
 41  20  39  1   
 42  20  40  1   
 43  21  41  1   
 44  21  42  1   
 45  21  43  1   
@<TRIPOS>SUBSTRUCTURE
  1 ****   6 GROUP 4 **** **** 0

# MOE 2024.06 (io_trps.svl 2023.06)
