@<TRIPOS>MOLECULE
NONAME
40 41 1 0 0 
SMALL
USER_CHARGES


@<TRIPOS>ATOM
  1 O       -0.1640    -1.0670     2.2190 O.2   1 <1>  -0.5700 
  2 C       -0.1910    -1.8340     1.2790 C.2   1 <1>   0.5690 
  3 N        0.9440    -2.0890     0.5400 N.am  1 <1>  -0.6600 
  4 C       -1.5460    -2.5140     0.9250 C.3   1 <1>   0.3500 
  5 C        0.9370    -3.1070    -0.5500 C.3   1 <1>   0.1400 
  6 C        2.2300    -1.3740     0.7800 C.3   1 <1>   0.1400 
  7 N       -1.5060    -3.4940    -0.2250 N.pl3 1 <1>  -0.8380 
  8 C       -2.6030    -1.4550     0.5840 C.3   1 <1>  -0.2400 
  9 C       -0.1730    -4.1480    -0.3550 C.3   1 <1>   0.2090 
 10 C        2.5600    -0.3910    -0.3610 C.3   1 <1>  -0.0800 
 11 C       -2.5660    -4.3850    -0.2680 C.ar  1 <1>   0.4100 
 12 C        3.9080     0.2880    -0.0910 C.3   1 <1>  -0.2400 
 13 C        1.4720     0.6810    -0.5300 C.3   1 <1>  -0.2400 
 14 N       -2.5400    -5.3710     0.6080 N.ar  1 <1>  -0.6200 
 15 C       -3.5960    -4.2350    -1.2040 C.ar  1 <1>   0.1600 
 16 C       -3.5870    -6.2220     0.5160 C.ar  1 <1>   0.1310 
 17 N       -4.6390    -5.0300    -1.3210 N.ar  1 <1>  -0.6200 
 18 C       -3.7350    -7.3980     1.3860 C.2   1 <1>   0.9790 
 19 C       -4.5930    -6.0170    -0.4340 C.ar  1 <1>   0.1600 
 20 O       -2.8010    -7.8490     2.0790 O.co2 1 <1>  -0.9000 
 21 O       -4.8250    -8.0070     1.4360 O.co2 1 <1>  -0.9000 
 22 H       -1.8650    -3.0420     1.8080 H     1 <1>   0.0800 
 23 H        1.8850    -3.6150    -0.5730 H     1 <1>   0.0800 
 24 H        0.7940    -2.6130    -1.4940 H     1 <1>   0.0800 
 25 H        3.0190    -2.0990     0.8770 H     1 <1>   0.0800 
 26 H        2.1770    -0.8300     1.7080 H     1 <1>   0.0800 
 27 H       -2.3300    -0.9430    -0.3200 H     1 <1>   0.0800 
 28 H       -2.6640    -0.7350     1.3810 H     1 <1>   0.0800 
 29 H       -3.5700    -1.9080     0.4710 H     1 <1>   0.0800 
 30 H        0.0320    -4.7300     0.5290 H     1 <1>   0.0800 
 31 H       -0.1870    -4.8220    -1.1940 H     1 <1>   0.0800 
 32 H        2.6480    -0.9440    -1.2800 H     1 <1>   0.0800 
 33 H        3.8670     0.8630     0.8180 H     1 <1>   0.0800 
 34 H        4.1630     0.9490    -0.9010 H     1 <1>   0.0800 
 35 H        4.6880    -0.4470     0.0020 H     1 <1>   0.0800 
 36 H        1.3270     1.2180     0.3920 H     1 <1>   0.0800 
 37 H        0.5360     0.2280    -0.8070 H     1 <1>   0.0800 
 38 H        1.7460     1.3800    -1.2990 H     1 <1>   0.0800 
 39 H       -3.5240    -3.4010    -1.8750 H     1 <1>   0.1500 
 40 H       -5.4090    -6.7200    -0.4600 H     1 <1>   0.1500 
@<TRIPOS>BOND
  1   1   2  2   
  2   2   3  am  
  3   2   4  1   
  4   3   5  1   
  5   3   6  1   
  6   4   7  1   
  7   4   8  1   
  8   4  22  1   
  9   5   9  1   
 10   5  23  1   
 11   5  24  1   
 12   6  10  1   
 13   6  25  1   
 14   6  26  1   
 15   7   9  1   
 16   7  11  1   
 17   8  27  1   
 18   8  28  1   
 19   8  29  1   
 20   9  30  1   
 21   9  31  1   
 22  10  12  1   
 23  10  13  1   
 24  10  32  1   
 25  11  14  ar  
 26  11  15  ar  
 27  12  33  1   
 28  12  34  1   
 29  12  35  1   
 30  13  36  1   
 31  13  37  1   
 32  13  38  1   
 33  14  16  ar  
 34  15  17  ar  
 35  15  39  1   
 36  16  18  1   
 37  16  19  ar  
 38  17  19  ar  
 39  18  20  ar  
 40  18  21  ar  
 41  19  40  1   
@<TRIPOS>SUBSTRUCTURE
  1 ****   7 GROUP 4 **** **** 0

# MOE 2024.06 (io_trps.svl 2023.06)
