@<TRIPOS>MOLECULE
NONAME
47 50 1 0 0 
SMALL
USER_CHARGES


@<TRIPOS>ATOM
  1 O       -0.6640     0.2430     1.6020 O.2   1 <1>  -0.5700 
  2 C       -1.5820     0.8970     1.1450 C.2   1 <1>   0.5440 
  3 N       -2.7140     0.2340     0.7300 N.am  1 <1>  -0.6600 
  4 C       -1.4580     2.3350     1.0310 C.ar  1 <1>   0.0860 
  5 C       -3.8000     0.8180    -0.1000 C.3   1 <1>   0.1400 
  6 C       -2.8240    -1.2470     0.7470 C.3   1 <1>   0.1400 
  7 C       -0.4100     2.9010     0.3040 C.ar  1 <1>  -0.1500 
  8 C       -2.3690     3.2020     1.6370 C.ar  1 <1>  -0.1500 
  9 C       -4.8430    -0.2950    -0.1910 C.3   1 <1>   0.2000 
 10 C       -4.0040    -1.5770    -0.1750 C.3   1 <1>  -0.0800 
 11 C       -0.2800     4.2710     0.1610 C.ar  1 <1>  -0.1440 
 12 C       -2.2510     4.5720     1.5030 C.ar  1 <1>  -0.1500 
 13 O       -5.6260    -0.2400     0.9520 O.3   1 <1>  -0.6800 
 14 C       -4.7640    -2.8580     0.2160 C.3   1 <1>  -0.0170 
 15 C       -1.2100     5.1120     0.7670 C.ar  1 <1>   0.0830 
 16 C        0.8700     4.8500    -0.6470 C.3   1 <1>  -0.0170 
 17 C       -3.8640    -4.0790     0.1050 C.ar  1 <1>  -0.1430 
 18 O       -1.1400     6.4570     0.6570 O.3   1 <1>  -0.3630 
 19 C        0.5600     6.2930    -1.0520 C.3   1 <1>  -0.1600 
 20 C       -3.6690    -4.7290    -1.0970 C.ar  1 <1>  -0.1500 
 21 C       -3.1950    -4.5990     1.1950 C.ar  1 <1>  -0.1500 
 22 C        0.0320     7.0690     0.1570 C.3   1 <1>   0.1200 
 23 C       -2.8360    -5.8340    -1.1500 C.ar  1 <1>   0.1600 
 24 C       -2.3830    -5.7100     1.0330 C.ar  1 <1>   0.1600 
 25 N       -2.1870    -6.3400    -0.1140 N.ar  1 <1>  -0.6200 
 26 H       -4.2140     1.7100     0.3340 H     1 <1>   0.0800 
 27 H       -3.4110     1.0390    -1.0790 H     1 <1>   0.0800 
 28 H       -1.9130    -1.7060     0.3980 H     1 <1>   0.0800 
 29 H       -3.0170    -1.5690     1.7560 H     1 <1>   0.0800 
 30 H        0.3080     2.2410    -0.1500 H     1 <1>   0.1500 
 31 H       -3.1730     2.7910     2.2210 H     1 <1>   0.1500 
 32 H       -5.4840    -0.2080    -1.0520 H     1 <1>   0.0800 
 33 H       -3.6040    -1.7140    -1.1650 H     1 <1>   0.0800 
 34 H       -2.9590     5.2340     1.9690 H     1 <1>   0.1500 
 35 H       -5.0340    -0.1720     1.7290 H     1 <1>   0.4000 
 36 H       -5.6130    -2.9810    -0.4320 H     1 <1>   0.0800 
 37 H       -5.1380    -2.7800     1.2220 H     1 <1>   0.0800 
 38 H        1.7590     4.8280    -0.0420 H     1 <1>   0.0800 
 39 H        1.0440     4.2550    -1.5270 H     1 <1>   0.0800 
 40 H       -0.1870     6.3060    -1.8270 H     1 <1>   0.0800 
 41 H        1.4480     6.7650    -1.4330 H     1 <1>   0.0800 
 42 H       -4.1560    -4.3880    -1.9910 H     1 <1>   0.1500 
 43 H       -3.2950    -4.1540     2.1670 H     1 <1>   0.1500 
 44 H       -0.2160     8.0800    -0.1120 H     1 <1>   0.0800 
 45 H        0.7590     7.0810     0.9510 H     1 <1>   0.0800 
 46 H       -2.6950    -6.3290    -2.0960 H     1 <1>   0.1500 
 47 H       -1.8680    -6.1010     1.8940 H     1 <1>   0.1500 
@<TRIPOS>BOND
  1   1   2  2   
  2   2   3  am  
  3   2   4  1   
  4   3   5  1   
  5   3   6  1   
  6   4   7  ar  
  7   4   8  ar  
  8   5   9  1   
  9   5  26  1   
 10   5  27  1   
 11   6  10  1   
 12   6  28  1   
 13   6  29  1   
 14   7  11  ar  
 15   7  30  1   
 16   8  12  ar  
 17   8  31  1   
 18   9  10  1   
 19   9  13  1   
 20   9  32  1   
 21  10  14  1   
 22  10  33  1   
 23  11  15  ar  
 24  11  16  1   
 25  12  15  ar  
 26  12  34  1   
 27  13  35  1   
 28  14  17  1   
 29  14  36  1   
 30  14  37  1   
 31  15  18  1   
 32  16  19  1   
 33  16  38  1   
 34  16  39  1   
 35  17  20  ar  
 36  17  21  ar  
 37  18  22  1   
 38  19  22  1   
 39  19  40  1   
 40  19  41  1   
 41  20  23  ar  
 42  20  42  1   
 43  21  24  ar  
 44  21  43  1   
 45  22  44  1   
 46  22  45  1   
 47  23  25  ar  
 48  23  46  1   
 49  24  25  ar  
 50  24  47  1   
@<TRIPOS>SUBSTRUCTURE
  1 ****   3 GROUP 4 **** **** 0

# MOE 2024.06 (io_trps.svl 2023.06)
