@<TRIPOS>MOLECULE
NONAME
59 62 1 0 0 
SMALL
USER_CHARGES


@<TRIPOS>ATOM
  1 O       -0.3260     0.1780     0.7250 O.2   1 <1>  -0.5700 
  2 C       -1.2810     0.9270     0.8100 C.2   1 <1>   0.7150 
  3 N       -2.5390     0.3850     0.9380 N.am  1 <1>  -0.6600 
  4 C       -1.0990     2.3460     0.7350 C.2   1 <1>  -0.2370 
  5 C       -2.7520    -1.0780     1.1770 C.3   1 <1>   0.1400 
  6 C       -3.7650     1.0580     0.4110 C.3   1 <1>   0.1400 
  7 N       -0.2700     2.9730    -0.1390 N.pl3 1 <1>   0.3140 
  8 C       -1.6860     3.3430     1.4520 C.2   1 <1>  -0.1500 
  9 C       -3.3740    -1.7500    -0.0610 C.3   1 <1>   0.3440 
 10 C       -4.3370     0.2760    -0.7880 C.3   1 <1>   0.2950 
 11 N       -0.3350     4.3090    -0.0220 N.2   1 <1>  -0.7070 
 12 C        0.6040     2.3590    -1.1660 C.3   1 <1>   0.0960 
 13 C       -1.1840     4.5220     0.9360 C.2   1 <1>   0.1080 
 14 O       -4.5390    -1.0660    -0.4490 O.3   1 <1>  -0.5600 
 15 C       -3.7070    -3.2100     0.2330 C.ar  1 <1>  -0.1430 
 16 C       -5.6840     0.8490    -1.2370 C.3   1 <1>  -0.1950 
 17 C       -0.2110     1.8430    -2.3610 C.3   1 <1>  -0.2400 
 18 C       -1.5600     5.9160     1.4050 C.3   1 <1>   0.0210 
 19 C       -4.9450    -3.5880     0.7360 C.ar  1 <1>  -0.1500 
 20 C       -2.7480    -4.1870     0.0060 C.ar  1 <1>  -0.1500 
 21 C       -6.1860     0.6480    -2.6320 C.3   1 <1>  -0.2000 
 22 C       -5.7500     2.0130    -2.1770 C.3   1 <1>  -0.2000 
 23 C       -3.0590     6.2250     1.2190 C.3   1 <1>  -0.0800 
 24 C       -5.2190    -4.9170     1.0080 C.ar  1 <1>  -0.1500 
 25 C       -3.0190    -5.5170     0.2780 C.ar  1 <1>  -0.1500 
 26 C       -3.4740     6.1510    -0.2580 C.3   1 <1>  -0.2400 
 27 C       -3.3920     7.6140     1.7790 C.3   1 <1>  -0.2400 
 28 C       -4.2550    -5.8830     0.7800 C.ar  1 <1>  -0.1500 
 29 H       -1.8240    -1.5670     1.4170 H     1 <1>   0.0800 
 30 H       -3.4120    -1.2090     2.0150 H     1 <1>   0.0800 
 31 H       -4.5050     1.1090     1.1900 H     1 <1>   0.0800 
 32 H       -3.5520     2.0610     0.0900 H     1 <1>   0.0800 
 33 H       -2.3980     3.2510     2.2510 H     1 <1>   0.1500 
 34 H       -2.6780    -1.7080    -0.8810 H     1 <1>   0.0800 
 35 H       -3.6420     0.3120    -1.6090 H     1 <1>   0.0800 
 36 H        1.2990     3.1080    -1.5010 H     1 <1>   0.0800 
 37 H        1.1660     1.5610    -0.7160 H     1 <1>   0.0800 
 38 H       -6.4160     0.8190    -0.4480 H     1 <1>   0.1000 
 39 H       -0.7770     2.6480    -2.7960 H     1 <1>   0.0800 
 40 H       -0.8770     1.0570    -2.0530 H     1 <1>   0.0800 
 41 H        0.4550     1.4490    -3.1080 H     1 <1>   0.0800 
 42 H       -1.2980     6.0020     2.4440 H     1 <1>   0.0800 
 43 H       -0.9720     6.6340     0.8600 H     1 <1>   0.0800 
 44 H       -5.7040    -2.8450     0.9140 H     1 <1>   0.1500 
 45 H       -1.7800    -3.9190    -0.3830 H     1 <1>   0.1500 
 46 H       -5.5710     0.1040    -3.3280 H     1 <1>   0.1000 
 47 H       -7.2350     0.4520    -2.7720 H     1 <1>   0.1000 
 48 H       -6.5040     2.7660    -2.0200 H     1 <1>   0.1000 
 49 H       -4.8430     2.4200    -2.5890 H     1 <1>   0.1000 
 50 H       -3.6290     5.4960     1.7690 H     1 <1>   0.0800 
 51 H       -6.1820    -5.1980     1.3960 H     1 <1>   0.1500 
 52 H       -2.2690    -6.2670     0.0990 H     1 <1>   0.1500 
 53 H       -2.9080     6.8540    -0.8440 H     1 <1>   0.0800 
 54 H       -4.5200     6.3750    -0.3670 H     1 <1>   0.0800 
 55 H       -3.2980     5.1650    -0.6520 H     1 <1>   0.0800 
 56 H       -2.8460     8.3760     1.2520 H     1 <1>   0.0800 
 57 H       -3.1380     7.6680     2.8230 H     1 <1>   0.0800 
 58 H       -4.4440     7.8140     1.6780 H     1 <1>   0.0800 
 59 H       -4.4680    -6.9160     0.9910 H     1 <1>   0.1500 
@<TRIPOS>BOND
  1   1   2  2   
  2   2   3  am  
  3   2   4  1   
  4   3   5  1   
  5   3   6  1   
  6   4   7  1   
  7   4   8  2   
  8   5   9  1   
  9   5  29  1   
 10   5  30  1   
 11   6  10  1   
 12   6  31  1   
 13   6  32  1   
 14   7  11  1   
 15   7  12  1   
 16   8  13  1   
 17   8  33  1   
 18   9  14  1   
 19   9  15  1   
 20   9  34  1   
 21  10  14  1   
 22  10  16  1   
 23  10  35  1   
 24  11  13  2   
 25  12  17  1   
 26  12  36  1   
 27  12  37  1   
 28  13  18  1   
 29  15  19  ar  
 30  15  20  ar  
 31  16  21  1   
 32  16  22  1   
 33  16  38  1   
 34  17  39  1   
 35  17  40  1   
 36  17  41  1   
 37  18  23  1   
 38  18  42  1   
 39  18  43  1   
 40  19  24  ar  
 41  19  44  1   
 42  20  25  ar  
 43  20  45  1   
 44  21  22  1   
 45  21  46  1   
 46  21  47  1   
 47  22  48  1   
 48  22  49  1   
 49  23  26  1   
 50  23  27  1   
 51  23  50  1   
 52  24  28  ar  
 53  24  51  1   
 54  25  28  ar  
 55  25  52  1   
 56  26  53  1   
 57  26  54  1   
 58  26  55  1   
 59  27  56  1   
 60  27  57  1   
 61  27  58  1   
 62  28  59  1   
@<TRIPOS>SUBSTRUCTURE
  1 ****   3 GROUP 4 **** **** 0

# MOE 2024.06 (io_trps.svl 2023.06)
