@<TRIPOS>MOLECULE
NONAME
56 60 1 0 0 
SMALL
USER_CHARGES


@<TRIPOS>ATOM
  1 O       -2.8640     0.3970    -2.1750 O.2   1 <1>  -0.5700 
  2 C       -2.5260     0.8010    -1.0800 C.2   1 <1>   0.5440 
  3 N       -2.3540    -0.1220    -0.0860 N.am  1 <1>  -0.7300 
  4 C       -2.3270     2.2110    -0.8560 C.ar  1 <1>   0.0860 
  5 C       -2.6080    -1.5720    -0.2430 C.3   1 <1>   0.2200 
  6 C       -2.1910     3.1020    -1.9040 C.ar  1 <1>   0.1600 
  7 C       -2.2630     2.7880     0.4000 C.ar  1 <1>   0.1600 
  8 C       -4.0450    -1.8640     0.1570 C.3   1 <1>  -0.0800 
  9 C       -1.8290    -2.3530     0.8070 C.3   1 <1>   0.1200 
 10 N       -2.0060     4.3890    -1.7400 N.ar  1 <1>  -0.6200 
 11 N       -2.0780     4.0680     0.6000 N.ar  1 <1>  -0.6200 
 12 C       -3.9420    -2.1050     1.6690 C.3   1 <1>   0.1200 
 13 C       -4.6030    -3.0850    -0.5990 C.3   1 <1>  -0.0170 
 14 O       -2.5850    -2.2580     1.9730 O.3   1 <1>  -0.5600 
 15 C       -1.9540     4.8340    -0.4850 C.ar  1 <1>   0.7200 
 16 C       -6.0830    -3.2970    -0.2980 C.ar  1 <1>  -0.1430 
 17 N       -1.7630     6.1790    -0.2950 N.pl3 1 <1>  -0.8380 
 18 C       -7.0910    -2.4720    -0.8530 C.ar  1 <1>   0.0000 
 19 C       -6.4780    -4.3050     0.5320 C.ar  1 <1>  -0.1500 
 20 C       -1.7040     6.8300     1.0520 C.3   1 <1>   0.2090 
 21 C       -1.6170     7.1630    -1.4150 C.3   1 <1>   0.2090 
 22 C       -8.4330    -2.7410    -0.4880 C.ar  1 <1>   0.3100 
 23 C       -6.8500    -1.4010    -1.7460 C.ar  1 <1>  -0.1500 
 24 C       -7.8350    -4.4890     0.8210 C.ar  1 <1>   0.1600 
 25 C       -0.4960     7.7770     1.1490 C.3   1 <1>   0.1200 
 26 C       -0.4140     8.0910    -1.1720 C.3   1 <1>   0.1200 
 27 N       -8.7870    -3.7500     0.3470 N.ar  1 <1>  -0.6200 
 28 C       -9.4550    -1.9320    -1.0120 C.ar  1 <1>  -0.1500 
 29 C       -7.8690    -0.6320    -2.2380 C.ar  1 <1>  -0.1500 
 30 O       -0.4870     8.6960     0.0900 O.3   1 <1>  -0.5600 
 31 C       -9.1890    -0.8980    -1.8670 C.ar  1 <1>  -0.1500 
 32 H       -2.1180     0.1460     0.8720 H     1 <1>   0.3700 
 33 H       -2.3690    -1.8870    -1.2450 H     1 <1>   0.0800 
 34 H       -2.2380     2.7270    -2.9130 H     1 <1>   0.1500 
 35 H       -2.3740     2.1690     1.2720 H     1 <1>   0.1500 
 36 H       -4.6760    -1.0160    -0.0400 H     1 <1>   0.0800 
 37 H       -0.8440    -1.9570     0.9770 H     1 <1>   0.0800 
 38 H       -1.7650    -3.3930     0.5400 H     1 <1>   0.0800 
 39 H       -4.4660    -2.9890     1.9860 H     1 <1>   0.0800 
 40 H       -4.3070    -1.2560     2.2210 H     1 <1>   0.0800 
 41 H       -4.0460    -3.9650    -0.3280 H     1 <1>   0.0800 
 42 H       -4.4780    -2.9510    -1.6600 H     1 <1>   0.0800 
 43 H       -5.7710    -4.9770     0.9830 H     1 <1>   0.1500 
 44 H       -2.6080     7.3930     1.2100 H     1 <1>   0.0800 
 45 H       -1.6310     6.1010     1.8390 H     1 <1>   0.0800 
 46 H       -1.4810     6.6680    -2.3590 H     1 <1>   0.0800 
 47 H       -2.5130     7.7550    -1.4810 H     1 <1>   0.0800 
 48 H       -5.8440    -1.1770    -2.0520 H     1 <1>   0.1500 
 49 H       -8.1040    -5.2970     1.4810 H     1 <1>   0.1500 
 50 H        0.4210     7.2150     1.1250 H     1 <1>   0.0800 
 51 H       -0.5360     8.3350     2.0670 H     1 <1>   0.0800 
 52 H       -0.3960     8.8730    -1.9100 H     1 <1>   0.0800 
 53 H        0.5040     7.5340    -1.2350 H     1 <1>   0.0800 
 54 H      -10.4620    -2.1560    -0.7140 H     1 <1>   0.1500 
 55 H       -7.6680     0.1810    -2.9140 H     1 <1>   0.1500 
 56 H       -9.9830    -0.2870    -2.2610 H     1 <1>   0.1500 
@<TRIPOS>BOND
  1   1   2  2   
  2   2   3  am  
  3   2   4  1   
  4   3   5  1   
  5   3  32  1   
  6   4   6  ar  
  7   4   7  ar  
  8   5   8  1   
  9   5   9  1   
 10   5  33  1   
 11   6  10  ar  
 12   6  34  1   
 13   7  11  ar  
 14   7  35  1   
 15   8  12  1   
 16   8  13  1   
 17   8  36  1   
 18   9  14  1   
 19   9  37  1   
 20   9  38  1   
 21  10  15  ar  
 22  11  15  ar  
 23  12  14  1   
 24  12  39  1   
 25  12  40  1   
 26  13  16  1   
 27  13  41  1   
 28  13  42  1   
 29  15  17  1   
 30  16  18  ar  
 31  16  19  ar  
 32  17  20  1   
 33  17  21  1   
 34  18  22  ar  
 35  18  23  ar  
 36  19  24  ar  
 37  19  43  1   
 38  20  25  1   
 39  20  44  1   
 40  20  45  1   
 41  21  26  1   
 42  21  46  1   
 43  21  47  1   
 44  22  27  ar  
 45  22  28  ar  
 46  23  29  ar  
 47  23  48  1   
 48  24  27  ar  
 49  24  49  1   
 50  25  30  1   
 51  25  50  1   
 52  25  51  1   
 53  26  30  1   
 54  26  52  1   
 55  26  53  1   
 56  28  31  ar  
 57  28  54  1   
 58  29  31  ar  
 59  29  55  1   
 60  31  56  1   
@<TRIPOS>SUBSTRUCTURE
  1 ****   2 GROUP 4 **** **** 0

# MOE 2024.06 (io_trps.svl 2023.06)
