@<TRIPOS>MOLECULE
NONAME
51 53 1 0 0 
SMALL
USER_CHARGES


@<TRIPOS>ATOM
  1 CL      -1.3960    -2.0050     3.6760 Cl    1 <1>  -0.1770 
  2 C       -2.2660    -3.1190     2.6510 C.ar  1 <1>   0.1770 
  3 C       -3.6370    -3.2350     2.7860 C.ar  1 <1>  -0.1500 
  4 C       -1.5700    -3.8670     1.7190 C.ar  1 <1>  -0.1500 
  5 C       -4.3300    -4.1180     1.9740 C.ar  1 <1>  -0.1500 
  6 C       -2.2650    -4.7480     0.9080 C.ar  1 <1>  -0.1500 
  7 C       -3.6420    -4.8780     1.0280 C.ar  1 <1>   0.0830 
  8 O       -4.2420    -5.7620     0.1910 O.3   1 <1>  -0.3630 
  9 C       -5.6410    -5.9100     0.1650 C.3   1 <1>   0.1200 
 10 C       -5.9720    -6.9810    -0.8780 C.3   1 <1>   0.3430 
 11 N       -7.4450    -7.1010    -1.0910 N.4   1 <1>  -0.9590 
 12 C       -7.8480    -8.4520    -1.6140 C.3   1 <1>   0.3430 
 13 C       -8.0530    -5.9860    -1.8660 C.3   1 <1>   0.3430 
 14 C       -9.3810    -8.6400    -1.5500 C.3   1 <1>   0.1400 
 15 C       -9.2760    -5.4560    -1.1080 C.3   1 <1>  -0.1600 
 16 N       -9.9550    -7.8020    -0.4510 N.am  1 <1>  -0.6600 
 17 C      -10.4290    -6.4550    -0.8870 C.3   1 <1>   0.1400 
 18 C       -9.5700    -8.0460     0.8560 C.2   1 <1>   0.5440 
 19 O       -9.1060    -7.0990     1.4680 O.2   1 <1>  -0.5700 
 20 C       -9.5670    -9.3870     1.4410 C.ar  1 <1>   0.3960 
 21 N       -8.6570   -10.2660     0.9760 N.ar  1 <1>  -0.6200 
 22 C      -10.4820    -9.7200     2.4490 C.ar  1 <1>  -0.1430 
 23 C       -8.6620   -11.4680     1.5250 C.ar  1 <1>   0.1600 
 24 C      -10.4650   -10.9850     3.0000 C.ar  1 <1>  -0.1500 
 25 C      -11.5030    -8.7080     2.9600 C.3   1 <1>  -0.0970 
 26 C       -9.5300   -11.8720     2.5210 C.ar  1 <1>  -0.1500 
 27 H       -4.1490    -2.6400     3.5220 H     1 <1>   0.1500 
 28 H       -0.5040    -3.7590     1.6340 H     1 <1>   0.1500 
 29 H       -5.3930    -4.1950     2.0990 H     1 <1>   0.1500 
 30 H       -1.7400    -5.3390     0.1790 H     1 <1>   0.1500 
 31 H       -6.0690    -4.9600    -0.0980 H     1 <1>   0.0800 
 32 H       -5.9690    -6.2220     1.1420 H     1 <1>   0.0800 
 33 H       -5.5830    -7.9220    -0.5240 H     1 <1>   0.0800 
 34 H       -5.4880    -6.7370    -1.8090 H     1 <1>   0.0800 
 35 H       -7.9100    -7.0510    -0.1580 H     1 <1>   0.4500 
 36 H       -7.3960    -9.2150    -1.0000 H     1 <1>   0.0800 
 37 H       -7.5000    -8.5930    -2.6240 H     1 <1>   0.0800 
 38 H       -8.3410    -6.3250    -2.8480 H     1 <1>   0.0800 
 39 H       -7.3400    -5.1860    -1.9820 H     1 <1>   0.0800 
 40 H       -9.6170    -9.6790    -1.3920 H     1 <1>   0.0800 
 41 H       -9.8170    -8.3570    -2.4920 H     1 <1>   0.0800 
 42 H       -9.6700    -4.6160    -1.6520 H     1 <1>   0.0800 
 43 H       -8.9580    -5.0690    -0.1560 H     1 <1>   0.0800 
 44 H      -11.0010    -6.5600    -1.7930 H     1 <1>   0.0800 
 45 H      -11.0950    -6.0600    -0.1350 H     1 <1>   0.0800 
 46 H       -7.9350   -12.1780     1.1660 H     1 <1>   0.1500 
 47 H      -11.1520   -11.2770     3.7770 H     1 <1>   0.1500 
 48 H      -12.1120    -8.3490     2.1500 H     1 <1>   0.0800 
 49 H      -11.0000    -7.8720     3.4140 H     1 <1>   0.0800 
 50 H      -12.1510    -9.1490     3.6970 H     1 <1>   0.0800 
 51 H       -9.4720   -12.8710     2.9170 H     1 <1>   0.1500 
@<TRIPOS>BOND
  1   1   2  1   
  2   2   3  ar  
  3   2   4  ar  
  4   3   5  ar  
  5   3  27  1   
  6   4   6  ar  
  7   4  28  1   
  8   5   7  ar  
  9   5  29  1   
 10   6   7  ar  
 11   6  30  1   
 12   7   8  1   
 13   8   9  1   
 14   9  10  1   
 15   9  31  1   
 16   9  32  1   
 17  10  11  1   
 18  10  33  1   
 19  10  34  1   
 20  11  12  1   
 21  11  13  1   
 22  11  35  1   
 23  12  14  1   
 24  12  36  1   
 25  12  37  1   
 26  13  15  1   
 27  13  38  1   
 28  13  39  1   
 29  14  16  1   
 30  14  40  1   
 31  14  41  1   
 32  15  17  1   
 33  15  42  1   
 34  15  43  1   
 35  16  17  1   
 36  16  18  am  
 37  17  44  1   
 38  17  45  1   
 39  18  19  2   
 40  18  20  1   
 41  20  21  ar  
 42  20  22  ar  
 43  21  23  ar  
 44  22  24  ar  
 45  22  25  1   
 46  23  26  ar  
 47  23  46  1   
 48  24  26  ar  
 49  24  47  1   
 50  25  48  1   
 51  25  49  1   
 52  25  50  1   
 53  26  51  1   
@<TRIPOS>SUBSTRUCTURE
  1 ****   9 GROUP 4 **** **** 0

# MOE 2024.06 (io_trps.svl 2023.06)
