@<TRIPOS>MOLECULE
NONAME
44 46 1 0 0 
SMALL
USER_CHARGES


@<TRIPOS>ATOM
  1 O       -1.6180     0.1120     1.9900 O.2   1 <1>  -0.5700 
  2 C       -1.9010     0.5930     0.9200 C.2   1 <1>   0.5690 
  3 N       -2.2310    -0.1790    -0.1620 N.am  1 <1>  -0.6600 
  4 C       -1.8470     2.1050     0.8170 C.3   1 <1>  -0.0990 
  5 C       -2.1690    -1.6800    -0.0520 C.3   1 <1>   0.3640 
  6 C       -2.7160     0.3780    -1.4650 C.3   1 <1>   0.1400 
  7 C       -0.4580     2.5630     0.3640 C.3   1 <1>   0.0210 
  8 C       -0.7960    -2.2250    -0.4770 C.ar  1 <1>  -0.1440 
  9 C       -3.3090    -2.4050    -0.8370 C.3   1 <1>   0.2000 
 10 C       -3.0810    -0.7160    -2.4760 C.3   1 <1>   0.1200 
 11 C       -0.4290     4.0670     0.1750 C.2   1 <1>  -0.1810 
 12 C        0.0980    -1.5340    -1.2870 C.ar  1 <1>  -0.1500 
 13 C       -0.4330    -3.4850    -0.0170 C.ar  1 <1>  -0.1500 
 14 O       -3.9140    -1.6410    -1.8560 O.3   1 <1>  -0.5600 
 15 C       -4.4370    -2.8540     0.1000 C.3   1 <1>   0.1200 
 16 C       -0.4880     5.0290     1.1790 C.2   1 <1>   0.1390 
 17 C       -0.3420     4.7730    -0.9720 C.2   1 <1>  -0.3020 
 18 C        1.3140    -2.0950    -1.6400 C.ar  1 <1>  -0.1500 
 19 C        0.7820    -4.0480    -0.3670 C.ar  1 <1>  -0.1500 
 20 O       -4.0040    -3.9060     0.9040 O.3   1 <1>  -0.6800 
 21 N       -0.4460     6.2370     0.7050 N.2   1 <1>  -0.7070 
 22 N       -0.3540     6.0770    -0.6280 N.pl3 1 <1>   0.3000 
 23 C        1.6560    -3.3540    -1.1820 C.ar  1 <1>  -0.1500 
 24 H       -2.5990     2.4730     0.1470 H     1 <1>   0.0800 
 25 H       -2.0550     2.5180     1.7880 H     1 <1>   0.0800 
 26 H       -2.2800    -1.9460     0.9850 H     1 <1>   0.0800 
 27 H       -3.5950     0.9720    -1.2860 H     1 <1>   0.0800 
 28 H       -1.9620     1.0160    -1.8910 H     1 <1>   0.0800 
 29 H       -0.1980     2.0840    -0.5630 H     1 <1>   0.0800 
 30 H        0.2760     2.2780     1.0990 H     1 <1>   0.0800 
 31 H       -2.9060    -3.2790    -1.3160 H     1 <1>   0.0800 
 32 H       -2.2090    -1.2230    -2.8510 H     1 <1>   0.0800 
 33 H       -3.6180    -0.2930    -3.3070 H     1 <1>   0.0800 
 34 H       -0.1320    -0.5520    -1.6510 H     1 <1>   0.1500 
 35 H       -1.0980    -4.0360     0.6270 H     1 <1>   0.1500 
 36 H       -5.2880    -3.1940    -0.4640 H     1 <1>   0.0800 
 37 H       -4.7310    -2.0420     0.7430 H     1 <1>   0.0800 
 38 H       -0.5600     4.8100     2.2310 H     1 <1>   0.1500 
 39 H       -0.2730     4.4360    -1.9890 H     1 <1>   0.1500 
 40 H        1.9960    -1.5500    -2.2690 H     1 <1>   0.1500 
 41 H        1.0470    -5.0250    -0.0020 H     1 <1>   0.1500 
 42 H       -4.0170    -4.7480     0.4070 H     1 <1>   0.4000 
 43 H       -0.2980     6.8770    -1.2700 H     1 <1>   0.2700 
 44 H        2.6010    -3.7900    -1.4550 H     1 <1>   0.1500 
@<TRIPOS>BOND
  1   1   2  2   
  2   2   3  am  
  3   2   4  1   
  4   3   5  1   
  5   3   6  1   
  6   4   7  1   
  7   4  24  1   
  8   4  25  1   
  9   5   8  1   
 10   5   9  1   
 11   5  26  1   
 12   6  10  1   
 13   6  27  1   
 14   6  28  1   
 15   7  11  1   
 16   7  29  1   
 17   7  30  1   
 18   8  12  ar  
 19   8  13  ar  
 20   9  14  1   
 21   9  15  1   
 22   9  31  1   
 23  10  14  1   
 24  10  32  1   
 25  10  33  1   
 26  11  16  1   
 27  11  17  2   
 28  12  18  ar  
 29  12  34  1   
 30  13  19  ar  
 31  13  35  1   
 32  15  20  1   
 33  15  36  1   
 34  15  37  1   
 35  16  21  2   
 36  16  38  1   
 37  17  22  1   
 38  17  39  1   
 39  18  23  ar  
 40  18  40  1   
 41  19  23  ar  
 42  19  41  1   
 43  20  42  1   
 44  21  22  1   
 45  22  43  1   
 46  23  44  1   
@<TRIPOS>SUBSTRUCTURE
  1 ****   3 GROUP 4 **** **** 0

# MOE 2024.06 (io_trps.svl 2023.06)
