@<TRIPOS>MOLECULE
NONAME
36 37 1 0 0 
SMALL
USER_CHARGES


@<TRIPOS>ATOM
  1 S       -1.3850    -0.9930     1.4820 S.3   1 <1>  -0.4600 
  2 C       -1.5470    -0.8220    -0.3370 C.3   1 <1>   0.1310 
  3 C       -0.7940     0.6390     2.0050 C.3   1 <1>  -0.0100 
  4 C       -2.0480    -2.1040    -0.9920 C.2   1 <1>   0.5690 
  5 O       -2.3770    -2.0700    -2.1530 O.2   1 <1>  -0.5700 
  6 N       -2.1120    -3.2480    -0.2670 N.am  1 <1>  -0.7300 
  7 C       -2.5960    -4.5580    -0.7540 C.3   1 <1>   0.2200 
  8 C       -3.9120    -4.8880    -0.0720 C.3   1 <1>  -0.0800 
  9 C       -1.6790    -5.6730    -0.2530 C.3   1 <1>   0.1200 
 10 C       -3.4270    -5.5050     1.2410 C.3   1 <1>   0.1200 
 11 C       -4.7480    -5.8760    -0.9070 C.3   1 <1>  -0.0160 
 12 O       -2.2100    -6.1280     0.9590 O.3   1 <1>  -0.5600 
 13 C       -6.0680    -6.2030    -0.2260 C.ar  1 <1>  -0.1440 
 14 C       -7.1200    -5.3100    -0.2140 C.ar  1 <1>  -0.1500 
 15 C       -6.2830    -7.4070     0.4160 C.ar  1 <1>  -0.1500 
 16 C       -8.3020    -5.6520     0.4230 C.ar  1 <1>   0.1600 
 17 C       -7.5040    -7.6500     1.0230 C.ar  1 <1>   0.1600 
 18 N       -8.5190    -6.8000     1.0440 N.ar  1 <1>  -0.6200 
 19 H       -2.2380    -0.0210    -0.5230 H     1 <1>   0.0800 
 20 H       -0.5780    -0.5670    -0.7230 H     1 <1>   0.0800 
 21 H       -0.6730     0.6160     3.0730 H     1 <1>   0.0800 
 22 H       -1.5300     1.3690     1.7200 H     1 <1>   0.0800 
 23 H        0.1470     0.8260     1.5190 H     1 <1>   0.0800 
 24 H       -1.8450    -3.2060     0.7230 H     1 <1>   0.3700 
 25 H       -2.6680    -4.5480    -1.8290 H     1 <1>   0.0800 
 26 H       -4.4940    -4.0010     0.1080 H     1 <1>   0.0800 
 27 H       -0.6690    -5.3370    -0.0990 H     1 <1>   0.0800 
 28 H       -1.6850    -6.5030    -0.9380 H     1 <1>   0.0800 
 29 H       -4.1090    -6.2280     1.6540 H     1 <1>   0.0800 
 30 H       -3.2370    -4.7380     1.9720 H     1 <1>   0.0800 
 31 H       -4.1940    -6.7840    -1.0740 H     1 <1>   0.0800 
 32 H       -4.9560    -5.4410    -1.8690 H     1 <1>   0.0800 
 33 H       -7.0320    -4.3530    -0.6940 H     1 <1>   0.1500 
 34 H       -5.5140    -8.1560     0.4510 H     1 <1>   0.1500 
 35 H       -9.1110    -4.9420     0.4220 H     1 <1>   0.1500 
 36 H       -7.6540    -8.5940     1.5190 H     1 <1>   0.1500 
@<TRIPOS>BOND
  1   1   2  1   
  2   1   3  1   
  3   2   4  1   
  4   2  19  1   
  5   2  20  1   
  6   3  21  1   
  7   3  22  1   
  8   3  23  1   
  9   4   5  2   
 10   4   6  am  
 11   6   7  1   
 12   6  24  1   
 13   7   8  1   
 14   7   9  1   
 15   7  25  1   
 16   8  10  1   
 17   8  11  1   
 18   8  26  1   
 19   9  12  1   
 20   9  27  1   
 21   9  28  1   
 22  10  12  1   
 23  10  29  1   
 24  10  30  1   
 25  11  13  1   
 26  11  31  1   
 27  11  32  1   
 28  13  14  ar  
 29  13  15  ar  
 30  14  16  ar  
 31  14  33  1   
 32  15  17  ar  
 33  15  34  1   
 34  16  18  ar  
 35  16  35  1   
 36  17  18  ar  
 37  17  36  1   
@<TRIPOS>SUBSTRUCTURE
  1 ****   8 GROUP 4 **** **** 0

# MOE 2024.06 (io_trps.svl 2023.06)
