@<TRIPOS>MOLECULE
NONAME
49 50 1 0 0 
SMALL
USER_CHARGES


@<TRIPOS>ATOM
  1 N       -1.9450    -0.6070     0.3550 N.ar  1 <1>  -0.6200 
  2 C       -0.8140    -0.0090     0.7090 C.ar  1 <1>   0.4760 
  3 C       -2.1840    -0.6660    -0.9450 C.ar  1 <1>   0.1660 
  4 N        0.0870     0.5270    -0.0930 N.ar  1 <1>  -0.6200 
  5 C       -0.5180     0.0560     2.1990 C.3   1 <1>  -0.0160 
  6 C       -1.3080    -0.1320    -1.8620 C.ar  1 <1>  -0.1500 
  7 C       -3.4660    -1.3720    -1.3930 C.3   1 <1>   0.4870 
  8 C       -0.1690     0.4640    -1.3790 C.ar  1 <1>   0.1600 
  9 C        0.1100    -1.2440     2.7250 C.3   1 <1>  -0.2400 
 10 N       -3.8840    -2.3470    -0.3360 N.4   1 <1>  -0.9590 
 11 C       -3.4040    -3.7510    -0.5200 C.3   1 <1>   0.5660 
 12 C       -5.3520    -2.2580    -0.0530 C.3   1 <1>   0.2630 
 13 C       -3.8450    -4.5710     0.6840 C.ar  1 <1>  -0.1430 
 14 C       -1.8790    -3.8300    -0.7270 C.3   1 <1>  -0.1600 
 15 C       -3.3780    -4.2790     1.9590 C.ar  1 <1>   0.1600 
 16 C       -4.7300    -5.6220     0.5280 C.ar  1 <1>  -0.1500 
 17 C       -1.3610    -5.2730    -0.8520 C.3   1 <1>  -0.1600 
 18 N       -3.7300    -4.9190     3.0570 N.ar  1 <1>  -0.6200 
 19 C       -5.0970    -6.3080     1.6660 C.ar  1 <1>  -0.1500 
 20 C        0.1470    -5.2900    -1.1290 C.3   1 <1>  -0.1600 
 21 C       -4.5770    -5.9210     2.8890 C.ar  1 <1>   0.1600 
 22 C        0.6660    -6.7250    -1.2470 C.3   1 <1>  -0.2400 
 23 H       -1.4300     0.2570     2.7310 H     1 <1>   0.0800 
 24 H        0.1540     0.8750     2.3870 H     1 <1>   0.0800 
 25 H       -1.4870    -0.1700    -2.9210 H     1 <1>   0.1500 
 26 H       -3.3130    -1.8700    -2.3350 H     1 <1>   0.0800 
 27 H       -4.2290    -0.6230    -1.5190 H     1 <1>   0.0800 
 28 H        0.5490     0.8990    -2.0560 H     1 <1>   0.1500 
 29 H       -0.5590    -2.0730     2.5770 H     1 <1>   0.0800 
 30 H        0.3200    -1.1540     3.7760 H     1 <1>   0.0800 
 31 H        1.0310    -1.4440     2.2060 H     1 <1>   0.0800 
 32 H       -3.3770    -1.9830     0.4930 H     1 <1>   0.4500 
 33 H       -3.8780    -4.1670    -1.3950 H     1 <1>   0.0800 
 34 H       -5.9220    -2.6250    -0.8920 H     1 <1>   0.0800 
 35 H       -5.6340    -1.2350     0.1400 H     1 <1>   0.0800 
 36 H       -5.6050    -2.8450     0.8170 H     1 <1>   0.0800 
 37 H       -1.3720    -3.3560     0.0960 H     1 <1>   0.0800 
 38 H       -1.6110    -3.3160    -1.6310 H     1 <1>   0.0800 
 39 H       -2.6770    -3.4730     2.0960 H     1 <1>   0.1500 
 40 H       -5.1240    -5.9120    -0.4320 H     1 <1>   0.1500 
 41 H       -1.8720    -5.7790    -1.6540 H     1 <1>   0.0800 
 42 H       -1.5480    -5.8180     0.0590 H     1 <1>   0.0800 
 43 H       -5.7790    -7.1380     1.6130 H     1 <1>   0.1500 
 44 H        0.6710    -4.7940    -0.3280 H     1 <1>   0.0800 
 45 H        0.3620    -4.7640    -2.0430 H     1 <1>   0.0800 
 46 H       -4.8720    -6.4640     3.7730 H     1 <1>   0.1500 
 47 H        0.4890    -7.2680    -0.3350 H     1 <1>   0.0800 
 48 H        1.7250    -6.7190    -1.4380 H     1 <1>   0.0800 
 49 H        0.1780    -7.2400    -2.0570 H     1 <1>   0.0800 
@<TRIPOS>BOND
  1   1   2  ar  
  2   1   3  ar  
  3   2   4  ar  
  4   2   5  1   
  5   3   6  ar  
  6   3   7  1   
  7   4   8  ar  
  8   5   9  1   
  9   5  23  1   
 10   5  24  1   
 11   6   8  ar  
 12   6  25  1   
 13   7  10  1   
 14   7  26  1   
 15   7  27  1   
 16   8  28  1   
 17   9  29  1   
 18   9  30  1   
 19   9  31  1   
 20  10  11  1   
 21  10  12  1   
 22  10  32  1   
 23  11  13  1   
 24  11  14  1   
 25  11  33  1   
 26  12  34  1   
 27  12  35  1   
 28  12  36  1   
 29  13  15  ar  
 30  13  16  ar  
 31  14  17  1   
 32  14  37  1   
 33  14  38  1   
 34  15  18  ar  
 35  15  39  1   
 36  16  19  ar  
 37  16  40  1   
 38  17  20  1   
 39  17  41  1   
 40  17  42  1   
 41  18  21  ar  
 42  19  21  ar  
 43  19  43  1   
 44  20  22  1   
 45  20  44  1   
 46  20  45  1   
 47  21  46  1   
 48  22  47  1   
 49  22  48  1   
 50  22  49  1   
@<TRIPOS>SUBSTRUCTURE
  1 ****  14 GROUP 4 **** **** 0

# MOE 2024.06 (io_trps.svl 2023.06)
