@<TRIPOS>MOLECULE
NONAME
47 48 1 0 0 
SMALL
USER_CHARGES


@<TRIPOS>ATOM
  1 O       -1.3760    -0.1830     2.2970 O.2   1 <1>  -0.5700 
  2 C       -1.6690     0.5600     1.3830 C.2   1 <1>   0.5690 
  3 N       -2.6530     0.1860     0.4990 N.am  1 <1>  -0.6600 
  4 C       -0.9120     1.9270     1.2690 C.3   1 <1>   0.3410 
  5 C       -2.8000    -1.2690     0.1580 C.3   1 <1>   0.3640 
  6 C       -3.7710     1.1030     0.1380 C.3   1 <1>   0.1400 
  7 O       -1.0870     2.4690    -0.0310 O.3   1 <1>  -0.5600 
  8 C        0.5960     1.7140     1.5170 C.3   1 <1>  -0.2400 
  9 C       -1.4870     2.9160     2.2980 C.3   1 <1>  -0.2400 
 10 C       -1.4430    -1.7810    -0.3440 C.ar  1 <1>  -0.1440 
 11 C       -3.8760    -1.5910    -0.9280 C.3   1 <1>   0.2000 
 12 C       -4.4510     0.6710    -1.1590 C.3   1 <1>   0.1200 
 13 C       -0.4100     3.6230    -0.4240 C.3   1 <1>   0.1200 
 14 C       -0.8660    -2.9090     0.2200 C.ar  1 <1>  -0.1500 
 15 C       -0.7680    -1.1230    -1.3660 C.ar  1 <1>  -0.1500 
 16 O       -4.9020    -0.6370    -1.0140 O.3   1 <1>  -0.5600 
 17 C       -4.5730    -2.9440    -0.7010 C.3   1 <1>   0.1200 
 18 C       -0.9550     4.0150    -1.7910 C.3   1 <1>  -0.2400 
 19 C        0.3520    -3.3820    -0.2370 C.ar  1 <1>  -0.1500 
 20 C        0.4490    -1.5940    -1.8250 C.ar  1 <1>  -0.1500 
 21 O       -3.6630    -3.9850    -0.5500 O.3   1 <1>  -0.6800 
 22 C        1.0090    -2.7260    -1.2620 C.ar  1 <1>  -0.1500 
 23 H       -3.0610    -1.7920     1.0630 H     1 <1>   0.0800 
 24 H       -4.4980     1.0920     0.9310 H     1 <1>   0.0800 
 25 H       -3.4210     2.1110     0.0280 H     1 <1>   0.0800 
 26 H        0.7440     1.2300     2.4660 H     1 <1>   0.0800 
 27 H        1.1350     2.6410     1.5450 H     1 <1>   0.0800 
 28 H        1.0010     1.0740     0.7540 H     1 <1>   0.0800 
 29 H       -1.4770     2.4600     3.2720 H     1 <1>   0.0800 
 30 H       -2.5040     3.1590     2.0530 H     1 <1>   0.0800 
 31 H       -0.9030     3.8150     2.3550 H     1 <1>   0.0800 
 32 H       -3.4050    -1.6160    -1.8940 H     1 <1>   0.0800 
 33 H       -3.7730     0.7300    -1.9930 H     1 <1>   0.0800 
 34 H       -5.3050     1.2950    -1.3550 H     1 <1>   0.0800 
 35 H       -0.5860     4.4110     0.2850 H     1 <1>   0.0800 
 36 H        0.6420     3.4100    -0.4950 H     1 <1>   0.0800 
 37 H       -1.3660    -3.4240     1.0230 H     1 <1>   0.1500 
 38 H       -1.1890    -0.2320    -1.8000 H     1 <1>   0.1500 
 39 H       -5.2050    -3.1760    -1.5400 H     1 <1>   0.0800 
 40 H       -5.1700    -2.9060     0.1930 H     1 <1>   0.0800 
 41 H       -2.0090     4.2180    -1.7240 H     1 <1>   0.0800 
 42 H       -0.7850     3.2210    -2.4960 H     1 <1>   0.0800 
 43 H       -0.4550     4.8990    -2.1420 H     1 <1>   0.0800 
 44 H        0.7870    -4.2590     0.2090 H     1 <1>   0.1500 
 45 H        0.9620    -1.0750    -2.6160 H     1 <1>   0.1500 
 46 H       -2.9970    -3.9830    -1.2680 H     1 <1>   0.4000 
 47 H        1.9560    -3.0940    -1.6170 H     1 <1>   0.1500 
@<TRIPOS>BOND
  1   1   2  2   
  2   2   3  am  
  3   2   4  1   
  4   3   5  1   
  5   3   6  1   
  6   4   7  1   
  7   4   8  1   
  8   4   9  1   
  9   5  10  1   
 10   5  11  1   
 11   5  23  1   
 12   6  12  1   
 13   6  24  1   
 14   6  25  1   
 15   7  13  1   
 16   8  26  1   
 17   8  27  1   
 18   8  28  1   
 19   9  29  1   
 20   9  30  1   
 21   9  31  1   
 22  10  14  ar  
 23  10  15  ar  
 24  11  16  1   
 25  11  17  1   
 26  11  32  1   
 27  12  16  1   
 28  12  33  1   
 29  12  34  1   
 30  13  18  1   
 31  13  35  1   
 32  13  36  1   
 33  14  19  ar  
 34  14  37  1   
 35  15  20  ar  
 36  15  38  1   
 37  17  21  1   
 38  17  39  1   
 39  17  40  1   
 40  18  41  1   
 41  18  42  1   
 42  18  43  1   
 43  19  22  ar  
 44  19  44  1   
 45  20  22  ar  
 46  20  45  1   
 47  21  46  1   
 48  22  47  1   
@<TRIPOS>SUBSTRUCTURE
  1 ****   3 GROUP 4 **** **** 0

# MOE 2024.06 (io_trps.svl 2023.06)
