@<TRIPOS>MOLECULE
NONAME
44 46 1 0 0 
SMALL
USER_CHARGES


@<TRIPOS>ATOM
  1 CL      -1.3150     3.1230    -3.2470 Cl    1 <1>  -0.1770 
  2 C       -1.7780     2.9180    -1.5730 C.ar  1 <1>   0.1770 
  3 C       -0.8200     2.6080    -0.6140 C.ar  1 <1>  -0.1440 
  4 C       -3.1110     3.0850    -1.2450 C.ar  1 <1>  -0.1500 
  5 C       -1.2240     2.4730     0.7080 C.ar  1 <1>  -0.1500 
  6 C        0.6530     2.4280    -0.9830 C.3   1 <1>   0.0450 
  7 C       -3.5040     2.9410     0.0720 C.ar  1 <1>   0.0830 
  8 C       -2.5550     2.6430     1.0530 C.ar  1 <1>   0.0830 
  9 C        1.3920     3.7390    -1.2010 C.2   1 <1>   0.5690 
 10 O       -4.8150     3.0900     0.3850 O.3   1 <1>  -0.3630 
 11 O       -2.9100     2.5200     2.3570 O.3   1 <1>  -0.3630 
 12 O        2.5280     3.7020    -1.6080 O.2   1 <1>  -0.5700 
 13 N        0.7810     4.9130    -0.9130 N.am  1 <1>  -0.7300 
 14 C       -5.2270     2.6260     1.6580 C.3   1 <1>   0.1200 
 15 C       -4.1890     3.0030     2.7240 C.3   1 <1>   0.1200 
 16 C        1.3470     6.2430    -1.1230 C.3   1 <1>   0.4000 
 17 C        1.5090     6.8660     0.2510 C.2   1 <1>  -0.3320 
 18 C        0.4040     7.0220    -2.0490 C.3   1 <1>  -0.1600 
 19 N        2.5270     6.5460     1.0820 N.pl3 1 <1>   0.3140 
 20 C        0.7540     7.7810     0.9020 C.2   1 <1>  -0.1500 
 21 C        0.9710     8.3870    -2.4690 C.3   1 <1>  -0.2400 
 22 N        2.4490     7.2280     2.2380 N.2   1 <1>  -0.7070 
 23 C        3.6150     5.5840     0.8510 C.3   1 <1>   0.0160 
 24 C        1.3880     7.9630     2.1230 C.2   1 <1>   0.1390 
 25 H       -3.8340     3.3210    -2.0030 H     1 <1>   0.1500 
 26 H       -0.5170     2.2400     1.4850 H     1 <1>   0.1500 
 27 H        0.7350     1.8420    -1.8790 H     1 <1>   0.0800 
 28 H        1.1620     1.8890    -0.2060 H     1 <1>   0.0800 
 29 H       -0.1420     4.9140    -0.4780 H     1 <1>   0.3700 
 30 H       -5.3370     1.5570     1.6050 H     1 <1>   0.0800 
 31 H       -6.1820     3.0680     1.8790 H     1 <1>   0.0800 
 32 H       -4.1270     4.0720     2.8230 H     1 <1>   0.0800 
 33 H       -4.4450     2.5750     3.6760 H     1 <1>   0.0800 
 34 H        2.3080     6.1610    -1.6050 H     1 <1>   0.0800 
 35 H       -0.5460     7.1620    -1.5660 H     1 <1>   0.0800 
 36 H        0.2420     6.4380    -2.9390 H     1 <1>   0.0800 
 37 H       -0.1430     8.2810     0.5830 H     1 <1>   0.1500 
 38 H        1.1350     9.0160    -1.6120 H     1 <1>   0.0800 
 39 H        0.2820     8.8840    -3.1280 H     1 <1>   0.0800 
 40 H        1.9070     8.2620    -2.9860 H     1 <1>   0.0800 
 41 H        4.0340     5.7380    -0.1250 H     1 <1>   0.0800 
 42 H        3.2240     4.5870     0.9260 H     1 <1>   0.0800 
 43 H        4.3760     5.7270     1.5960 H     1 <1>   0.0800 
 44 H        1.0470     8.6340     2.8940 H     1 <1>   0.1500 
@<TRIPOS>BOND
  1   1   2  1   
  2   2   3  ar  
  3   2   4  ar  
  4   3   5  ar  
  5   3   6  1   
  6   4   7  ar  
  7   4  25  1   
  8   5   8  ar  
  9   5  26  1   
 10   6   9  1   
 11   6  27  1   
 12   6  28  1   
 13   7   8  ar  
 14   7  10  1   
 15   8  11  1   
 16   9  12  2   
 17   9  13  am  
 18  10  14  1   
 19  11  15  1   
 20  13  16  1   
 21  13  29  1   
 22  14  15  1   
 23  14  30  1   
 24  14  31  1   
 25  15  32  1   
 26  15  33  1   
 27  16  17  1   
 28  16  18  1   
 29  16  34  1   
 30  17  19  1   
 31  17  20  2   
 32  18  21  1   
 33  18  35  1   
 34  18  36  1   
 35  19  22  1   
 36  19  23  1   
 37  20  24  1   
 38  20  37  1   
 39  21  38  1   
 40  21  39  1   
 41  21  40  1   
 42  22  24  2   
 43  23  41  1   
 44  23  42  1   
 45  23  43  1   
 46  24  44  1   
@<TRIPOS>SUBSTRUCTURE
  1 ****  13 GROUP 4 **** **** 0

# MOE 2024.06 (io_trps.svl 2023.06)
