@<TRIPOS>MOLECULE
NONAME
50 52 1 0 0 
SMALL
USER_CHARGES


@<TRIPOS>ATOM
  1 O       -0.8670    -1.0360     0.6550 O.2   1 <1>  -0.5700 
  2 C       -0.0360    -1.8980     0.5020 C.2   1 <1>   0.5690 
  3 N       -0.2760    -3.0660    -0.1700 N.am  1 <1>  -0.6600 
  4 C        1.3480    -1.6940     1.0820 C.3   1 <1>  -0.0990 
  5 C        0.7950    -4.0840    -0.3090 C.3   1 <1>   0.1400 
  6 C       -1.6050    -3.4020    -0.7450 C.3   1 <1>   0.0600 
  7 C        2.4210    -2.0790     0.0500 C.3   1 <1>  -0.0800 
  8 C        2.1280    -3.4080    -0.6870 C.3   1 <1>  -0.0800 
  9 C        3.8210    -2.2150     0.6600 C.3   1 <1>  -0.1600 
 10 C        3.3470    -4.3050    -0.4330 C.3   1 <1>  -0.1600 
 11 C        4.4820    -3.3190    -0.1540 C.3   1 <1>   0.2200 
 12 N        5.6730    -3.8890     0.5460 N.am  1 <1>  -0.6600 
 13 C        6.9590    -3.4780     0.2700 C.2   1 <1>   0.5690 
 14 C        5.4340    -4.8980     1.6260 C.3   1 <1>   0.0600 
 15 O        7.9200    -3.9990     0.7960 O.2   1 <1>  -0.5700 
 16 C        7.2340    -2.3350    -0.7200 C.3   1 <1>   0.2010 
 17 N        8.5800    -1.7200    -0.5420 N.am  1 <1>  -0.7300 
 18 C        8.8970    -0.4290    -0.8500 C.2   1 <1>   0.5440 
 19 O        8.0320     0.2540    -1.3640 O.2   1 <1>  -0.5700 
 20 C       10.2170     0.1140    -0.5640 C.ar  1 <1>   0.0860 
 21 C       10.4300     1.4930    -0.5280 C.ar  1 <1>  -0.1500 
 22 C       11.3220    -0.7050    -0.3160 C.ar  1 <1>  -0.1500 
 23 C       11.6740     2.0310    -0.2520 C.ar  1 <1>  -0.1500 
 24 C       12.5690    -0.1750    -0.0380 C.ar  1 <1>  -0.1500 
 25 C       12.7480     1.1960    -0.0050 C.ar  1 <1>  -0.1500 
 26 H        1.4670    -0.6670     1.3750 H     1 <1>   0.0800 
 27 H        1.4270    -2.3070     1.9600 H     1 <1>   0.0800 
 28 H        0.8910    -4.5990     0.6320 H     1 <1>   0.0800 
 29 H        0.5280    -4.8050    -1.0630 H     1 <1>   0.0800 
 30 H       -1.9790    -4.3050    -0.2950 H     1 <1>   0.0800 
 31 H       -1.5180    -3.5410    -1.8080 H     1 <1>   0.0800 
 32 H       -2.3090    -2.6090    -0.5590 H     1 <1>   0.0800 
 33 H        2.4480    -1.3010    -0.6960 H     1 <1>   0.0800 
 34 H        2.0900    -3.1910    -1.7420 H     1 <1>   0.0800 
 35 H        3.7500    -2.5160     1.6900 H     1 <1>   0.0800 
 36 H        4.3680    -1.2900     0.5960 H     1 <1>   0.0800 
 37 H        3.5660    -4.9280    -1.2830 H     1 <1>   0.0800 
 38 H        3.1520    -4.9200     0.4250 H     1 <1>   0.0800 
 39 H        4.7760    -2.9090    -1.1050 H     1 <1>   0.0800 
 40 H        4.6170    -4.5900     2.2530 H     1 <1>   0.0800 
 41 H        6.3060    -5.0090     2.2490 H     1 <1>   0.0800 
 42 H        5.2080    -5.8540     1.1870 H     1 <1>   0.0800 
 43 H        6.4910    -1.5700    -0.5950 H     1 <1>   0.0800 
 44 H        7.1620    -2.7220    -1.7200 H     1 <1>   0.0800 
 45 H        9.2060    -2.2940     0.0320 H     1 <1>   0.3700 
 46 H        9.6010     2.1530    -0.7210 H     1 <1>   0.1500 
 47 H       11.2120    -1.7740    -0.3460 H     1 <1>   0.1500 
 48 H       11.8070     3.0990    -0.2300 H     1 <1>   0.1500 
 49 H       13.4030    -0.8290     0.1510 H     1 <1>   0.1500 
 50 H       13.7180     1.6110     0.2110 H     1 <1>   0.1500 
@<TRIPOS>BOND
  1   1   2  2   
  2   2   3  am  
  3   2   4  1   
  4   3   5  1   
  5   3   6  1   
  6   4   7  1   
  7   4  26  1   
  8   4  27  1   
  9   5   8  1   
 10   5  28  1   
 11   5  29  1   
 12   6  30  1   
 13   6  31  1   
 14   6  32  1   
 15   7   8  1   
 16   7   9  1   
 17   7  33  1   
 18   8  10  1   
 19   8  34  1   
 20   9  11  1   
 21   9  35  1   
 22   9  36  1   
 23  10  11  1   
 24  10  37  1   
 25  10  38  1   
 26  11  12  1   
 27  11  39  1   
 28  12  13  am  
 29  12  14  1   
 30  13  15  2   
 31  13  16  1   
 32  14  40  1   
 33  14  41  1   
 34  14  42  1   
 35  16  17  1   
 36  16  43  1   
 37  16  44  1   
 38  17  18  am  
 39  17  45  1   
 40  18  19  2   
 41  18  20  1   
 42  20  21  ar  
 43  20  22  ar  
 44  21  23  ar  
 45  21  46  1   
 46  22  24  ar  
 47  22  47  1   
 48  23  25  ar  
 49  23  48  1   
 50  24  25  ar  
 51  24  49  1   
 52  25  50  1   
@<TRIPOS>SUBSTRUCTURE
  1 ****  16 GROUP 4 **** **** 0

# MOE 2024.06 (io_trps.svl 2023.06)
