@<TRIPOS>MOLECULE
NONAME
41 42 1 0 0 
SMALL
USER_CHARGES


@<TRIPOS>ATOM
  1 CL      -5.0100     0.3740     0.7710 Cl    1 <1>  -0.1400 
  2 C       -4.1150    -1.1060     1.0500 C.2   1 <1>   0.1540 
  3 C       -3.1990    -1.1540     2.1460 C.2   1 <1>   0.6160 
  4 C       -4.3040    -2.1740     0.2300 C.2   1 <1>  -0.1500 
  5 O       -2.9780    -0.2460     2.9310 O.2   1 <1>  -0.5700 
  6 N       -2.5190    -2.3310     2.3230 N.am  1 <1>  -0.5390 
  7 C       -3.5860    -3.3940     0.4460 C.2   1 <1>   0.0140 
  8 C       -2.7010    -3.4170     1.5010 C.2   1 <1>  -0.0410 
  9 C       -3.8100    -4.5230    -0.4300 C.2   1 <1>   0.6160 
 10 O       -4.3750    -4.3860    -1.4980 O.2   1 <1>  -0.5700 
 11 N       -3.4260    -5.7830    -0.0740 N.am  1 <1>  -0.7300 
 12 C       -3.5320    -6.9930    -0.9270 C.3   1 <1>   0.2200 
 13 C       -4.7460    -7.8270    -0.5430 C.3   1 <1>  -0.0800 
 14 C       -2.4150    -7.9490    -0.5360 C.3   1 <1>   0.1200 
 15 C       -4.2400    -8.6340     0.6610 C.3   1 <1>   0.1200 
 16 C       -6.0390    -7.0260    -0.2930 C.3   1 <1>  -0.0550 
 17 O       -2.8450    -8.5130     0.6640 O.3   1 <1>  -0.5600 
 18 S       -7.4520    -8.0630     0.0760 S.o2  1 <1>   1.3330 
 19 O       -7.2840    -8.6200     1.4000 O.2   1 <1>  -0.6500 
 20 O       -7.6630    -8.9440    -1.0500 O.2   1 <1>  -0.6500 
 21 N       -8.7320    -6.9490     0.1380 N.am  1 <1>  -0.8490 
 22 C      -10.0130    -7.5520    -0.2420 C.3   1 <1>   0.1160 
 23 C       -8.8600    -6.2760     1.4350 C.3   1 <1>   0.1160 
 24 H       -4.9950    -2.1200    -0.5940 H     1 <1>   0.1500 
 25 H       -1.8640    -2.3200     3.1100 H     1 <1>   0.3700 
 26 H       -2.1100    -4.2920     1.7180 H     1 <1>   0.1500 
 27 H       -3.0760    -5.9850     0.8650 H     1 <1>   0.3700 
 28 H       -3.5100    -6.7340    -1.9730 H     1 <1>   0.0800 
 29 H       -4.9350    -8.5250    -1.3420 H     1 <1>   0.0800 
 30 H       -1.4690    -7.4570    -0.3920 H     1 <1>   0.0800 
 31 H       -2.3130    -8.7410    -1.2590 H     1 <1>   0.0800 
 32 H       -4.5010    -9.6770     0.5820 H     1 <1>   0.0800 
 33 H       -4.6040    -8.2410     1.5950 H     1 <1>   0.0800 
 34 H       -6.2560    -6.4480    -1.1700 H     1 <1>   0.0800 
 35 H       -5.8910    -6.3420     0.5180 H     1 <1>   0.0800 
 36 H      -10.7970    -6.8150    -0.2100 H     1 <1>   0.0800 
 37 H      -10.2580    -8.3620     0.4250 H     1 <1>   0.0800 
 38 H       -9.9550    -7.9360    -1.2470 H     1 <1>   0.0800 
 39 H       -9.6250    -5.5200     1.3840 H     1 <1>   0.0800 
 40 H       -7.9310    -5.8020     1.7010 H     1 <1>   0.0800 
 41 H       -9.1190    -6.9860     2.2040 H     1 <1>   0.0800 
@<TRIPOS>BOND
  1   1   2  1   
  2   2   3  1   
  3   2   4  2   
  4   3   5  2   
  5   3   6  am  
  6   4   7  1   
  7   4  24  1   
  8   6   8  1   
  9   6  25  1   
 10   7   8  2   
 11   7   9  1   
 12   8  26  1   
 13   9  10  2   
 14   9  11  am  
 15  11  12  1   
 16  11  27  1   
 17  12  13  1   
 18  12  14  1   
 19  12  28  1   
 20  13  15  1   
 21  13  16  1   
 22  13  29  1   
 23  14  17  1   
 24  14  30  1   
 25  14  31  1   
 26  15  17  1   
 27  15  32  1   
 28  15  33  1   
 29  16  18  1   
 30  16  34  1   
 31  16  35  1   
 32  18  19  2   
 33  18  20  2   
 34  18  21  am  
 35  21  22  1   
 36  21  23  1   
 37  22  36  1   
 38  22  37  1   
 39  22  38  1   
 40  23  39  1   
 41  23  40  1   
 42  23  41  1   
@<TRIPOS>SUBSTRUCTURE
  1 ****   9 GROUP 4 **** **** 0

# MOE 2024.06 (io_trps.svl 2023.06)
