@<TRIPOS>MOLECULE
NONAME
46 49 1 0 0 
SMALL
USER_CHARGES


@<TRIPOS>ATOM
  1 F        1.8060    -0.8080    -1.8100 F     1 <1>  -0.3400 
  2 C        3.0910    -1.1350    -1.9490 C.3   1 <1>   0.2600 
  3 C        3.6420    -1.4220    -0.5510 C.3   1 <1>   0.2000 
  4 C        3.8390     0.1190    -2.4110 C.3   1 <1>   0.1400 
  5 O        4.8590    -2.0920    -0.6660 O.3   1 <1>  -0.6800 
  6 C        3.9110    -0.0280     0.0190 C.3   1 <1>   0.1400 
  7 N        4.2900     0.7950    -1.1620 N.am  1 <1>  -0.6600 
  8 C        4.6380     2.1230    -1.1070 C.2   1 <1>   0.7160 
  9 O        4.7420     2.7370    -2.1530 O.2   1 <1>  -0.5700 
 10 C        4.8750     2.7760     0.1380 C.2   1 <1>  -0.0860 
 11 C        3.8970     3.1300     1.0720 C.2   1 <1>   0.3720 
 12 C        6.0370     3.1510     0.7340 C.2   1 <1>   0.0870 
 13 N        4.4300     3.6490     2.1230 N.2   1 <1>  -0.4100 
 14 N        2.5190     2.9260     0.9120 N.pl3 1 <1>  -0.8210 
 15 O        5.7180     3.6580     1.8980 O.3   1 <1>  -0.0190 
 16 C        7.4180     3.0540     0.3340 C.ar  1 <1>   0.0530 
 17 C        1.6930     3.0450     2.1540 C.3   1 <1>   0.2090 
 18 C        1.8900     3.7020    -0.2030 C.3   1 <1>   0.2090 
 19 C        7.8190     3.2200    -0.9910 C.ar  1 <1>  -0.1500 
 20 C        8.4100     2.7830     1.2770 C.ar  1 <1>  -0.1500 
 21 C        0.2240     2.6800     1.8730 C.3   1 <1>   0.1200 
 22 C        0.4140     3.3030    -0.3790 C.3   1 <1>   0.1200 
 23 C        9.1470     3.1080    -1.3610 C.ar  1 <1>  -0.1500 
 24 C        9.7400     2.6710     0.9130 C.ar  1 <1>  -0.1500 
 25 O       -0.2920     3.4500     0.8220 O.3   1 <1>  -0.5600 
 26 C       10.1110     2.8310    -0.4090 C.ar  1 <1>  -0.1500 
 27 H        3.1310    -1.9670    -2.6280 H     1 <1>   0.0800 
 28 H        2.9790    -2.0200     0.0500 H     1 <1>   0.0800 
 29 H        3.2100     0.7610    -3.0040 H     1 <1>   0.0800 
 30 H        4.7070    -0.1590    -2.9830 H     1 <1>   0.0800 
 31 H        5.5470    -1.4700    -0.9800 H     1 <1>   0.4000 
 32 H        4.6840    -0.0390     0.7690 H     1 <1>   0.0800 
 33 H        3.0040     0.3660     0.4450 H     1 <1>   0.0800 
 34 H        2.0860     2.3880     2.9090 H     1 <1>   0.0800 
 35 H        1.7430     4.0530     2.5290 H     1 <1>   0.0800 
 36 H        1.9500     4.7550     0.0120 H     1 <1>   0.0800 
 37 H        2.4090     3.5210    -1.1260 H     1 <1>   0.0800 
 38 H        7.0890     3.4500    -1.7450 H     1 <1>   0.1500 
 39 H        8.1340     2.6570     2.3090 H     1 <1>   0.1500 
 40 H       -0.3780     2.8690     2.7440 H     1 <1>   0.0800 
 41 H        0.1390     1.6400     1.6110 H     1 <1>   0.0800 
 42 H        0.3390     2.2790    -0.7020 H     1 <1>   0.0800 
 43 H       -0.0550     3.9330    -1.1140 H     1 <1>   0.0800 
 44 H        9.4300     3.2390    -2.3910 H     1 <1>   0.1500 
 45 H       10.4870     2.4600     1.6590 H     1 <1>   0.1500 
 46 H       11.1450     2.7440    -0.6960 H     1 <1>   0.1500 
@<TRIPOS>BOND
  1   1   2  1   
  2   2   3  1   
  3   2   4  1   
  4   2  27  1   
  5   3   5  1   
  6   3   6  1   
  7   3  28  1   
  8   4   7  1   
  9   4  29  1   
 10   4  30  1   
 11   5  31  1   
 12   6   7  1   
 13   6  32  1   
 14   6  33  1   
 15   7   8  am  
 16   8   9  2   
 17   8  10  1   
 18  10  11  1   
 19  10  12  2   
 20  11  13  2   
 21  11  14  1   
 22  12  15  1   
 23  12  16  1   
 24  13  15  1   
 25  14  17  1   
 26  14  18  1   
 27  16  19  ar  
 28  16  20  ar  
 29  17  21  1   
 30  17  34  1   
 31  17  35  1   
 32  18  22  1   
 33  18  36  1   
 34  18  37  1   
 35  19  23  ar  
 36  19  38  1   
 37  20  24  ar  
 38  20  39  1   
 39  21  25  1   
 40  21  40  1   
 41  21  41  1   
 42  22  25  1   
 43  22  42  1   
 44  22  43  1   
 45  23  26  ar  
 46  23  44  1   
 47  24  26  ar  
 48  24  45  1   
 49  26  46  1   
@<TRIPOS>SUBSTRUCTURE
  1 ****  10 GROUP 4 **** **** 0

# MOE 2024.06 (io_trps.svl 2023.06)
