@<TRIPOS>MOLECULE
NONAME
34 34 1 0 0 
SMALL
USER_CHARGES


@<TRIPOS>ATOM
  1 S        0.5560    -0.1430    -0.1430 S.3   1 <1>  -0.0800 
  2 C       -0.1210    -0.9960    -1.4840 C.2   1 <1>   0.4340 
  3 C        0.5550     1.2500    -1.1730 C.2   1 <1>   0.1980 
  4 S       -0.4980    -2.7340    -1.2880 S.3   1 <1>  -0.2860 
  5 N       -0.2990    -0.2840    -2.5220 N.2   1 <1>  -0.3380 
  6 N        0.0940     1.0160    -2.3370 N.2   1 <1>  -0.3380 
  7 C        1.0820     2.5500    -0.6090 C.3   1 <1>  -0.0600 
  8 C       -0.0800    -3.1420     0.4750 C.3   1 <1>   0.1310 
  9 C       -0.3600    -4.6090     0.7660 C.2   1 <1>   0.5690 
 10 O        0.6000    -5.3210     0.9460 O.2   1 <1>  -0.5700 
 11 N       -1.6430    -5.1030     0.8370 N.am  1 <1>  -0.6600 
 12 C       -1.8720    -6.5530     1.1200 C.3   1 <1>   0.1400 
 13 C       -2.8890    -4.3230     0.5860 C.3   1 <1>   0.0600 
 14 C       -1.6680    -7.3850    -0.1460 C.3   1 <1>   0.1200 
 15 O       -2.1170    -8.6810     0.0990 O.3   1 <1>  -0.5600 
 16 C       -1.8940    -9.5600    -0.9500 C.3   1 <1>   0.1200 
 17 C       -2.4530   -10.9160    -0.5390 C.3   1 <1>  -0.2400 
 18 H        0.4960     2.8440     0.2420 H     1 <1>   0.0800 
 19 H        1.0220     3.3210    -1.3570 H     1 <1>   0.0800 
 20 H        2.1070     2.4320    -0.3120 H     1 <1>   0.0800 
 21 H       -0.6650    -2.5090     1.1130 H     1 <1>   0.0800 
 22 H        0.9660    -2.9370     0.6090 H     1 <1>   0.0800 
 23 H       -2.8730    -6.6990     1.4860 H     1 <1>   0.0800 
 24 H       -1.1800    -6.8870     1.8740 H     1 <1>   0.0800 
 25 H       -2.6890    -3.2710     0.4910 H     1 <1>   0.0800 
 26 H       -3.5760    -4.4640     1.4020 H     1 <1>   0.0800 
 27 H       -3.3520    -4.6670    -0.3230 H     1 <1>   0.0800 
 28 H       -0.6210    -7.4170    -0.3990 H     1 <1>   0.0800 
 29 H       -2.2390    -6.9770    -0.9610 H     1 <1>   0.0800 
 30 H       -0.8340    -9.6250    -1.1310 H     1 <1>   0.0800 
 31 H       -2.3980    -9.1910    -1.8280 H     1 <1>   0.0800 
 32 H       -1.9530   -11.2670     0.3460 H     1 <1>   0.0800 
 33 H       -2.2990   -11.6290    -1.3280 H     1 <1>   0.0800 
 34 H       -3.5080   -10.8370    -0.3470 H     1 <1>   0.0800 
@<TRIPOS>BOND
  1   1   2  1   
  2   1   3  1   
  3   2   4  1   
  4   2   5  2   
  5   3   6  2   
  6   3   7  1   
  7   4   8  1   
  8   5   6  1   
  9   7  18  1   
 10   7  19  1   
 11   7  20  1   
 12   8   9  1   
 13   8  21  1   
 14   8  22  1   
 15   9  10  2   
 16   9  11  am  
 17  11  12  1   
 18  11  13  1   
 19  12  14  1   
 20  12  23  1   
 21  12  24  1   
 22  13  25  1   
 23  13  26  1   
 24  13  27  1   
 25  14  15  1   
 26  14  28  1   
 27  14  29  1   
 28  15  16  1   
 29  16  17  1   
 30  16  30  1   
 31  16  31  1   
 32  17  32  1   
 33  17  33  1   
 34  17  34  1   
@<TRIPOS>SUBSTRUCTURE
  1 ****   8 GROUP 4 **** **** 0

# MOE 2024.06 (io_trps.svl 2023.06)
