@<TRIPOS>MOLECULE
NONAME
47 49 1 0 0 
SMALL
USER_CHARGES


@<TRIPOS>ATOM
  1 CL      -4.3670    -1.2710    -3.7460 Cl    1 <1>  -0.1770 
  2 C       -3.5740    -1.6430    -2.2360 C.ar  1 <1>   0.1770 
  3 C       -3.7910    -2.8710    -1.6440 C.ar  1 <1>  -0.1500 
  4 C       -2.7430    -0.7010    -1.6570 C.ar  1 <1>  -0.1500 
  5 C       -3.1720    -3.1670    -0.4410 C.ar  1 <1>   0.0830 
  6 C       -2.1170    -0.9990    -0.4580 C.ar  1 <1>  -0.1500 
  7 O       -3.4390    -4.3810     0.0960 O.3   1 <1>  -0.3630 
  8 C       -2.3270    -2.2270     0.1490 C.ar  1 <1>  -0.1500 
  9 C       -3.0590    -4.6960     1.4290 C.3   1 <1>   0.1810 
 10 C       -3.6770    -6.0120     1.8990 C.2   1 <1>   0.5690 
 11 O       -2.9040    -6.8550     2.2950 O.2   1 <1>  -0.5700 
 12 N       -5.0410    -6.2270     1.9130 N.am  1 <1>  -0.6600 
 13 C       -6.0300    -5.1870     1.4890 C.3   1 <1>   0.2200 
 14 C       -5.5700    -7.5620     2.3370 C.3   1 <1>   0.0600 
 15 C       -6.6200    -5.4710     0.1130 C.3   1 <1>  -0.1600 
 16 C       -7.2480    -5.0530     2.4000 C.3   1 <1>  -0.1600 
 17 C       -7.8840    -4.6050     0.0550 C.3   1 <1>  -0.0800 
 18 C       -8.2940    -4.3480     1.5250 C.3   1 <1>  -0.0800 
 19 C       -8.9850    -5.2140    -0.8340 C.3   1 <1>   0.1400 
 20 C       -9.7390    -4.7700     1.8470 C.3   1 <1>  -0.0990 
 21 N      -10.2880    -4.5640    -0.5490 N.am  1 <1>  -0.6600 
 22 C      -10.6790    -4.3340     0.7420 C.2   1 <1>   0.5690 
 23 C      -11.1360    -4.2130    -1.7190 C.3   1 <1>   0.0600 
 24 O      -11.7260    -3.8120     1.0370 O.2   1 <1>  -0.5700 
 25 H       -4.4360    -3.5900    -2.1120 H     1 <1>   0.1500 
 26 H       -2.5910     0.2470    -2.1410 H     1 <1>   0.1500 
 27 H       -1.4640    -0.2750     0.0000 H     1 <1>   0.1500 
 28 H       -1.8220    -2.4330     1.0740 H     1 <1>   0.1500 
 29 H       -1.9870    -4.7750     1.4580 H     1 <1>   0.0800 
 30 H       -3.3810    -3.9030     2.0780 H     1 <1>   0.0800 
 31 H       -5.5610    -4.2200     1.4530 H     1 <1>   0.0800 
 32 H       -6.4120    -7.8480     1.7350 H     1 <1>   0.0800 
 33 H       -5.8690    -7.5190     3.3690 H     1 <1>   0.0800 
 34 H       -4.8130    -8.3210     2.2330 H     1 <1>   0.0800 
 35 H       -5.9290    -5.2170    -0.6710 H     1 <1>   0.0800 
 36 H       -6.8810    -6.5100     0.0320 H     1 <1>   0.0800 
 37 H       -7.6210    -6.0170     2.6880 H     1 <1>   0.0800 
 38 H       -7.0190    -4.4800     3.2800 H     1 <1>   0.0800 
 39 H       -7.6130    -3.6550    -0.3760 H     1 <1>   0.0800 
 40 H       -8.2180    -3.2860     1.6940 H     1 <1>   0.0800 
 41 H       -9.0840    -6.2680    -0.6350 H     1 <1>   0.0800 
 42 H       -8.7240    -5.0890    -1.8710 H     1 <1>   0.0800 
 43 H      -10.0520    -4.3350     2.7790 H     1 <1>   0.0800 
 44 H       -9.8130    -5.8380     1.9320 H     1 <1>   0.0800 
 45 H      -10.6190    -3.5060    -2.3440 H     1 <1>   0.0800 
 46 H      -12.0630    -3.7710    -1.3950 H     1 <1>   0.0800 
 47 H      -11.3580    -5.0990    -2.2870 H     1 <1>   0.0800 
@<TRIPOS>BOND
  1   1   2  1   
  2   2   3  ar  
  3   2   4  ar  
  4   3   5  ar  
  5   3  25  1   
  6   4   6  ar  
  7   4  26  1   
  8   5   7  1   
  9   5   8  ar  
 10   6   8  ar  
 11   6  27  1   
 12   7   9  1   
 13   8  28  1   
 14   9  10  1   
 15   9  29  1   
 16   9  30  1   
 17  10  11  2   
 18  10  12  am  
 19  12  13  1   
 20  12  14  1   
 21  13  15  1   
 22  13  16  1   
 23  13  31  1   
 24  14  32  1   
 25  14  33  1   
 26  14  34  1   
 27  15  17  1   
 28  15  35  1   
 29  15  36  1   
 30  16  18  1   
 31  16  37  1   
 32  16  38  1   
 33  17  18  1   
 34  17  19  1   
 35  17  39  1   
 36  18  20  1   
 37  18  40  1   
 38  19  21  1   
 39  19  41  1   
 40  19  42  1   
 41  20  22  1   
 42  20  43  1   
 43  20  44  1   
 44  21  22  am  
 45  21  23  1   
 46  22  24  2   
 47  23  45  1   
 48  23  46  1   
 49  23  47  1   
@<TRIPOS>SUBSTRUCTURE
  1 ****  15 GROUP 4 **** **** 0

# MOE 2024.06 (io_trps.svl 2023.06)
