@<TRIPOS>MOLECULE
NONAME
41 43 1 0 0 
SMALL
USER_CHARGES


@<TRIPOS>ATOM
  1 O       -1.7640     0.2480    -2.3680 O.2   1 <1>  -0.5700 
  2 C       -1.9490    -0.5180    -1.4480 C.2   1 <1>   0.5690 
  3 N       -1.9630    -0.1010    -0.1440 N.am  1 <1>  -0.6600 
  4 C       -2.1110    -1.9930    -1.7790 C.3   1 <1>  -0.0190 
  5 C       -2.2020    -1.0680     0.9730 C.3   1 <1>   0.2200 
  6 C       -1.9060     1.3380     0.2280 C.3   1 <1>   0.0600 
  7 C       -0.9480    -2.8060    -1.1900 C.3   1 <1>   0.1200 
  8 C       -3.5000    -2.5670    -1.4280 C.3   1 <1>   0.1100 
  9 C       -1.0530    -2.0940     1.0690 C.3   1 <1>   0.1200 
 10 C       -3.5980    -1.7450     0.9100 C.3   1 <1>   0.1100 
 11 O       -1.1610    -3.1400     0.1470 O.3   1 <1>  -0.5600 
 12 N       -4.2440    -1.7780    -0.4270 N.3   1 <1>  -0.8100 
 13 C       -5.6640    -2.1720    -0.3530 C.3   1 <1>   0.2900 
 14 C       -5.8660    -3.5890     0.1630 C.2   1 <1>  -0.0400 
 15 O       -5.8430    -3.8300     1.4470 O.3   1 <1>  -0.0190 
 16 C       -6.0940    -4.7510    -0.4680 C.2   1 <1>  -0.1500 
 17 N       -6.0380    -5.0900     1.7090 N.2   1 <1>  -0.4100 
 18 C       -6.1910    -5.6710     0.5720 C.2   1 <1>   0.1080 
 19 C       -6.4400    -7.1580     0.4010 C.3   1 <1>   0.0210 
 20 C       -7.8980    -7.4380     0.0220 C.3   1 <1>  -0.2400 
 21 H       -2.0050    -2.0750    -2.8440 H     1 <1>   0.0800 
 22 H       -2.1700    -0.5140     1.8940 H     1 <1>   0.0800 
 23 H       -1.0980     1.5050     0.9180 H     1 <1>   0.0800 
 24 H       -2.8360     1.6280     0.6850 H     1 <1>   0.0800 
 25 H       -1.7470     1.9500    -0.6430 H     1 <1>   0.0800 
 26 H       -0.0160    -2.2730    -1.2780 H     1 <1>   0.0800 
 27 H       -0.8590    -3.7340    -1.7260 H     1 <1>   0.0800 
 28 H       -3.4010    -3.5860    -1.0890 H     1 <1>   0.0800 
 29 H       -4.0780    -2.5810    -2.3350 H     1 <1>   0.0800 
 30 H       -1.0780    -2.5490     2.0430 H     1 <1>   0.0800 
 31 H       -0.0990    -1.6120     0.9480 H     1 <1>   0.0800 
 32 H       -4.2420    -1.2020     1.5780 H     1 <1>   0.0800 
 33 H       -3.5170    -2.7460     1.2990 H     1 <1>   0.0800 
 34 H       -6.1920    -1.4850     0.2850 H     1 <1>   0.0800 
 35 H       -6.0950    -2.0920    -1.3350 H     1 <1>   0.0800 
 36 H       -6.1860    -4.9590    -1.5180 H     1 <1>   0.1500 
 37 H       -5.7840    -7.5390    -0.3600 H     1 <1>   0.0800 
 38 H       -6.2060    -7.6600     1.3240 H     1 <1>   0.0800 
 39 H       -8.1420    -6.9640    -0.9110 H     1 <1>   0.0800 
 40 H       -8.5540    -7.0580     0.7860 H     1 <1>   0.0800 
 41 H       -8.0580    -8.4970    -0.0750 H     1 <1>   0.0800 
@<TRIPOS>BOND
  1   1   2  2   
  2   2   3  am  
  3   2   4  1   
  4   3   5  1   
  5   3   6  1   
  6   4   7  1   
  7   4   8  1   
  8   4  21  1   
  9   5   9  1   
 10   5  10  1   
 11   5  22  1   
 12   6  23  1   
 13   6  24  1   
 14   6  25  1   
 15   7  11  1   
 16   7  26  1   
 17   7  27  1   
 18   8  12  1   
 19   8  28  1   
 20   8  29  1   
 21   9  11  1   
 22   9  30  1   
 23   9  31  1   
 24  10  12  1   
 25  10  32  1   
 26  10  33  1   
 27  12  13  1   
 28  13  14  1   
 29  13  34  1   
 30  13  35  1   
 31  14  15  1   
 32  14  16  2   
 33  15  17  1   
 34  16  18  1   
 35  16  36  1   
 36  17  18  2   
 37  18  19  1   
 38  19  20  1   
 39  19  37  1   
 40  19  38  1   
 41  20  39  1   
 42  20  40  1   
 43  20  41  1   
@<TRIPOS>SUBSTRUCTURE
  1 ****  12 GROUP 4 **** **** 0

# MOE 2024.06 (io_trps.svl 2023.06)
