@<TRIPOS>MOLECULE
NONAME
44 46 1 0 0 
SMALL
USER_CHARGES


@<TRIPOS>ATOM
  1 O        0.2330    -1.4460    -2.5260 O.2   1 <1>  -0.5700 
  2 C        0.7050    -1.9560    -1.5220 C.2   1 <1>   0.5440 
  3 N        0.8750    -1.1400    -0.4170 N.am  1 <1>  -0.6600 
  4 C        1.0780    -3.3700    -1.5610 C.ar  1 <1>   0.3960 
  5 C        0.5810     0.3110    -0.4400 C.3   1 <1>   0.1400 
  6 C        1.5470    -1.5200     0.8470 C.3   1 <1>   0.1400 
  7 N        0.9330    -4.1620    -0.4830 N.ar  1 <1>  -0.6200 
  8 C        1.5760    -3.8710    -2.7690 C.ar  1 <1>   0.1600 
  9 C        1.4210     0.8920     0.6900 C.3   1 <1>  -0.1600 
 10 C        1.5570    -0.2500     1.6920 C.3   1 <1>  -0.1600 
 11 C        1.3010    -5.4070    -0.6920 C.ar  1 <1>   0.4100 
 12 N        1.9620    -5.1220    -2.9900 N.ar  1 <1>  -0.6200 
 13 N        1.1150    -6.2160     0.3960 N.pl3 1 <1>  -0.8690 
 14 C        1.8130    -5.8670    -1.9140 C.ar  1 <1>   0.1600 
 15 C        0.2520    -7.4220     0.2880 C.3   1 <1>   0.2090 
 16 C       -1.2030    -7.0110     0.0300 C.3   1 <1>   0.0200 
 17 C       -2.1280    -8.2130    -0.0820 C.2   1 <1>   0.0070 
 18 N       -1.7750    -9.4350     0.1320 N.2   1 <1>  -0.3380 
 19 N       -3.4210    -8.1300    -0.4180 N.pl3 1 <1>   0.0480 
 20 N       -2.8510   -10.1960    -0.0620 N.2   1 <1>  -0.3380 
 21 C       -3.8120    -9.4050    -0.3860 C.2   1 <1>   0.0360 
 22 C       -4.2430    -6.9480    -0.7530 C.3   1 <1>   0.0960 
 23 C       -4.8410    -6.3270     0.5130 C.3   1 <1>  -0.2400 
 24 H       -0.4680     0.4570    -0.2480 H     1 <1>   0.0800 
 25 H        0.8390     0.7480    -1.3900 H     1 <1>   0.0800 
 26 H        2.5520    -1.8430     0.6340 H     1 <1>   0.0800 
 27 H        1.0090    -2.3080     1.3470 H     1 <1>   0.0800 
 28 H        1.6580    -3.1900    -3.5990 H     1 <1>   0.1500 
 29 H        0.9640     1.7650     1.1190 H     1 <1>   0.0800 
 30 H        2.3900     1.1570     0.3030 H     1 <1>   0.0800 
 31 H        2.4510    -0.1720     2.2850 H     1 <1>   0.0800 
 32 H        0.7030    -0.2620     2.3470 H     1 <1>   0.0800 
 33 H        0.8910    -5.6560     1.2240 H     1 <1>   0.4000 
 34 H        2.1030    -6.8990    -1.9760 H     1 <1>   0.1500 
 35 H        0.3130    -7.9850     1.2050 H     1 <1>   0.0800 
 36 H        0.5990    -8.0540    -0.5120 H     1 <1>   0.0800 
 37 H       -1.2530    -6.4530    -0.8870 H     1 <1>   0.0800 
 38 H       -1.5400    -6.3870     0.8370 H     1 <1>   0.0800 
 39 H       -4.8160    -9.7190    -0.6060 H     1 <1>   0.1500 
 40 H       -5.0320    -7.2530    -1.4190 H     1 <1>   0.0800 
 41 H       -3.6320    -6.2270    -1.2660 H     1 <1>   0.0800 
 42 H       -5.4660    -7.0400     1.0220 H     1 <1>   0.0800 
 43 H       -5.4430    -5.4750     0.2510 H     1 <1>   0.0800 
 44 H       -4.0620    -5.9990     1.1780 H     1 <1>   0.0800 
@<TRIPOS>BOND
  1   1   2  2   
  2   2   3  am  
  3   2   4  1   
  4   3   5  1   
  5   3   6  1   
  6   4   7  ar  
  7   4   8  ar  
  8   5   9  1   
  9   5  24  1   
 10   5  25  1   
 11   6  10  1   
 12   6  26  1   
 13   6  27  1   
 14   7  11  ar  
 15   8  12  ar  
 16   8  28  1   
 17   9  10  1   
 18   9  29  1   
 19   9  30  1   
 20  10  31  1   
 21  10  32  1   
 22  11  13  1   
 23  11  14  ar  
 24  12  14  ar  
 25  13  15  1   
 26  13  33  1   
 27  14  34  1   
 28  15  16  1   
 29  15  35  1   
 30  15  36  1   
 31  16  17  1   
 32  16  37  1   
 33  16  38  1   
 34  17  18  2   
 35  17  19  1   
 36  18  20  1   
 37  19  21  1   
 38  19  22  1   
 39  20  21  2   
 40  21  39  1   
 41  22  23  1   
 42  22  40  1   
 43  22  41  1   
 44  23  42  1   
 45  23  43  1   
 46  23  44  1   
@<TRIPOS>SUBSTRUCTURE
  1 ****   7 GROUP 4 **** **** 0

# MOE 2024.06 (io_trps.svl 2023.06)
