@<TRIPOS>MOLECULE
NONAME
53 55 1 0 0 
SMALL
USER_CHARGES


@<TRIPOS>ATOM
  1 O       -0.8570     0.5710    -2.0210 O.co2 1 <1>  -0.9000 
  2 C       -1.3140     0.7070    -0.8820 C.2   1 <1>   0.9060 
  3 O       -2.0010    -0.1540    -0.3260 O.co2 1 <1>  -0.9000 
  4 C       -1.0520     2.0060    -0.1450 C.3   1 <1>  -0.1060 
  5 C       -2.4040     2.5140     0.3940 C.3   1 <1>   0.2000 
  6 C       -0.6040     2.9970    -1.2260 C.3   1 <1>   0.3430 
  7 C        0.0030     1.7320     0.9760 C.3   1 <1>  -0.0170 
  8 O       -2.7880     1.7320     1.4590 O.3   1 <1>  -0.6800 
  9 C       -2.3950     3.9860     0.8380 C.3   1 <1>  -0.1600 
 10 N       -0.5900     4.4410    -0.8010 N.4   1 <1>  -0.9590 
 11 C        1.4360     2.1270     0.6310 C.ar  1 <1>  -0.1440 
 12 C       -1.0490     4.6690     0.6010 C.3   1 <1>   0.3430 
 13 C        0.7780     4.9940    -1.0140 C.3   1 <1>   0.5230 
 14 C        2.0860     1.5460    -0.4480 C.ar  1 <1>  -0.1500 
 15 C        2.1080     3.0670     1.4000 C.ar  1 <1>  -0.1500 
 16 C        0.7770     6.5080    -0.8960 C.2   1 <1>  -0.0400 
 17 C        3.3720     1.9320    -0.7810 C.ar  1 <1>  -0.1500 
 18 C        3.3950     3.4540     1.0680 C.ar  1 <1>  -0.1500 
 19 O        1.9310     7.0950    -0.6530 O.3   1 <1>  -0.2800 
 20 C       -0.2060     7.4340    -0.9930 C.2   1 <1>  -0.1500 
 21 C        4.0250     2.8910    -0.0270 C.ar  1 <1>  -0.1500 
 22 C        1.7250     8.3950    -0.5850 C.2   1 <1>  -0.0400 
 23 C        0.4180     8.6700    -0.7860 C.2   1 <1>  -0.1500 
 24 C        2.9210     9.2920    -0.3100 C.3   1 <1>   0.0200 
 25 C        2.5440    10.7790    -0.2530 C.3   1 <1>  -0.1600 
 26 C        3.7670    11.6590     0.0260 C.3   1 <1>  -0.2400 
 27 H       -3.1570     2.3850    -0.3680 H     1 <1>   0.0800 
 28 H       -1.2850     2.8920    -2.0570 H     1 <1>   0.0800 
 29 H        0.3610     2.6990    -1.5990 H     1 <1>   0.0800 
 30 H       -0.2830     2.2380     1.8800 H     1 <1>   0.0800 
 31 H       -0.0050     0.6830     1.2260 H     1 <1>   0.0800 
 32 H       -2.7400     0.7870     1.1380 H     1 <1>   0.4000 
 33 H       -3.1530     4.5180     0.2940 H     1 <1>   0.0800 
 34 H       -2.6380     4.0620     1.8840 H     1 <1>   0.0800 
 35 H       -1.2140     4.9490    -1.4350 H     1 <1>   0.4500 
 36 H       -0.3230     4.2630     1.2850 H     1 <1>   0.0800 
 37 H       -1.1350     5.7250     0.8010 H     1 <1>   0.0800 
 38 H        1.4540     4.5880    -0.2830 H     1 <1>   0.0800 
 39 H        1.1460     4.7190    -1.9890 H     1 <1>   0.0800 
 40 H        1.5910     0.7870    -1.0360 H     1 <1>   0.1500 
 41 H        1.6380     3.5020     2.2650 H     1 <1>   0.1500 
 42 H        3.8650     1.4770    -1.6240 H     1 <1>   0.1500 
 43 H        3.9110     4.1860     1.6650 H     1 <1>   0.1500 
 44 H       -1.2570     7.3170    -1.1870 H     1 <1>   0.1500 
 45 H        5.0270     3.1880    -0.2860 H     1 <1>   0.1500 
 46 H       -0.0750     9.6270    -0.7960 H     1 <1>   0.1500 
 47 H        3.3630     8.9980     0.6250 H     1 <1>   0.0800 
 48 H        3.6500     9.1370    -1.0860 H     1 <1>   0.0800 
 49 H        2.1040    11.0730    -1.1910 H     1 <1>   0.0800 
 50 H        1.8140    10.9330     0.5240 H     1 <1>   0.0800 
 51 H        4.5030    11.5390    -0.7490 H     1 <1>   0.0800 
 52 H        4.2120    11.4000     0.9710 H     1 <1>   0.0800 
 53 H        3.4750    12.6940     0.0600 H     1 <1>   0.0800 
@<TRIPOS>BOND
  1   1   2  ar  
  2   2   3  ar  
  3   2   4  1   
  4   4   5  1   
  5   4   6  1   
  6   4   7  1   
  7   5   8  1   
  8   5   9  1   
  9   5  27  1   
 10   6  10  1   
 11   6  28  1   
 12   6  29  1   
 13   7  11  1   
 14   7  30  1   
 15   7  31  1   
 16   8  32  1   
 17   9  12  1   
 18   9  33  1   
 19   9  34  1   
 20  10  12  1   
 21  10  13  1   
 22  10  35  1   
 23  11  14  ar  
 24  11  15  ar  
 25  12  36  1   
 26  12  37  1   
 27  13  16  1   
 28  13  38  1   
 29  13  39  1   
 30  14  17  ar  
 31  14  40  1   
 32  15  18  ar  
 33  15  41  1   
 34  16  19  1   
 35  16  20  2   
 36  17  21  ar  
 37  17  42  1   
 38  18  21  ar  
 39  18  43  1   
 40  19  22  1   
 41  20  23  1   
 42  20  44  1   
 43  21  45  1   
 44  22  23  2   
 45  22  24  1   
 46  23  46  1   
 47  24  25  1   
 48  24  47  1   
 49  24  48  1   
 50  25  26  1   
 51  25  49  1   
 52  25  50  1   
 53  26  51  1   
 54  26  52  1   
 55  26  53  1   
@<TRIPOS>SUBSTRUCTURE
  1 ****  13 GROUP 4 **** **** 0

# MOE 2024.06 (io_trps.svl 2023.06)
