@<TRIPOS>MOLECULE
NONAME
62 65 1 0 0 
SMALL
USER_CHARGES


@<TRIPOS>ATOM
  1 O        1.0860     0.5430     1.0180 O.3   1 <1>  -0.6800 
  2 C        1.7980     0.9230    -0.1090 C.3   1 <1>   0.2000 
  3 C        3.1520     0.1640    -0.1800 C.3   1 <1>   0.0000 
  4 C        1.9350     2.4490    -0.1070 C.3   1 <1>  -0.1600 
  5 C        3.9150     0.7110    -1.4070 C.3   1 <1>   0.2090 
  6 C        2.7950    -1.3230    -0.4380 C.3   1 <1>   0.1200 
  7 C        3.9490     0.2980     1.1660 C.3   1 <1>  -0.0170 
  8 C        2.7010     2.9040    -1.3470 C.3   1 <1>   0.2090 
  9 N        4.0180     2.2090    -1.3960 N.pl3 1 <1>  -0.8380 
 10 O        3.9030    -2.0640    -0.8260 O.3   1 <1>  -0.6800 
 11 C        5.4630     0.5440     1.1450 C.ar  1 <1>  -0.1440 
 12 C        5.2000     2.8690    -1.2670 C.ar  1 <1>   0.4100 
 13 C        5.9680     1.7250     1.6730 C.ar  1 <1>  -0.1500 
 14 C        6.3550    -0.4080     0.6750 C.ar  1 <1>  -0.1500 
 15 N        5.1910     4.0380    -0.6520 N.ar  1 <1>  -0.6200 
 16 C        6.3980     2.3130    -1.7580 C.ar  1 <1>  -0.1500 
 17 C        7.3330     1.9460     1.7430 C.ar  1 <1>  -0.1500 
 18 C        7.7210    -0.1850     0.7280 C.ar  1 <1>  -0.1500 
 19 C        6.3520     4.6350    -0.4310 C.ar  1 <1>   0.7710 
 20 C        7.5710     2.9450    -1.5290 C.ar  1 <1>   0.2170 
 21 C        8.2130     0.9890     1.2690 C.ar  1 <1>  -0.1500 
 22 N        7.5160     4.1120    -0.8490 N.ar  1 <1>  -0.1790 
 23 N        6.3710     5.8130     0.2410 N.pl3 1 <1>  -0.8380 
 24 C        8.9200     2.4120    -1.9910 C.3   1 <1>  -0.0160 
 25 C        7.5320     6.6930     0.5440 C.3   1 <1>   0.2090 
 26 C        5.1200     6.4160     0.7800 C.3   1 <1>   0.2090 
 27 C        9.5800     3.3290    -3.0290 C.3   1 <1>  -0.2400 
 28 C        6.9200     7.9920     1.0500 C.3   1 <1>  -0.1600 
 29 C        5.5800     7.5800     1.6450 C.3   1 <1>  -0.1600 
 30 H        0.2670     1.0690     1.0990 H     1 <1>   0.4000 
 31 H        1.2000     0.6480    -0.9620 H     1 <1>   0.0800 
 32 H        0.9630     2.9040    -0.1210 H     1 <1>   0.0800 
 33 H        2.4610     2.7920     0.7640 H     1 <1>   0.0800 
 34 H        3.3990     0.4170    -2.3050 H     1 <1>   0.0800 
 35 H        4.8820     0.2490    -1.4390 H     1 <1>   0.0800 
 36 H        2.0670    -1.4040    -1.2280 H     1 <1>   0.0800 
 37 H        2.3800    -1.7710     0.4500 H     1 <1>   0.0800 
 38 H        3.5170     1.0900     1.7470 H     1 <1>   0.0800 
 39 H        3.7830    -0.5850     1.7560 H     1 <1>   0.0800 
 40 H        2.8250     3.9730    -1.3290 H     1 <1>   0.0800 
 41 H        2.1440     2.6570    -2.2350 H     1 <1>   0.0800 
 42 H        3.6760    -3.0150    -0.8830 H     1 <1>   0.4000 
 43 H        5.2930     2.4760     2.0450 H     1 <1>   0.1500 
 44 H        5.9920    -1.3380     0.2800 H     1 <1>   0.1500 
 45 H        6.3640     1.3950    -2.3080 H     1 <1>   0.1500 
 46 H        7.7030     2.8550     2.1830 H     1 <1>   0.1500 
 47 H        8.3970    -0.9400     0.3650 H     1 <1>   0.1500 
 48 H        9.2750     1.1460     1.3350 H     1 <1>   0.1500 
 49 H        8.3430     4.6410    -0.6210 H     1 <1>   0.4570 
 50 H        9.5720     2.2930    -1.1430 H     1 <1>   0.0800 
 51 H        8.7840     1.4360    -2.4270 H     1 <1>   0.0800 
 52 H        8.1270     6.2480     1.3250 H     1 <1>   0.0800 
 53 H        8.1350     6.8760    -0.3290 H     1 <1>   0.0800 
 54 H        4.5160     6.7730    -0.0390 H     1 <1>   0.0800 
 55 H        4.5550     5.7000     1.3550 H     1 <1>   0.0800 
 56 H        9.8000     4.2980    -2.6180 H     1 <1>   0.0800 
 57 H        8.9360     3.4530    -3.8840 H     1 <1>   0.0800 
 58 H       10.5030     2.8910    -3.3670 H     1 <1>   0.0800 
 59 H        7.5530     8.4830     1.7690 H     1 <1>   0.0800 
 60 H        6.7600     8.6550     0.2170 H     1 <1>   0.0800 
 61 H        4.8640     8.3840     1.6440 H     1 <1>   0.0800 
 62 H        5.7140     7.2350     2.6560 H     1 <1>   0.0800 
@<TRIPOS>BOND
  1   1   2  1   
  2   1  30  1   
  3   2   3  1   
  4   2   4  1   
  5   2  31  1   
  6   3   5  1   
  7   3   6  1   
  8   3   7  1   
  9   4   8  1   
 10   4  32  1   
 11   4  33  1   
 12   5   9  1   
 13   5  34  1   
 14   5  35  1   
 15   6  10  1   
 16   6  36  1   
 17   6  37  1   
 18   7  11  1   
 19   7  38  1   
 20   7  39  1   
 21   8   9  1   
 22   8  40  1   
 23   8  41  1   
 24   9  12  1   
 25  10  42  1   
 26  11  13  ar  
 27  11  14  ar  
 28  12  15  ar  
 29  12  16  ar  
 30  13  17  ar  
 31  13  43  1   
 32  14  18  ar  
 33  14  44  1   
 34  15  19  ar  
 35  16  20  ar  
 36  16  45  1   
 37  17  21  ar  
 38  17  46  1   
 39  18  21  ar  
 40  18  47  1   
 41  19  22  ar  
 42  19  23  1   
 43  20  22  ar  
 44  20  24  1   
 45  21  48  1   
 46  22  49  1   
 47  23  25  1   
 48  23  26  1   
 49  24  27  1   
 50  24  50  1   
 51  24  51  1   
 52  25  28  1   
 53  25  52  1   
 54  25  53  1   
 55  26  29  1   
 56  26  54  1   
 57  26  55  1   
 58  27  56  1   
 59  27  57  1   
 60  27  58  1   
 61  28  29  1   
 62  28  59  1   
 63  28  60  1   
 64  29  61  1   
 65  29  62  1   
@<TRIPOS>SUBSTRUCTURE
  1 ****  12 GROUP 4 **** **** 0

# MOE 2024.06 (io_trps.svl 2023.06)
