@<TRIPOS>MOLECULE
NONAME
51 54 1 0 0 
SMALL
USER_CHARGES


@<TRIPOS>ATOM
  1 O       -0.5990    -0.2470     0.1760 O.2   1 <1>  -0.5700 
  2 C       -1.5790     0.4730     0.1510 C.2   1 <1>   0.5440 
  3 N       -1.3940     1.8400     0.1770 N.am  1 <1>  -0.6600 
  4 C       -2.8900    -0.1290     0.1060 C.ar  1 <1>   0.0860 
  5 C       -0.0460     2.4520    -0.0180 C.3   1 <1>   0.1400 
  6 C       -2.4260     2.8340     0.5990 C.3   1 <1>   0.1400 
  7 C       -3.2310    -1.1390     1.0010 C.ar  1 <1>   0.1600 
  8 C       -3.8600     0.2410    -0.8200 C.ar  1 <1>  -0.1500 
  9 C       -0.1460     3.7100    -0.8970 C.3   1 <1>   0.1200 
 10 C       -2.3980     4.0630    -0.3250 C.3   1 <1>   0.1200 
 11 N       -4.3990    -1.7540     1.0740 N.ar  1 <1>  -0.6200 
 12 C       -5.0780    -0.3910    -0.7650 C.ar  1 <1>  -0.1500 
 13 O       -1.1060     4.5980    -0.3940 O.3   1 <1>  -0.5600 
 14 C       -5.3200    -1.3740     0.1930 C.ar  1 <1>   0.4100 
 15 N       -6.5490    -1.9920     0.2550 N.pl3 1 <1>  -0.8380 
 16 C       -6.6400    -3.3950     0.7360 C.3   1 <1>   0.2090 
 17 C       -7.7600    -1.1770     0.5200 C.3   1 <1>   0.2090 
 18 C       -7.8400    -4.0980     0.0820 C.3   1 <1>  -0.0800 
 19 C       -8.9720    -1.8420    -0.1370 C.3   1 <1>  -0.1600 
 20 C       -9.1390    -3.3000     0.3200 C.3   1 <1>  -0.1600 
 21 C       -7.9350    -5.5400     0.6080 C.3   1 <1>   0.0960 
 22 N       -9.0360    -6.2900    -0.0310 N.pl3 1 <1>   0.0480 
 23 C       -9.1120    -6.7310    -1.3070 C.2   1 <1>   0.0360 
 24 C      -10.1890    -6.6910     0.5360 C.2   1 <1>  -0.3020 
 25 N      -10.2050    -7.3660    -1.5820 N.2   1 <1>  -0.5650 
 26 C      -10.8860    -7.3420    -0.4210 C.2   1 <1>   0.0770 
 27 H        0.6220     1.7480    -0.4850 H     1 <1>   0.0800 
 28 H        0.3660     2.7160     0.9400 H     1 <1>   0.0800 
 29 H       -2.2130     3.1520     1.6050 H     1 <1>   0.0800 
 30 H       -3.4090     2.4010     0.5950 H     1 <1>   0.0800 
 31 H       -2.4760    -1.4500     1.7040 H     1 <1>   0.1500 
 32 H       -3.6490     0.9950    -1.5570 H     1 <1>   0.1500 
 33 H       -0.4160     3.4450    -1.9040 H     1 <1>   0.0800 
 34 H        0.7990     4.2240    -0.9170 H     1 <1>   0.0800 
 35 H       -3.0490     4.8290     0.0560 H     1 <1>   0.0800 
 36 H       -2.7150     3.7990    -1.3190 H     1 <1>   0.0800 
 37 H       -5.8580    -0.1510    -1.4620 H     1 <1>   0.1500 
 38 H       -6.7430    -3.3890     1.8080 H     1 <1>   0.0800 
 39 H       -5.7320    -3.9180     0.4870 H     1 <1>   0.0800 
 40 H       -7.6340    -0.1800     0.1340 H     1 <1>   0.0800 
 41 H       -7.9100    -1.1090     1.5850 H     1 <1>   0.0800 
 42 H       -7.6430    -4.1370    -0.9760 H     1 <1>   0.0800 
 43 H       -8.8450    -1.8100    -1.2050 H     1 <1>   0.0800 
 44 H       -9.8590    -1.2840     0.1050 H     1 <1>   0.0800 
 45 H       -9.3890    -3.3160     1.3670 H     1 <1>   0.0800 
 46 H       -9.9560    -3.7440    -0.2240 H     1 <1>   0.0800 
 47 H       -8.0980    -5.5340     1.6710 H     1 <1>   0.0800 
 48 H       -7.0160    -6.0630     0.4120 H     1 <1>   0.0800 
 49 H       -8.3230    -6.5580    -2.0170 H     1 <1>   0.1500 
 50 H      -10.4480    -6.4990     1.5600 H     1 <1>   0.1500 
 51 H      -11.8560    -7.8020    -0.3350 H     1 <1>   0.1500 
@<TRIPOS>BOND
  1   1   2  2   
  2   2   3  am  
  3   2   4  1   
  4   3   5  1   
  5   3   6  1   
  6   4   7  ar  
  7   4   8  ar  
  8   5   9  1   
  9   5  27  1   
 10   5  28  1   
 11   6  10  1   
 12   6  29  1   
 13   6  30  1   
 14   7  11  ar  
 15   7  31  1   
 16   8  12  ar  
 17   8  32  1   
 18   9  13  1   
 19   9  33  1   
 20   9  34  1   
 21  10  13  1   
 22  10  35  1   
 23  10  36  1   
 24  11  14  ar  
 25  12  14  ar  
 26  12  37  1   
 27  14  15  1   
 28  15  16  1   
 29  15  17  1   
 30  16  18  1   
 31  16  38  1   
 32  16  39  1   
 33  17  19  1   
 34  17  40  1   
 35  17  41  1   
 36  18  20  1   
 37  18  21  1   
 38  18  42  1   
 39  19  20  1   
 40  19  43  1   
 41  19  44  1   
 42  20  45  1   
 43  20  46  1   
 44  21  22  1   
 45  21  47  1   
 46  21  48  1   
 47  22  23  1   
 48  22  24  1   
 49  23  25  2   
 50  23  49  1   
 51  24  26  2   
 52  24  50  1   
 53  25  26  1   
 54  26  51  1   
@<TRIPOS>SUBSTRUCTURE
  1 ****  14 GROUP 4 **** **** 0

# MOE 2024.06 (io_trps.svl 2023.06)
