@<TRIPOS>MOLECULE
NONAME
50 52 1 0 0 
SMALL
USER_CHARGES


@<TRIPOS>ATOM
  1 O        1.4130    -0.0020     1.7680 O.3   1 <1>  -0.6800 
  2 C        1.4950    -0.0020     0.3770 C.3   1 <1>   0.2000 
  3 C        2.2080    -1.2680    -0.0990 C.3   1 <1>  -0.0800 
  4 C        2.4770     1.0940    -0.0450 C.3   1 <1>   0.3430 
  5 C        3.6950    -0.9740     0.1340 C.3   1 <1>   0.3430 
  6 C        1.7500    -2.5940     0.5380 C.3   1 <1>  -0.0170 
  7 N        3.8410     0.5140     0.1760 N.4   1 <1>  -0.9590 
  8 C        2.6420    -3.7320     0.0700 C.ar  1 <1>  -0.1440 
  9 C        4.3890     0.9630     1.4810 C.3   1 <1>   0.5240 
 10 C        3.5740    -4.3200     0.9030 C.ar  1 <1>  -0.1500 
 11 C        2.5700    -4.2320    -1.2150 C.ar  1 <1>  -0.1500 
 12 C        4.7160     2.4290     1.3390 C.2   1 <1>  -0.1810 
 13 C        4.3800    -5.3370     0.4170 C.ar  1 <1>   0.1600 
 14 C        3.4240    -5.2520    -1.6010 C.ar  1 <1>   0.1600 
 15 C        5.7200     3.0450     0.6710 C.2   1 <1>  -0.3320 
 16 C        3.9740     3.4580     1.9020 C.2   1 <1>   0.1390 
 17 N        4.3330    -5.8060    -0.8180 N.ar  1 <1>  -0.6200 
 18 N        5.5380     4.3780     0.8460 N.pl3 1 <1>   0.3140 
 19 C        6.8710     2.4470    -0.1280 C.3   1 <1>  -0.0600 
 20 N        4.4510     4.6210     1.6010 N.2   1 <1>  -0.7070 
 21 C        6.3640     5.4910     0.3300 C.3   1 <1>   0.0960 
 22 C        5.9000     5.9190    -1.0700 C.3   1 <1>  -0.1600 
 23 C        6.7630     7.0610    -1.6180 C.3   1 <1>  -0.2400 
 24 H        0.6040    -0.4670     2.0740 H     1 <1>   0.4000 
 25 H        0.5110     0.1380    -0.0380 H     1 <1>   0.0800 
 26 H        2.0650    -1.3460    -1.1630 H     1 <1>   0.0800 
 27 H        2.3160     2.0020     0.5120 H     1 <1>   0.0800 
 28 H        2.3430     1.3000    -1.0940 H     1 <1>   0.0800 
 29 H        4.2940    -1.4080    -0.6510 H     1 <1>   0.0800 
 30 H        3.9970    -1.4000     1.0760 H     1 <1>   0.0800 
 31 H        0.7310    -2.8020     0.2620 H     1 <1>   0.0800 
 32 H        1.7920    -2.5370     1.6130 H     1 <1>   0.0800 
 33 H        4.4850     0.8700    -0.5410 H     1 <1>   0.4500 
 34 H        3.6710     0.8100     2.2700 H     1 <1>   0.0800 
 35 H        5.2900     0.4210     1.7160 H     1 <1>   0.0800 
 36 H        3.6840    -4.0090     1.9250 H     1 <1>   0.1500 
 37 H        1.8590    -3.8480    -1.9240 H     1 <1>   0.1500 
 38 H        5.1010    -5.7890     1.0780 H     1 <1>   0.1500 
 39 H        3.3560    -5.6340    -2.6070 H     1 <1>   0.1500 
 40 H        3.0980     3.3330     2.5190 H     1 <1>   0.1500 
 41 H        6.8390     1.3730    -0.1100 H     1 <1>   0.0800 
 42 H        7.8110     2.7590     0.2930 H     1 <1>   0.0800 
 43 H        6.8280     2.7760    -1.1510 H     1 <1>   0.0800 
 44 H        6.2740     6.3170     1.0120 H     1 <1>   0.0800 
 45 H        7.3920     5.1810     0.3080 H     1 <1>   0.0800 
 46 H        5.9550     5.0830    -1.7440 H     1 <1>   0.0800 
 47 H        4.8760     6.2470    -1.0150 H     1 <1>   0.0800 
 48 H        7.7920     6.7560    -1.6990 H     1 <1>   0.0800 
 49 H        6.7050     7.9200    -0.9720 H     1 <1>   0.0800 
 50 H        6.4150     7.3490    -2.5950 H     1 <1>   0.0800 
@<TRIPOS>BOND
  1   1   2  1   
  2   1  24  1   
  3   2   3  1   
  4   2   4  1   
  5   2  25  1   
  6   3   5  1   
  7   3   6  1   
  8   3  26  1   
  9   4   7  1   
 10   4  27  1   
 11   4  28  1   
 12   5   7  1   
 13   5  29  1   
 14   5  30  1   
 15   6   8  1   
 16   6  31  1   
 17   6  32  1   
 18   7   9  1   
 19   7  33  1   
 20   8  10  ar  
 21   8  11  ar  
 22   9  12  1   
 23   9  34  1   
 24   9  35  1   
 25  10  13  ar  
 26  10  36  1   
 27  11  14  ar  
 28  11  37  1   
 29  12  15  2   
 30  12  16  1   
 31  13  17  ar  
 32  13  38  1   
 33  14  17  ar  
 34  14  39  1   
 35  15  18  1   
 36  15  19  1   
 37  16  20  2   
 38  16  40  1   
 39  18  20  1   
 40  18  21  1   
 41  19  41  1   
 42  19  42  1   
 43  19  43  1   
 44  21  22  1   
 45  21  44  1   
 46  21  45  1   
 47  22  23  1   
 48  22  46  1   
 49  22  47  1   
 50  23  48  1   
 51  23  49  1   
 52  23  50  1   
@<TRIPOS>SUBSTRUCTURE
  1 ****   7 GROUP 4 **** **** 0

# MOE 2024.06 (io_trps.svl 2023.06)
