@<TRIPOS>MOLECULE
NONAME
27 28 1 0 0 
SMALL
USER_CHARGES


@<TRIPOS>ATOM
  1 O       -6.8310     4.2700    -0.1310 O.co2 1 <1>  -0.9000 
  2 C       -7.4040     3.3600    -0.7250 C.2   1 <1>   0.9060 
  3 O       -7.6450     3.3540    -1.9440 O.co2 1 <1>  -0.9000 
  4 C       -7.9150     2.1230     0.0350 C.3   1 <1>   0.3170 
  5 N       -8.8130     1.3170    -0.8670 N.4   1 <1>  -0.9060 
  6 C       -6.7960     1.1640     0.4460 C.3   1 <1>  -0.1600 
  7 C       -8.3760    -0.0970    -0.8750 C.3   1 <1>   0.3430 
  8 C       -7.3890    -0.2340     0.2800 C.3   1 <1>   0.0630 
  9 C       -6.3490    -1.3160     0.0160 C.ar  1 <1>  -0.1430 
 10 C       -6.2350    -2.3900     0.8880 C.ar  1 <1>  -0.1500 
 11 C       -5.5130    -1.2550    -1.0910 C.ar  1 <1>  -0.1500 
 12 C       -5.3050    -3.3880     0.6540 C.ar  1 <1>  -0.1500 
 13 C       -4.5830    -2.2530    -1.3250 C.ar  1 <1>  -0.1500 
 14 C       -4.4790    -3.3210    -0.4530 C.ar  1 <1>  -0.1500 
 15 H       -8.4570     2.4520     0.9030 H     1 <1>   0.0800 
 16 H       -9.8000     1.4850    -0.6620 H     1 <1>   0.4500 
 17 H       -8.6120     1.7930    -1.7820 H     1 <1>   0.4500 
 18 H       -5.9540     1.3080    -0.2100 H     1 <1>   0.0800 
 19 H       -6.4690     1.3540     1.4530 H     1 <1>   0.0800 
 20 H       -9.2070    -0.7730    -0.7590 H     1 <1>   0.0800 
 21 H       -7.8730    -0.3100    -1.8040 H     1 <1>   0.0800 
 22 H       -7.9510    -0.4760     1.1650 H     1 <1>   0.0800 
 23 H       -6.8640    -2.4630     1.7580 H     1 <1>   0.1500 
 24 H       -5.5680    -0.4310    -1.7830 H     1 <1>   0.1500 
 25 H       -5.2220    -4.2180     1.3350 H     1 <1>   0.1500 
 26 H       -3.9370    -2.1970    -2.1840 H     1 <1>   0.1500 
 27 H       -3.7550    -4.0970    -0.6340 H     1 <1>   0.1500 
@<TRIPOS>BOND
  1   1   2  ar  
  2   2   3  ar  
  3   2   4  1   
  4   4   5  1   
  5   4   6  1   
  6   4  15  1   
  7   5   7  1   
  8   5  16  1   
  9   5  17  1   
 10   6   8  1   
 11   6  18  1   
 12   6  19  1   
 13   7   8  1   
 14   7  20  1   
 15   7  21  1   
 16   8   9  1   
 17   8  22  1   
 18   9  10  ar  
 19   9  11  ar  
 20  10  12  ar  
 21  10  23  1   
 22  11  13  ar  
 23  11  24  1   
 24  12  14  ar  
 25  12  25  1   
 26  13  14  ar  
 27  13  26  1   
 28  14  27  1   
@<TRIPOS>SUBSTRUCTURE
  1 ****   8 GROUP 4 **** **** 0

# MOE 2024.06 (io_trps.svl 2023.06)
