@<TRIPOS>MOLECULE
NONAME
46 47 1 0 0 
SMALL
USER_CHARGES


@<TRIPOS>ATOM
  1 O       -0.7720     0.3500     2.1080 O.2   1 <1>  -0.5700 
  2 C       -1.2030     0.7310     1.0470 C.2   1 <1>   0.5690 
  3 N       -1.7290    -0.1250     0.1320 N.am  1 <1>  -0.7300 
  4 C       -1.1660     2.2240     0.7310 C.3   1 <1>  -0.0190 
  5 C       -1.8710    -1.5830     0.3130 C.3   1 <1>   0.1400 
  6 C       -2.5720     2.7900     0.4500 C.3   1 <1>  -0.1600 
  7 C       -0.1860     2.5480    -0.4230 C.3   1 <1>  -0.1600 
  8 C       -3.3260    -1.9720     0.0570 C.3   1 <1>  -0.1600 
  9 C       -2.5600     4.3250     0.2900 C.3   1 <1>   0.2000 
 10 C       -0.4830     3.8850    -1.1320 C.3   1 <1>  -0.1600 
 11 C       -3.5470    -3.4740     0.2680 C.3   1 <1>  -0.0170 
 12 O       -3.5570     4.6700    -0.6390 O.3   1 <1>  -0.5600 
 13 C       -1.1920     4.8710    -0.2000 C.3   1 <1>   0.2000 
 14 C       -4.9980    -3.8370    -0.0050 C.ar  1 <1>  -0.1440 
 15 C       -4.8500     4.7390    -0.1220 C.3   1 <1>   0.0400 
 16 O       -1.3960     6.0450    -0.8970 O.3   1 <1>  -0.6800 
 17 C       -5.9450    -3.7290     1.0020 C.ar  1 <1>  -0.1500 
 18 C       -5.3890    -4.2730    -1.2610 C.ar  1 <1>  -0.1500 
 19 C       -7.2670    -4.0550     0.7570 C.ar  1 <1>  -0.1500 
 20 C       -6.7110    -4.5990    -1.5090 C.ar  1 <1>  -0.1500 
 21 C       -7.6510    -4.4900    -0.4990 C.ar  1 <1>  -0.1500 
 22 H       -2.0770     0.2480    -0.7520 H     1 <1>   0.3700 
 23 H       -0.7990     2.7140     1.6170 H     1 <1>   0.0800 
 24 H       -1.2200    -2.0920    -0.3770 H     1 <1>   0.0800 
 25 H       -1.5870    -1.8570     1.3160 H     1 <1>   0.0800 
 26 H       -3.2300     2.5250     1.2590 H     1 <1>   0.0800 
 27 H       -2.9490     2.3430    -0.4530 H     1 <1>   0.0800 
 28 H        0.8120     2.5740    -0.0180 H     1 <1>   0.0800 
 29 H       -0.2040     1.7660    -1.1620 H     1 <1>   0.0800 
 30 H       -3.9630    -1.4280     0.7330 H     1 <1>   0.0800 
 31 H       -3.5970    -1.7170    -0.9520 H     1 <1>   0.0800 
 32 H       -2.7810     4.7990     1.2320 H     1 <1>   0.0800 
 33 H       -1.1220     3.6980    -1.9780 H     1 <1>   0.0800 
 34 H        0.4350     4.3160    -1.4910 H     1 <1>   0.0800 
 35 H       -3.2960    -3.7420     1.2800 H     1 <1>   0.0800 
 36 H       -2.9060    -4.0360    -0.3880 H     1 <1>   0.0800 
 37 H       -0.5540     5.0910     0.6380 H     1 <1>   0.0800 
 38 H       -5.5150     5.0150    -0.9210 H     1 <1>   0.0800 
 39 H       -4.8840     5.4870     0.6510 H     1 <1>   0.0800 
 40 H       -5.1350     3.7770     0.2670 H     1 <1>   0.0800 
 41 H       -2.2880     5.9610    -1.3050 H     1 <1>   0.4000 
 42 H       -5.6560    -3.3900     1.9810 H     1 <1>   0.1500 
 43 H       -4.6660    -4.3600    -2.0530 H     1 <1>   0.1500 
 44 H       -7.9970    -3.9700     1.5430 H     1 <1>   0.1500 
 45 H       -7.0080    -4.9380    -2.4860 H     1 <1>   0.1500 
 46 H       -8.6790    -4.7440    -0.6910 H     1 <1>   0.1500 
@<TRIPOS>BOND
  1   1   2  2   
  2   2   3  am  
  3   2   4  1   
  4   3   5  1   
  5   3  22  1   
  6   4   6  1   
  7   4   7  1   
  8   4  23  1   
  9   5   8  1   
 10   5  24  1   
 11   5  25  1   
 12   6   9  1   
 13   6  26  1   
 14   6  27  1   
 15   7  10  1   
 16   7  28  1   
 17   7  29  1   
 18   8  11  1   
 19   8  30  1   
 20   8  31  1   
 21   9  12  1   
 22   9  13  1   
 23   9  32  1   
 24  10  13  1   
 25  10  33  1   
 26  10  34  1   
 27  11  14  1   
 28  11  35  1   
 29  11  36  1   
 30  12  15  1   
 31  13  16  1   
 32  13  37  1   
 33  14  17  ar  
 34  14  18  ar  
 35  15  38  1   
 36  15  39  1   
 37  15  40  1   
 38  16  41  1   
 39  17  19  ar  
 40  17  42  1   
 41  18  20  ar  
 42  18  43  1   
 43  19  21  ar  
 44  19  44  1   
 45  20  21  ar  
 46  20  45  1   
 47  21  46  1   
@<TRIPOS>SUBSTRUCTURE
  1 ****   3 GROUP 4 **** **** 0

# MOE 2024.06 (io_trps.svl 2023.06)
