@<TRIPOS>MOLECULE
NONAME
53 55 1 0 0 
SMALL
USER_CHARGES


@<TRIPOS>ATOM
  1 F        0.3210    -0.9340    -0.2070 F     1 <1>  -0.1900 
  2 C        0.0200    -2.1990    -0.0860 C.ar  1 <1>   0.1900 
  3 C        0.2090    -3.0360    -1.1690 C.ar  1 <1>  -0.1500 
  4 C       -0.4760    -2.6540     1.1200 C.ar  1 <1>  -0.1500 
  5 C       -0.1130    -4.3760    -1.0340 C.ar  1 <1>  -0.1500 
  6 C       -0.7950    -3.9960     1.2430 C.ar  1 <1>  -0.1500 
  7 C       -0.6140    -4.8590     0.1690 C.ar  1 <1>  -0.1430 
  8 C       -0.9670    -6.3330     0.3020 C.3   1 <1>  -0.0160 
  9 C       -2.3690    -6.5950    -0.2480 C.3   1 <1>   0.1400 
 10 N       -2.7090    -8.0260    -0.0960 N.am  1 <1>  -0.7300 
 11 C       -2.7110    -8.9590    -1.0810 C.2   1 <1>   0.5690 
 12 O       -2.4060    -8.6980    -2.2210 O.2   1 <1>  -0.5700 
 13 C       -3.1140   -10.3920    -0.7190 C.3   1 <1>   0.1710 
 14 N       -3.9780   -10.5000     0.4970 N.3   1 <1>  -0.8100 
 15 C       -5.3390    -9.9620     0.2570 C.3   1 <1>   0.1100 
 16 C       -4.1640   -11.8980     0.9000 C.3   1 <1>   0.1100 
 17 C       -6.3320   -11.1370     0.2780 C.3   1 <1>   0.2000 
 18 C       -5.4340   -12.3680     0.1950 C.3   1 <1>  -0.0800 
 19 O       -7.0250   -11.1560     1.4940 O.3   1 <1>  -0.5600 
 20 C       -6.0280   -13.6540     0.7980 C.3   1 <1>   0.0200 
 21 C       -8.1480   -10.3350     1.5480 C.3   1 <1>   0.0400 
 22 C       -5.1650   -14.8790     0.5450 C.2   1 <1>  -0.0400 
 23 O       -5.4730   -16.0000     1.1400 O.3   1 <1>  -0.0190 
 24 C       -4.0760   -15.1050    -0.2090 C.2   1 <1>  -0.1500 
 25 N       -4.6500   -16.9600     0.8300 N.2   1 <1>  -0.4100 
 26 C       -3.7970   -16.4490     0.0180 C.2   1 <1>   0.1080 
 27 C       -2.6500   -17.2150    -0.6020 C.3   1 <1>  -0.0590 
 28 H        0.5970    -2.6450    -2.0920 H     1 <1>   0.1500 
 29 H       -0.6090    -1.9710     1.9400 H     1 <1>   0.1500 
 30 H        0.0260    -5.0420    -1.8690 H     1 <1>   0.1500 
 31 H       -1.1830    -4.3640     2.1770 H     1 <1>   0.1500 
 32 H       -0.9230    -6.6260     1.3350 H     1 <1>   0.0800 
 33 H       -0.2550    -6.9230    -0.2480 H     1 <1>   0.0800 
 34 H       -2.4020    -6.3240    -1.2910 H     1 <1>   0.0800 
 35 H       -3.0910    -5.9960     0.2790 H     1 <1>   0.0800 
 36 H       -3.0190    -8.3540     0.8260 H     1 <1>   0.3700 
 37 H       -2.2030   -10.9380    -0.5520 H     1 <1>   0.0800 
 38 H       -3.6110   -10.8300    -1.5660 H     1 <1>   0.0800 
 39 H       -5.5830    -9.2520     1.0280 H     1 <1>   0.0800 
 40 H       -5.3880    -9.4630    -0.6960 H     1 <1>   0.0800 
 41 H       -3.3080   -12.5070     0.6650 H     1 <1>   0.0800 
 42 H       -4.3210   -11.9240     1.9670 H     1 <1>   0.0800 
 43 H       -7.0390   -11.1020    -0.5340 H     1 <1>   0.0800 
 44 H       -5.2040   -12.5430    -0.8410 H     1 <1>   0.0800 
 45 H       -7.0020   -13.8300     0.3770 H     1 <1>   0.0800 
 46 H       -6.1500   -13.5340     1.8610 H     1 <1>   0.0800 
 47 H       -8.5800   -10.4250     2.5300 H     1 <1>   0.0800 
 48 H       -8.8610   -10.6600     0.8100 H     1 <1>   0.0800 
 49 H       -7.8600    -9.3130     1.3740 H     1 <1>   0.0800 
 50 H       -3.5230   -14.4440    -0.8480 H     1 <1>   0.1500 
 51 H       -1.7270   -16.6930    -0.4320 H     1 <1>   0.0800 
 52 H       -2.8120   -17.3190    -1.6590 H     1 <1>   0.0800 
 53 H       -2.5840   -18.1940    -0.1620 H     1 <1>   0.0800 
@<TRIPOS>BOND
  1   1   2  1   
  2   2   3  ar  
  3   2   4  ar  
  4   3   5  ar  
  5   3  28  1   
  6   4   6  ar  
  7   4  29  1   
  8   5   7  ar  
  9   5  30  1   
 10   6   7  ar  
 11   6  31  1   
 12   7   8  1   
 13   8   9  1   
 14   8  32  1   
 15   8  33  1   
 16   9  10  1   
 17   9  34  1   
 18   9  35  1   
 19  10  11  am  
 20  10  36  1   
 21  11  12  2   
 22  11  13  1   
 23  13  14  1   
 24  13  37  1   
 25  13  38  1   
 26  14  15  1   
 27  14  16  1   
 28  15  17  1   
 29  15  39  1   
 30  15  40  1   
 31  16  18  1   
 32  16  41  1   
 33  16  42  1   
 34  17  18  1   
 35  17  19  1   
 36  17  43  1   
 37  18  20  1   
 38  18  44  1   
 39  19  21  1   
 40  20  22  1   
 41  20  45  1   
 42  20  46  1   
 43  21  47  1   
 44  21  48  1   
 45  21  49  1   
 46  22  23  1   
 47  22  24  2   
 48  23  25  1   
 49  24  26  1   
 50  24  50  1   
 51  25  26  2   
 52  26  27  1   
 53  27  51  1   
 54  27  52  1   
 55  27  53  1   
@<TRIPOS>SUBSTRUCTURE
  1 ****  13 GROUP 4 **** **** 0

# MOE 2024.06 (io_trps.svl 2023.06)
