@<TRIPOS>MOLECULE
NONAME
59 62 1 0 0 
SMALL
USER_CHARGES


@<TRIPOS>ATOM
  1 O       -0.4990     0.0330     0.7790 O.2   1 <1>  -0.5700 
  2 C       -1.5360     0.6010     0.4910 C.2   1 <1>   0.5440 
  3 N       -2.6180    -0.1600     0.1100 N.am  1 <1>  -0.6600 
  4 C       -1.6080     2.0480     0.5400 C.ar  1 <1>   0.0860 
  5 C       -3.7420     0.3420    -0.7200 C.3   1 <1>   0.1400 
  6 C       -2.5550    -1.6410     0.0660 C.3   1 <1>   0.1400 
  7 C       -0.6470     2.8360    -0.0890 C.ar  1 <1>  -0.1500 
  8 C       -2.6320     2.7080     1.2170 C.ar  1 <1>  -0.1500 
  9 C       -4.2540    -0.8860    -1.4720 C.3   1 <1>   0.2000 
 10 C       -3.8480    -2.0860    -0.6200 C.3   1 <1>  -0.0800 
 11 C       -0.6990     4.2170    -0.0690 C.ar  1 <1>   0.0830 
 12 C       -2.7080     4.0890     1.2450 C.ar  1 <1>  -0.1500 
 13 O       -5.6320    -0.8560    -1.6210 O.3   1 <1>  -0.6800 
 14 C       -3.6900    -3.3770    -1.4400 C.3   1 <1>  -0.0170 
 15 O        0.3130     4.8430    -0.7320 O.3   1 <1>  -0.3630 
 16 C       -1.7520     4.8670     0.5960 C.ar  1 <1>   0.0830 
 17 C       -3.3300    -4.5560    -0.5420 C.ar  1 <1>  -0.1430 
 18 C        0.8670     6.0390    -0.2330 C.3   1 <1>   0.1200 
 19 O       -1.8270     6.2250     0.5840 O.3   1 <1>  -0.3630 
 20 C       -4.2950    -5.2320     0.2420 C.ar  1 <1>   0.0000 
 21 C       -2.0390    -4.9890    -0.4640 C.ar  1 <1>  -0.1500 
 22 C        2.2800     6.1730    -0.7920 C.3   1 <1>  -0.2400 
 23 C       -2.8780     6.9400     1.1900 C.3   1 <1>   0.1200 
 24 C       -3.8470    -6.2980     1.0600 C.ar  1 <1>   0.3100 
 25 C       -5.6740    -4.9170     0.2620 C.ar  1 <1>  -0.1500 
 26 C       -1.7030    -6.0590     0.3740 C.ar  1 <1>   0.1600 
 27 C       -2.6320     8.4270     0.9540 C.3   1 <1>  -0.2400 
 28 N       -2.5520    -6.6980     1.1130 N.ar  1 <1>  -0.6200 
 29 C       -4.7800    -6.9810     1.8570 C.ar  1 <1>  -0.1500 
 30 C       -6.5570    -5.6040     1.0490 C.ar  1 <1>  -0.1500 
 31 C       -6.1070    -6.6480     1.8600 C.ar  1 <1>  -0.1500 
 32 H       -4.5050     0.7420    -0.0750 H     1 <1>   0.0800 
 33 H       -3.4010     1.0960    -1.4080 H     1 <1>   0.0800 
 34 H       -1.6910    -1.9350    -0.5060 H     1 <1>   0.0800 
 35 H       -2.4740    -2.0470     1.0600 H     1 <1>   0.0800 
 36 H        0.1640     2.3540    -0.6050 H     1 <1>   0.1500 
 37 H       -3.3740     2.1230     1.7310 H     1 <1>   0.1500 
 38 H       -3.8050    -0.9280    -2.4500 H     1 <1>   0.0800 
 39 H       -4.5780    -2.2350     0.1560 H     1 <1>   0.0800 
 40 H       -3.5230     4.5380     1.7790 H     1 <1>   0.1500 
 41 H       -6.0690    -0.8340    -0.7490 H     1 <1>   0.4000 
 42 H       -2.9190    -3.2370    -2.1790 H     1 <1>   0.0800 
 43 H       -4.5970    -3.5880    -1.9780 H     1 <1>   0.0800 
 44 H        0.2520     6.8600    -0.5590 H     1 <1>   0.0800 
 45 H        0.8820     5.9920     0.8420 H     1 <1>   0.0800 
 46 H       -1.2520    -4.5270    -1.0320 H     1 <1>   0.1500 
 47 H        2.2500     6.2050    -1.8660 H     1 <1>   0.0800 
 48 H        2.8820     5.3410    -0.4730 H     1 <1>   0.0800 
 49 H        2.7280     7.0810    -0.4330 H     1 <1>   0.0800 
 50 H       -3.8060     6.6310     0.7380 H     1 <1>   0.0800 
 51 H       -2.8800     6.7180     2.2430 H     1 <1>   0.0800 
 52 H       -6.0440    -4.1200    -0.3560 H     1 <1>   0.1500 
 53 H       -0.6720    -6.3680     0.4060 H     1 <1>   0.1500 
 54 H       -2.6130     8.6340    -0.1010 H     1 <1>   0.0800 
 55 H       -1.6970     8.7210     1.3950 H     1 <1>   0.0800 
 56 H       -3.4210     9.0030     1.4020 H     1 <1>   0.0800 
 57 H       -4.4110    -7.7820     2.4710 H     1 <1>   0.1500 
 58 H       -7.6050    -5.3540     1.0550 H     1 <1>   0.1500 
 59 H       -6.8100    -7.1810     2.4760 H     1 <1>   0.1500 
@<TRIPOS>BOND
  1   1   2  2   
  2   2   3  am  
  3   2   4  1   
  4   3   5  1   
  5   3   6  1   
  6   4   7  ar  
  7   4   8  ar  
  8   5   9  1   
  9   5  32  1   
 10   5  33  1   
 11   6  10  1   
 12   6  34  1   
 13   6  35  1   
 14   7  11  ar  
 15   7  36  1   
 16   8  12  ar  
 17   8  37  1   
 18   9  10  1   
 19   9  13  1   
 20   9  38  1   
 21  10  14  1   
 22  10  39  1   
 23  11  15  1   
 24  11  16  ar  
 25  12  16  ar  
 26  12  40  1   
 27  13  41  1   
 28  14  17  1   
 29  14  42  1   
 30  14  43  1   
 31  15  18  1   
 32  16  19  1   
 33  17  20  ar  
 34  17  21  ar  
 35  18  22  1   
 36  18  44  1   
 37  18  45  1   
 38  19  23  1   
 39  20  24  ar  
 40  20  25  ar  
 41  21  26  ar  
 42  21  46  1   
 43  22  47  1   
 44  22  48  1   
 45  22  49  1   
 46  23  27  1   
 47  23  50  1   
 48  23  51  1   
 49  24  28  ar  
 50  24  29  ar  
 51  25  30  ar  
 52  25  52  1   
 53  26  28  ar  
 54  26  53  1   
 55  27  54  1   
 56  27  55  1   
 57  27  56  1   
 58  29  31  ar  
 59  29  57  1   
 60  30  31  ar  
 61  30  58  1   
 62  31  59  1   
@<TRIPOS>SUBSTRUCTURE
  1 ****   3 GROUP 4 **** **** 0

# MOE 2024.06 (io_trps.svl 2023.06)
