@<TRIPOS>MOLECULE
NONAME
37 38 1 0 0 
SMALL
USER_CHARGES


@<TRIPOS>ATOM
  1 S        2.0610    -0.5260    -2.5420 S.3   1 <1>  -0.0800 
  2 C        1.1980    -1.2870    -1.2260 C.2   1 <1>   0.1980 
  3 C        2.0620     0.9590    -1.6370 C.2   1 <1>  -0.1100 
  4 N        0.9460    -0.5180    -0.2390 N.2   1 <1>  -0.5650 
  5 C        0.8380    -2.7580    -1.3780 C.3   1 <1>   0.5230 
  6 C        1.4360     0.7580    -0.4680 C.2   1 <1>   0.0460 
  7 N       -0.0970    -3.1550    -0.2790 N.4   1 <1>  -0.9590 
  8 C        1.2190     1.7890     0.6190 C.3   1 <1>  -0.0590 
  9 C        0.0060    -4.6300     0.0050 C.3   1 <1>   0.3430 
 10 C       -1.4730    -2.6370    -0.5640 C.3   1 <1>   0.3430 
 11 C       -0.9530    -5.1300     1.0990 C.3   1 <1>   0.1400 
 12 C       -2.2950    -2.5180     0.7250 C.3   1 <1>  -0.1600 
 13 N       -2.3660    -5.0030     0.6410 N.am  1 <1>  -0.6600 
 14 C       -3.0880    -3.7830     1.0830 C.3   1 <1>   0.1400 
 15 C       -2.8560    -5.9200    -0.2520 C.2   1 <1>   0.5690 
 16 O       -2.1090    -6.6640    -0.8390 O.2   1 <1>  -0.5700 
 17 C       -4.3320    -6.0090    -0.5570 C.3   1 <1>  -0.1790 
 18 H        2.5320     1.8210    -2.0770 H     1 <1>   0.1500 
 19 H        1.7460    -3.3350    -1.3190 H     1 <1>   0.0800 
 20 H        0.3830    -2.9300    -2.3390 H     1 <1>   0.0800 
 21 H        0.2400    -2.6130     0.5330 H     1 <1>   0.4500 
 22 H        1.6410     2.7340     0.3290 H     1 <1>   0.0800 
 23 H        1.6890     1.4640     1.5290 H     1 <1>   0.0800 
 24 H        0.1670     1.9190     0.7950 H     1 <1>   0.0800 
 25 H        1.0130    -4.8630     0.3090 H     1 <1>   0.0800 
 26 H       -0.2000    -5.1900    -0.8930 H     1 <1>   0.0800 
 27 H       -1.9790    -3.2730    -1.2740 H     1 <1>   0.0800 
 28 H       -1.3920    -1.6500    -0.9940 H     1 <1>   0.0800 
 29 H       -0.7990    -4.5940     2.0190 H     1 <1>   0.0800 
 30 H       -0.7460    -6.1700     1.2890 H     1 <1>   0.0800 
 31 H       -3.0080    -1.7220     0.5970 H     1 <1>   0.0800 
 32 H       -1.6640    -2.2270     1.5460 H     1 <1>   0.0800 
 33 H       -4.0520    -3.7330     0.6050 H     1 <1>   0.0800 
 34 H       -3.2560    -3.8280     2.1460 H     1 <1>   0.0800 
 35 H       -4.9010    -5.9840     0.3530 H     1 <1>   0.0800 
 36 H       -4.5400    -6.9350    -1.0610 H     1 <1>   0.0800 
 37 H       -4.6260    -5.1980    -1.1950 H     1 <1>   0.0800 
@<TRIPOS>BOND
  1   1   2  1   
  2   1   3  1   
  3   2   4  2   
  4   2   5  1   
  5   3   6  2   
  6   3  18  1   
  7   4   6  1   
  8   5   7  1   
  9   5  19  1   
 10   5  20  1   
 11   6   8  1   
 12   7   9  1   
 13   7  10  1   
 14   7  21  1   
 15   8  22  1   
 16   8  23  1   
 17   8  24  1   
 18   9  11  1   
 19   9  25  1   
 20   9  26  1   
 21  10  12  1   
 22  10  27  1   
 23  10  28  1   
 24  11  13  1   
 25  11  29  1   
 26  11  30  1   
 27  12  14  1   
 28  12  31  1   
 29  12  32  1   
 30  13  14  1   
 31  13  15  am  
 32  14  33  1   
 33  14  34  1   
 34  15  16  2   
 35  15  17  1   
 36  17  35  1   
 37  17  36  1   
 38  17  37  1   
@<TRIPOS>SUBSTRUCTURE
  1 ****   7 GROUP 4 **** **** 0

# MOE 2024.06 (io_trps.svl 2023.06)
