@<TRIPOS>MOLECULE
NONAME
47 49 1 0 0 
SMALL
USER_CHARGES


@<TRIPOS>ATOM
  1 O       -0.4930     0.0200     0.8090 O.2   1 <1>  -0.5700 
  2 C       -1.5060     0.6380     0.5470 C.2   1 <1>   0.5440 
  3 N       -2.7210    -0.0020     0.6530 N.am  1 <1>  -0.6600 
  4 C       -1.4020     2.0240     0.1810 C.ar  1 <1>   0.0860 
  5 C       -2.7880    -1.4890     0.7080 C.3   1 <1>   0.3200 
  6 C       -3.9750     0.7040     1.0680 C.3   1 <1>   0.1400 
  7 C       -0.5800     2.8990     0.8650 C.ar  1 <1>   0.1600 
  8 C       -2.1020     2.5850    -0.8690 C.ar  1 <1>   0.1600 
  9 C       -3.7460    -2.0140    -0.3470 C.2   1 <1>  -0.3320 
 10 C       -3.9050     1.1010     2.5460 C.3   1 <1>   0.1200 
 11 N       -0.4940     4.1750     0.5820 N.ar  1 <1>  -0.6200 
 12 N       -2.0410     3.8560    -1.1780 N.ar  1 <1>  -0.6200 
 13 N       -4.2800    -3.2490    -0.3120 N.pl3 1 <1>   0.0330 
 14 C       -4.2330    -1.4310    -1.4650 C.2   1 <1>   0.0770 
 15 O       -5.0760     1.7510     2.9030 O.3   1 <1>  -0.6800 
 16 C       -1.2340     4.6160    -0.4360 C.ar  1 <1>   0.7200 
 17 C       -5.0660    -3.3310    -1.4070 C.2   1 <1>   0.0060 
 18 N       -5.0660    -2.2580    -2.1230 N.2   1 <1>  -0.5650 
 19 N       -1.1580     5.9510    -0.7450 N.pl3 1 <1>  -0.8380 
 20 C       -5.8670    -4.5680    -1.7520 C.3   1 <1>  -0.0600 
 21 C       -1.8490     6.5660    -1.9220 C.3   1 <1>   0.2090 
 22 C       -0.2250     6.9010    -0.0580 C.3   1 <1>   0.2090 
 23 C       -2.4270     7.9460    -1.5630 C.3   1 <1>   0.1200 
 24 C       -0.9030     8.2610     0.1860 C.3   1 <1>   0.1200 
 25 O       -1.4500     8.7740    -0.9970 O.3   1 <1>  -0.5600 
 26 H       -3.1220    -1.7850     1.6880 H     1 <1>   0.0800 
 27 H       -1.8180    -1.9250     0.5420 H     1 <1>   0.0800 
 28 H       -4.8230     0.0570     0.9200 H     1 <1>   0.0800 
 29 H       -4.1200     1.5820     0.4650 H     1 <1>   0.0800 
 30 H        0.0190     2.5180     1.6760 H     1 <1>   0.1500 
 31 H       -2.7350     1.9520    -1.4670 H     1 <1>   0.1500 
 32 H       -3.0800     1.7650     2.7380 H     1 <1>   0.0800 
 33 H       -3.8180     0.2240     3.1650 H     1 <1>   0.0800 
 34 H       -4.1330    -3.9840     0.3860 H     1 <1>   0.2700 
 35 H       -4.0250    -0.4430    -1.8390 H     1 <1>   0.1500 
 36 H       -5.1270     2.6400     2.4980 H     1 <1>   0.4000 
 37 H       -6.5660    -4.7880    -0.9660 H     1 <1>   0.0800 
 38 H       -5.2100    -5.4070    -1.8930 H     1 <1>   0.0800 
 39 H       -6.4140    -4.4030    -2.6630 H     1 <1>   0.0800 
 40 H       -2.6510     5.9420    -2.2730 H     1 <1>   0.0800 
 41 H       -1.1420     6.6780    -2.7250 H     1 <1>   0.0800 
 42 H        0.6450     7.0460    -0.6740 H     1 <1>   0.0800 
 43 H        0.1030     6.5110     0.8890 H     1 <1>   0.0800 
 44 H       -3.2370     7.8400    -0.8620 H     1 <1>   0.0800 
 45 H       -2.7970     8.4330    -2.4480 H     1 <1>   0.0800 
 46 H       -0.1830     8.9720     0.5500 H     1 <1>   0.0800 
 47 H       -1.6890     8.1600     0.9140 H     1 <1>   0.0800 
@<TRIPOS>BOND
  1   1   2  2   
  2   2   3  am  
  3   2   4  1   
  4   3   5  1   
  5   3   6  1   
  6   4   7  ar  
  7   4   8  ar  
  8   5   9  1   
  9   5  26  1   
 10   5  27  1   
 11   6  10  1   
 12   6  28  1   
 13   6  29  1   
 14   7  11  ar  
 15   7  30  1   
 16   8  12  ar  
 17   8  31  1   
 18   9  13  1   
 19   9  14  2   
 20  10  15  1   
 21  10  32  1   
 22  10  33  1   
 23  11  16  ar  
 24  12  16  ar  
 25  13  17  1   
 26  13  34  1   
 27  14  18  1   
 28  14  35  1   
 29  15  36  1   
 30  16  19  1   
 31  17  18  2   
 32  17  20  1   
 33  19  21  1   
 34  19  22  1   
 35  20  37  1   
 36  20  38  1   
 37  20  39  1   
 38  21  23  1   
 39  21  40  1   
 40  21  41  1   
 41  22  24  1   
 42  22  42  1   
 43  22  43  1   
 44  23  25  1   
 45  23  44  1   
 46  23  45  1   
 47  24  25  1   
 48  24  46  1   
 49  24  47  1   
@<TRIPOS>SUBSTRUCTURE
  1 ****   8 GROUP 4 **** **** 0

# MOE 2024.06 (io_trps.svl 2023.06)
