@<TRIPOS>MOLECULE
NONAME
43 45 1 0 0 
SMALL
USER_CHARGES


@<TRIPOS>ATOM
  1 O       -0.3950     0.1900     0.2140 O.2   1 <1>  -0.5700 
  2 C       -1.4450     0.7360    -0.0280 C.2   1 <1>   0.5690 
  3 N       -2.5780     0.0200    -0.2920 N.am  1 <1>  -0.6600 
  4 C       -1.5080     2.2560    -0.0370 C.3   1 <1>  -0.0990 
  5 C       -3.9310     0.5700    -0.5530 C.3   1 <1>   0.1400 
  6 C       -2.6050    -1.4620    -0.2950 C.3   1 <1>   0.1400 
  7 C       -0.1430     2.9330     0.1560 C.3   1 <1>  -0.0170 
  8 C       -4.8290    -0.6550    -0.7430 C.3   1 <1>   0.2000 
  9 C       -4.0790    -1.8280    -0.1140 C.3   1 <1>  -0.0800 
 10 C       -0.2970     4.4450     0.1140 C.ar  1 <1>  -0.1440 
 11 O       -6.0550    -0.4900    -0.1190 O.3   1 <1>  -0.6800 
 12 C       -4.4760    -3.1810    -0.7320 C.3   1 <1>  -0.0170 
 13 C       -0.2110     5.1350    -1.0880 C.ar  1 <1>   0.1600 
 14 C       -0.5330     5.1590     1.2720 C.ar  1 <1>  -0.1500 
 15 C       -3.7480    -4.3410    -0.0720 C.ar  1 <1>   0.1670 
 16 N       -0.3460     6.4440    -1.2240 N.ar  1 <1>  -0.6200 
 17 C       -0.6710     6.5240     1.1500 C.ar  1 <1>  -0.1500 
 18 N       -2.5230    -4.5920    -0.5040 N.ar  1 <1>  -0.6200 
 19 C       -4.3740    -5.0750     0.9350 C.ar  1 <1>   0.1600 
 20 C       -0.5710     7.1070    -0.1020 C.ar  1 <1>   0.1600 
 21 C       -1.9700    -5.6110     0.1330 C.ar  1 <1>   0.1600 
 22 N       -3.8230    -6.0940     1.5730 N.ar  1 <1>  -0.6200 
 23 C       -2.5980    -6.3370     1.1370 C.ar  1 <1>   0.1600 
 24 H       -1.9210     2.5740    -0.9760 H     1 <1>   0.0800 
 25 H       -2.1680     2.5720     0.7480 H     1 <1>   0.0800 
 26 H       -4.2500     1.1550     0.2920 H     1 <1>   0.0800 
 27 H       -3.9240     1.1730    -1.4440 H     1 <1>   0.0800 
 28 H       -2.2310    -1.8180    -1.2410 H     1 <1>   0.0800 
 29 H       -1.9950    -1.8640     0.4980 H     1 <1>   0.0800 
 30 H        0.5340     2.6130    -0.6180 H     1 <1>   0.0800 
 31 H        0.2810     2.6360     1.0990 H     1 <1>   0.0800 
 32 H       -5.0020    -0.8170    -1.7940 H     1 <1>   0.0800 
 33 H       -4.2700    -1.8500     0.9450 H     1 <1>   0.0800 
 34 H       -5.9350    -0.3580     0.8420 H     1 <1>   0.4000 
 35 H       -4.2540    -3.1840    -1.7850 H     1 <1>   0.0800 
 36 H       -5.5380    -3.3180    -0.6260 H     1 <1>   0.0800 
 37 H       -0.0240     4.5780    -1.9900 H     1 <1>   0.1500 
 38 H       -0.6060     4.6740     2.2310 H     1 <1>   0.1500 
 39 H       -0.8550     7.1350     2.0150 H     1 <1>   0.1500 
 40 H       -5.3730    -4.8060     1.2270 H     1 <1>   0.1500 
 41 H       -0.6810     8.1750    -0.1840 H     1 <1>   0.1500 
 42 H       -0.9700    -5.8850    -0.1540 H     1 <1>   0.1500 
 43 H       -2.0660    -7.1500     1.5970 H     1 <1>   0.1500 
@<TRIPOS>BOND
  1   1   2  2   
  2   2   3  am  
  3   2   4  1   
  4   3   5  1   
  5   3   6  1   
  6   4   7  1   
  7   4  24  1   
  8   4  25  1   
  9   5   8  1   
 10   5  26  1   
 11   5  27  1   
 12   6   9  1   
 13   6  28  1   
 14   6  29  1   
 15   7  10  1   
 16   7  30  1   
 17   7  31  1   
 18   8   9  1   
 19   8  11  1   
 20   8  32  1   
 21   9  12  1   
 22   9  33  1   
 23  10  13  ar  
 24  10  14  ar  
 25  11  34  1   
 26  12  15  1   
 27  12  35  1   
 28  12  36  1   
 29  13  16  ar  
 30  13  37  1   
 31  14  17  ar  
 32  14  38  1   
 33  15  18  ar  
 34  15  19  ar  
 35  16  20  ar  
 36  17  20  ar  
 37  17  39  1   
 38  18  21  ar  
 39  19  22  ar  
 40  19  40  1   
 41  20  41  1   
 42  21  23  ar  
 43  21  42  1   
 44  22  23  ar  
 45  23  43  1   
@<TRIPOS>SUBSTRUCTURE
  1 ****   3 GROUP 4 **** **** 0

# MOE 2024.06 (io_trps.svl 2023.06)
