@<TRIPOS>MOLECULE
NONAME
57 60 1 0 0 
SMALL
USER_CHARGES


@<TRIPOS>ATOM
  1 O       -3.6100     1.1280     1.7730 O.2   1 <1>  -0.5700 
  2 C       -3.6330     1.8950     0.8280 C.2   1 <1>   0.5440 
  3 N       -4.7650     1.8760     0.0490 N.am  1 <1>  -0.6600 
  4 C       -2.5070     2.7220     0.4630 C.ar  1 <1>   0.0860 
  5 C       -6.0920     1.6260     0.7040 C.3   1 <1>   0.1400 
  6 C       -4.6570     1.1810    -1.2670 C.3   1 <1>   0.1400 
  7 C       -1.1870     2.2410     0.3730 C.ar  1 <1>   0.0000 
  8 C       -2.6720     4.0520     0.1300 C.ar  1 <1>  -0.1500 
  9 C       -6.3740     0.1090     0.8790 C.3   1 <1>   0.4230 
 10 C       -4.9170    -0.3400    -1.1110 C.3   1 <1>   0.3430 
 11 C       -0.2020     3.1100    -0.0560 C.ar  1 <1>   0.1050 
 12 C       -0.4900     1.0300     0.5760 C.2   1 <1>   0.1080 
 13 C       -1.5930     4.8420    -0.2770 C.ar  1 <1>   0.1660 
 14 N       -5.2570    -0.7340     0.3100 N.4   1 <1>  -0.9590 
 15 C       -7.7320    -0.3140     0.2780 C.3   1 <1>   0.1200 
 16 N       -0.3690     4.4020    -0.3850 N.ar  1 <1>  -0.5670 
 17 N        0.9550     2.3940    -0.0890 N.pl3 1 <1>   0.3140 
 18 N        0.7650     1.1140     0.2920 N.2   1 <1>  -0.7070 
 19 C       -1.0670    -0.2760     1.0760 C.3   1 <1>  -0.0590 
 20 C       -1.8180     6.2980    -0.6280 C.3   1 <1>  -0.0970 
 21 C       -5.5600    -2.1830     0.5270 C.3   1 <1>   0.4230 
 22 O       -7.9420    -1.6870     0.4670 O.3   1 <1>  -0.5600 
 23 C        2.2730     2.9070    -0.4820 C.3   1 <1>   0.0160 
 24 C       -6.9530    -2.5380    -0.0490 C.3   1 <1>   0.1200 
 25 C       -4.4290    -3.0580    -0.0380 C.3   1 <1>  -0.1600 
 26 C       -4.5110    -4.5110     0.4540 C.3   1 <1>  -0.1600 
 27 C       -3.3210    -5.3260    -0.0590 C.3   1 <1>  -0.2400 
 28 H       -6.1030     2.0940     1.6750 H     1 <1>   0.0800 
 29 H       -6.8680     2.0910     0.1210 H     1 <1>   0.0800 
 30 H       -5.3690     1.6030    -1.9550 H     1 <1>   0.0800 
 31 H       -3.6770     1.3350    -1.6870 H     1 <1>   0.0800 
 32 H       -3.6500     4.4930     0.1820 H     1 <1>   0.1500 
 33 H       -6.4340    -0.0760     1.9390 H     1 <1>   0.0800 
 34 H       -4.0340    -0.8690    -1.4310 H     1 <1>   0.0800 
 35 H       -5.7180    -0.6250    -1.7720 H     1 <1>   0.0800 
 36 H       -4.4430    -0.4550     0.8940 H     1 <1>   0.4500 
 37 H       -7.7820    -0.1000    -0.7750 H     1 <1>   0.0800 
 38 H       -8.5350     0.2050     0.7720 H     1 <1>   0.0800 
 39 H       -1.9120    -0.5590     0.4820 H     1 <1>   0.0800 
 40 H       -1.3590    -0.1700     2.1050 H     1 <1>   0.0800 
 41 H       -0.3230    -1.0500     1.0130 H     1 <1>   0.0800 
 42 H       -2.8460     6.5800    -0.5000 H     1 <1>   0.0800 
 43 H       -1.5350     6.4690    -1.6510 H     1 <1>   0.0800 
 44 H       -1.2080     6.9170     0.0050 H     1 <1>   0.0800 
 45 H       -5.6030    -2.3610     1.5900 H     1 <1>   0.0800 
 46 H        2.2220     3.2660    -1.4920 H     1 <1>   0.0800 
 47 H        2.9970     2.1160    -0.4100 H     1 <1>   0.0800 
 48 H        2.5450     3.7110     0.1760 H     1 <1>   0.0800 
 49 H       -7.2250    -3.5420     0.2260 H     1 <1>   0.0800 
 50 H       -6.9630    -2.4680    -1.1220 H     1 <1>   0.0800 
 51 H       -4.4570    -3.0580    -1.1130 H     1 <1>   0.0800 
 52 H       -3.4840    -2.6540     0.2830 H     1 <1>   0.0800 
 53 H       -4.5100    -4.5370     1.5310 H     1 <1>   0.0800 
 54 H       -5.4180    -4.9780     0.1100 H     1 <1>   0.0800 
 55 H       -2.3920    -4.9120     0.2940 H     1 <1>   0.0800 
 56 H       -3.3050    -5.3460    -1.1350 H     1 <1>   0.0800 
 57 H       -3.3910    -6.3410     0.2940 H     1 <1>   0.0800 
@<TRIPOS>BOND
  1   1   2  2   
  2   2   3  am  
  3   2   4  1   
  4   3   5  1   
  5   3   6  1   
  6   4   7  ar  
  7   4   8  ar  
  8   5   9  1   
  9   5  28  1   
 10   5  29  1   
 11   6  10  1   
 12   6  30  1   
 13   6  31  1   
 14   7  11  ar  
 15   7  12  1   
 16   8  13  ar  
 17   8  32  1   
 18   9  14  1   
 19   9  15  1   
 20   9  33  1   
 21  10  14  1   
 22  10  34  1   
 23  10  35  1   
 24  11  16  ar  
 25  11  17  1   
 26  12  18  2   
 27  12  19  1   
 28  13  16  ar  
 29  13  20  1   
 30  14  21  1   
 31  14  36  1   
 32  15  22  1   
 33  15  37  1   
 34  15  38  1   
 35  17  18  1   
 36  17  23  1   
 37  19  39  1   
 38  19  40  1   
 39  19  41  1   
 40  20  42  1   
 41  20  43  1   
 42  20  44  1   
 43  21  24  1   
 44  21  25  1   
 45  21  45  1   
 46  22  24  1   
 47  23  46  1   
 48  23  47  1   
 49  23  48  1   
 50  24  49  1   
 51  24  50  1   
 52  25  26  1   
 53  25  51  1   
 54  25  52  1   
 55  26  27  1   
 56  26  53  1   
 57  26  54  1   
 58  27  55  1   
 59  27  56  1   
 60  27  57  1   
@<TRIPOS>SUBSTRUCTURE
  1 ****   2 GROUP 4 **** **** 0

# MOE 2024.06 (io_trps.svl 2023.06)
