@<TRIPOS>MOLECULE
NONAME
58 60 1 0 0 
SMALL
USER_CHARGES


@<TRIPOS>ATOM
  1 O       -0.6310    -0.2790    -0.3550 O.2   1 <1>  -0.5700 
  2 C       -1.6050     0.3540    -0.6900 C.2   1 <1>   0.5690 
  3 N       -2.7590    -0.2670    -1.0880 N.am  1 <1>  -0.6600 
  4 C       -1.5230     1.8810    -0.6480 C.3   1 <1>  -0.0990 
  5 C       -2.8480    -1.7630    -1.1130 C.3   1 <1>   0.3210 
  6 C       -4.0140     0.4560    -1.4940 C.3   1 <1>   0.1400 
  7 C       -0.1950     2.4560    -0.1060 C.3   1 <1>  -0.0800 
  8 C       -3.8570    -2.2680    -0.0890 C.2   1 <1>   0.0460 
  9 C       -5.0040     0.7020    -0.3350 C.3   1 <1>   0.1200 
 10 C       -0.3410     3.9490     0.2300 C.3   1 <1>  -0.1600 
 11 C        0.9660     2.2750    -1.1020 C.3   1 <1>  -0.1600 
 12 N       -5.0920    -2.6570    -0.4710 N.2   1 <1>  -0.5650 
 13 C       -3.7070    -2.3890     1.2520 C.2   1 <1>  -0.3320 
 14 O       -4.3380     0.8200     0.8760 O.3   1 <1>  -0.6800 
 15 C        0.9720     4.5370     0.7480 C.3   1 <1>   0.3430 
 16 C        2.2610     2.8710    -0.5580 C.3   1 <1>   0.3430 
 17 C       -5.6640    -3.0030     0.6360 C.2   1 <1>   0.0360 
 18 N       -4.8760    -2.8620     1.7210 N.pl3 1 <1>   0.0330 
 19 C       -2.5210    -2.0850     2.1520 C.3   1 <1>  -0.0600 
 20 N        2.0570     4.3150    -0.2540 N.4   1 <1>  -0.9590 
 21 C        3.3270     4.9650     0.1640 C.3   1 <1>   0.4860 
 22 C        3.1080     6.4640     0.2110 C.ar  1 <1>  -0.1440 
 23 C        3.0010     7.1170     1.4310 C.ar  1 <1>  -0.1500 
 24 C        3.0060     7.1940    -0.9650 C.ar  1 <1>  -0.1500 
 25 C        2.7800     8.4820     1.4740 C.ar  1 <1>  -0.1500 
 26 C        2.7850     8.5590    -0.9200 C.ar  1 <1>  -0.1500 
 27 C        2.6700     9.2030     0.2980 C.ar  1 <1>  -0.1500 
 28 H       -2.3220     2.2230    -0.0170 H     1 <1>   0.0800 
 29 H       -1.6990     2.2620    -1.6360 H     1 <1>   0.0800 
 30 H       -1.8920    -2.2070    -0.9010 H     1 <1>   0.0800 
 31 H       -3.1450    -2.0880    -2.0940 H     1 <1>   0.0800 
 32 H       -4.5180    -0.1080    -2.2600 H     1 <1>   0.0800 
 33 H       -3.7650     1.4040    -1.9330 H     1 <1>   0.0800 
 34 H        0.0440     1.9330     0.8070 H     1 <1>   0.0800 
 35 H       -5.6940    -0.1190    -0.2530 H     1 <1>   0.0800 
 36 H       -5.5680     1.6020    -0.5030 H     1 <1>   0.0800 
 37 H       -1.0930     4.0730     0.9910 H     1 <1>   0.0800 
 38 H       -0.6640     4.5010    -0.6350 H     1 <1>   0.0800 
 39 H        0.7280     2.7310    -2.0460 H     1 <1>   0.0800 
 40 H        1.1340     1.2290    -1.2880 H     1 <1>   0.0800 
 41 H       -3.8510    -0.0220     1.0210 H     1 <1>   0.4000 
 42 H        1.2330     4.0640     1.6810 H     1 <1>   0.0800 
 43 H        0.8420     5.5930     0.9280 H     1 <1>   0.0800 
 44 H        3.0450     2.7500    -1.2880 H     1 <1>   0.0800 
 45 H        2.5470     2.3430     0.3390 H     1 <1>   0.0800 
 46 H       -6.6730    -3.3710     0.7070 H     1 <1>   0.1500 
 47 H       -5.1200    -3.0730     2.6930 H     1 <1>   0.2700 
 48 H       -1.6790    -1.7560     1.5710 H     1 <1>   0.0800 
 49 H       -2.2310    -2.9670     2.6940 H     1 <1>   0.0800 
 50 H       -2.7740    -1.3110     2.8550 H     1 <1>   0.0800 
 51 H        1.7590     4.7880    -1.1140 H     1 <1>   0.4500 
 52 H        4.1090     4.7440    -0.5450 H     1 <1>   0.0800 
 53 H        3.6320     4.6040     1.1330 H     1 <1>   0.0800 
 54 H        3.0900     6.5790     2.3600 H     1 <1>   0.1500 
 55 H        3.1010     6.7190    -1.9270 H     1 <1>   0.1500 
 56 H        2.6970     8.9890     2.4200 H     1 <1>   0.1500 
 57 H        2.7050     9.1270    -1.8330 H     1 <1>   0.1500 
 58 H        2.4990    10.2660     0.3320 H     1 <1>   0.1500 
@<TRIPOS>BOND
  1   1   2  2   
  2   2   3  am  
  3   2   4  1   
  4   3   5  1   
  5   3   6  1   
  6   4   7  1   
  7   4  28  1   
  8   4  29  1   
  9   5   8  1   
 10   5  30  1   
 11   5  31  1   
 12   6   9  1   
 13   6  32  1   
 14   6  33  1   
 15   7  10  1   
 16   7  11  1   
 17   7  34  1   
 18   8  12  1   
 19   8  13  2   
 20   9  14  1   
 21   9  35  1   
 22   9  36  1   
 23  10  15  1   
 24  10  37  1   
 25  10  38  1   
 26  11  16  1   
 27  11  39  1   
 28  11  40  1   
 29  12  17  2   
 30  13  18  1   
 31  13  19  1   
 32  14  41  1   
 33  15  20  1   
 34  15  42  1   
 35  15  43  1   
 36  16  20  1   
 37  16  44  1   
 38  16  45  1   
 39  17  18  1   
 40  17  46  1   
 41  18  47  1   
 42  19  48  1   
 43  19  49  1   
 44  19  50  1   
 45  20  21  1   
 46  20  51  1   
 47  21  22  1   
 48  21  52  1   
 49  21  53  1   
 50  22  23  ar  
 51  22  24  ar  
 52  23  25  ar  
 53  23  54  1   
 54  24  26  ar  
 55  24  55  1   
 56  25  27  ar  
 57  25  56  1   
 58  26  27  ar  
 59  26  57  1   
 60  27  58  1   
@<TRIPOS>SUBSTRUCTURE
  1 ****   7 GROUP 4 **** **** 0

# MOE 2024.06 (io_trps.svl 2023.06)
