@<TRIPOS>MOLECULE
NONAME
51 52 1 0 0 
SMALL
USER_CHARGES


@<TRIPOS>ATOM
  1 F       -6.4350    -0.1990     1.4150 F     1 <1>  -0.1900 
  2 C       -5.4590     0.4740     0.8560 C.ar  1 <1>   0.1900 
  3 C       -4.5440    -0.2020     0.0500 C.ar  1 <1>   0.0820 
  4 C       -5.3820     1.8320     1.0950 C.ar  1 <1>  -0.1500 
  5 O       -4.6970    -1.5430    -0.1240 O.3   1 <1>  -0.3630 
  6 C       -3.5160     0.5270    -0.5490 C.ar  1 <1>  -0.1500 
  7 C       -4.3470     2.5160     0.4900 C.ar  1 <1>   0.1900 
  8 C       -3.5800    -2.4180    -0.2700 C.3   1 <1>   0.2610 
  9 C       -3.4170     1.8930    -0.3250 C.ar  1 <1>  -0.1500 
 10 F       -4.2430     3.8020     0.6930 F     1 <1>  -0.1900 
 11 C       -4.0480    -3.8440    -0.6250 C.2   1 <1>   0.5690 
 12 C       -2.7130    -2.3840     1.0010 C.3   1 <1>  -0.2400 
 13 O       -3.4810    -4.3660    -1.5560 O.2   1 <1>  -0.5700 
 14 N       -5.0470    -4.5250     0.0430 N.am  1 <1>  -0.6600 
 15 C       -5.2180    -5.9920    -0.2630 C.3   1 <1>   0.3210 
 16 C       -5.9010    -3.9600     1.1450 C.3   1 <1>   0.1400 
 17 C       -6.5800    -6.5740     0.1260 C.2   1 <1>   0.0460 
 18 C       -7.3080    -3.4960     0.6930 C.3   1 <1>   0.3430 
 19 N       -7.6840    -6.3340    -0.6160 N.2   1 <1>  -0.5650 
 20 C       -6.8750    -7.3830     1.1720 C.2   1 <1>  -0.3320 
 21 N       -7.3100    -2.6590    -0.5550 N.4   1 <1>  -0.9590 
 22 C       -8.6110    -7.0150    -0.0260 C.2   1 <1>   0.0360 
 23 N       -8.1860    -7.6730     1.0710 N.pl3 1 <1>   0.0330 
 24 C       -6.0040    -7.9470     2.2840 C.3   1 <1>  -0.0600 
 25 C       -8.4540    -1.7040    -0.5630 C.3   1 <1>   0.2630 
 26 C       -7.3390    -3.5160    -1.7830 C.3   1 <1>   0.2630 
 27 H       -6.0920     2.3390     1.7240 H     1 <1>   0.1500 
 28 H       -2.7950     0.0560    -1.1920 H     1 <1>   0.1500 
 29 H       -2.9980    -2.0690    -1.1030 H     1 <1>   0.0800 
 30 H       -2.6300     2.4730    -0.7760 H     1 <1>   0.1500 
 31 H       -3.2690    -2.6930     1.8660 H     1 <1>   0.0800 
 32 H       -2.3130    -1.4000     1.1680 H     1 <1>   0.0800 
 33 H       -1.8830    -3.0570     0.8800 H     1 <1>   0.0800 
 34 H       -4.4450    -6.5360     0.2480 H     1 <1>   0.0800 
 35 H       -5.0820    -6.1630    -1.3170 H     1 <1>   0.0800 
 36 H       -5.4100    -3.1260     1.6070 H     1 <1>   0.0800 
 37 H       -6.0160    -4.7000     1.9180 H     1 <1>   0.0800 
 38 H       -7.7310    -2.9240     1.5010 H     1 <1>   0.0800 
 39 H       -7.9420    -4.3540     0.5530 H     1 <1>   0.0800 
 40 H       -6.4230    -2.1230    -0.5510 H     1 <1>   0.4500 
 41 H       -9.6330    -7.0730    -0.3620 H     1 <1>   0.1500 
 42 H       -8.7410    -8.2840     1.6790 H     1 <1>   0.2700 
 43 H       -4.9990    -7.5740     2.2140 H     1 <1>   0.0800 
 44 H       -5.9720    -9.0210     2.2180 H     1 <1>   0.0800 
 45 H       -6.4020    -7.6720     3.2450 H     1 <1>   0.0800 
 46 H       -9.3880    -2.2420    -0.5680 H     1 <1>   0.0800 
 47 H       -8.4090    -1.0790    -1.4400 H     1 <1>   0.0800 
 48 H       -8.4200    -1.0740     0.3100 H     1 <1>   0.0800 
 49 H       -8.2280    -4.1260    -1.7920 H     1 <1>   0.0800 
 50 H       -6.4860    -4.1730    -1.8100 H     1 <1>   0.0800 
 51 H       -7.3250    -2.9050    -2.6700 H     1 <1>   0.0800 
@<TRIPOS>BOND
  1   1   2  1   
  2   2   3  ar  
  3   2   4  ar  
  4   3   5  1   
  5   3   6  ar  
  6   4   7  ar  
  7   4  27  1   
  8   5   8  1   
  9   6   9  ar  
 10   6  28  1   
 11   7   9  ar  
 12   7  10  1   
 13   8  11  1   
 14   8  12  1   
 15   8  29  1   
 16   9  30  1   
 17  11  13  2   
 18  11  14  am  
 19  12  31  1   
 20  12  32  1   
 21  12  33  1   
 22  14  15  1   
 23  14  16  1   
 24  15  17  1   
 25  15  34  1   
 26  15  35  1   
 27  16  18  1   
 28  16  36  1   
 29  16  37  1   
 30  17  19  1   
 31  17  20  2   
 32  18  21  1   
 33  18  38  1   
 34  18  39  1   
 35  19  22  2   
 36  20  23  1   
 37  20  24  1   
 38  21  25  1   
 39  21  26  1   
 40  21  40  1   
 41  22  23  1   
 42  22  41  1   
 43  23  42  1   
 44  24  43  1   
 45  24  44  1   
 46  24  45  1   
 47  25  46  1   
 48  25  47  1   
 49  25  48  1   
 50  26  49  1   
 51  26  50  1   
 52  26  51  1   
@<TRIPOS>SUBSTRUCTURE
  1 ****  16 GROUP 4 **** **** 0

# MOE 2024.06 (io_trps.svl 2023.06)
