@<TRIPOS>MOLECULE
NONAME
44 46 1 0 0 
SMALL
USER_CHARGES


@<TRIPOS>ATOM
  1 O        0.5100    -0.1370     0.6990 O.2   1 <1>  -0.5700 
  2 C        1.6680    -0.1530     0.3460 C.2   1 <1>   0.7150 
  3 N        2.2350    -1.3870     0.3060 N.am  1 <1>  -0.7300 
  4 C        2.3270     1.0750     0.0050 C.2   1 <1>  -0.2370 
  5 C        3.6410    -1.8730     0.2700 C.3   1 <1>   0.1400 
  6 N        3.5000     1.2090    -0.6580 N.pl3 1 <1>   0.3140 
  7 C        1.9130     2.3460     0.2460 C.2   1 <1>  -0.1500 
  8 C        4.7150    -0.8060     0.0090 C.3   1 <1>   0.2000 
  9 N        3.8460     2.4870    -0.8390 N.2   1 <1>  -0.7070 
 10 C        4.3750     0.1340    -1.1450 C.3   1 <1>   0.0960 
 11 C        2.8760     3.1980    -0.2860 C.2   1 <1>   0.2030 
 12 O        5.9050    -1.4600    -0.2890 O.3   1 <1>  -0.6800 
 13 C        2.8180     4.6520    -0.2370 C.2   1 <1>   0.7160 
 14 O        1.8890     5.2430     0.2880 O.2   1 <1>  -0.5700 
 15 N        3.8330     5.3780    -0.7940 N.am  1 <1>  -0.7300 
 16 C        3.9620     6.8470    -0.8280 C.3   1 <1>   0.1400 
 17 C        5.2870     7.2470    -0.1770 C.3   1 <1>  -0.1600 
 18 C        5.5140     8.7670    -0.2190 C.3   1 <1>  -0.0800 
 19 C        6.8450     9.1780     0.4050 C.3   1 <1>  -0.1600 
 20 C        4.4870     9.5750     0.5730 C.3   1 <1>  -0.1600 
 21 C        6.6820    10.6650     0.7200 C.3   1 <1>  -0.1600 
 22 C        5.1790    10.9000     0.9030 C.3   1 <1>  -0.1600 
 23 H        1.5540    -2.1080     0.5590 H     1 <1>   0.3700 
 24 H        3.7020    -2.6210    -0.5020 H     1 <1>   0.0800 
 25 H        3.8590    -2.3500     1.2110 H     1 <1>   0.0800 
 26 H        1.0140     2.6620     0.7480 H     1 <1>   0.1500 
 27 H        4.8960    -0.2360     0.9060 H     1 <1>   0.0800 
 28 H        5.2730     0.5890    -1.5210 H     1 <1>   0.0800 
 29 H        3.8750    -0.3870    -1.9390 H     1 <1>   0.0800 
 30 H        5.8450    -1.9670    -1.1220 H     1 <1>   0.4000 
 31 H        4.5830     4.8250    -1.2170 H     1 <1>   0.3700 
 32 H        3.1380     7.2980    -0.3010 H     1 <1>   0.0800 
 33 H        3.9340     7.1810    -1.8510 H     1 <1>   0.0800 
 34 H        6.0940     6.7630    -0.6970 H     1 <1>   0.0800 
 35 H        5.2900     6.9110     0.8450 H     1 <1>   0.0800 
 36 H        5.5040     9.1060    -1.2430 H     1 <1>   0.0800 
 37 H        7.6750     8.9940    -0.2540 H     1 <1>   0.0800 
 38 H        6.9980     8.6390     1.3250 H     1 <1>   0.0800 
 39 H        4.2520     9.0630     1.4910 H     1 <1>   0.0800 
 40 H        3.5780     9.7290     0.0170 H     1 <1>   0.0800 
 41 H        7.0370    11.2500    -0.1120 H     1 <1>   0.0800 
 42 H        7.2380    10.9390     1.6000 H     1 <1>   0.0800 
 43 H        4.9530    11.2020     1.9120 H     1 <1>   0.0800 
 44 H        4.8470    11.6710     0.2280 H     1 <1>   0.0800 
@<TRIPOS>BOND
  1   1   2  2   
  2   2   3  am  
  3   2   4  1   
  4   3   5  1   
  5   3  23  1   
  6   4   6  1   
  7   4   7  2   
  8   5   8  1   
  9   5  24  1   
 10   5  25  1   
 11   6   9  1   
 12   6  10  1   
 13   7  11  1   
 14   7  26  1   
 15   8  10  1   
 16   8  12  1   
 17   8  27  1   
 18   9  11  2   
 19  10  28  1   
 20  10  29  1   
 21  11  13  1   
 22  12  30  1   
 23  13  14  2   
 24  13  15  am  
 25  15  16  1   
 26  15  31  1   
 27  16  17  1   
 28  16  32  1   
 29  16  33  1   
 30  17  18  1   
 31  17  34  1   
 32  17  35  1   
 33  18  19  1   
 34  18  20  1   
 35  18  36  1   
 36  19  21  1   
 37  19  37  1   
 38  19  38  1   
 39  20  22  1   
 40  20  39  1   
 41  20  40  1   
 42  21  22  1   
 43  21  41  1   
 44  21  42  1   
 45  22  43  1   
 46  22  44  1   
@<TRIPOS>SUBSTRUCTURE
  1 ****  11 GROUP 4 **** **** 0

# MOE 2024.06 (io_trps.svl 2023.06)
