@<TRIPOS>MOLECULE
NONAME
45 47 1 0 0 
SMALL
USER_CHARGES


@<TRIPOS>ATOM
  1 S        0.8040     0.2760    -0.3960 S.3   1 <1>  -0.0800 
  2 C       -0.2020    -1.1380    -0.3920 C.2   1 <1>  -0.1400 
  3 C       -0.6450     1.2550    -0.2230 C.2   1 <1>   0.1980 
  4 C       -1.4800    -0.7650    -0.2770 C.2   1 <1>   0.0460 
  5 C        0.3560    -2.5370    -0.5090 C.3   1 <1>   0.0200 
  6 N       -1.7320     0.5920    -0.1730 N.2   1 <1>  -0.5650 
  7 C       -0.4690     2.7540    -0.1430 C.3   1 <1>   0.0200 
  8 C       -2.6150    -1.7680    -0.2550 C.3   1 <1>   0.0210 
  9 C       -0.7540    -3.5430    -0.1400 C.3   1 <1>  -0.1600 
 10 C       -0.0670     3.1530     1.2740 C.3   1 <1>   0.2090 
 11 C       -2.1260    -3.1540    -0.7360 C.3   1 <1>  -0.1600 
 12 N        0.0410     4.6330     1.3780 N.pl3 1 <1>  -0.8690 
 13 C        1.1900     5.3350     1.1240 C.ar  1 <1>   0.4100 
 14 N        2.1880     4.6860     0.5390 N.ar  1 <1>  -0.6200 
 15 C        1.2690     6.6790     1.4760 C.ar  1 <1>  -0.1500 
 16 C        3.2830     5.3890     0.3020 C.ar  1 <1>   0.1600 
 17 C        2.4130     7.3950     1.2170 C.ar  1 <1>  -0.1500 
 18 C        3.4700     6.7380     0.5920 C.ar  1 <1>   0.0860 
 19 C        4.7150     7.3880     0.2580 C.2   1 <1>   0.5440 
 20 O        5.7610     6.8060     0.4810 O.2   1 <1>  -0.5700 
 21 N        4.7630     8.6450    -0.3190 N.am  1 <1>  -0.6600 
 22 C        3.6360     9.2460    -1.0830 C.3   1 <1>   0.0600 
 23 C        6.0410     9.4050    -0.4050 C.3   1 <1>   0.0600 
 24 H        1.1980    -2.6580     0.1490 H     1 <1>   0.0800 
 25 H        0.6820    -2.6980    -1.5210 H     1 <1>   0.0800 
 26 H       -1.3990     3.2270    -0.3980 H     1 <1>   0.0800 
 27 H        0.2860     3.0650    -0.8410 H     1 <1>   0.0800 
 28 H       -3.4110    -1.4230    -0.8900 H     1 <1>   0.0800 
 29 H       -2.9900    -1.8350     0.7510 H     1 <1>   0.0800 
 30 H       -0.8440    -3.5770     0.9330 H     1 <1>   0.0800 
 31 H       -0.4720    -4.5250    -0.4770 H     1 <1>   0.0800 
 32 H        0.8760     2.6980     1.5280 H     1 <1>   0.0800 
 33 H       -0.8070     2.7990     1.9720 H     1 <1>   0.0800 
 34 H       -2.0400    -3.1330    -1.8090 H     1 <1>   0.0800 
 35 H       -2.8610    -3.8980    -0.4810 H     1 <1>   0.0800 
 36 H       -0.6920     5.0870     1.9250 H     1 <1>   0.4000 
 37 H        0.4280     7.1450     1.9530 H     1 <1>   0.1500 
 38 H        4.1030     4.8660    -0.1610 H     1 <1>   0.1500 
 39 H        2.5020     8.4320     1.4880 H     1 <1>   0.1500 
 40 H        2.8630     8.5200    -1.2650 H     1 <1>   0.0800 
 41 H        3.9910     9.6030    -2.0350 H     1 <1>   0.0800 
 42 H        3.2230    10.0720    -0.5310 H     1 <1>   0.0800 
 43 H        6.7510     9.0340     0.3140 H     1 <1>   0.0800 
 44 H        5.8630    10.4470    -0.2030 H     1 <1>   0.0800 
 45 H        6.4590     9.2990    -1.3910 H     1 <1>   0.0800 
@<TRIPOS>BOND
  1   1   2  1   
  2   1   3  1   
  3   2   4  2   
  4   2   5  1   
  5   3   6  2   
  6   3   7  1   
  7   4   6  1   
  8   4   8  1   
  9   5   9  1   
 10   5  24  1   
 11   5  25  1   
 12   7  10  1   
 13   7  26  1   
 14   7  27  1   
 15   8  11  1   
 16   8  28  1   
 17   8  29  1   
 18   9  11  1   
 19   9  30  1   
 20   9  31  1   
 21  10  12  1   
 22  10  32  1   
 23  10  33  1   
 24  11  34  1   
 25  11  35  1   
 26  12  13  1   
 27  12  36  1   
 28  13  14  ar  
 29  13  15  ar  
 30  14  16  ar  
 31  15  17  ar  
 32  15  37  1   
 33  16  18  ar  
 34  16  38  1   
 35  17  18  ar  
 36  17  39  1   
 37  18  19  1   
 38  19  20  2   
 39  19  21  am  
 40  21  22  1   
 41  21  23  1   
 42  22  40  1   
 43  22  41  1   
 44  22  42  1   
 45  23  43  1   
 46  23  44  1   
 47  23  45  1   
@<TRIPOS>SUBSTRUCTURE
  1 ****  14 GROUP 4 **** **** 0

# MOE 2024.06 (io_trps.svl 2023.06)
