@<TRIPOS>MOLECULE
NONAME
42 43 1 0 0 
SMALL
USER_CHARGES


@<TRIPOS>ATOM
  1 S        0.5340    -0.5240    -0.8820 S.o2  1 <1>   1.3330 
  2 O        0.5620    -1.5970     0.0860 O.2   1 <1>  -0.6500 
  3 O       -0.2060    -0.6950    -2.1110 O.2   1 <1>  -0.6500 
  4 N       -0.0780     0.8570    -0.1070 N.am  1 <1>  -0.8490 
  5 C        2.2290    -0.0880    -1.2760 C.3   1 <1>  -0.0550 
  6 C       -0.2890     1.9900    -1.0140 C.3   1 <1>   0.1160 
  7 C       -1.3120     0.5650     0.6250 C.3   1 <1>   0.1160 
  8 C        3.0660     0.3460    -0.0580 C.3   1 <1>  -0.0800 
  9 C        4.4160     0.9160    -0.4820 C.3   1 <1>   0.2200 
 10 C        3.4250    -0.7990     0.8920 C.3   1 <1>   0.1200 
 11 N        4.5160     2.3230    -0.0380 N.am  1 <1>  -0.7300 
 12 C        5.4280     0.0270     0.2380 C.3   1 <1>   0.1200 
 13 O        4.7340    -0.5550     1.2920 O.3   1 <1>  -0.5600 
 14 C        3.9200     3.3920    -0.6510 C.2   1 <1>   0.5440 
 15 O        3.2900     3.1780    -1.6740 O.2   1 <1>  -0.5700 
 16 C        4.0220     4.7340    -0.0830 C.ar  1 <1>   0.3960 
 17 N        4.6670     4.9150     1.0830 N.ar  1 <1>  -0.6200 
 18 C        3.4410     5.8110    -0.7620 C.ar  1 <1>   0.1600 
 19 C        4.6800     6.1750     1.4790 C.ar  1 <1>   0.1600 
 20 N        3.4530     7.0720    -0.3610 N.ar  1 <1>  -0.6200 
 21 C        4.0920     7.2270     0.7830 C.ar  1 <1>   0.1670 
 22 C        4.1570     8.6440     1.3170 C.3   1 <1>  -0.0970 
 23 H        2.7040    -0.9200    -1.7570 H     1 <1>   0.0800 
 24 H        2.2140     0.7210    -1.9800 H     1 <1>   0.0800 
 25 H       -0.6380     2.8460    -0.4610 H     1 <1>   0.0800 
 26 H       -1.0180     1.7400    -1.7690 H     1 <1>   0.0800 
 27 H        0.6340     2.2610    -1.4980 H     1 <1>   0.0800 
 28 H       -1.6620     1.4460     1.1340 H     1 <1>   0.0800 
 29 H       -1.1310    -0.2000     1.3620 H     1 <1>   0.0800 
 30 H       -2.0750     0.2180    -0.0530 H     1 <1>   0.0800 
 31 H        2.5160     1.0810     0.5030 H     1 <1>   0.0800 
 32 H        4.5720     0.8690    -1.5470 H     1 <1>   0.0800 
 33 H        3.4020    -1.7560     0.3970 H     1 <1>   0.0800 
 34 H        2.7880    -0.8250     1.7600 H     1 <1>   0.0800 
 35 H        4.9100     2.4730     0.8980 H     1 <1>   0.3700 
 36 H        6.2720     0.5740     0.6210 H     1 <1>   0.0800 
 37 H        5.7640    -0.7650    -0.4080 H     1 <1>   0.0800 
 38 H        2.9380     5.6080    -1.6920 H     1 <1>   0.1500 
 39 H        5.1840     6.3880     2.4060 H     1 <1>   0.1500 
 40 H        4.6940     8.6870     2.2470 H     1 <1>   0.0800 
 41 H        3.1610     9.0150     1.4730 H     1 <1>   0.0800 
 42 H        4.6510     9.2760     0.6010 H     1 <1>   0.0800 
@<TRIPOS>BOND
  1   1   2  2   
  2   1   3  2   
  3   1   4  am  
  4   1   5  1   
  5   4   6  1   
  6   4   7  1   
  7   5   8  1   
  8   5  23  1   
  9   5  24  1   
 10   6  25  1   
 11   6  26  1   
 12   6  27  1   
 13   7  28  1   
 14   7  29  1   
 15   7  30  1   
 16   8   9  1   
 17   8  10  1   
 18   8  31  1   
 19   9  11  1   
 20   9  12  1   
 21   9  32  1   
 22  10  13  1   
 23  10  33  1   
 24  10  34  1   
 25  11  14  am  
 26  11  35  1   
 27  12  13  1   
 28  12  36  1   
 29  12  37  1   
 30  14  15  2   
 31  14  16  1   
 32  16  17  ar  
 33  16  18  ar  
 34  17  19  ar  
 35  18  20  ar  
 36  18  38  1   
 37  19  21  ar  
 38  19  39  1   
 39  20  21  ar  
 40  21  22  1   
 41  22  40  1   
 42  22  41  1   
 43  22  42  1   
@<TRIPOS>SUBSTRUCTURE
  1 ****  14 GROUP 4 **** **** 0

# MOE 2024.06 (io_trps.svl 2023.06)
