@<TRIPOS>MOLECULE
NONAME
52 56 1 0 0 
SMALL
USER_CHARGES


@<TRIPOS>ATOM
  1 O       -2.6770     2.4860    -1.8340 O.2   1 <1>  -0.5700 
  2 C       -2.5780     2.6470    -0.6320 C.2   1 <1>   0.5440 
  3 N       -3.4170     1.9680     0.2370 N.am  1 <1>  -0.6600 
  4 C       -1.5790     3.5650    -0.1330 C.ar  1 <1>   0.0860 
  5 C       -4.6620     1.2480    -0.1690 C.3   1 <1>   0.2200 
  6 C       -3.1000     1.8310     1.6880 C.3   1 <1>   0.0600 
  7 C       -0.1920     3.3180    -0.2660 C.ar  1 <1>   0.0000 
  8 C       -1.9420     4.7190     0.5100 C.ar  1 <1>  -0.1500 
  9 C       -4.4040     0.0020    -1.0120 C.3   1 <1>  -0.1600 
 10 C       -5.6450     2.0880    -0.9820 C.3   1 <1>  -0.1600 
 11 C        0.7040     4.2570     0.2920 C.ar  1 <1>   0.3100 
 12 C        0.3460     2.1840    -0.9150 C.ar  1 <1>  -0.1500 
 13 C       -0.9800     5.5920     1.0180 C.ar  1 <1>   0.2780 
 14 C       -5.7350    -0.2630    -1.7280 C.3   1 <1>  -0.0800 
 15 C       -6.5230     1.0600    -1.7080 C.3   1 <1>  -0.0800 
 16 N        0.2960     5.3790     0.9310 N.ar  1 <1>  -0.6200 
 17 C        2.0840     4.0220     0.1860 C.ar  1 <1>  -0.1500 
 18 C        1.6970     1.9830    -1.0010 C.ar  1 <1>  -0.1500 
 19 C       -1.4390     6.8580     1.7250 C.3   1 <1>  -0.0680 
 20 C       -6.6170    -1.3040    -1.0230 C.3   1 <1>  -0.1600 
 21 C       -7.8480     0.7640    -0.9890 C.3   1 <1>  -0.1600 
 22 C        2.5790     2.9120    -0.4430 C.ar  1 <1>  -0.1500 
 23 C       -2.4860     7.7530     1.1280 C.3   1 <1>  -0.2000 
 24 C       -1.0590     8.2000     1.1750 C.3   1 <1>  -0.2000 
 25 C       -8.0250    -0.7390    -1.1230 C.3   1 <1>   0.2000 
 26 O       -8.8050    -1.2200    -0.0950 O.3   1 <1>  -0.6800 
 27 H       -5.1850     0.9310     0.7180 H     1 <1>   0.0800 
 28 H       -3.2170     0.8050     1.9900 H     1 <1>   0.0800 
 29 H       -3.7680     2.4470     2.2640 H     1 <1>   0.0800 
 30 H       -2.0860     2.1240     1.8970 H     1 <1>   0.0800 
 31 H       -2.9810     4.9620     0.6320 H     1 <1>   0.1500 
 32 H       -3.6550     0.2060    -1.7540 H     1 <1>   0.0800 
 33 H       -4.0840    -0.8280    -0.4100 H     1 <1>   0.0800 
 34 H       -6.2150     2.7510    -0.3580 H     1 <1>   0.0800 
 35 H       -5.1270     2.6660    -1.7240 H     1 <1>   0.0800 
 36 H       -0.3230     1.4650    -1.3550 H     1 <1>   0.1500 
 37 H       -5.5580    -0.5690    -2.7460 H     1 <1>   0.0800 
 38 H       -6.7230     1.3830    -2.7160 H     1 <1>   0.0800 
 39 H        2.7440     4.7500     0.6200 H     1 <1>   0.1500 
 40 H        2.0940     1.1150    -1.4990 H     1 <1>   0.1500 
 41 H       -1.4120     6.7510     2.7950 H     1 <1>   0.1000 
 42 H       -6.3330    -1.3920     0.0110 H     1 <1>   0.0800 
 43 H       -6.5470    -2.2650    -1.5010 H     1 <1>   0.0800 
 44 H       -8.6660     1.2950    -1.4420 H     1 <1>   0.0800 
 45 H       -7.7740     1.0310     0.0500 H     1 <1>   0.0800 
 46 H        3.6400     2.7440    -0.5180 H     1 <1>   0.1500 
 47 H       -2.9050     7.5170     0.1650 H     1 <1>   0.1000 
 48 H       -3.1970     8.2260     1.7830 H     1 <1>   0.1000 
 49 H       -0.7700     8.9710     1.8670 H     1 <1>   0.1000 
 50 H       -0.4850     8.2280     0.2650 H     1 <1>   0.1000 
 51 H       -8.4820    -0.9960    -2.0650 H     1 <1>   0.0800 
 52 H       -8.4030    -0.9910     0.7620 H     1 <1>   0.4000 
@<TRIPOS>BOND
  1   1   2  2   
  2   2   3  am  
  3   2   4  1   
  4   3   5  1   
  5   3   6  1   
  6   4   7  ar  
  7   4   8  ar  
  8   5   9  1   
  9   5  10  1   
 10   5  27  1   
 11   6  28  1   
 12   6  29  1   
 13   6  30  1   
 14   7  11  ar  
 15   7  12  ar  
 16   8  13  ar  
 17   8  31  1   
 18   9  14  1   
 19   9  32  1   
 20   9  33  1   
 21  10  15  1   
 22  10  34  1   
 23  10  35  1   
 24  11  16  ar  
 25  11  17  ar  
 26  12  18  ar  
 27  12  36  1   
 28  13  16  ar  
 29  13  19  1   
 30  14  15  1   
 31  14  20  1   
 32  14  37  1   
 33  15  21  1   
 34  15  38  1   
 35  17  22  ar  
 36  17  39  1   
 37  18  22  ar  
 38  18  40  1   
 39  19  23  1   
 40  19  24  1   
 41  19  41  1   
 42  20  25  1   
 43  20  42  1   
 44  20  43  1   
 45  21  25  1   
 46  21  44  1   
 47  21  45  1   
 48  22  46  1   
 49  23  24  1   
 50  23  47  1   
 51  23  48  1   
 52  24  49  1   
 53  24  50  1   
 54  25  26  1   
 55  25  51  1   
 56  26  52  1   
@<TRIPOS>SUBSTRUCTURE
  1 ****   2 GROUP 4 **** **** 0

# MOE 2024.06 (io_trps.svl 2023.06)
