@<TRIPOS>MOLECULE
NONAME
48 51 1 0 0 
SMALL
USER_CHARGES


@<TRIPOS>ATOM
  1 CL      -5.9360    -4.8860     3.6010 Cl    1 <1>  -0.1240 
  2 C       -5.3900    -3.6560     2.4900 C.2   1 <1>   0.2640 
  3 O       -5.3250    -3.9600     1.2120 O.3   1 <1>  -0.2800 
  4 C       -5.0150    -2.3850     2.7280 C.2   1 <1>  -0.1500 
  5 C       -4.8990    -2.8750     0.5840 C.2   1 <1>  -0.0400 
  6 C       -4.6900    -1.8660     1.4650 C.2   1 <1>  -0.1500 
  7 C       -4.7430    -2.9370    -0.9260 C.3   1 <1>   0.5230 
  8 N       -5.9870    -3.5100    -1.4960 N.4   1 <1>  -0.9590 
  9 C       -5.8490    -4.0330    -2.8890 C.3   1 <1>   0.3430 
 10 C       -7.2190    -2.7100    -1.2540 C.3   1 <1>   0.3430 
 11 C       -6.9630    -5.0540    -3.2200 C.3   1 <1>   0.1400 
 12 C       -8.3120    -3.5940    -0.6390 C.3   1 <1>  -0.1600 
 13 N       -7.6550    -5.5690    -1.9900 N.am  1 <1>  -0.6600 
 14 C       -8.8050    -4.7440    -1.5310 C.3   1 <1>   0.1400 
 15 C       -7.0050    -6.4340    -1.1330 C.2   1 <1>   0.5440 
 16 O       -5.7880    -6.4160    -1.1620 O.2   1 <1>  -0.5700 
 17 C       -7.7090    -7.2410    -0.1560 C.ar  1 <1>   0.0860 
 18 C       -8.9140    -7.8600    -0.4530 C.ar  1 <1>  -0.1500 
 19 C       -7.1780    -7.4030     1.1430 C.ar  1 <1>  -0.1500 
 20 C       -9.5870    -8.5870     0.5200 C.ar  1 <1>   0.2270 
 21 C       -7.8310    -8.1260     2.1130 C.ar  1 <1>  -0.1500 
 22 N      -10.7790    -9.2390     0.4370 N.2   1 <1>  -0.5650 
 23 C       -9.0520    -8.7170     1.7860 C.ar  1 <1>  -0.1520 
 24 C      -10.9490    -9.7440     1.6070 C.2   1 <1>   0.0060 
 25 N       -9.9420    -9.4690     2.4760 N.pl3 1 <1>   0.0330 
 26 C      -12.1530   -10.5720     2.0000 C.3   1 <1>  -0.0600 
 27 H       -4.9670    -1.8640     3.6690 H     1 <1>   0.1500 
 28 H       -4.3470    -0.8600     1.2890 H     1 <1>   0.1500 
 29 H       -3.9090    -3.5800    -1.1600 H     1 <1>   0.0800 
 30 H       -4.5540    -1.9560    -1.3280 H     1 <1>   0.0800 
 31 H       -6.1140    -4.3870    -0.9490 H     1 <1>   0.4500 
 32 H       -4.9060    -4.5470    -2.9770 H     1 <1>   0.0800 
 33 H       -5.8570    -3.2280    -3.6060 H     1 <1>   0.0800 
 34 H       -7.5680    -2.2750    -2.1760 H     1 <1>   0.0800 
 35 H       -7.0020    -1.9090    -0.5650 H     1 <1>   0.0800 
 36 H       -6.5260    -5.8830    -3.7510 H     1 <1>   0.0800 
 37 H       -7.6830    -4.6020    -3.8800 H     1 <1>   0.0800 
 38 H       -9.1570    -2.9690    -0.4130 H     1 <1>   0.0800 
 39 H       -7.9680    -3.9910     0.3000 H     1 <1>   0.0800 
 40 H       -9.3340    -4.3530    -2.3840 H     1 <1>   0.0800 
 41 H       -9.5010    -5.3510    -0.9760 H     1 <1>   0.0800 
 42 H       -9.3550    -7.7930    -1.4300 H     1 <1>   0.1500 
 43 H       -6.2320    -6.9410     1.3700 H     1 <1>   0.1500 
 44 H       -7.4170    -8.2400     3.1000 H     1 <1>   0.1500 
 45 H       -9.8650    -9.7660     3.4510 H     1 <1>   0.2700 
 46 H      -12.8200   -10.6630     1.1610 H     1 <1>   0.0800 
 47 H      -12.6800   -10.0990     2.8090 H     1 <1>   0.0800 
 48 H      -11.8440   -11.5560     2.3010 H     1 <1>   0.0800 
@<TRIPOS>BOND
  1   1   2  1   
  2   2   3  1   
  3   2   4  2   
  4   3   5  1   
  5   4   6  1   
  6   4  27  1   
  7   5   6  2   
  8   5   7  1   
  9   6  28  1   
 10   7   8  1   
 11   7  29  1   
 12   7  30  1   
 13   8   9  1   
 14   8  10  1   
 15   8  31  1   
 16   9  11  1   
 17   9  32  1   
 18   9  33  1   
 19  10  12  1   
 20  10  34  1   
 21  10  35  1   
 22  11  13  1   
 23  11  36  1   
 24  11  37  1   
 25  12  14  1   
 26  12  38  1   
 27  12  39  1   
 28  13  14  1   
 29  13  15  am  
 30  14  40  1   
 31  14  41  1   
 32  15  16  2   
 33  15  17  1   
 34  17  18  ar  
 35  17  19  ar  
 36  18  20  ar  
 37  18  42  1   
 38  19  21  ar  
 39  19  43  1   
 40  20  22  1   
 41  20  23  ar  
 42  21  23  ar  
 43  21  44  1   
 44  22  24  2   
 45  23  25  1   
 46  24  25  1   
 47  24  26  1   
 48  25  45  1   
 49  26  46  1   
 50  26  47  1   
 51  26  48  1   
@<TRIPOS>SUBSTRUCTURE
  1 ****  17 GROUP 4 **** **** 0

# MOE 2024.06 (io_trps.svl 2023.06)
