@<TRIPOS>MOLECULE
NONAME
63 66 1 0 0 
SMALL
USER_CHARGES


@<TRIPOS>ATOM
  1 O       -1.1440    -0.2340    -0.5620 O.2   1 <1>  -0.5700 
  2 C       -2.1030     0.3420    -0.0870 C.2   1 <1>   0.5440 
  3 N       -3.3290    -0.3030    -0.0870 N.am  1 <1>  -0.6600 
  4 C       -1.9080     1.6750     0.4480 C.ar  1 <1>   0.0860 
  5 C       -4.6550     0.3050    -0.4170 C.3   1 <1>   0.2200 
  6 C       -3.3520    -1.7940    -0.0910 C.3   1 <1>   0.0600 
  7 C       -2.1960     1.9850     1.7760 C.ar  1 <1>  -0.1500 
  8 C       -1.3980     2.6990    -0.3520 C.ar  1 <1>  -0.1500 
  9 C       -4.6140     1.3760    -1.5070 C.3   1 <1>  -0.1600 
 10 C       -5.3390     0.9320     0.7960 C.3   1 <1>  -0.1600 
 11 C       -2.0520     3.2700     2.2650 C.ar  1 <1>  -0.1500 
 12 C       -1.2510     3.9880     0.1260 C.ar  1 <1>  -0.1500 
 13 C       -5.7660     2.3410    -1.1920 C.3   1 <1>  -0.0800 
 14 C       -6.0300     2.2190     0.3150 C.3   1 <1>  -0.0800 
 15 C       -1.6010     4.2890     1.4400 C.ar  1 <1>   0.0830 
 16 C       -5.3930     3.8050    -1.4360 C.3   1 <1>  -0.1600 
 17 C       -5.4920     3.5120     0.9560 C.3   1 <1>  -0.1600 
 18 O       -1.5640     5.5370     1.9680 O.3   1 <1>  -0.1650 
 19 C       -4.6900     4.2070    -0.1430 C.3   1 <1>   0.4230 
 20 C       -0.9730     6.6020     1.3710 C.ar  1 <1>   0.0830 
 21 N       -4.5370     5.6810     0.0570 N.4   1 <1>  -0.9590 
 22 C        0.3200     6.5380     0.8680 C.ar  1 <1>  -0.1500 
 23 C       -1.6920     7.7850     1.2870 C.ar  1 <1>  -0.1500 
 24 C       -5.8180     6.4540     0.1360 C.3   1 <1>   0.2630 
 25 C       -3.6520     6.2740    -0.9940 C.3   1 <1>   0.2630 
 26 C        0.8720     7.6370     0.2320 C.ar  1 <1>  -0.1500 
 27 C       -1.1400     8.8820     0.6510 C.ar  1 <1>  -0.1500 
 28 C        0.1350     8.8130     0.1120 C.ar  1 <1>   0.0830 
 29 O        0.5910     9.9310    -0.5080 O.3   1 <1>  -0.3620 
 30 C        1.9250    10.0240    -0.9580 C.3   1 <1>   0.0400 
 31 H       -5.3080    -0.4710    -0.7820 H     1 <1>   0.0800 
 32 H       -4.1500    -2.1540     0.5350 H     1 <1>   0.0800 
 33 H       -2.4210    -2.1850     0.2850 H     1 <1>   0.0800 
 34 H       -3.4930    -2.1520    -1.0960 H     1 <1>   0.0800 
 35 H       -2.5300     1.1970     2.4290 H     1 <1>   0.1500 
 36 H       -1.1140     2.4610    -1.3640 H     1 <1>   0.1500 
 37 H       -3.6800     1.8970    -1.5080 H     1 <1>   0.0800 
 38 H       -4.7460     0.9270    -2.4760 H     1 <1>   0.0800 
 39 H       -6.0770     0.2440     1.1710 H     1 <1>   0.0800 
 40 H       -4.6440     1.1210     1.5860 H     1 <1>   0.0800 
 41 H       -2.2870     3.4860     3.2940 H     1 <1>   0.1500 
 42 H       -0.8630     4.7390    -0.5370 H     1 <1>   0.1500 
 43 H       -6.6400     2.0550    -1.7550 H     1 <1>   0.0800 
 44 H       -7.0910     2.1450     0.4950 H     1 <1>   0.0800 
 45 H       -6.2980     4.3680    -1.5740 H     1 <1>   0.0800 
 46 H       -4.7610     3.9140    -2.2990 H     1 <1>   0.0800 
 47 H       -4.8820     3.3220     1.8190 H     1 <1>   0.0800 
 48 H       -6.3380     4.1010     1.2560 H     1 <1>   0.0800 
 49 H       -3.7140     3.7520    -0.1560 H     1 <1>   0.0800 
 50 H       -4.0430     5.7830     0.9580 H     1 <1>   0.4500 
 51 H        0.8960     5.6350     0.9750 H     1 <1>   0.1500 
 52 H       -2.6710     7.8530     1.7230 H     1 <1>   0.1500 
 53 H       -6.3770     6.3500    -0.7790 H     1 <1>   0.0800 
 54 H       -5.6120     7.5000     0.2930 H     1 <1>   0.0800 
 55 H       -6.4240     6.1040     0.9540 H     1 <1>   0.0800 
 56 H       -4.1170     6.1980    -1.9630 H     1 <1>   0.0800 
 57 H       -2.7070     5.7580    -1.0240 H     1 <1>   0.0800 
 58 H       -3.4630     7.3140    -0.7830 H     1 <1>   0.0800 
 59 H        1.8700     7.5620    -0.1580 H     1 <1>   0.1500 
 60 H       -1.6850     9.8070     0.5740 H     1 <1>   0.1500 
 61 H        2.0720    11.0090    -1.3620 H     1 <1>   0.0800 
 62 H        2.0890     9.2880    -1.7250 H     1 <1>   0.0800 
 63 H        2.5870     9.8680    -0.1250 H     1 <1>   0.0800 
@<TRIPOS>BOND
  1   1   2  2   
  2   2   3  am  
  3   2   4  1   
  4   3   5  1   
  5   3   6  1   
  6   4   7  ar  
  7   4   8  ar  
  8   5   9  1   
  9   5  10  1   
 10   5  31  1   
 11   6  32  1   
 12   6  33  1   
 13   6  34  1   
 14   7  11  ar  
 15   7  35  1   
 16   8  12  ar  
 17   8  36  1   
 18   9  13  1   
 19   9  37  1   
 20   9  38  1   
 21  10  14  1   
 22  10  39  1   
 23  10  40  1   
 24  11  15  ar  
 25  11  41  1   
 26  12  15  ar  
 27  12  42  1   
 28  13  14  1   
 29  13  16  1   
 30  13  43  1   
 31  14  17  1   
 32  14  44  1   
 33  15  18  1   
 34  16  19  1   
 35  16  45  1   
 36  16  46  1   
 37  17  19  1   
 38  17  47  1   
 39  17  48  1   
 40  18  20  1   
 41  19  21  1   
 42  19  49  1   
 43  20  22  ar  
 44  20  23  ar  
 45  21  24  1   
 46  21  25  1   
 47  21  50  1   
 48  22  26  ar  
 49  22  51  1   
 50  23  27  ar  
 51  23  52  1   
 52  24  53  1   
 53  24  54  1   
 54  24  55  1   
 55  25  56  1   
 56  25  57  1   
 57  25  58  1   
 58  26  28  ar  
 59  26  59  1   
 60  27  28  ar  
 61  27  60  1   
 62  28  29  1   
 63  29  30  1   
 64  30  61  1   
 65  30  62  1   
 66  30  63  1   
@<TRIPOS>SUBSTRUCTURE
  1 ****  12 GROUP 4 **** **** 0

# MOE 2024.06 (io_trps.svl 2023.06)
