@<TRIPOS>MOLECULE
NONAME
51 55 1 0 0 
SMALL
USER_CHARGES


@<TRIPOS>ATOM
  1 O       -0.7050     0.4650    -0.8470 O.2   1 <1>  -0.5700 
  2 C       -1.7090     1.0520    -0.5030 C.2   1 <1>   0.7030 
  3 N       -2.8190     0.2910    -0.1580 N.am  1 <1>  -0.6600 
  4 C       -1.6550     2.5060    -0.4560 C.2   1 <1>   0.2770 
  5 C       -3.7770     0.6980     0.9250 C.3   1 <1>   0.1400 
  6 C       -2.7620    -1.1970    -0.3910 C.3   1 <1>   0.1400 
  7 N       -2.6440     3.4290    -0.7830 N.pl3 1 <1>  -0.7000 
  8 C       -0.5680     3.2370    -0.1110 C.2   1 <1>   0.2000 
  9 C       -5.1690     0.0260     0.8000 C.3   1 <1>   0.4230 
 10 C       -4.1530    -1.8470    -0.5110 C.3   1 <1>   0.3430 
 11 C       -2.1450     4.6680    -0.6330 C.cat 1 <1>   0.7910 
 12 N       -0.8680     4.5780    -0.1980 N.pl3 1 <1>  -0.6290 
 13 N       -5.0680    -1.4740     0.6290 N.4   1 <1>  -0.9590 
 14 C       -5.9820     0.6540    -0.3560 C.3   1 <1>   0.1200 
 15 C       -2.7400     5.9190    -0.8660 C.2   1 <1>  -0.1410 
 16 C       -0.1240     5.7180     0.0310 C.2   1 <1>   0.2410 
 17 C       -6.4500    -2.0530     0.4740 C.3   1 <1>   0.5180 
 18 O       -7.2410     0.0570    -0.4410 O.3   1 <1>  -0.5600 
 19 C       -2.0180     7.0590    -0.6430 C.2   1 <1>  -0.1500 
 20 C       -0.6900     6.9430    -0.1850 C.2   1 <1>  -0.1500 
 21 C        1.3040     5.5570     0.5170 C.3   1 <1>  -0.1020 
 22 C       -6.3470    -3.5820     0.3030 C.3   1 <1>  -0.1950 
 23 C       -7.2380    -1.3310    -0.6480 C.3   1 <1>   0.1200 
 24 C       -6.1790    -4.2930    -1.0100 C.3   1 <1>  -0.2000 
 25 C       -7.4680    -4.4130    -0.2460 C.3   1 <1>  -0.2000 
 26 H       -3.3540     0.4230     1.8770 H     1 <1>   0.0800 
 27 H       -3.9030     1.7660     0.9350 H     1 <1>   0.0800 
 28 H       -2.2170    -1.4030    -1.2990 H     1 <1>   0.0800 
 29 H       -2.2190    -1.6600     0.4160 H     1 <1>   0.0800 
 30 H       -3.5490     3.2370    -1.2130 H     1 <1>   0.4500 
 31 H        0.4030     2.8690     0.1840 H     1 <1>   0.1500 
 32 H       -5.7120     0.2360     1.7070 H     1 <1>   0.0800 
 33 H       -4.0280    -2.9170    -0.5470 H     1 <1>   0.0800 
 34 H       -4.5930    -1.5410    -1.4450 H     1 <1>   0.0800 
 35 H       -4.6780    -1.8780     1.4890 H     1 <1>   0.4500 
 36 H       -5.4810     0.5420    -1.3020 H     1 <1>   0.0800 
 37 H       -6.1410     1.7020    -0.1720 H     1 <1>   0.0800 
 38 H       -3.7530     5.9600    -1.2180 H     1 <1>   0.1500 
 39 H       -6.9960    -1.8780     1.3870 H     1 <1>   0.0800 
 40 H       -2.4350     8.0410    -0.8070 H     1 <1>   0.1500 
 41 H       -0.1310     7.8480    -0.0130 H     1 <1>   0.1500 
 42 H        1.3210     5.0310     1.4550 H     1 <1>   0.0800 
 43 H        1.7660     6.5180     0.6610 H     1 <1>   0.0800 
 44 H        1.8820     5.0100    -0.2060 H     1 <1>   0.0800 
 45 H       -5.8620    -4.0210     1.1590 H     1 <1>   0.1000 
 46 H       -8.2640    -1.6550    -0.6440 H     1 <1>   0.0800 
 47 H       -6.8240    -1.5330    -1.6190 H     1 <1>   0.0800 
 48 H       -6.2220    -3.7740    -1.9520 H     1 <1>   0.1000 
 49 H       -5.5510    -5.1680    -1.0620 H     1 <1>   0.1000 
 50 H       -7.6930    -5.3580     0.2230 H     1 <1>   0.1000 
 51 H       -8.3470    -3.9660    -0.6770 H     1 <1>   0.1000 
@<TRIPOS>BOND
  1   1   2  2   
  2   2   3  am  
  3   2   4  1   
  4   3   5  1   
  5   3   6  1   
  6   4   7  1   
  7   4   8  2   
  8   5   9  1   
  9   5  26  1   
 10   5  27  1   
 11   6  10  1   
 12   6  28  1   
 13   6  29  1   
 14   7  11  ar  
 15   7  30  1   
 16   8  12  1   
 17   8  31  1   
 18   9  13  1   
 19   9  14  1   
 20   9  32  1   
 21  10  13  1   
 22  10  33  1   
 23  10  34  1   
 24  11  12  ar  
 25  11  15  1   
 26  12  16  1   
 27  13  17  1   
 28  13  35  1   
 29  14  18  1   
 30  14  36  1   
 31  14  37  1   
 32  15  19  2   
 33  15  38  1   
 34  16  20  2   
 35  16  21  1   
 36  17  22  1   
 37  17  23  1   
 38  17  39  1   
 39  18  23  1   
 40  19  20  1   
 41  19  40  1   
 42  20  41  1   
 43  21  42  1   
 44  21  43  1   
 45  21  44  1   
 46  22  24  1   
 47  22  25  1   
 48  22  45  1   
 49  23  46  1   
 50  23  47  1   
 51  24  25  1   
 52  24  48  1   
 53  24  49  1   
 54  25  50  1   
 55  25  51  1   
@<TRIPOS>SUBSTRUCTURE
  1 ****   3 GROUP 4 **** **** 0

# MOE 2024.06 (io_trps.svl 2023.06)
