@<TRIPOS>MOLECULE
NONAME
70 73 1 0 0 
SMALL
USER_CHARGES


@<TRIPOS>ATOM
  1 O       -1.8670    -2.1640     1.7960 O.3   1 <1>  -0.5600 
  2 C       -1.4140    -1.8940     0.5010 C.3   1 <1>   0.1200 
  3 C       -2.3480    -3.4640     1.9940 C.3   1 <1>   0.1200 
  4 C       -0.2740    -2.8560     0.1150 C.3   1 <1>   0.3430 
  5 C       -1.2450    -4.4940     1.6870 C.3   1 <1>   0.3430 
  6 N       -0.6810    -4.2870     0.3100 N.4   1 <1>  -0.9590 
  7 C        0.4120    -5.2590    -0.0010 C.3   1 <1>   0.3430 
  8 C       -0.1380    -6.5350    -0.6610 C.3   1 <1>   0.1200 
  9 O       -1.2760    -6.9970     0.0470 O.3   1 <1>  -0.3630 
 10 C       -2.3450    -7.4010    -0.6820 C.ar  1 <1>   0.0820 
 11 C       -3.1090    -6.5100    -1.4420 C.ar  1 <1>   0.0820 
 12 C       -2.6710    -8.7460    -0.6340 C.ar  1 <1>  -0.1500 
 13 O       -2.7740    -5.1830    -1.4420 O.3   1 <1>  -0.3630 
 14 C       -4.1880    -7.0110    -2.1660 C.ar  1 <1>  -0.1500 
 15 C       -3.7510    -9.2360    -1.3530 C.ar  1 <1>  -0.1430 
 16 C       -3.4920    -4.2580    -2.2380 C.3   1 <1>   0.0400 
 17 C       -4.5010    -8.3600    -2.1230 C.ar  1 <1>  -0.1500 
 18 C       -4.1030   -10.7120    -1.3000 C.3   1 <1>   0.4860 
 19 N       -4.9110   -10.9600    -0.0790 N.4   1 <1>  -0.9590 
 20 C       -6.2610   -10.3470    -0.1550 C.3   1 <1>   0.3430 
 21 C       -5.1250   -12.4020     0.2110 C.3   1 <1>   0.3430 
 22 C       -7.0790   -11.0830     0.8980 C.3   1 <1>  -0.0800 
 23 C       -6.4830   -12.5070     0.9130 C.3   1 <1>  -0.0800 
 24 C       -8.6110   -10.9990     0.6690 C.3   1 <1>   0.2800 
 25 C       -7.3740   -13.5410     0.2050 C.3   1 <1>  -0.1600 
 26 O       -8.8580   -11.0380    -0.6900 O.3   1 <1>  -0.6800 
 27 C       -9.2980   -12.2200     1.3050 C.3   1 <1>  -0.1600 
 28 C       -9.2450    -9.7000     1.2150 C.3   1 <1>  -0.1600 
 29 C       -8.7950   -13.5840     0.7880 C.3   1 <1>  -0.1600 
 30 C       -8.7250    -8.3780     0.6230 C.3   1 <1>  -0.2400 
 31 H       -2.2430    -1.9800    -0.1790 H     1 <1>   0.0800 
 32 H       -1.0620    -0.8770     0.4850 H     1 <1>   0.0800 
 33 H       -2.6570    -3.5460     3.0210 H     1 <1>   0.0800 
 34 H       -3.2060    -3.6180     1.3630 H     1 <1>   0.0800 
 35 H        0.5820    -2.6340     0.7320 H     1 <1>   0.0800 
 36 H        0.0030    -2.6870    -0.9120 H     1 <1>   0.0800 
 37 H       -1.6560    -5.4860     1.7740 H     1 <1>   0.0800 
 38 H       -0.4650    -4.3900     2.4240 H     1 <1>   0.0800 
 39 H       -1.4590    -4.5050    -0.3420 H     1 <1>   0.4500 
 40 H        1.1220    -4.8110    -0.6770 H     1 <1>   0.0800 
 41 H        0.9410    -5.5200     0.9010 H     1 <1>   0.0800 
 42 H        0.6020    -7.3160    -0.6500 H     1 <1>   0.0800 
 43 H       -0.4080    -6.3340    -1.6840 H     1 <1>   0.0800 
 44 H       -2.0630    -9.3990    -0.0310 H     1 <1>   0.1500 
 45 H       -4.8040    -6.3740    -2.7740 H     1 <1>   0.1500 
 46 H       -3.0500    -3.2850    -2.1200 H     1 <1>   0.0800 
 47 H       -4.5170    -4.2320    -1.9110 H     1 <1>   0.0800 
 48 H       -3.4300    -4.5580    -3.2710 H     1 <1>   0.0800 
 49 H       -5.3390    -8.7150    -2.7020 H     1 <1>   0.1500 
 50 H       -3.1960   -11.2940    -1.2670 H     1 <1>   0.0800 
 51 H       -4.6590   -10.9940    -2.1790 H     1 <1>   0.0800 
 52 H       -4.4250   -10.5270     0.7150 H     1 <1>   0.4500 
 53 H       -6.2270    -9.2860     0.0260 H     1 <1>   0.0800 
 54 H       -6.6860   -10.5270    -1.1300 H     1 <1>   0.0800 
 55 H       -5.1600   -12.9600    -0.7100 H     1 <1>   0.0800 
 56 H       -4.3350   -12.7960     0.8310 H     1 <1>   0.0800 
 57 H       -6.8640   -10.6370     1.8530 H     1 <1>   0.0800 
 58 H       -6.3360   -12.8250     1.9310 H     1 <1>   0.0800 
 59 H       -7.4450   -13.2900    -0.8400 H     1 <1>   0.0800 
 60 H       -6.9360   -14.5240     0.2690 H     1 <1>   0.0800 
 61 H       -9.8230   -11.0870    -0.8390 H     1 <1>   0.4000 
 62 H       -9.1160   -12.1820     2.3650 H     1 <1>   0.0800 
 63 H      -10.3650   -12.1610     1.1770 H     1 <1>   0.0800 
 64 H      -10.3080    -9.7440     1.0520 H     1 <1>   0.0800 
 65 H       -9.1040    -9.6670     2.2820 H     1 <1>   0.0800 
 66 H       -8.8320   -14.2930     1.5980 H     1 <1>   0.0800 
 67 H       -9.4640   -13.9430     0.0240 H     1 <1>   0.0800 
 68 H       -8.7720    -8.3910    -0.4520 H     1 <1>   0.0800 
 69 H       -7.7180    -8.1790     0.9360 H     1 <1>   0.0800 
 70 H       -9.3400    -7.5650     0.9700 H     1 <1>   0.0800 
@<TRIPOS>BOND
  1   1   2  1   
  2   1   3  1   
  3   2   4  1   
  4   2  31  1   
  5   2  32  1   
  6   3   5  1   
  7   3  33  1   
  8   3  34  1   
  9   4   6  1   
 10   4  35  1   
 11   4  36  1   
 12   5   6  1   
 13   5  37  1   
 14   5  38  1   
 15   6   7  1   
 16   6  39  1   
 17   7   8  1   
 18   7  40  1   
 19   7  41  1   
 20   8   9  1   
 21   8  42  1   
 22   8  43  1   
 23   9  10  1   
 24  10  11  ar  
 25  10  12  ar  
 26  11  13  1   
 27  11  14  ar  
 28  12  15  ar  
 29  12  44  1   
 30  13  16  1   
 31  14  17  ar  
 32  14  45  1   
 33  15  17  ar  
 34  15  18  1   
 35  16  46  1   
 36  16  47  1   
 37  16  48  1   
 38  17  49  1   
 39  18  19  1   
 40  18  50  1   
 41  18  51  1   
 42  19  20  1   
 43  19  21  1   
 44  19  52  1   
 45  20  22  1   
 46  20  53  1   
 47  20  54  1   
 48  21  23  1   
 49  21  55  1   
 50  21  56  1   
 51  22  23  1   
 52  22  24  1   
 53  22  57  1   
 54  23  25  1   
 55  23  58  1   
 56  24  26  1   
 57  24  27  1   
 58  24  28  1   
 59  25  29  1   
 60  25  59  1   
 61  25  60  1   
 62  26  61  1   
 63  27  29  1   
 64  27  62  1   
 65  27  63  1   
 66  28  30  1   
 67  28  64  1   
 68  28  65  1   
 69  29  66  1   
 70  29  67  1   
 71  30  68  1   
 72  30  69  1   
 73  30  70  1   
@<TRIPOS>SUBSTRUCTURE
  1 ****  15 GROUP 4 **** **** 0

# MOE 2024.06 (io_trps.svl 2023.06)
