@<TRIPOS>MOLECULE
NONAME
64 67 1 0 0 
SMALL
USER_CHARGES


@<TRIPOS>ATOM
  1 O        0.5290    -0.8650    -0.9090 O.2   1 <1>  -0.5700 
  2 C        0.6580    -2.0370    -0.6130 C.2   1 <1>   0.5440 
  3 N        1.9090    -2.5470    -0.3960 N.am  1 <1>  -0.7300 
  4 C       -0.4910    -2.9160    -0.4930 C.ar  1 <1>   0.0860 
  5 C        3.2340    -1.9010    -0.5250 C.3   1 <1>   0.3000 
  6 C       -1.5530    -2.6820     0.3950 C.ar  1 <1>  -0.1440 
  7 C       -0.5380    -4.0550    -1.2940 C.ar  1 <1>  -0.1500 
  8 C        4.2650    -2.8350     0.1680 C.3   1 <1>   0.2000 
  9 C        3.2550    -0.5400     0.2010 C.3   1 <1>  -0.1600 
 10 C        3.4870    -1.7170    -2.0320 C.3   1 <1>  -0.2400 
 11 C       -2.6280    -3.5670     0.4510 C.ar  1 <1>  -0.1430 
 12 C       -1.5090    -1.4400     1.2890 C.3   1 <1>  -0.0970 
 13 C       -1.5960    -4.9380    -1.2300 C.ar  1 <1>  -0.1500 
 14 O        4.2200    -4.1340    -0.3620 O.3   1 <1>  -0.6800 
 15 C        5.7150    -2.2360     0.2300 C.3   1 <1>   0.2800 
 16 C        4.6140    -0.1970     0.8310 C.3   1 <1>   0.1200 
 17 C       -2.6370    -4.6920    -0.3590 C.ar  1 <1>  -0.1500 
 18 C       -3.8190    -3.3490     1.3750 C.3   1 <1>  -0.0970 
 19 O        5.6470    -0.8340     0.1370 O.3   1 <1>  -0.5600 
 20 C        6.6150    -2.6540    -0.9600 C.3   1 <1>  -0.1600 
 21 C        6.4120    -2.5640     1.5790 C.3   1 <1>  -0.1600 
 22 C        8.0900    -2.3920    -0.6580 C.3   1 <1>   0.1400 
 23 C        7.4750    -3.6580     1.4550 C.3   1 <1>   0.1400 
 24 N        8.5340    -3.2370     0.4900 N.am  1 <1>  -0.6600 
 25 C        9.8380    -3.6300     0.6850 C.2   1 <1>   0.5770 
 26 O       10.1330    -4.3970     1.5730 O.2   1 <1>  -0.5700 
 27 C       10.9490    -3.1140    -0.2300 C.3   1 <1>   0.0530 
 28 C       12.4110    -3.3220     0.2640 C.3   1 <1>   0.0000 
 29 C       11.2260    -1.5890    -0.1230 C.3   1 <1>   0.0000 
 30 C       12.7250    -1.9250    -0.3280 C.3   1 <1>   0.0000 
 31 H        1.9910    -3.5470    -0.1940 H     1 <1>   0.3700 
 32 H        0.2660    -4.2450    -1.9830 H     1 <1>   0.1500 
 33 H        3.9210    -2.9380     1.1810 H     1 <1>   0.0800 
 34 H        2.5230    -0.5310     0.9890 H     1 <1>   0.0800 
 35 H        2.9800     0.2430    -0.4840 H     1 <1>   0.0800 
 36 H        4.3830    -1.1510    -2.2000 H     1 <1>   0.0800 
 37 H        2.6790    -1.1630    -2.4760 H     1 <1>   0.0800 
 38 H        3.5680    -2.6630    -2.5320 H     1 <1>   0.0800 
 39 H       -2.1250    -1.5400     2.1620 H     1 <1>   0.0800 
 40 H       -1.8380    -0.5830     0.7290 H     1 <1>   0.0800 
 41 H       -0.5070    -1.2540     1.6340 H     1 <1>   0.0800 
 42 H       -1.6130    -5.8130    -1.8570 H     1 <1>   0.1500 
 43 H        4.4370    -4.1080    -1.3140 H     1 <1>   0.4000 
 44 H        4.6510    -0.5060     1.8610 H     1 <1>   0.0800 
 45 H        4.7890     0.8640     0.7860 H     1 <1>   0.0800 
 46 H       -3.4600    -5.3840    -0.3190 H     1 <1>   0.1500 
 47 H       -4.6060    -4.0500     1.1670 H     1 <1>   0.0800 
 48 H       -4.2150    -2.3580     1.2420 H     1 <1>   0.0800 
 49 H       -3.5180    -3.4750     2.4000 H     1 <1>   0.0800 
 50 H        6.5220    -3.7020    -1.1750 H     1 <1>   0.0800 
 51 H        6.3380    -2.1170    -1.8450 H     1 <1>   0.0800 
 52 H        6.9040    -1.6860     1.9600 H     1 <1>   0.0800 
 53 H        5.6990    -2.8740     2.3190 H     1 <1>   0.0800 
 54 H        8.2310    -1.3520    -0.4110 H     1 <1>   0.0800 
 55 H        8.6740    -2.6190    -1.5330 H     1 <1>   0.0800 
 56 H        7.0270    -4.5750     1.1120 H     1 <1>   0.0800 
 57 H        7.9120    -3.8410     2.4230 H     1 <1>   0.0800 
 58 H       10.8350    -3.4340    -1.2530 H     1 <1>   0.0000 
 59 H       12.5110    -3.3350     1.3370 H     1 <1>   0.0000 
 60 H       12.9270    -4.1280    -0.2260 H     1 <1>   0.0000 
 61 H       10.7990    -1.0090    -0.9230 H     1 <1>   0.0000 
 62 H       11.0200    -1.1900     0.8560 H     1 <1>   0.0000 
 63 H       13.0040    -1.9660    -1.3670 H     1 <1>   0.0000 
 64 H       13.3900    -1.3340     0.2760 H     1 <1>   0.0000 
@<TRIPOS>BOND
  1   1   2  2   
  2   2   3  am  
  3   2   4  1   
  4   3   5  1   
  5   3  31  1   
  6   4   6  ar  
  7   4   7  ar  
  8   5   8  1   
  9   5   9  1   
 10   5  10  1   
 11   6  11  ar  
 12   6  12  1   
 13   7  13  ar  
 14   7  32  1   
 15   8  14  1   
 16   8  15  1   
 17   8  33  1   
 18   9  16  1   
 19   9  34  1   
 20   9  35  1   
 21  10  36  1   
 22  10  37  1   
 23  10  38  1   
 24  11  17  ar  
 25  11  18  1   
 26  12  39  1   
 27  12  40  1   
 28  12  41  1   
 29  13  17  ar  
 30  13  42  1   
 31  14  43  1   
 32  15  19  1   
 33  15  20  1   
 34  15  21  1   
 35  16  19  1   
 36  16  44  1   
 37  16  45  1   
 38  17  46  1   
 39  18  47  1   
 40  18  48  1   
 41  18  49  1   
 42  20  22  1   
 43  20  50  1   
 44  20  51  1   
 45  21  23  1   
 46  21  52  1   
 47  21  53  1   
 48  22  24  1   
 49  22  54  1   
 50  22  55  1   
 51  23  24  1   
 52  23  56  1   
 53  23  57  1   
 54  24  25  am  
 55  25  26  2   
 56  25  27  1   
 57  27  28  1   
 58  27  29  1   
 59  27  58  1   
 60  28  30  1   
 61  28  59  1   
 62  28  60  1   
 63  29  30  1   
 64  29  61  1   
 65  29  62  1   
 66  30  63  1   
 67  30  64  1   
@<TRIPOS>SUBSTRUCTURE
  1 ****   8 GROUP 4 **** **** 0

# MOE 2024.06 (io_trps.svl 2023.06)
