@<TRIPOS>MOLECULE
NONAME
48 50 1 0 0 
SMALL
USER_CHARGES


@<TRIPOS>ATOM
  1 O       -2.0490     0.3420    -0.8370 O.co2 1 <1>  -0.9000 
  2 C       -2.7820     0.1390     0.1340 C.2   1 <1>   0.9060 
  3 O       -2.4760     0.4140     1.2970 O.co2 1 <1>  -0.9000 
  4 C       -4.0360    -0.7090    -0.0800 C.3   1 <1>   0.2370 
  5 N       -3.7810    -2.2090    -0.0430 N.4   1 <1>  -0.9590 
  6 C       -3.1460    -2.6080     1.2670 C.3   1 <1>   0.4230 
  7 C       -3.0290    -2.6300    -1.2570 C.3   1 <1>   0.3430 
  8 C       -1.5950    -2.6260     1.2990 C.3   1 <1>   0.1200 
  9 C       -3.7280    -3.9930     1.6500 C.3   1 <1>   0.2090 
 10 C       -2.4200    -4.0410    -1.1730 C.3   1 <1>  -0.0800 
 11 O       -1.0790    -3.8420     0.8300 O.3   1 <1>  -0.5600 
 12 N       -4.3060    -4.7460     0.4610 N.pl3 1 <1>  -0.8380 
 13 C       -1.0180    -3.9780    -0.5470 C.3   1 <1>   0.1200 
 14 C       -3.3090    -5.1690    -0.5850 C.3   1 <1>   0.2090 
 15 C       -5.6380    -4.9370     0.3380 C.ar  1 <1>   0.4100 
 16 N       -6.3740    -3.8410     0.5690 N.ar  1 <1>  -0.6200 
 17 C       -6.2470    -6.1630    -0.0150 C.ar  1 <1>  -0.1440 
 18 C       -7.6630    -3.9270     0.4340 C.ar  1 <1>   0.5280 
 19 C       -7.6100    -6.1900    -0.1780 C.ar  1 <1>   0.2180 
 20 C       -5.4110    -7.4430    -0.1490 C.3   1 <1>  -0.0970 
 21 N       -8.2960    -5.0540     0.0600 N.ar  1 <1>  -0.1790 
 22 C       -8.4980    -2.6920     0.7060 C.3   1 <1>  -0.0970 
 23 C       -8.4260    -7.4100    -0.5920 C.3   1 <1>  -0.0970 
 24 H       -4.4570    -0.4290    -1.0270 H     1 <1>   0.0800 
 25 H       -4.7290    -0.4400     0.6960 H     1 <1>   0.0800 
 26 H       -4.6590    -2.7590    -0.0360 H     1 <1>   0.4500 
 27 H       -3.4530    -1.8980     2.0170 H     1 <1>   0.0800 
 28 H       -3.6960    -2.5880    -2.1020 H     1 <1>   0.0800 
 29 H       -2.2340    -1.9240    -1.4450 H     1 <1>   0.0800 
 30 H       -1.2780    -2.5350     2.3220 H     1 <1>   0.0800 
 31 H       -1.1590    -1.8060     0.7540 H     1 <1>   0.0800 
 32 H       -4.5020    -3.8340     2.3800 H     1 <1>   0.0800 
 33 H       -2.9820    -4.5990     2.1350 H     1 <1>   0.0800 
 34 H       -2.2290    -4.3210    -2.1930 H     1 <1>   0.0800 
 35 H       -0.4390    -3.1610    -0.9480 H     1 <1>   0.0800 
 36 H       -0.4860    -4.8930    -0.7450 H     1 <1>   0.0800 
 37 H       -2.6770    -5.9390    -0.1730 H     1 <1>   0.0800 
 38 H       -3.8480    -5.6070    -1.4070 H     1 <1>   0.0800 
 39 H       -5.9660    -8.3130     0.1510 H     1 <1>   0.0800 
 40 H       -4.5480    -7.4020     0.4930 H     1 <1>   0.0800 
 41 H       -5.0830    -7.5770    -1.1640 H     1 <1>   0.0800 
 42 H       -9.3120    -5.0430    -0.0310 H     1 <1>   0.4570 
 43 H       -7.8670    -1.8750     1.0080 H     1 <1>   0.0800 
 44 H       -9.2000    -2.8820     1.4980 H     1 <1>   0.0800 
 45 H       -9.0300    -2.3960    -0.1800 H     1 <1>   0.0800 
 46 H       -7.8270    -8.1210    -1.1320 H     1 <1>   0.0800 
 47 H       -9.2370    -7.1270    -1.2400 H     1 <1>   0.0800 
 48 H       -8.8320    -7.8970     0.2770 H     1 <1>   0.0800 
@<TRIPOS>BOND
  1   1   2  ar  
  2   2   3  ar  
  3   2   4  1   
  4   4   5  1   
  5   4  24  1   
  6   4  25  1   
  7   5   6  1   
  8   5   7  1   
  9   5  26  1   
 10   6   8  1   
 11   6   9  1   
 12   6  27  1   
 13   7  10  1   
 14   7  28  1   
 15   7  29  1   
 16   8  11  1   
 17   8  30  1   
 18   8  31  1   
 19   9  12  1   
 20   9  32  1   
 21   9  33  1   
 22  10  13  1   
 23  10  14  1   
 24  10  34  1   
 25  11  13  1   
 26  12  14  1   
 27  12  15  1   
 28  13  35  1   
 29  13  36  1   
 30  14  37  1   
 31  14  38  1   
 32  15  16  ar  
 33  15  17  ar  
 34  16  18  ar  
 35  17  19  ar  
 36  17  20  1   
 37  18  21  ar  
 38  18  22  1   
 39  19  21  ar  
 40  19  23  1   
 41  20  39  1   
 42  20  40  1   
 43  20  41  1   
 44  21  42  1   
 45  22  43  1   
 46  22  44  1   
 47  22  45  1   
 48  23  46  1   
 49  23  47  1   
 50  23  48  1   
@<TRIPOS>SUBSTRUCTURE
  1 ****  12 GROUP 4 **** **** 0

# MOE 2024.06 (io_trps.svl 2023.06)
