@<TRIPOS>MOLECULE
NONAME
57 60 1 0 0 
SMALL
USER_CHARGES


@<TRIPOS>ATOM
  1 O        0.6010    -1.8080    -1.8630 O.2   1 <1>  -0.5700 
  2 C        1.3890    -1.8290    -0.9470 C.2   1 <1>   0.5690 
  3 N        1.0680    -2.3460     0.2840 N.am  1 <1>  -0.6600 
  4 C        2.7790    -1.2740    -1.2140 C.3   1 <1>  -0.0990 
  5 C        1.9720    -2.2880     1.4670 C.3   1 <1>   0.1400 
  6 C       -0.2810    -2.9150     0.5400 C.3   1 <1>   0.1400 
  7 C        3.5570    -0.9190     0.0590 C.3   1 <1>  -0.1600 
  8 C        3.4330    -2.0650     1.0650 C.3   1 <1>  -0.1600 
  9 C       -0.2240    -4.4420     0.4530 C.3   1 <1>  -0.1600 
 10 C       -1.6300    -5.0670     0.5370 C.3   1 <1>  -0.0990 
 11 C       -1.6450    -6.5930     0.5270 C.2   1 <1>   0.5690 
 12 O       -0.5920    -7.1830     0.4740 O.2   1 <1>  -0.5700 
 13 N       -2.8350    -7.2720     0.5850 N.am  1 <1>  -0.6600 
 14 C       -2.8770    -8.7700     0.6060 C.3   1 <1>   0.1400 
 15 C       -4.2040    -6.6660     0.5650 C.3   1 <1>   0.1400 
 16 C       -3.8210    -9.3130    -0.4810 C.3   1 <1>   0.3430 
 17 C       -5.0850    -7.3210    -0.5260 C.3   1 <1>   0.2950 
 18 O       -5.0850    -8.7100    -0.3720 O.3   1 <1>  -0.5600 
 19 C       -3.9660   -10.8280    -0.3590 C.ar  1 <1>  -0.1440 
 20 C       -6.5590    -6.8770    -0.5180 C.3   1 <1>  -0.1950 
 21 C       -3.0980   -11.6570    -1.0560 C.ar  1 <1>  -0.1500 
 22 C       -4.9400   -11.4000     0.4480 C.ar  1 <1>  -0.1500 
 23 C       -7.0200    -5.5160    -0.0900 C.3   1 <1>  -0.2000 
 24 C       -7.3760    -6.7260     0.7290 C.3   1 <1>  -0.2000 
 25 C       -3.2010   -13.0340    -0.9480 C.ar  1 <1>  -0.1500 
 26 C       -5.0450   -12.7760     0.5570 C.ar  1 <1>  -0.1500 
 27 C       -4.1750   -13.5940    -0.1410 C.ar  1 <1>  -0.1500 
 28 H        3.3190    -2.0200    -1.7670 H     1 <1>   0.0800 
 29 H        2.6900    -0.4030    -1.8380 H     1 <1>   0.0800 
 30 H        1.6480    -1.4810     2.1020 H     1 <1>   0.0800 
 31 H        1.8980    -3.2050     2.0260 H     1 <1>   0.0800 
 32 H       -0.6250    -2.6070     1.5120 H     1 <1>   0.0800 
 33 H       -0.9770    -2.5390    -0.1910 H     1 <1>   0.0800 
 34 H        4.5910    -0.7430    -0.1820 H     1 <1>   0.0800 
 35 H        3.1520    -0.0180     0.4880 H     1 <1>   0.0800 
 36 H        4.0100    -1.8430     1.9450 H     1 <1>   0.0800 
 37 H        3.8240    -2.9720     0.6380 H     1 <1>   0.0800 
 38 H        0.2270    -4.7260    -0.4830 H     1 <1>   0.0800 
 39 H        0.3850    -4.8270     1.2520 H     1 <1>   0.0800 
 40 H       -2.2040    -4.7180    -0.3010 H     1 <1>   0.0800 
 41 H       -2.1080    -4.7370     1.4420 H     1 <1>   0.0800 
 42 H       -1.8960    -9.1830     0.4520 H     1 <1>   0.0800 
 43 H       -3.2230    -9.1020     1.5690 H     1 <1>   0.0800 
 44 H       -4.6600    -6.8170     1.5270 H     1 <1>   0.0800 
 45 H       -4.1550    -5.6100     0.3840 H     1 <1>   0.0800 
 46 H       -3.4250    -9.0750    -1.4530 H     1 <1>   0.0800 
 47 H       -4.6680    -7.0930    -1.4920 H     1 <1>   0.0800 
 48 H       -7.0710    -7.2980    -1.3660 H     1 <1>   0.1000 
 49 H       -2.3340   -11.2370    -1.6870 H     1 <1>   0.1500 
 50 H       -5.6240   -10.7730     0.9930 H     1 <1>   0.1500 
 51 H       -6.3380    -4.8040     0.3380 H     1 <1>   0.1000 
 52 H       -7.8000    -5.0370    -0.6580 H     1 <1>   0.1000 
 53 H       -8.3900    -7.0880     0.7140 H     1 <1>   0.1000 
 54 H       -6.9120    -6.8660     1.6890 H     1 <1>   0.1000 
 55 H       -2.5240   -13.6680    -1.4930 H     1 <1>   0.1500 
 56 H       -5.8050   -13.2080     1.1840 H     1 <1>   0.1500 
 57 H       -4.2560   -14.6640    -0.0580 H     1 <1>   0.1500 
@<TRIPOS>BOND
  1   1   2  2   
  2   2   3  am  
  3   2   4  1   
  4   3   5  1   
  5   3   6  1   
  6   4   7  1   
  7   4  28  1   
  8   4  29  1   
  9   5   8  1   
 10   5  30  1   
 11   5  31  1   
 12   6   9  1   
 13   6  32  1   
 14   6  33  1   
 15   7   8  1   
 16   7  34  1   
 17   7  35  1   
 18   8  36  1   
 19   8  37  1   
 20   9  10  1   
 21   9  38  1   
 22   9  39  1   
 23  10  11  1   
 24  10  40  1   
 25  10  41  1   
 26  11  12  2   
 27  11  13  am  
 28  13  14  1   
 29  13  15  1   
 30  14  16  1   
 31  14  42  1   
 32  14  43  1   
 33  15  17  1   
 34  15  44  1   
 35  15  45  1   
 36  16  18  1   
 37  16  19  1   
 38  16  46  1   
 39  17  18  1   
 40  17  20  1   
 41  17  47  1   
 42  19  21  ar  
 43  19  22  ar  
 44  20  23  1   
 45  20  24  1   
 46  20  48  1   
 47  21  25  ar  
 48  21  49  1   
 49  22  26  ar  
 50  22  50  1   
 51  23  24  1   
 52  23  51  1   
 53  23  52  1   
 54  24  53  1   
 55  24  54  1   
 56  25  27  ar  
 57  25  55  1   
 58  26  27  ar  
 59  26  56  1   
 60  27  57  1   
@<TRIPOS>SUBSTRUCTURE
  1 ****  11 GROUP 4 **** **** 0

# MOE 2024.06 (io_trps.svl 2023.06)
