@<TRIPOS>MOLECULE
NONAME
49 52 1 0 0 
SMALL
USER_CHARGES


@<TRIPOS>ATOM
  1 S       -1.3910     0.5380     0.8430 S.3   1 <1>  -0.0800 
  2 C       -1.6740    -1.1920     0.8670 C.2   1 <1>  -0.1100 
  3 C       -2.0530     0.6670    -0.7750 C.2   1 <1>  -0.1100 
  4 C       -2.2450    -1.6020    -0.2830 C.2   1 <1>  -0.1810 
  5 C       -2.4520    -0.5370    -1.2240 C.2   1 <1>  -0.1500 
  6 C       -2.6400    -3.0300    -0.5930 C.3   1 <1>   0.5240 
  7 N       -3.9880    -3.2610    -0.0130 N.4   1 <1>  -0.9590 
  8 C       -4.2760    -4.7290     0.1530 C.3   1 <1>   0.3430 
  9 C       -5.0500    -2.5730    -0.8080 C.3   1 <1>   0.3430 
 10 C       -5.4840    -5.0420     1.0640 C.3   1 <1>   0.1400 
 11 C       -6.0740    -1.9110     0.1130 C.3   1 <1>  -0.1600 
 12 N       -6.6910    -4.2460     0.6910 N.am  1 <1>  -0.6600 
 13 C       -6.6920    -2.8370     1.1660 C.3   1 <1>   0.1400 
 14 C       -7.7170    -4.7050    -0.0990 C.2   1 <1>   0.6300 
 15 O       -8.4670    -3.9290    -0.6400 O.2   1 <1>  -0.5700 
 16 C       -7.8930    -6.1970    -0.3690 C.3   1 <1>  -0.1000 
 17 C       -9.2140    -6.8820    -0.1760 C.3   1 <1>  -0.1900 
 18 C       -8.0910    -7.1840     0.7600 C.3   1 <1>  -0.2000 
 19 C       -9.7200    -8.0080    -1.0680 C.3   1 <1>  -0.0650 
 20 C      -10.4600    -6.2080     0.3960 C.3   1 <1>  -0.0650 
 21 C      -10.9610    -8.5100    -0.3350 C.3   1 <1>  -0.1600 
 22 C      -11.5400    -7.2950     0.4040 C.3   1 <1>  -0.1600 
 23 H       -1.3730    -1.7100     1.7620 H     1 <1>   0.1500 
 24 H       -2.0660     1.6460    -1.2240 H     1 <1>   0.1500 
 25 H       -2.8780    -0.7050    -2.1990 H     1 <1>   0.1500 
 26 H       -1.9250    -3.6930    -0.1330 H     1 <1>   0.0800 
 27 H       -2.6380    -3.2050    -1.6570 H     1 <1>   0.0800 
 28 H       -3.9750    -2.8080     0.9090 H     1 <1>   0.4500 
 29 H       -3.4120    -5.2210     0.5700 H     1 <1>   0.0800 
 30 H       -4.4590    -5.1670    -0.8150 H     1 <1>   0.0800 
 31 H       -5.5540    -3.2860    -1.4430 H     1 <1>   0.0800 
 32 H       -4.6200    -1.8140    -1.4390 H     1 <1>   0.0800 
 33 H       -5.2260    -4.8400     2.0890 H     1 <1>   0.0800 
 34 H       -5.6940    -6.0950     1.0010 H     1 <1>   0.0800 
 35 H       -6.8730    -1.5420    -0.5060 H     1 <1>   0.0800 
 36 H       -5.6400    -1.0520     0.5940 H     1 <1>   0.0800 
 37 H       -7.7050    -2.5250     1.3690 H     1 <1>   0.0800 
 38 H       -6.1450    -2.7680     2.0910 H     1 <1>   0.0800 
 39 H       -7.3320    -6.5070    -1.2300 H     1 <1>   0.1000 
 40 H       -8.1570    -6.8190     1.7710 H     1 <1>   0.1000 
 41 H       -7.6140    -8.1460     0.7030 H     1 <1>   0.1000 
 42 H       -8.9950    -8.7890    -1.2170 H     1 <1>   0.0800 
 43 H      -10.0050    -7.6010    -2.0220 H     1 <1>   0.0800 
 44 H      -10.7630    -5.4130    -0.2640 H     1 <1>   0.0800 
 45 H      -10.2940    -5.7970     1.3770 H     1 <1>   0.0800 
 46 H      -10.6650    -9.2520     0.3870 H     1 <1>   0.0800 
 47 H      -11.6740    -8.9460    -1.0130 H     1 <1>   0.0800 
 48 H      -12.4210    -6.9340    -0.0990 H     1 <1>   0.0800 
 49 H      -11.8030    -7.5640     1.4130 H     1 <1>   0.0800 
@<TRIPOS>BOND
  1   1   2  1   
  2   1   3  1   
  3   2   4  2   
  4   2  23  1   
  5   3   5  2   
  6   3  24  1   
  7   4   5  1   
  8   4   6  1   
  9   5  25  1   
 10   6   7  1   
 11   6  26  1   
 12   6  27  1   
 13   7   8  1   
 14   7   9  1   
 15   7  28  1   
 16   8  10  1   
 17   8  29  1   
 18   8  30  1   
 19   9  11  1   
 20   9  31  1   
 21   9  32  1   
 22  10  12  1   
 23  10  33  1   
 24  10  34  1   
 25  11  13  1   
 26  11  35  1   
 27  11  36  1   
 28  12  13  1   
 29  12  14  am  
 30  13  37  1   
 31  13  38  1   
 32  14  15  2   
 33  14  16  1   
 34  16  17  1   
 35  16  18  1   
 36  16  39  1   
 37  17  18  1   
 38  17  19  1   
 39  17  20  1   
 40  18  40  1   
 41  18  41  1   
 42  19  21  1   
 43  19  42  1   
 44  19  43  1   
 45  20  22  1   
 46  20  44  1   
 47  20  45  1   
 48  21  22  1   
 49  21  46  1   
 50  21  47  1   
 51  22  48  1   
 52  22  49  1   
@<TRIPOS>SUBSTRUCTURE
  1 ****  12 GROUP 4 **** **** 0

# MOE 2024.06 (io_trps.svl 2023.06)
