@<TRIPOS>MOLECULE
NONAME
38 41 1 0 0 
SMALL
USER_CHARGES


@<TRIPOS>ATOM
  1 CL      -0.5080    -0.3970    -2.8300 Cl    1 <1>  -0.1240 
  2 C       -1.3030    -1.4440    -1.6900 C.2   1 <1>   0.1640 
  3 S       -0.7940    -3.1130    -1.6620 S.3   1 <1>  -0.0800 
  4 C       -2.2720    -1.2010    -0.7920 C.2   1 <1>  -0.1500 
  5 C       -1.9530    -3.4970    -0.3780 C.2   1 <1>  -0.0450 
  6 C       -2.6350    -2.3640    -0.0500 C.2   1 <1>  -0.1500 
  7 C       -2.0090    -4.8520     0.1150 C.2   1 <1>   0.7150 
  8 O       -1.0000    -5.5330     0.1380 O.2   1 <1>  -0.5700 
  9 N       -3.1870    -5.4060     0.5760 N.am  1 <1>  -0.6600 
 10 C       -4.5300    -5.0320     0.0560 C.3   1 <1>   0.1400 
 11 C       -3.1900    -6.6120     1.4510 C.3   1 <1>   0.1400 
 12 C       -5.1070    -6.2100    -0.7320 C.3   1 <1>  -0.1600 
 13 C       -3.7580    -7.8000     0.6760 C.3   1 <1>  -0.1600 
 14 C       -5.1490    -7.4930     0.1100 C.3   1 <1>   0.4610 
 15 O       -5.9890    -7.2800     1.2310 O.3   1 <1>  -0.5600 
 16 C       -5.6640    -8.6770    -0.7120 C.2   1 <1>  -0.1810 
 17 C       -7.3830    -7.3880     1.0610 C.3   1 <1>   0.1200 
 18 C       -6.8430    -9.2480    -0.4340 C.2   1 <1>  -0.1400 
 19 C       -4.9900    -9.2950    -1.8190 C.2   1 <1>  -0.1500 
 20 C       -7.7870    -8.8140     0.6530 C.3   1 <1>   0.0200 
 21 S       -7.1880   -10.5910    -1.5050 S.3   1 <1>  -0.0800 
 22 C       -5.6700   -10.3290    -2.3520 C.2   1 <1>  -0.1100 
 23 H       -2.7400    -0.2460    -0.6270 H     1 <1>   0.1500 
 24 H       -3.3920    -2.3120     0.7140 H     1 <1>   0.1500 
 25 H       -4.4690    -4.1760    -0.5920 H     1 <1>   0.0800 
 26 H       -5.1750    -4.7890     0.8840 H     1 <1>   0.0800 
 27 H       -3.7970    -6.4150     2.3190 H     1 <1>   0.0800 
 28 H       -2.1940    -6.8400     1.7900 H     1 <1>   0.0800 
 29 H       -4.4900    -6.3780    -1.5950 H     1 <1>   0.0800 
 30 H       -6.0900    -5.9720    -1.0900 H     1 <1>   0.0800 
 31 H       -3.8190    -8.6610     1.3160 H     1 <1>   0.0800 
 32 H       -3.0810    -8.0370    -0.1230 H     1 <1>   0.0800 
 33 H       -7.6910    -6.6840     0.3090 H     1 <1>   0.0800 
 34 H       -7.8500    -7.1230     1.9930 H     1 <1>   0.0800 
 35 H       -4.0350    -8.9390    -2.1630 H     1 <1>   0.1500 
 36 H       -8.8000    -8.8190     0.2970 H     1 <1>   0.0800 
 37 H       -7.7090    -9.4800     1.4940 H     1 <1>   0.0800 
 38 H       -5.4440   -10.9880    -3.1710 H     1 <1>   0.1500 
@<TRIPOS>BOND
  1   1   2  1   
  2   2   3  1   
  3   2   4  2   
  4   3   5  1   
  5   4   6  1   
  6   4  23  1   
  7   5   6  2   
  8   5   7  1   
  9   6  24  1   
 10   7   8  2   
 11   7   9  am  
 12   9  10  1   
 13   9  11  1   
 14  10  12  1   
 15  10  25  1   
 16  10  26  1   
 17  11  13  1   
 18  11  27  1   
 19  11  28  1   
 20  12  14  1   
 21  12  29  1   
 22  12  30  1   
 23  13  14  1   
 24  13  31  1   
 25  13  32  1   
 26  14  15  1   
 27  14  16  1   
 28  15  17  1   
 29  16  18  2   
 30  16  19  1   
 31  17  20  1   
 32  17  33  1   
 33  17  34  1   
 34  18  20  1   
 35  18  21  1   
 36  19  22  2   
 37  19  35  1   
 38  20  36  1   
 39  20  37  1   
 40  21  22  1   
 41  22  38  1   
@<TRIPOS>SUBSTRUCTURE
  1 ****  12 GROUP 4 **** **** 0

# MOE 2024.06 (io_trps.svl 2023.06)
