@<TRIPOS>MOLECULE
NONAME
51 53 1 0 0 
SMALL
USER_CHARGES


@<TRIPOS>ATOM
  1 O       -1.6370     0.8130     0.5720 O.2   1 <1>  -0.5700 
  2 C       -1.1160     1.8880     0.7220 C.2   1 <1>   0.5690 
  3 N       -1.8640     3.0100     0.8040 N.am  1 <1>  -0.7300 
  4 C        0.4120     1.9970     0.7810 C.3   1 <1>   0.1810 
  5 C       -1.2890     4.3630     0.9910 C.3   1 <1>   0.3640 
  6 O        0.8680     3.2360     1.2800 O.3   1 <1>  -0.5600 
  7 C       -2.0130     5.3420     0.0690 C.ar  1 <1>  -0.1440 
  8 C        0.2340     4.3720     0.7110 C.3   1 <1>   0.2610 
  9 C       -2.2730     5.0310    -1.2600 C.ar  1 <1>  -0.1500 
 10 C       -2.4090     6.5790     0.5590 C.ar  1 <1>  -0.1500 
 11 C        0.8800     5.6800     1.1960 C.2   1 <1>   0.5690 
 12 C       -2.9160     5.9390    -2.0820 C.ar  1 <1>  -0.1500 
 13 C       -3.0510     7.4890    -0.2620 C.ar  1 <1>  -0.1500 
 14 O        0.3800     6.2650     2.1340 O.2   1 <1>  -0.5700 
 15 N        1.9830     6.1850     0.5440 N.am  1 <1>  -0.6600 
 16 C       -3.3050     7.1700    -1.5840 C.ar  1 <1>  -0.1500 
 17 C        2.5080     7.5530     0.8570 C.3   1 <1>   0.1400 
 18 C        2.8510     5.3470    -0.3330 C.3   1 <1>   0.0600 
 19 C        2.0800     8.6450    -0.1650 C.3   1 <1>   0.0000 
 20 C        0.5540     8.8290    -0.2000 C.3   1 <1>  -0.1600 
 21 C        2.5430    10.0200     0.3450 C.3   1 <1>  -0.1600 
 22 C        2.6190     8.3580    -1.5820 C.3   1 <1>   0.1200 
 23 C        0.2120     9.6750     1.0260 C.3   1 <1>  -0.1600 
 24 C        1.4730    10.4860     1.3400 C.3   1 <1>  -0.1600 
 25 O        4.0040     8.2580    -1.5750 O.3   1 <1>  -0.6800 
 26 H       -2.8820     2.9370     0.7680 H     1 <1>   0.3700 
 27 H        0.8160     1.8600    -0.2050 H     1 <1>   0.0800 
 28 H        0.7980     1.2250     1.4230 H     1 <1>   0.0800 
 29 H       -1.4580     4.6500     2.0160 H     1 <1>   0.0800 
 30 H        0.3740     4.3160    -0.3520 H     1 <1>   0.0800 
 31 H       -1.9790     4.0770    -1.6640 H     1 <1>   0.1500 
 32 H       -2.2110     6.8470     1.5840 H     1 <1>   0.1500 
 33 H       -3.1150     5.6890    -3.1090 H     1 <1>   0.1500 
 34 H       -3.3510     8.4460     0.1290 H     1 <1>   0.1500 
 35 H       -3.8060     7.8770    -2.2220 H     1 <1>   0.1500 
 36 H        2.1720     7.8400     1.8380 H     1 <1>   0.0800 
 37 H        3.5810     7.5130     0.9080 H     1 <1>   0.0800 
 38 H        3.8300     5.7840    -0.4270 H     1 <1>   0.0800 
 39 H        2.4160     5.2670    -1.3130 H     1 <1>   0.0800 
 40 H        2.9620     4.3620     0.0880 H     1 <1>   0.0800 
 41 H        0.2760     9.3820    -1.0810 H     1 <1>   0.0800 
 42 H        0.0180     7.8980    -0.2090 H     1 <1>   0.0800 
 43 H        3.5180     9.9850     0.7980 H     1 <1>   0.0800 
 44 H        2.5690    10.7200    -0.4730 H     1 <1>   0.0800 
 45 H        2.3480     9.1470    -2.2620 H     1 <1>   0.0800 
 46 H        2.2180     7.4350    -1.9610 H     1 <1>   0.0800 
 47 H       -0.6360    10.3110     0.8360 H     1 <1>   0.0800 
 48 H       -0.0190     9.0280     1.8570 H     1 <1>   0.0800 
 49 H        1.7890    10.2840     2.3500 H     1 <1>   0.0800 
 50 H        1.2920    11.5420     1.2390 H     1 <1>   0.0800 
 51 H        4.3990     9.1010    -1.2810 H     1 <1>   0.4000 
@<TRIPOS>BOND
  1   1   2  2   
  2   2   3  am  
  3   2   4  1   
  4   3   5  1   
  5   3  26  1   
  6   4   6  1   
  7   4  27  1   
  8   4  28  1   
  9   5   7  1   
 10   5   8  1   
 11   5  29  1   
 12   6   8  1   
 13   7   9  ar  
 14   7  10  ar  
 15   8  11  1   
 16   8  30  1   
 17   9  12  ar  
 18   9  31  1   
 19  10  13  ar  
 20  10  32  1   
 21  11  14  2   
 22  11  15  am  
 23  12  16  ar  
 24  12  33  1   
 25  13  16  ar  
 26  13  34  1   
 27  15  17  1   
 28  15  18  1   
 29  16  35  1   
 30  17  19  1   
 31  17  36  1   
 32  17  37  1   
 33  18  38  1   
 34  18  39  1   
 35  18  40  1   
 36  19  20  1   
 37  19  21  1   
 38  19  22  1   
 39  20  23  1   
 40  20  41  1   
 41  20  42  1   
 42  21  24  1   
 43  21  43  1   
 44  21  44  1   
 45  22  25  1   
 46  22  45  1   
 47  22  46  1   
 48  23  24  1   
 49  23  47  1   
 50  23  48  1   
 51  24  49  1   
 52  24  50  1   
 53  25  51  1   
@<TRIPOS>SUBSTRUCTURE
  1 ****  11 GROUP 4 **** **** 0

# MOE 2024.06 (io_trps.svl 2023.06)
