@<TRIPOS>MOLECULE
NONAME
44 45 1 0 0 
SMALL
USER_CHARGES


@<TRIPOS>ATOM
  1 O       -0.4330     0.2280     1.6130 O.2   1 <1>  -0.5700 
  2 C       -1.0260     0.7590     0.7070 C.2   1 <1>   0.5690 
  3 N       -1.7580     0.0450    -0.1900 N.am  1 <1>  -0.7300 
  4 C       -0.9620     2.2780     0.5730 C.3   1 <1>  -0.0190 
  5 C       -1.9340    -1.4200    -0.1660 C.3   1 <1>   0.1400 
  6 C       -2.3600     2.9230     0.6440 C.3   1 <1>  -0.1600 
  7 C       -0.2010     2.7170    -0.7020 C.3   1 <1>  -0.1600 
  8 C       -3.4270    -1.7370    -0.1090 C.3   1 <1>  -0.1600 
  9 C       -2.2900     4.4640     0.6680 C.3   1 <1>   0.2000 
 10 C       -0.5510     4.1420    -1.1740 C.3   1 <1>  -0.1600 
 11 C       -3.6590    -3.2490    -0.0140 C.3   1 <1>   0.0960 
 12 O       -3.4250     4.9570    -0.0010 O.3   1 <1>  -0.5600 
 13 C       -1.0120     5.0240    -0.0110 C.3   1 <1>   0.2000 
 14 N       -5.1040    -3.5440    -0.0020 N.pl3 1 <1>   0.0480 
 15 C       -4.5870     5.0110     0.7660 C.3   1 <1>   0.0400 
 16 O       -1.2770     6.2830    -0.5090 O.3   1 <1>  -0.6800 
 17 C       -5.9140    -3.5730     1.0900 C.2   1 <1>  -0.3020 
 18 C       -5.8780    -3.8330    -1.0820 C.2   1 <1>  -0.3020 
 19 C       -7.1820    -3.8770     0.7080 C.2   1 <1>  -0.1500 
 20 C       -7.1590    -4.0440    -0.6800 C.2   1 <1>  -0.1500 
 21 H       -2.2400     0.5420    -0.9400 H     1 <1>   0.3700 
 22 H       -0.4060     2.6360     1.4230 H     1 <1>   0.0800 
 23 H       -1.4920    -1.8450    -1.0520 H     1 <1>   0.0800 
 24 H       -1.4360    -1.8340     0.6950 H     1 <1>   0.0800 
 25 H       -2.8660     2.5790     1.5280 H     1 <1>   0.0800 
 26 H       -2.9280     2.6090    -0.2150 H     1 <1>   0.0800 
 27 H        0.8550     2.6580    -0.4980 H     1 <1>   0.0800 
 28 H       -0.4020     2.0370    -1.5120 H     1 <1>   0.0800 
 29 H       -3.9080    -1.3600    -0.9940 H     1 <1>   0.0800 
 30 H       -3.8550    -1.2630     0.7570 H     1 <1>   0.0800 
 31 H       -2.3020     4.8210     1.6850 H     1 <1>   0.0800 
 32 H       -1.3480     4.0870    -1.8960 H     1 <1>   0.0800 
 33 H        0.3060     4.5850    -1.6520 H     1 <1>   0.0800 
 34 H       -3.2230    -3.6380     0.8890 H     1 <1>   0.0800 
 35 H       -3.2150    -3.7510    -0.8550 H     1 <1>   0.0800 
 36 H       -0.2150     5.1130     0.7070 H     1 <1>   0.0800 
 37 H       -5.3760     5.4050     0.1490 H     1 <1>   0.0800 
 38 H       -4.4280     5.6620     1.6080 H     1 <1>   0.0800 
 39 H       -4.8490     4.0210     1.0950 H     1 <1>   0.0800 
 40 H       -2.2330     6.2810    -0.7440 H     1 <1>   0.4000 
 41 H       -5.5490    -3.3760     2.0820 H     1 <1>   0.1500 
 42 H       -5.4820    -3.8760    -2.0810 H     1 <1>   0.1500 
 43 H       -8.0540    -3.9780     1.3300 H     1 <1>   0.1500 
 44 H       -8.0120    -4.2920    -1.2880 H     1 <1>   0.1500 
@<TRIPOS>BOND
  1   1   2  2   
  2   2   3  am  
  3   2   4  1   
  4   3   5  1   
  5   3  21  1   
  6   4   6  1   
  7   4   7  1   
  8   4  22  1   
  9   5   8  1   
 10   5  23  1   
 11   5  24  1   
 12   6   9  1   
 13   6  25  1   
 14   6  26  1   
 15   7  10  1   
 16   7  27  1   
 17   7  28  1   
 18   8  11  1   
 19   8  29  1   
 20   8  30  1   
 21   9  12  1   
 22   9  13  1   
 23   9  31  1   
 24  10  13  1   
 25  10  32  1   
 26  10  33  1   
 27  11  14  1   
 28  11  34  1   
 29  11  35  1   
 30  12  15  1   
 31  13  16  1   
 32  13  36  1   
 33  14  17  1   
 34  14  18  1   
 35  15  37  1   
 36  15  38  1   
 37  15  39  1   
 38  16  40  1   
 39  17  19  2   
 40  17  41  1   
 41  18  20  2   
 42  18  42  1   
 43  19  20  1   
 44  19  43  1   
 45  20  44  1   
@<TRIPOS>SUBSTRUCTURE
  1 ****   3 GROUP 4 **** **** 0

# MOE 2024.06 (io_trps.svl 2023.06)
