@<TRIPOS>MOLECULE
NONAME
53 55 1 0 0 
SMALL
USER_CHARGES


@<TRIPOS>ATOM
  1 S        0.2860     0.2390     1.8010 S.o2  1 <1>   1.4470 
  2 O        0.6540    -1.1150     2.1570 O.2   1 <1>  -0.6500 
  3 O        0.2050     1.2220     2.8620 O.2   1 <1>  -0.6500 
  4 N       -1.2300     0.1580     1.0490 N.am  1 <1>  -0.8490 
  5 C        1.4180     0.8340     0.5110 C.ar  1 <1>  -0.0090 
  6 C       -1.3020    -0.8760    -0.0060 C.3   1 <1>   0.1960 
  7 C       -2.3220    -0.0590     2.0030 C.3   1 <1>   0.1960 
  8 C        1.1430     1.9770    -0.2350 C.ar  1 <1>   0.0820 
  9 C        2.5980     0.1480     0.2430 C.ar  1 <1>  -0.1500 
 10 C       -2.5760    -0.6430    -0.8380 C.3   1 <1>   0.2000 
 11 C       -3.6740     0.1280     1.2950 C.3   1 <1>  -0.1600 
 12 O       -0.0010     2.6580     0.0200 O.3   1 <1>  -0.3630 
 13 C        2.0290     2.4060    -1.2190 C.ar  1 <1>  -0.1500 
 14 C        3.4980     0.5650    -0.7330 C.ar  1 <1>  -0.0230 
 15 O       -2.4860     0.6680    -1.3030 O.3   1 <1>  -0.6800 
 16 C       -3.8350    -0.8040     0.0540 C.3   1 <1>  -0.1060 
 17 C       -0.6560     3.3880    -0.9950 C.3   1 <1>   0.0400 
 18 C        3.1930     1.7050    -1.4660 C.ar  1 <1>  -0.1500 
 19 N        4.7030    -0.1620    -0.9710 N.pl3 1 <1>   0.5930 
 20 C       -3.8810    -2.2870     0.4730 C.2   1 <1>   0.9060 
 21 C       -5.1140    -0.4380    -0.7540 C.3   1 <1>  -0.1600 
 22 N        4.7920    -1.5120    -0.8750 N.2   1 <1>  -0.7070 
 23 C        5.9110     0.3500    -1.3150 C.2   1 <1>  -0.3020 
 24 O       -4.2070    -2.5920     1.6280 O.co2 1 <1>  -0.9000 
 25 O       -3.5570    -3.1520    -0.3500 O.co2 1 <1>  -0.9000 
 26 C       -6.4340    -0.6310     0.0110 C.3   1 <1>  -0.1600 
 27 C        6.0230    -1.8050    -1.1580 C.2   1 <1>   0.1390 
 28 C        6.7770    -0.6750    -1.4440 C.2   1 <1>  -0.1500 
 29 C       -7.6370    -0.3030    -0.8780 C.3   1 <1>  -0.2400 
 30 H       -0.4520    -0.8070    -0.6610 H     1 <1>   0.0800 
 31 H       -1.3010    -1.8640     0.4270 H     1 <1>   0.0800 
 32 H       -2.2550    -1.0500     2.4260 H     1 <1>   0.0800 
 33 H       -2.2520     0.6520     2.8080 H     1 <1>   0.0800 
 34 H        2.8240    -0.7420     0.8100 H     1 <1>   0.1500 
 35 H       -2.6140    -1.3040    -1.6870 H     1 <1>   0.0800 
 36 H       -4.4510    -0.0810     2.0080 H     1 <1>   0.0800 
 37 H       -3.7740     1.1570     1.0040 H     1 <1>   0.0800 
 38 H        1.8260     3.2900    -1.7950 H     1 <1>   0.1500 
 39 H       -2.1510     1.1720    -0.5270 H     1 <1>   0.4000 
 40 H       -1.6410     3.6380    -0.6420 H     1 <1>   0.0800 
 41 H       -0.7320     2.7740    -1.8760 H     1 <1>   0.0800 
 42 H       -0.1030     4.2870    -1.1950 H     1 <1>   0.0800 
 43 H        3.8630     2.0490    -2.2350 H     1 <1>   0.1500 
 44 H       -5.0520     0.5840    -1.0830 H     1 <1>   0.0800 
 45 H       -5.1370    -1.0590    -1.6340 H     1 <1>   0.0800 
 46 H        6.0770     1.4030    -1.4390 H     1 <1>   0.1500 
 47 H       -6.5130    -1.6520     0.3480 H     1 <1>   0.0800 
 48 H       -6.4560     0.0040     0.8780 H     1 <1>   0.0800 
 49 H        6.4060    -2.8120    -1.1660 H     1 <1>   0.1500 
 50 H        7.8210    -0.6590    -1.7060 H     1 <1>   0.1500 
 51 H       -7.6510    -0.9510    -1.7360 H     1 <1>   0.0800 
 52 H       -7.5910     0.7180    -1.2110 H     1 <1>   0.0800 
 53 H       -8.5490    -0.4460    -0.3260 H     1 <1>   0.0800 
@<TRIPOS>BOND
  1   1   2  2   
  2   1   3  2   
  3   1   4  am  
  4   1   5  1   
  5   4   6  1   
  6   4   7  1   
  7   5   8  ar  
  8   5   9  ar  
  9   6  10  1   
 10   6  30  1   
 11   6  31  1   
 12   7  11  1   
 13   7  32  1   
 14   7  33  1   
 15   8  12  1   
 16   8  13  ar  
 17   9  14  ar  
 18   9  34  1   
 19  10  15  1   
 20  10  16  1   
 21  10  35  1   
 22  11  16  1   
 23  11  36  1   
 24  11  37  1   
 25  12  17  1   
 26  13  18  ar  
 27  13  38  1   
 28  14  18  ar  
 29  14  19  1   
 30  15  39  1   
 31  16  20  1   
 32  16  21  1   
 33  17  40  1   
 34  17  41  1   
 35  17  42  1   
 36  18  43  1   
 37  19  22  1   
 38  19  23  1   
 39  20  24  ar  
 40  20  25  ar  
 41  21  26  1   
 42  21  44  1   
 43  21  45  1   
 44  22  27  2   
 45  23  28  2   
 46  23  46  1   
 47  26  29  1   
 48  26  47  1   
 49  26  48  1   
 50  27  28  1   
 51  27  49  1   
 52  28  50  1   
 53  29  51  1   
 54  29  52  1   
 55  29  53  1   
@<TRIPOS>SUBSTRUCTURE
  1 ****   6 GROUP 4 **** **** 0

# MOE 2024.06 (io_trps.svl 2023.06)
