@<TRIPOS>MOLECULE
NONAME
43 44 1 0 0 
SMALL
USER_CHARGES


@<TRIPOS>ATOM
  1 O       -0.5580     0.1620     0.2930 O.co2 1 <1>  -0.9000 
  2 C       -0.7070     1.3860     0.2700 C.2   1 <1>   0.9060 
  3 O        0.0300     2.1760     0.8620 O.co2 1 <1>  -0.9000 
  4 C       -1.8940     1.9410    -0.4790 C.3   1 <1>  -0.2660 
  5 C       -3.1530     1.9000     0.3970 C.3   1 <1>  -0.1600 
  6 C       -4.3720     2.4340    -0.3550 C.3   1 <1>  -0.1600 
  7 C       -5.6010     2.3480     0.5440 C.3   1 <1>   0.3430 
  8 N       -6.8180     2.7380    -0.2130 N.4   1 <1>  -0.9590 
  9 C       -8.0430     2.2780     0.5150 C.3   1 <1>   0.3430 
 10 C       -6.8710     4.2050    -0.4800 C.3   1 <1>   0.3430 
 11 C       -9.3280     2.5510    -0.3000 C.3   1 <1>   0.0000 
 12 C       -8.1020     4.5340    -1.3290 C.3   1 <1>  -0.1600 
 13 C      -10.5620     2.1010     0.5010 C.3   1 <1>   0.2000 
 14 C       -9.4010     4.0480    -0.6650 C.3   1 <1>  -0.1600 
 15 C       -9.3920     1.6380    -1.5370 C.3   1 <1>  -0.1600 
 16 O      -10.3760     2.3060     1.8580 O.3   1 <1>  -0.6800 
 17 C      -10.7500     0.6090     0.2170 C.3   1 <1>  -0.1600 
 18 C       -9.8830     0.2890    -1.0080 C.3   1 <1>  -0.1600 
 19 H       -1.6610     2.9490    -0.7660 H     1 <1>   0.0800 
 20 H       -2.0250     1.3490    -1.3640 H     1 <1>   0.0800 
 21 H       -3.3170     0.8780     0.7020 H     1 <1>   0.0800 
 22 H       -2.9690     2.4840     1.2840 H     1 <1>   0.0800 
 23 H       -4.5190     1.8380    -1.2390 H     1 <1>   0.0800 
 24 H       -4.1770     3.4520    -0.6410 H     1 <1>   0.0800 
 25 H       -5.4730     2.9840     1.4060 H     1 <1>   0.0800 
 26 H       -5.7000     1.3310     0.8900 H     1 <1>   0.0800 
 27 H       -6.7960     2.2500    -1.1160 H     1 <1>   0.4500 
 28 H       -7.9780     1.2230     0.7230 H     1 <1>   0.0800 
 29 H       -8.1140     2.7960     1.4580 H     1 <1>   0.0800 
 30 H       -6.9250     4.7410     0.4540 H     1 <1>   0.0800 
 31 H       -5.9830     4.5210    -1.0020 H     1 <1>   0.0800 
 32 H       -8.1550     5.6000    -1.4660 H     1 <1>   0.0800 
 33 H       -7.9940     4.0920    -2.3040 H     1 <1>   0.0800 
 34 H      -11.4360     2.6490     0.1870 H     1 <1>   0.0800 
 35 H      -10.2360     4.2350    -1.3200 H     1 <1>   0.0800 
 36 H       -9.5660     4.6180     0.2350 H     1 <1>   0.0800 
 37 H      -10.1270     2.0190    -2.2270 H     1 <1>   0.0800 
 38 H       -8.4580     1.5440    -2.0600 H     1 <1>   0.0800 
 39 H      -11.1870     2.0570     2.3480 H     1 <1>   0.4000 
 40 H      -10.4450     0.0000     1.0510 H     1 <1>   0.0800 
 41 H      -11.7850     0.4110    -0.0030 H     1 <1>   0.0800 
 42 H       -9.0460    -0.3180    -0.7090 H     1 <1>   0.0800 
 43 H      -10.4420    -0.2460    -1.7590 H     1 <1>   0.0800 
@<TRIPOS>BOND
  1   1   2  ar  
  2   2   3  ar  
  3   2   4  1   
  4   4   5  1   
  5   4  19  1   
  6   4  20  1   
  7   5   6  1   
  8   5  21  1   
  9   5  22  1   
 10   6   7  1   
 11   6  23  1   
 12   6  24  1   
 13   7   8  1   
 14   7  25  1   
 15   7  26  1   
 16   8   9  1   
 17   8  10  1   
 18   8  27  1   
 19   9  11  1   
 20   9  28  1   
 21   9  29  1   
 22  10  12  1   
 23  10  30  1   
 24  10  31  1   
 25  11  13  1   
 26  11  14  1   
 27  11  15  1   
 28  12  14  1   
 29  12  32  1   
 30  12  33  1   
 31  13  16  1   
 32  13  17  1   
 33  13  34  1   
 34  14  35  1   
 35  14  36  1   
 36  15  18  1   
 37  15  37  1   
 38  15  38  1   
 39  16  39  1   
 40  17  18  1   
 41  17  40  1   
 42  17  41  1   
 43  18  42  1   
 44  18  43  1   
@<TRIPOS>SUBSTRUCTURE
  1 ****   8 GROUP 4 **** **** 0

# MOE 2024.06 (io_trps.svl 2023.06)
