@<TRIPOS>MOLECULE
NONAME
46 48 1 0 0 
SMALL
USER_CHARGES


@<TRIPOS>ATOM
  1 O       -1.5810    -1.7860    -0.0950 O.2   1 <1>  -0.5700 
  2 C       -0.6370    -2.3370     0.4480 C.2   1 <1>   0.5440 
  3 N       -0.2490    -1.8830     1.7020 N.am  1 <1>  -0.6600 
  4 C        0.0330    -3.4330    -0.2570 C.ar  1 <1>   0.3960 
  5 C       -1.0470    -0.8820     2.4670 C.3   1 <1>   0.0600 
  6 C        0.9810    -2.3500     2.3970 C.3   1 <1>   0.0600 
  7 N        0.2990    -4.5810     0.3880 N.ar  1 <1>  -0.6200 
  8 C        0.3530    -3.2590    -1.6040 C.ar  1 <1>  -0.1500 
  9 C        0.8450    -5.5460    -0.3190 C.ar  1 <1>   0.4100 
 10 C        0.9560    -4.2660    -2.3280 C.ar  1 <1>  -0.1500 
 11 N        1.0040    -6.7090     0.3690 N.pl3 1 <1>  -0.8690 
 12 C        1.2030    -5.4370    -1.6570 C.ar  1 <1>  -0.1500 
 13 C        0.0620    -7.8090     0.0460 C.3   1 <1>   0.2890 
 14 C       -1.3520    -7.4820     0.5190 C.3   1 <1>  -0.0800 
 15 C        0.3910    -9.0960     0.7900 C.3   1 <1>   0.1200 
 16 C       -1.8130    -8.7570     1.2310 C.3   1 <1>   0.1200 
 17 C       -2.2660    -7.0610    -0.6440 C.3   1 <1>  -0.0170 
 18 O       -0.8370    -9.7200     0.9890 O.3   1 <1>  -0.5600 
 19 C       -3.5710    -6.4800    -0.1270 C.ar  1 <1>  -0.1430 
 20 C       -4.7370    -7.2150    -0.0510 C.ar  1 <1>  -0.1500 
 21 C       -3.6490    -5.1680     0.2950 C.ar  1 <1>  -0.1500 
 22 C       -5.8890    -6.6190     0.4350 C.ar  1 <1>   0.1600 
 23 C       -4.8520    -4.6680     0.7620 C.ar  1 <1>   0.1600 
 24 N       -5.9750    -5.3640     0.8450 N.ar  1 <1>  -0.6200 
 25 H       -1.2220    -1.2430     3.4650 H     1 <1>   0.0800 
 26 H       -1.9990    -0.7060     1.9980 H     1 <1>   0.0800 
 27 H       -0.5090     0.0480     2.5140 H     1 <1>   0.0800 
 28 H        1.4180    -1.5430     2.9580 H     1 <1>   0.0800 
 29 H        1.7100    -2.7010     1.6860 H     1 <1>   0.0800 
 30 H        0.7320    -3.1540     3.0680 H     1 <1>   0.0800 
 31 H        0.1180    -2.3220    -2.0770 H     1 <1>   0.1500 
 32 H        1.2140    -4.1390    -3.3660 H     1 <1>   0.1500 
 33 H        0.9580    -6.5000     1.3690 H     1 <1>   0.4000 
 34 H        1.6660    -6.2740    -2.1450 H     1 <1>   0.1500 
 35 H        0.0790    -8.0120    -1.0110 H     1 <1>   0.0800 
 36 H       -1.3300    -6.6900     1.2480 H     1 <1>   0.0800 
 37 H        0.8220    -8.8940     1.7550 H     1 <1>   0.0800 
 38 H        1.0270    -9.7470     0.2170 H     1 <1>   0.0800 
 39 H       -2.7560    -9.1260     0.8670 H     1 <1>   0.0800 
 40 H       -1.8730    -8.6030     2.2950 H     1 <1>   0.0800 
 41 H       -2.4600    -7.9010    -1.2890 H     1 <1>   0.0800 
 42 H       -1.7740    -6.3060    -1.2330 H     1 <1>   0.0800 
 43 H       -4.7620    -8.2420    -0.3650 H     1 <1>   0.1500 
 44 H       -2.7860    -4.5260     0.2640 H     1 <1>   0.1500 
 45 H       -6.7890    -7.2070     0.4880 H     1 <1>   0.1500 
 46 H       -4.8890    -3.6400     1.0820 H     1 <1>   0.1500 
@<TRIPOS>BOND
  1   1   2  2   
  2   2   3  am  
  3   2   4  1   
  4   3   5  1   
  5   3   6  1   
  6   4   7  ar  
  7   4   8  ar  
  8   5  25  1   
  9   5  26  1   
 10   5  27  1   
 11   6  28  1   
 12   6  29  1   
 13   6  30  1   
 14   7   9  ar  
 15   8  10  ar  
 16   8  31  1   
 17   9  11  1   
 18   9  12  ar  
 19  10  12  ar  
 20  10  32  1   
 21  11  13  1   
 22  11  33  1   
 23  12  34  1   
 24  13  14  1   
 25  13  15  1   
 26  13  35  1   
 27  14  16  1   
 28  14  17  1   
 29  14  36  1   
 30  15  18  1   
 31  15  37  1   
 32  15  38  1   
 33  16  18  1   
 34  16  39  1   
 35  16  40  1   
 36  17  19  1   
 37  17  41  1   
 38  17  42  1   
 39  19  20  ar  
 40  19  21  ar  
 41  20  22  ar  
 42  20  43  1   
 43  21  23  ar  
 44  21  44  1   
 45  22  24  ar  
 46  22  45  1   
 47  23  24  ar  
 48  23  46  1   
@<TRIPOS>SUBSTRUCTURE
  1 ****   7 GROUP 4 **** **** 0

# MOE 2024.06 (io_trps.svl 2023.06)
