@<TRIPOS>MOLECULE
NONAME
41 43 1 0 0 
SMALL
USER_CHARGES


@<TRIPOS>ATOM
  1 S        0.0250    -0.1150    -0.4200 S.3   1 <1>  -0.0800 
  2 C        0.0600    -1.8640    -0.3070 C.2   1 <1>  -0.1100 
  3 C       -1.5910    -0.0600     0.2570 C.2   1 <1>  -0.1100 
  4 C       -1.0970    -2.3350     0.2010 C.2   1 <1>  -0.1810 
  5 C       -2.0360    -1.3000     0.5300 C.2   1 <1>  -0.1500 
  6 C       -1.4270    -3.7950     0.4320 C.3   1 <1>   0.5240 
  7 N       -1.8590    -4.3920    -0.8600 N.4   1 <1>  -0.9590 
  8 C       -3.1750    -3.8290    -1.3040 C.3   1 <1>   0.3430 
  9 C       -2.0580    -5.8670    -0.7110 C.3   1 <1>   0.3430 
 10 C       -4.2310    -4.8130    -0.8000 C.3   1 <1>   0.2000 
 11 C       -3.5330    -6.1530    -1.0160 C.3   1 <1>  -0.0800 
 12 O       -4.3960    -4.5960     0.5730 O.3   1 <1>  -0.5600 
 13 C       -4.0930    -7.3470    -0.2190 C.3   1 <1>   0.0200 
 14 C       -5.7220    -4.5010     1.0020 C.3   1 <1>   0.0400 
 15 C       -3.1770    -8.5470    -0.3550 C.2   1 <1>  -0.0400 
 16 O       -2.7310    -8.8950    -1.5330 O.3   1 <1>  -0.0190 
 17 C       -2.6600    -9.3940     0.5480 C.2   1 <1>  -0.1500 
 18 N       -1.9300    -9.9150    -1.4650 N.2   1 <1>  -0.4100 
 19 C       -1.8760   -10.2470    -0.2250 C.2   1 <1>   0.1080 
 20 C       -1.0670   -11.4090     0.3100 C.3   1 <1>  -0.0590 
 21 H        0.9620    -2.3470    -0.6410 H     1 <1>   0.1500 
 22 H       -2.0380     0.9120     0.3850 H     1 <1>   0.1500 
 23 H       -2.9970    -1.5220     0.9630 H     1 <1>   0.1500 
 24 H       -2.2040    -3.8890     1.1740 H     1 <1>   0.0800 
 25 H       -0.5460    -4.3010     0.7920 H     1 <1>   0.0800 
 26 H       -1.1350    -4.1750    -1.5560 H     1 <1>   0.4500 
 27 H       -3.3530    -2.8370    -0.9260 H     1 <1>   0.0800 
 28 H       -3.2080    -3.8040    -2.3810 H     1 <1>   0.0800 
 29 H       -1.4220    -6.4230    -1.3830 H     1 <1>   0.0800 
 30 H       -1.8390    -6.1700     0.3010 H     1 <1>   0.0800 
 31 H       -5.1690    -4.7200    -1.3240 H     1 <1>   0.0800 
 32 H       -3.5970    -6.3970    -2.0630 H     1 <1>   0.0800 
 33 H       -5.0690    -7.6050    -0.5920 H     1 <1>   0.0800 
 34 H       -4.1870    -7.1070     0.8250 H     1 <1>   0.0800 
 35 H       -5.7230    -4.3620     2.0700 H     1 <1>   0.0800 
 36 H       -6.2470    -5.4080     0.7570 H     1 <1>   0.0800 
 37 H       -6.1920    -3.6540     0.5310 H     1 <1>   0.0800 
 38 H       -2.7910    -9.4420     1.6140 H     1 <1>   0.1500 
 39 H       -0.3890   -11.0670     1.0700 H     1 <1>   0.0800 
 40 H       -0.5010   -11.8600    -0.4850 H     1 <1>   0.0800 
 41 H       -1.7250   -12.1480     0.7290 H     1 <1>   0.0800 
@<TRIPOS>BOND
  1   1   2  1   
  2   1   3  1   
  3   2   4  2   
  4   2  21  1   
  5   3   5  2   
  6   3  22  1   
  7   4   5  1   
  8   4   6  1   
  9   5  23  1   
 10   6   7  1   
 11   6  24  1   
 12   6  25  1   
 13   7   8  1   
 14   7   9  1   
 15   7  26  1   
 16   8  10  1   
 17   8  27  1   
 18   8  28  1   
 19   9  11  1   
 20   9  29  1   
 21   9  30  1   
 22  10  11  1   
 23  10  12  1   
 24  10  31  1   
 25  11  13  1   
 26  11  32  1   
 27  12  14  1   
 28  13  15  1   
 29  13  33  1   
 30  13  34  1   
 31  14  35  1   
 32  14  36  1   
 33  14  37  1   
 34  15  16  1   
 35  15  17  2   
 36  16  18  1   
 37  17  19  1   
 38  17  38  1   
 39  18  19  2   
 40  19  20  1   
 41  20  39  1   
 42  20  40  1   
 43  20  41  1   
@<TRIPOS>SUBSTRUCTURE
  1 ****   9 GROUP 4 **** **** 0

# MOE 2024.06 (io_trps.svl 2023.06)
