@<TRIPOS>MOLECULE
NONAME
49 51 1 0 0 
SMALL
USER_CHARGES


@<TRIPOS>ATOM
  1 S        0.7550     0.0300    -0.2370 S.o2  1 <1>   1.3330 
  2 O        0.1580    -0.2180    -1.5270 O.2   1 <1>  -0.6500 
  3 O        2.1440     0.4230    -0.1590 O.2   1 <1>  -0.6500 
  4 N        0.4750    -1.2880     0.7900 N.am  1 <1>  -0.8490 
  5 C       -0.1650     1.3610     0.5320 C.3   1 <1>  -0.0550 
  6 C       -0.7370    -2.0450     0.4520 C.3   1 <1>   0.1160 
  7 C        1.6230    -2.2010     0.8590 C.3   1 <1>   0.1160 
  8 C       -0.0950     2.6680    -0.2900 C.3   1 <1>  -0.0800 
  9 C       -0.8060     3.8740     0.3220 C.3   1 <1>   0.2000 
 10 C        1.3410     3.1580    -0.5350 C.3   1 <1>   0.3430 
 11 O       -0.4980     3.9550     1.6780 O.3   1 <1>  -0.6800 
 12 C       -0.1350     5.0470    -0.3980 C.3   1 <1>   0.3430 
 13 N        1.2990     4.6500    -0.5640 N.4   1 <1>  -0.9590 
 14 C        2.1420     5.2160     0.5240 C.3   1 <1>   0.4860 
 15 C        2.2560     6.7130     0.3070 C.ar  1 <1>  -0.1440 
 16 C        3.1280     7.2560    -0.6470 C.ar  1 <1>  -0.1440 
 17 C        1.4590     7.5480     1.0870 C.ar  1 <1>  -0.1500 
 18 C        3.1790     8.6350    -0.8330 C.ar  1 <1>  -0.1500 
 19 C        4.0480     6.3880    -1.4960 C.3   1 <1>  -0.0970 
 20 C        1.5330     8.9080     0.8770 C.ar  1 <1>   0.0820 
 21 C        2.3680     9.4370    -0.0590 C.ar  1 <1>   0.0820 
 22 O        0.8570     9.8800     1.4970 O.3   1 <1>  -0.3620 
 23 O        2.2580    10.7690    -0.0730 O.3   1 <1>  -0.3620 
 24 C        1.3020    11.1120     0.9290 C.3   1 <1>   0.4000 
 25 H       -1.1910     1.0650     0.6360 H     1 <1>   0.0800 
 26 H        0.2330     1.5220     1.5160 H     1 <1>   0.0800 
 27 H       -0.9090    -2.8150     1.1850 H     1 <1>   0.0800 
 28 H       -0.6370    -2.5030    -0.5190 H     1 <1>   0.0800 
 29 H       -1.5930    -1.3930     0.4390 H     1 <1>   0.0800 
 30 H        1.4170    -3.0100     1.5390 H     1 <1>   0.0800 
 31 H        2.4930    -1.6760     1.2180 H     1 <1>   0.0800 
 32 H        1.8410    -2.6050    -0.1160 H     1 <1>   0.0800 
 33 H       -0.5330     2.4770    -1.2560 H     1 <1>   0.0800 
 34 H       -1.8760     3.8690     0.1990 H     1 <1>   0.0800 
 35 H        1.7260     2.7580    -1.4600 H     1 <1>   0.0800 
 36 H        1.9770     2.8240     0.2700 H     1 <1>   0.0800 
 37 H       -1.1600     3.4780     2.2250 H     1 <1>   0.4000 
 38 H       -0.2510     5.9640     0.1550 H     1 <1>   0.0800 
 39 H       -0.5870     5.1660    -1.3690 H     1 <1>   0.0800 
 40 H        1.6630     5.0290    -1.4470 H     1 <1>   0.4500 
 41 H        1.6990     5.0120     1.4860 H     1 <1>   0.0800 
 42 H        3.1250     4.7760     0.5030 H     1 <1>   0.0800 
 43 H        0.7910     7.1710     1.8420 H     1 <1>   0.1500 
 44 H        3.8310     9.0920    -1.5560 H     1 <1>   0.1500 
 45 H        4.7790     6.9950    -2.0020 H     1 <1>   0.0800 
 46 H        3.4870     5.8570    -2.2430 H     1 <1>   0.0800 
 47 H        4.5830     5.6850    -0.8830 H     1 <1>   0.0800 
 48 H        0.4720    11.6250     0.4780 H     1 <1>   0.0800 
 49 H        1.7740    11.7090     1.6890 H     1 <1>   0.0800 
@<TRIPOS>BOND
  1   1   2  2   
  2   1   3  2   
  3   1   4  am  
  4   1   5  1   
  5   4   6  1   
  6   4   7  1   
  7   5   8  1   
  8   5  25  1   
  9   5  26  1   
 10   6  27  1   
 11   6  28  1   
 12   6  29  1   
 13   7  30  1   
 14   7  31  1   
 15   7  32  1   
 16   8   9  1   
 17   8  10  1   
 18   8  33  1   
 19   9  11  1   
 20   9  12  1   
 21   9  34  1   
 22  10  13  1   
 23  10  35  1   
 24  10  36  1   
 25  11  37  1   
 26  12  13  1   
 27  12  38  1   
 28  12  39  1   
 29  13  14  1   
 30  13  40  1   
 31  14  15  1   
 32  14  41  1   
 33  14  42  1   
 34  15  16  ar  
 35  15  17  ar  
 36  16  18  ar  
 37  16  19  1   
 38  17  20  ar  
 39  17  43  1   
 40  18  21  ar  
 41  18  44  1   
 42  19  45  1   
 43  19  46  1   
 44  19  47  1   
 45  20  21  ar  
 46  20  22  1   
 47  21  23  1   
 48  22  24  1   
 49  23  24  1   
 50  24  48  1   
 51  24  49  1   
@<TRIPOS>SUBSTRUCTURE
  1 ****  13 GROUP 4 **** **** 0

# MOE 2024.06 (io_trps.svl 2023.06)
