@<TRIPOS>MOLECULE
NONAME
47 49 1 0 0 
SMALL
USER_CHARGES


@<TRIPOS>ATOM
  1 O       -2.3430     0.8250     1.8890 O.2   1 <1>  -0.5700 
  2 C       -2.1290     1.0660     0.7240 C.2   1 <1>   0.5690 
  3 N       -2.1940     0.0900    -0.2370 N.am  1 <1>  -0.6600 
  4 C       -1.7940     2.5020     0.3810 C.3   1 <1>   0.1570 
  5 C       -2.3180    -1.3520     0.1680 C.3   1 <1>   0.3640 
  6 C       -2.0860     0.3640    -1.7100 C.3   1 <1>   0.1400 
  7 N       -0.4210     2.6050    -0.1380 N.pl3 1 <1>   0.3140 
  8 C       -0.9390    -2.0050     0.3610 C.ar  1 <1>  -0.1440 
  9 C       -3.1970    -2.1880    -0.8170 C.3   1 <1>   0.2000 
 10 C       -2.2760    -0.8970    -2.5630 C.3   1 <1>   0.1200 
 11 N       -0.1950     3.1040    -1.3710 N.2   1 <1>  -0.7070 
 12 C        0.7410     2.2580     0.4660 C.2   1 <1>  -0.3320 
 13 C       -0.8810    -3.1870     1.0880 C.ar  1 <1>  -0.1500 
 14 C        0.2490    -1.4780    -0.1380 C.ar  1 <1>  -0.1500 
 15 O       -3.3730    -1.6090    -2.0900 O.3   1 <1>  -0.5600 
 16 C       -4.6010    -2.4290    -0.2510 C.3   1 <1>   0.1200 
 17 C        1.0900     3.0690    -1.5180 C.2   1 <1>   0.1080 
 18 C        1.7320     2.5480    -0.4020 C.2   1 <1>  -0.1500 
 19 C        0.8680     1.6590     1.8590 C.3   1 <1>  -0.0600 
 20 C        0.3230    -3.8370     1.2980 C.ar  1 <1>  -0.1500 
 21 C        1.4540    -2.1250     0.0710 C.ar  1 <1>  -0.1500 
 22 O       -4.5420    -3.3150     0.8230 O.3   1 <1>  -0.6800 
 23 C        1.7760     3.5510    -2.7740 C.3   1 <1>  -0.0590 
 24 C        1.4930    -3.3070     0.7870 C.ar  1 <1>  -0.1500 
 25 H       -1.8690     3.1110     1.2610 H     1 <1>   0.0800 
 26 H       -2.4780     2.8710    -0.3560 H     1 <1>   0.0800 
 27 H       -2.7960    -1.3930     1.1320 H     1 <1>   0.0800 
 28 H       -2.8330     1.0860    -1.9910 H     1 <1>   0.0800 
 29 H       -1.1220     0.7790    -1.9390 H     1 <1>   0.0800 
 30 H       -2.7330    -3.1440    -0.9830 H     1 <1>   0.0800 
 31 H       -1.4040    -1.5280    -2.5280 H     1 <1>   0.0800 
 32 H       -2.4670    -0.6280    -3.5860 H     1 <1>   0.0800 
 33 H       -1.7810    -3.6100     1.5020 H     1 <1>   0.1500 
 34 H        0.2620    -0.5550    -0.6860 H     1 <1>   0.1500 
 35 H       -5.2450    -2.8560    -1.0000 H     1 <1>   0.0800 
 36 H       -5.0220    -1.5040     0.1030 H     1 <1>   0.0800 
 37 H        2.7920     2.4170    -0.2830 H     1 <1>   0.1500 
 38 H        1.9040     1.5810     2.1360 H     1 <1>   0.0800 
 39 H        0.4380     0.6720     1.8850 H     1 <1>   0.0800 
 40 H        0.3660     2.2760     2.5820 H     1 <1>   0.0800 
 41 H        0.3490    -4.7530     1.8620 H     1 <1>   0.1500 
 42 H        2.3630    -1.7030    -0.3210 H     1 <1>   0.1500 
 43 H       -4.4570    -4.2360     0.5060 H     1 <1>   0.4000 
 44 H        2.8400     3.4310    -2.6900 H     1 <1>   0.0800 
 45 H        1.5490     4.5900    -2.9280 H     1 <1>   0.0800 
 46 H        1.4210     2.9870    -3.6160 H     1 <1>   0.0800 
 47 H        2.4300    -3.8100     0.9490 H     1 <1>   0.1500 
@<TRIPOS>BOND
  1   1   2  2   
  2   2   3  am  
  3   2   4  1   
  4   3   5  1   
  5   3   6  1   
  6   4   7  1   
  7   4  25  1   
  8   4  26  1   
  9   5   8  1   
 10   5   9  1   
 11   5  27  1   
 12   6  10  1   
 13   6  28  1   
 14   6  29  1   
 15   7  11  1   
 16   7  12  1   
 17   8  13  ar  
 18   8  14  ar  
 19   9  15  1   
 20   9  16  1   
 21   9  30  1   
 22  10  15  1   
 23  10  31  1   
 24  10  32  1   
 25  11  17  2   
 26  12  18  2   
 27  12  19  1   
 28  13  20  ar  
 29  13  33  1   
 30  14  21  ar  
 31  14  34  1   
 32  16  22  1   
 33  16  35  1   
 34  16  36  1   
 35  17  18  1   
 36  17  23  1   
 37  18  37  1   
 38  19  38  1   
 39  19  39  1   
 40  19  40  1   
 41  20  24  ar  
 42  20  41  1   
 43  21  24  ar  
 44  21  42  1   
 45  22  43  1   
 46  23  44  1   
 47  23  45  1   
 48  23  46  1   
 49  24  47  1   
@<TRIPOS>SUBSTRUCTURE
  1 ****   3 GROUP 4 **** **** 0

# MOE 2024.06 (io_trps.svl 2023.06)
