@<TRIPOS>MOLECULE
NONAME
49 51 1 0 0 
SMALL
USER_CHARGES


@<TRIPOS>ATOM
  1 O       -3.0870     1.0260    -2.0960 O.2   1 <1>  -0.5700 
  2 C       -2.0580     1.2650    -1.5100 C.2   1 <1>   0.5690 
  3 N       -1.9170     1.3690    -0.1700 N.am  1 <1>  -0.6600 
  4 C       -0.7370     1.4530    -2.2020 C.3   1 <1>  -0.0990 
  5 C       -0.5250     1.5910     0.2490 C.3   1 <1>   0.1400 
  6 C       -3.0050     1.1850     0.8090 C.3   1 <1>   0.1400 
  7 C        0.2150     1.8740    -1.0670 C.3   1 <1>  -0.1600 
  8 C       -3.2050    -0.3100     1.0580 C.3   1 <1>  -0.1600 
  9 C       -4.5080    -0.5850     1.8250 C.3   1 <1>  -0.0990 
 10 C       -4.8400    -2.0670     1.8530 C.2   1 <1>   0.5690 
 11 O       -4.6410    -2.6740     2.8770 O.2   1 <1>  -0.5700 
 12 N       -5.3480    -2.6850     0.7430 N.am  1 <1>  -0.6600 
 13 C       -5.7060    -2.0590    -0.5590 C.3   1 <1>   0.1400 
 14 C       -5.6220    -4.1420     0.7010 C.3   1 <1>   0.1400 
 15 C       -6.6630    -3.0610    -1.2010 C.3   1 <1>   0.2000 
 16 C       -6.1360    -4.4170    -0.7170 C.3   1 <1>  -0.0800 
 17 O       -7.9280    -2.8430    -0.6760 O.3   1 <1>  -0.6800 
 18 C       -7.1390    -5.5820    -0.8030 C.3   1 <1>  -0.0170 
 19 C       -6.4870    -6.8910    -0.3860 C.ar  1 <1>  -0.1440 
 20 C       -5.7300    -7.6380    -1.2660 C.ar  1 <1>  -0.1500 
 21 C       -6.6140    -7.4000     0.8910 C.ar  1 <1>  -0.1500 
 22 C       -5.1510    -8.8210    -0.8390 C.ar  1 <1>   0.1600 
 23 C       -5.9920    -8.5940     1.2170 C.ar  1 <1>   0.1600 
 24 N       -5.2630    -9.3170     0.3820 N.ar  1 <1>  -0.6200 
 25 H       -0.4350     0.5190    -2.6370 H     1 <1>   0.0800 
 26 H       -0.8150     2.2080    -2.9620 H     1 <1>   0.0800 
 27 H       -0.4580     2.4270     0.9250 H     1 <1>   0.0800 
 28 H       -0.1460     0.7010     0.7220 H     1 <1>   0.0800 
 29 H       -2.7720     1.6990     1.7260 H     1 <1>   0.0800 
 30 H       -3.9060     1.6100     0.3980 H     1 <1>   0.0800 
 31 H        0.4140     2.9300    -1.1340 H     1 <1>   0.0800 
 32 H        1.1510     1.3450    -1.1100 H     1 <1>   0.0800 
 33 H       -3.2440    -0.8120     0.1080 H     1 <1>   0.0800 
 34 H       -2.3720    -0.7040     1.6110 H     1 <1>   0.0800 
 35 H       -5.3280    -0.0550     1.3780 H     1 <1>   0.0800 
 36 H       -4.4090    -0.2350     2.8360 H     1 <1>   0.0800 
 37 H       -6.1660    -1.0930    -0.4430 H     1 <1>   0.0800 
 38 H       -4.8190    -1.9660    -1.1630 H     1 <1>   0.0800 
 39 H       -4.7280    -4.7040     0.9130 H     1 <1>   0.0800 
 40 H       -6.3710    -4.3770     1.4390 H     1 <1>   0.0800 
 41 H       -6.7140    -2.9740    -2.2730 H     1 <1>   0.0800 
 42 H       -5.2810    -4.6650    -1.3220 H     1 <1>   0.0800 
 43 H       -7.8490    -2.7660     0.2970 H     1 <1>   0.4000 
 44 H       -7.5000    -5.6700    -1.8130 H     1 <1>   0.0800 
 45 H       -7.9910    -5.3910    -0.1740 H     1 <1>   0.0800 
 46 H       -5.5850    -7.3110    -2.2790 H     1 <1>   0.1500 
 47 H       -7.1880    -6.8820     1.6370 H     1 <1>   0.1500 
 48 H       -4.5640    -9.3900    -1.5400 H     1 <1>   0.1500 
 49 H       -6.1000    -8.9750     2.2180 H     1 <1>   0.1500 
@<TRIPOS>BOND
  1   1   2  2   
  2   2   3  am  
  3   2   4  1   
  4   3   5  1   
  5   3   6  1   
  6   4   7  1   
  7   4  25  1   
  8   4  26  1   
  9   5   7  1   
 10   5  27  1   
 11   5  28  1   
 12   6   8  1   
 13   6  29  1   
 14   6  30  1   
 15   7  31  1   
 16   7  32  1   
 17   8   9  1   
 18   8  33  1   
 19   8  34  1   
 20   9  10  1   
 21   9  35  1   
 22   9  36  1   
 23  10  11  2   
 24  10  12  am  
 25  12  13  1   
 26  12  14  1   
 27  13  15  1   
 28  13  37  1   
 29  13  38  1   
 30  14  16  1   
 31  14  39  1   
 32  14  40  1   
 33  15  16  1   
 34  15  17  1   
 35  15  41  1   
 36  16  18  1   
 37  16  42  1   
 38  17  43  1   
 39  18  19  1   
 40  18  44  1   
 41  18  45  1   
 42  19  20  ar  
 43  19  21  ar  
 44  20  22  ar  
 45  20  46  1   
 46  21  23  ar  
 47  21  47  1   
 48  22  24  ar  
 49  22  48  1   
 50  23  24  ar  
 51  23  49  1   
@<TRIPOS>SUBSTRUCTURE
  1 ****  12 GROUP 4 **** **** 0

# MOE 2024.06 (io_trps.svl 2023.06)
