@<TRIPOS>MOLECULE
NONAME
47 48 1 0 0 
SMALL
USER_CHARGES


@<TRIPOS>ATOM
  1 O       -0.5980    -0.6610     0.2930 O.3   1 <1>  -0.2800 
  2 C       -1.5030    -1.5900     0.5240 C.2   1 <1>  -0.0400 
  3 C       -0.4710     0.0630     1.3850 C.2   1 <1>  -0.0400 
  4 C       -1.9770    -1.4750     1.7860 C.2   1 <1>  -0.1500 
  5 C       -1.8270    -2.5570    -0.6050 C.3   1 <1>   0.1000 
  6 C       -1.2980    -0.3880     2.3500 C.2   1 <1>  -0.1500 
  7 C        0.5170     1.2080     1.3840 C.3   1 <1>  -0.0600 
  8 C       -3.1400    -3.3060    -0.3230 C.3   1 <1>  -0.1600 
  9 C       -0.6470    -3.5190    -0.8040 C.3   1 <1>  -0.2400 
 10 C       -3.5820    -4.1500    -1.5190 C.3   1 <1>   0.3430 
 11 N       -4.8160    -4.9060    -1.1880 N.4   1 <1>  -0.9590 
 12 C       -4.9830    -6.0980    -2.0670 C.3   1 <1>   0.5240 
 13 C       -6.0480    -4.0520    -1.1090 C.3   1 <1>   0.3430 
 14 C       -5.4370    -7.2480    -1.1760 C.2   1 <1>   0.0460 
 15 C       -7.2130    -4.7330    -0.3730 C.3   1 <1>   0.1200 
 16 N       -5.0640    -7.2830     0.1230 N.2   1 <1>  -0.5650 
 17 C       -6.2170    -8.3080    -1.4790 C.2   1 <1>  -0.3020 
 18 O       -8.2560    -3.8260    -0.3070 O.3   1 <1>  -0.6800 
 19 C       -5.6110    -8.3640     0.5760 C.2   1 <1>   0.0060 
 20 N       -6.3290    -9.0350    -0.3510 N.pl3 1 <1>   0.0330 
 21 C       -5.4690    -8.8500     2.0040 C.3   1 <1>  -0.0600 
 22 H       -2.7150    -2.0650     2.2980 H     1 <1>   0.1500 
 23 H       -1.9480    -1.9670    -1.4980 H     1 <1>   0.0800 
 24 H       -1.4330    -0.0180     3.3500 H     1 <1>   0.1500 
 25 H        0.2530     1.9140     0.6180 H     1 <1>   0.0800 
 26 H        1.5050     0.8330     1.1870 H     1 <1>   0.0800 
 27 H        0.5130     1.7050     2.3360 H     1 <1>   0.0800 
 28 H       -3.8940    -2.5740    -0.0970 H     1 <1>   0.0800 
 29 H       -3.0030    -3.9390     0.5370 H     1 <1>   0.0800 
 30 H       -0.5110    -4.1330     0.0690 H     1 <1>   0.0800 
 31 H        0.2560    -2.9530    -0.9540 H     1 <1>   0.0800 
 32 H       -0.7850    -4.1490    -1.6630 H     1 <1>   0.0800 
 33 H       -2.7930    -4.8450    -1.7580 H     1 <1>   0.0800 
 34 H       -3.7490    -3.5190    -2.3770 H     1 <1>   0.0800 
 35 H       -4.6830    -5.3630    -0.2630 H     1 <1>   0.4500 
 36 H       -4.0380    -6.3680    -2.5070 H     1 <1>   0.0800 
 37 H       -5.6980    -5.9130    -2.8500 H     1 <1>   0.0800 
 38 H       -6.3700    -3.7830    -2.1010 H     1 <1>   0.0800 
 39 H       -5.8200    -3.1450    -0.5750 H     1 <1>   0.0800 
 40 H       -6.9310    -4.9970     0.6320 H     1 <1>   0.0800 
 41 H       -7.5640    -5.6000    -0.9030 H     1 <1>   0.0800 
 42 H       -6.6890    -8.5930    -2.4040 H     1 <1>   0.1500 
 43 H       -9.0200    -4.1930     0.1880 H     1 <1>   0.4000 
 44 H       -6.8380    -9.9150    -0.2160 H     1 <1>   0.2700 
 45 H       -4.8530    -8.1700     2.5650 H     1 <1>   0.0800 
 46 H       -5.0080    -9.8210     2.0200 H     1 <1>   0.0800 
 47 H       -6.4340    -8.9080     2.4740 H     1 <1>   0.0800 
@<TRIPOS>BOND
  1   1   2  1   
  2   1   3  1   
  3   2   4  2   
  4   2   5  1   
  5   3   6  2   
  6   3   7  1   
  7   4   6  1   
  8   4  22  1   
  9   5   8  1   
 10   5   9  1   
 11   5  23  1   
 12   6  24  1   
 13   7  25  1   
 14   7  26  1   
 15   7  27  1   
 16   8  10  1   
 17   8  28  1   
 18   8  29  1   
 19   9  30  1   
 20   9  31  1   
 21   9  32  1   
 22  10  11  1   
 23  10  33  1   
 24  10  34  1   
 25  11  12  1   
 26  11  13  1   
 27  11  35  1   
 28  12  14  1   
 29  12  36  1   
 30  12  37  1   
 31  13  15  1   
 32  13  38  1   
 33  13  39  1   
 34  14  16  1   
 35  14  17  2   
 36  15  18  1   
 37  15  40  1   
 38  15  41  1   
 39  16  19  2   
 40  17  20  1   
 41  17  42  1   
 42  18  43  1   
 43  19  20  1   
 44  19  21  1   
 45  20  44  1   
 46  21  45  1   
 47  21  46  1   
 48  21  47  1   
@<TRIPOS>SUBSTRUCTURE
  1 ****   8 GROUP 4 **** **** 0

# MOE 2024.06 (io_trps.svl 2023.06)
