@<TRIPOS>MOLECULE
NONAME
53 56 1 0 0 
SMALL
USER_CHARGES


@<TRIPOS>ATOM
  1 O       -0.7230    -1.7410     3.7750 O.2   1 <1>  -0.5700 
  2 C       -0.4530    -2.4070     2.7920 C.2   1 <1>   0.7670 
  3 N        0.6550    -2.0980     2.0550 N.2   1 <1>  -0.6610 
  4 C       -1.2910    -3.4840     2.4040 C.2   1 <1>  -0.1360 
  5 C        0.9140    -2.8070     1.0240 C.2   1 <1>   0.4390 
  6 C       -1.0060    -4.2050     1.2950 C.2   1 <1>  -0.0380 
  7 N        0.1330    -3.8480     0.6030 N.pl3 1 <1>  -0.5500 
  8 C        2.1430    -2.5070     0.2020 C.3   1 <1>  -0.1790 
  9 C       -1.8820    -5.3490     0.7960 C.3   1 <1>   0.4810 
 10 N       -2.6880    -4.8520    -0.3540 N.4   1 <1>  -0.9590 
 11 C       -3.8140    -3.9720     0.1250 C.3   1 <1>   0.3430 
 12 C       -3.2060    -5.9690    -1.1960 C.3   1 <1>   0.3430 
 13 C       -4.6080    -3.3540    -1.0390 C.3   1 <1>   0.1430 
 14 C       -3.9290    -5.3970    -2.4190 C.3   1 <1>  -0.1600 
 15 C       -5.8010    -2.6360    -0.4590 C.ar  1 <1>   0.1670 
 16 C       -5.0750    -4.4510    -2.0190 C.3   1 <1>  -0.1600 
 17 C       -3.8410    -2.2110    -1.7570 C.3   1 <1>  -0.1600 
 18 N       -6.6070    -3.1520     0.4330 N.ar  1 <1>  -0.6200 
 19 C       -5.9310    -1.3780    -0.9580 C.ar  1 <1>  -0.1430 
 20 C       -4.8480    -1.0600    -1.9580 C.3   1 <1>  -0.0170 
 21 C       -7.6000    -2.3450     0.8230 C.ar  1 <1>   0.7200 
 22 C       -6.9770    -0.6210    -0.4950 C.ar  1 <1>   0.1600 
 23 N       -7.8140    -1.0960     0.3970 N.ar  1 <1>  -0.6200 
 24 N       -8.4770    -2.8490     1.7590 N.pl3 1 <1>  -0.8380 
 25 C       -9.3900    -1.9590     2.5300 C.3   1 <1>   0.1290 
 26 C       -8.7550    -4.3050     1.8870 C.3   1 <1>   0.1290 
 27 H       -2.1390    -3.6620     3.0380 H     1 <1>   0.1500 
 28 H        0.4940    -4.3770    -0.1970 H     1 <1>   0.4000 
 29 H        2.8030    -3.3550     0.1990 H     1 <1>   0.0800 
 30 H        2.6700    -1.6700     0.6240 H     1 <1>   0.0800 
 31 H        1.8660    -2.2610    -0.8060 H     1 <1>   0.0800 
 32 H       -2.5330    -5.6910     1.5840 H     1 <1>   0.0800 
 33 H       -1.2540    -6.1700     0.4920 H     1 <1>   0.0800 
 34 H       -2.0710    -4.2660    -0.9290 H     1 <1>   0.4500 
 35 H       -3.4340    -3.1760     0.7440 H     1 <1>   0.0800 
 36 H       -4.4970    -4.5540     0.7250 H     1 <1>   0.0800 
 37 H       -3.8950    -6.5700    -0.6230 H     1 <1>   0.0800 
 38 H       -2.3940    -6.6000    -1.5230 H     1 <1>   0.0800 
 39 H       -4.3350    -6.2120    -2.9940 H     1 <1>   0.0800 
 40 H       -3.2230    -4.8870    -3.0500 H     1 <1>   0.0800 
 41 H       -5.5120    -4.0030    -2.8960 H     1 <1>   0.0800 
 42 H       -5.8500    -5.0320    -1.5440 H     1 <1>   0.0800 
 43 H       -3.4150    -2.5150    -2.6970 H     1 <1>   0.0800 
 44 H       -3.0500    -1.8480    -1.1240 H     1 <1>   0.0800 
 45 H       -5.2610    -1.0790    -2.9530 H     1 <1>   0.0800 
 46 H       -4.4010    -0.0990    -1.7690 H     1 <1>   0.0800 
 47 H       -7.1300     0.3820    -0.8550 H     1 <1>   0.1500 
 48 H       -8.9330    -0.9970     2.6880 H     1 <1>   0.0800 
 49 H       -9.6070    -2.3930     3.4900 H     1 <1>   0.0800 
 50 H      -10.3070    -1.8230     1.9830 H     1 <1>   0.0800 
 51 H       -8.3810    -4.8430     1.0340 H     1 <1>   0.0800 
 52 H       -9.8170    -4.4720     1.9500 H     1 <1>   0.0800 
 53 H       -8.2850    -4.6840     2.7770 H     1 <1>   0.0800 
@<TRIPOS>BOND
  1   1   2  2   
  2   2   3  1   
  3   2   4  1   
  4   3   5  2   
  5   4   6  2   
  6   4  27  1   
  7   5   7  1   
  8   5   8  1   
  9   6   7  1   
 10   6   9  1   
 11   7  28  1   
 12   8  29  1   
 13   8  30  1   
 14   8  31  1   
 15   9  10  1   
 16   9  32  1   
 17   9  33  1   
 18  10  11  1   
 19  10  12  1   
 20  10  34  1   
 21  11  13  1   
 22  11  35  1   
 23  11  36  1   
 24  12  14  1   
 25  12  37  1   
 26  12  38  1   
 27  13  15  1   
 28  13  16  1   
 29  13  17  1   
 30  14  16  1   
 31  14  39  1   
 32  14  40  1   
 33  15  18  ar  
 34  15  19  ar  
 35  16  41  1   
 36  16  42  1   
 37  17  20  1   
 38  17  43  1   
 39  17  44  1   
 40  18  21  ar  
 41  19  20  1   
 42  19  22  ar  
 43  20  45  1   
 44  20  46  1   
 45  21  23  ar  
 46  21  24  1   
 47  22  23  ar  
 48  22  47  1   
 49  24  25  1   
 50  24  26  1   
 51  25  48  1   
 52  25  49  1   
 53  25  50  1   
 54  26  51  1   
 55  26  52  1   
 56  26  53  1   
@<TRIPOS>SUBSTRUCTURE
  1 ****  11 GROUP 4 **** **** 0

# MOE 2024.06 (io_trps.svl 2023.06)
