@<TRIPOS>MOLECULE
NONAME
46 48 1 0 0 
SMALL
USER_CHARGES


@<TRIPOS>ATOM
  1 O       -0.5750     0.2860    -0.6080 O.3   1 <1>  -0.2800 
  2 C       -1.4410     0.6910     0.3150 C.2   1 <1>   0.5620 
  3 C        0.4220     1.1470    -0.5530 C.ar  1 <1>   0.1400 
  4 N       -1.0840     1.7450     0.9660 N.2   1 <1>  -0.5650 
  5 N       -2.6090    -0.0190     0.5020 N.pl3 1 <1>  -0.8220 
  6 C        0.1170     2.0600     0.4230 C.ar  1 <1>   0.2270 
  7 C        1.5940     1.2080    -1.2900 C.ar  1 <1>  -0.1500 
  8 C       -2.9520    -1.2170    -0.3250 C.3   1 <1>   0.2090 
  9 C       -3.6020     0.4040     1.5240 C.3   1 <1>   0.2090 
 10 C        1.0040     3.0940     0.6990 C.ar  1 <1>  -0.1500 
 11 C        2.4750     2.2390    -1.0130 C.ar  1 <1>  -0.1500 
 12 C       -4.3680    -1.0880    -0.9190 C.3   1 <1>   0.2000 
 13 C       -4.9820     0.5480     0.8710 C.3   1 <1>  -0.1600 
 14 C        2.1840     3.1820    -0.0210 C.ar  1 <1>  -0.1440 
 15 O       -4.6900    -2.2620    -1.5990 O.3   1 <1>  -0.6800 
 16 C       -5.4540    -0.7380     0.1410 C.3   1 <1>   0.0000 
 17 C        3.1760     4.2980     0.2530 C.3   1 <1>  -0.0970 
 18 C       -5.5940    -1.9120     1.1520 C.3   1 <1>   0.1200 
 19 C       -6.8430    -0.4990    -0.5230 C.3   1 <1>  -0.1600 
 20 O       -6.4950    -1.6160     2.1660 O.3   1 <1>  -0.6800 
 21 C       -6.9010     0.5470    -1.6530 C.3   1 <1>  -0.1600 
 22 C       -8.3320     0.7020    -2.1740 C.3   1 <1>  -0.2400 
 23 H        1.7950     0.4730    -2.0470 H     1 <1>   0.1500 
 24 H       -2.2550    -1.3260    -1.1370 H     1 <1>   0.0800 
 25 H       -2.8830    -2.0920     0.2950 H     1 <1>   0.0800 
 26 H       -3.6250    -0.3220     2.3170 H     1 <1>   0.0800 
 27 H       -3.3210     1.3490     1.9580 H     1 <1>   0.0800 
 28 H        0.7480     3.8000     1.4670 H     1 <1>   0.1500 
 29 H        3.3940     2.3160    -1.5670 H     1 <1>   0.1500 
 30 H       -4.3200    -0.3080    -1.6570 H     1 <1>   0.0800 
 31 H       -5.6970     0.8420     1.6180 H     1 <1>   0.0800 
 32 H       -4.9090     1.3620     0.1740 H     1 <1>   0.0800 
 33 H       -4.8600    -2.9940    -0.9790 H     1 <1>   0.4000 
 34 H        3.3220     4.8850    -0.6360 H     1 <1>   0.0800 
 35 H        4.1210     3.8820     0.5540 H     1 <1>   0.0800 
 36 H        2.8220     4.9440     1.0360 H     1 <1>   0.0800 
 37 H       -4.6560    -2.1550     1.6170 H     1 <1>   0.0800 
 38 H       -5.9630    -2.7940     0.6570 H     1 <1>   0.0800 
 39 H       -7.1960    -1.4340    -0.9230 H     1 <1>   0.0800 
 40 H       -7.5450    -0.2060     0.2380 H     1 <1>   0.0800 
 41 H       -6.2510    -0.7860     2.6160 H     1 <1>   0.4000 
 42 H       -6.5600     1.5050    -1.3040 H     1 <1>   0.0800 
 43 H       -6.2750     0.2430    -2.4740 H     1 <1>   0.0800 
 44 H       -8.9870     1.0300    -1.3860 H     1 <1>   0.0800 
 45 H       -8.6950    -0.2350    -2.5590 H     1 <1>   0.0800 
 46 H       -8.3590     1.4290    -2.9660 H     1 <1>   0.0800 
@<TRIPOS>BOND
  1   1   2  1   
  2   1   3  1   
  3   2   4  2   
  4   2   5  1   
  5   3   6  ar  
  6   3   7  ar  
  7   4   6  1   
  8   5   8  1   
  9   5   9  1   
 10   6  10  ar  
 11   7  11  ar  
 12   7  23  1   
 13   8  12  1   
 14   8  24  1   
 15   8  25  1   
 16   9  13  1   
 17   9  26  1   
 18   9  27  1   
 19  10  14  ar  
 20  10  28  1   
 21  11  14  ar  
 22  11  29  1   
 23  12  15  1   
 24  12  16  1   
 25  12  30  1   
 26  13  16  1   
 27  13  31  1   
 28  13  32  1   
 29  14  17  1   
 30  15  33  1   
 31  16  18  1   
 32  16  19  1   
 33  17  34  1   
 34  17  35  1   
 35  17  36  1   
 36  18  20  1   
 37  18  37  1   
 38  18  38  1   
 39  19  21  1   
 40  19  39  1   
 41  19  40  1   
 42  20  41  1   
 43  21  22  1   
 44  21  42  1   
 45  21  43  1   
 46  22  44  1   
 47  22  45  1   
 48  22  46  1   
@<TRIPOS>SUBSTRUCTURE
  1 ****   5 GROUP 4 **** **** 0

# MOE 2024.06 (io_trps.svl 2023.06)
