@<TRIPOS>MOLECULE
NONAME
49 50 1 0 0 
SMALL
USER_CHARGES


@<TRIPOS>ATOM
  1 O        0.4150     1.3260    -1.7890 O.2   1 <1>  -0.5700 
  2 C        0.1390     2.4670    -1.5030 C.2   1 <1>   0.5690 
  3 N       -0.8980     2.7880    -0.6690 N.am  1 <1>  -0.6600 
  4 C        0.9810     3.5870    -2.1160 C.3   1 <1>   0.1810 
  5 C       -1.2370     4.2170    -0.3490 C.3   1 <1>   0.3640 
  6 C       -1.7140     1.7460     0.0210 C.3   1 <1>   0.0600 
  7 O        0.9440     4.7630    -1.3480 O.3   1 <1>  -0.5600 
  8 C       -2.7290     4.4570    -0.6190 C.ar  1 <1>  -0.1430 
  9 C       -0.3710     5.2490    -1.1180 C.3   1 <1>   0.2610 
 10 C       -3.5890     4.9880     0.3430 C.ar  1 <1>  -0.1430 
 11 C       -3.2390     4.1290    -1.8710 C.ar  1 <1>  -0.1500 
 12 C       -0.3130     6.5550    -0.3250 C.2   1 <1>   0.5690 
 13 C       -4.9270     5.1800     0.0320 C.ar  1 <1>  -0.1500 
 14 C       -3.1180     5.3770     1.7390 C.3   1 <1>  -0.0960 
 15 C       -4.5740     4.3230    -2.1710 C.ar  1 <1>  -0.1500 
 16 O       -1.1880     7.3780    -0.4600 O.2   1 <1>  -0.5700 
 17 N        0.7330     6.7560     0.5200 N.am  1 <1>  -0.7300 
 18 C       -5.4200     4.8510    -1.2170 C.ar  1 <1>  -0.1500 
 19 C        1.0190     8.0010     1.2730 C.3   1 <1>   0.1400 
 20 C        2.3900     8.6050     0.8860 C.3   1 <1>   0.0000 
 21 C        2.4190     8.9790    -0.6060 C.3   1 <1>  -0.2400 
 22 C        3.5330     7.6190     1.1830 C.3   1 <1>  -0.2400 
 23 C        2.6160     9.8790     1.7130 C.3   1 <1>  -0.2400 
 24 H        0.6250     3.8080    -3.1050 H     1 <1>   0.0800 
 25 H        2.0050     3.2670    -2.1770 H     1 <1>   0.0800 
 26 H       -1.0320     4.3510     0.6960 H     1 <1>   0.0800 
 27 H       -1.7570     1.9520     1.0750 H     1 <1>   0.0800 
 28 H       -1.2840     0.7700    -0.1210 H     1 <1>   0.0800 
 29 H       -2.7140     1.7400    -0.3780 H     1 <1>   0.0800 
 30 H       -0.8140     5.4610    -2.0740 H     1 <1>   0.0800 
 31 H       -2.5950     3.7100    -2.6240 H     1 <1>   0.1500 
 32 H       -5.6010     5.5920     0.7620 H     1 <1>   0.1500 
 33 H       -3.9310     5.7650     2.3260 H     1 <1>   0.0800 
 34 H       -2.3630     6.1400     1.6780 H     1 <1>   0.0800 
 35 H       -2.7190     4.5190     2.2500 H     1 <1>   0.0800 
 36 H       -4.9520     4.0640    -3.1440 H     1 <1>   0.1500 
 37 H        1.5090     6.0900     0.4600 H     1 <1>   0.3700 
 38 H       -6.4600     5.0060    -1.4440 H     1 <1>   0.1500 
 39 H        0.2420     8.7230     1.0810 H     1 <1>   0.0800 
 40 H        1.0070     7.7770     2.3250 H     1 <1>   0.0800 
 41 H        3.3480     9.4570    -0.8600 H     1 <1>   0.0800 
 42 H        1.6130     9.6520    -0.8390 H     1 <1>   0.0800 
 43 H        2.3130     8.1040    -1.2220 H     1 <1>   0.0800 
 44 H        4.4850     8.0770     0.9800 H     1 <1>   0.0800 
 45 H        3.4530     6.7390     0.5710 H     1 <1>   0.0800 
 46 H        3.5150     7.3200     2.2170 H     1 <1>   0.0800 
 47 H        3.5610    10.3300     1.4650 H     1 <1>   0.0800 
 48 H        2.6150     9.6540     2.7650 H     1 <1>   0.0800 
 49 H        1.8390    10.5980     1.5190 H     1 <1>   0.0800 
@<TRIPOS>BOND
  1   1   2  2   
  2   2   3  am  
  3   2   4  1   
  4   3   5  1   
  5   3   6  1   
  6   4   7  1   
  7   4  24  1   
  8   4  25  1   
  9   5   8  1   
 10   5   9  1   
 11   5  26  1   
 12   6  27  1   
 13   6  28  1   
 14   6  29  1   
 15   7   9  1   
 16   8  10  ar  
 17   8  11  ar  
 18   9  12  1   
 19   9  30  1   
 20  10  13  ar  
 21  10  14  1   
 22  11  15  ar  
 23  11  31  1   
 24  12  16  2   
 25  12  17  am  
 26  13  18  ar  
 27  13  32  1   
 28  14  33  1   
 29  14  34  1   
 30  14  35  1   
 31  15  18  ar  
 32  15  36  1   
 33  17  19  1   
 34  17  37  1   
 35  18  38  1   
 36  19  20  1   
 37  19  39  1   
 38  19  40  1   
 39  20  21  1   
 40  20  22  1   
 41  20  23  1   
 42  21  41  1   
 43  21  42  1   
 44  21  43  1   
 45  22  44  1   
 46  22  45  1   
 47  22  46  1   
 48  23  47  1   
 49  23  48  1   
 50  23  49  1   
@<TRIPOS>SUBSTRUCTURE
  1 ****   9 GROUP 4 **** **** 0

# MOE 2024.06 (io_trps.svl 2023.06)
