@<TRIPOS>MOLECULE
NONAME
49 51 1 0 0 
SMALL
USER_CHARGES


@<TRIPOS>ATOM
  1 F        2.7310    -2.5390     2.1140 F     1 <1>  -0.3400 
  2 C        1.8130    -3.3450     2.6420 C.3   1 <1>   1.2010 
  3 F        1.0060    -2.5570     3.3490 F     1 <1>  -0.3400 
  4 F        2.4480    -4.1020     3.5320 F     1 <1>  -0.3400 
  5 C        1.0460    -4.1720     1.5710 C.2   1 <1>   0.1080 
  6 N        1.5510    -5.1230     0.8150 N.2   1 <1>  -0.7070 
  7 C       -0.3020    -3.9850     1.2830 C.2   1 <1>  -0.1500 
  8 N        0.5310    -5.5390     0.0480 N.pl3 1 <1>   0.3000 
  9 C       -0.6190    -4.8780     0.3070 C.2   1 <1>  -0.2370 
 10 C       -1.8620    -5.0880    -0.3790 C.2   1 <1>   0.7150 
 11 O       -2.5450    -4.1180    -0.6440 O.2   1 <1>  -0.5700 
 12 N       -2.3110    -6.3290    -0.7650 N.am  1 <1>  -0.6600 
 13 C       -1.8460    -7.5950    -0.1030 C.3   1 <1>   0.3640 
 14 C       -3.4950    -6.4270    -1.6750 C.3   1 <1>   0.1400 
 15 C       -0.6090    -8.1430    -0.8230 C.ar  1 <1>  -0.1430 
 16 C       -2.9310    -8.7110     0.0420 C.3   1 <1>   0.2000 
 17 C       -3.9240    -7.8740    -1.9360 C.3   1 <1>   0.1200 
 18 C        0.3100    -8.8720    -0.0800 C.ar  1 <1>  -0.1500 
 19 C       -0.3560    -7.9280    -2.1730 C.ar  1 <1>  -0.1500 
 20 O       -4.0990    -8.5130    -0.7150 O.3   1 <1>  -0.5600 
 21 C       -3.3840    -8.8690     1.4990 C.3   1 <1>   0.1200 
 22 C        1.4600    -9.3780    -0.6600 C.ar  1 <1>   0.0830 
 23 C        0.8020    -8.4100    -2.7590 C.ar  1 <1>  -0.1500 
 24 O       -2.3180    -9.2870     2.2920 O.3   1 <1>  -0.6800 
 25 O        2.2800   -10.1130     0.1300 O.3   1 <1>  -0.3630 
 26 C        1.7250    -9.1170    -2.0080 C.ar  1 <1>   0.0830 
 27 C        2.4890   -11.4590    -0.2430 C.3   1 <1>   0.0400 
 28 O        2.8610    -9.5130    -2.6290 O.3   1 <1>  -0.3630 
 29 C        4.0570    -8.9080    -2.1840 C.3   1 <1>   0.0400 
 30 H       -0.9650    -3.2680     1.7380 H     1 <1>   0.1500 
 31 H        0.6340    -6.2970    -0.6450 H     1 <1>   0.2700 
 32 H       -1.5250    -7.3340     0.8920 H     1 <1>   0.0800 
 33 H       -4.3220    -5.8990    -1.2320 H     1 <1>   0.0800 
 34 H       -3.2640    -5.9460    -2.6100 H     1 <1>   0.0800 
 35 H       -2.5170    -9.6490    -0.2820 H     1 <1>   0.0800 
 36 H       -3.1950    -8.4120    -2.5170 H     1 <1>   0.0800 
 37 H       -4.8650    -7.8930    -2.4560 H     1 <1>   0.0800 
 38 H        0.1460    -9.0600     0.9680 H     1 <1>   0.1500 
 39 H       -1.0460    -7.3760    -2.7870 H     1 <1>   0.1500 
 40 H       -4.1700    -9.5990     1.5780 H     1 <1>   0.0800 
 41 H       -3.7300    -7.9240     1.8810 H     1 <1>   0.0800 
 42 H        1.0010    -8.2350    -3.8010 H     1 <1>   0.1500 
 43 H       -2.2230   -10.2610     2.2600 H     1 <1>   0.4000 
 44 H        3.0180   -11.9490     0.5540 H     1 <1>   0.0800 
 45 H        3.0750   -11.4940    -1.1430 H     1 <1>   0.0800 
 46 H        1.5350   -11.9300    -0.3970 H     1 <1>   0.0800 
 47 H        4.8620    -9.2570    -2.8060 H     1 <1>   0.0800 
 48 H        4.2390    -9.1830    -1.1610 H     1 <1>   0.0800 
 49 H        3.9600    -7.8410    -2.2710 H     1 <1>   0.0800 
@<TRIPOS>BOND
  1   1   2  1   
  2   2   3  1   
  3   2   4  1   
  4   2   5  1   
  5   5   6  2   
  6   5   7  1   
  7   6   8  1   
  8   7   9  2   
  9   7  30  1   
 10   8   9  1   
 11   8  31  1   
 12   9  10  1   
 13  10  11  2   
 14  10  12  am  
 15  12  13  1   
 16  12  14  1   
 17  13  15  1   
 18  13  16  1   
 19  13  32  1   
 20  14  17  1   
 21  14  33  1   
 22  14  34  1   
 23  15  18  ar  
 24  15  19  ar  
 25  16  20  1   
 26  16  21  1   
 27  16  35  1   
 28  17  20  1   
 29  17  36  1   
 30  17  37  1   
 31  18  22  ar  
 32  18  38  1   
 33  19  23  ar  
 34  19  39  1   
 35  21  24  1   
 36  21  40  1   
 37  21  41  1   
 38  22  25  1   
 39  22  26  ar  
 40  23  26  ar  
 41  23  42  1   
 42  24  43  1   
 43  25  27  1   
 44  26  28  1   
 45  27  44  1   
 46  27  45  1   
 47  27  46  1   
 48  28  29  1   
 49  29  47  1   
 50  29  48  1   
 51  29  49  1   
@<TRIPOS>SUBSTRUCTURE
  1 ****   8 GROUP 4 **** **** 0

# MOE 2024.06 (io_trps.svl 2023.06)
