@<TRIPOS>MOLECULE
NONAME
56 59 1 0 0 
SMALL
USER_CHARGES


@<TRIPOS>ATOM
  1 O       -0.6370    -1.6270    -2.1900 O.2   1 <1>  -0.5700 
  2 C       -0.3380    -1.8760    -1.0440 C.2   1 <1>   0.5690 
  3 N        0.7760    -1.3380    -0.4450 N.am  1 <1>  -0.6600 
  4 C       -1.2910    -2.8110    -0.2760 C.3   1 <1>   0.4040 
  5 C        1.6720    -0.4230    -1.2090 C.3   1 <1>   0.1400 
  6 C        1.2370    -1.6140     0.9490 C.3   1 <1>   0.0600 
  7 N       -2.6740    -2.9230    -0.8880 N.4   1 <1>  -0.9590 
  8 C        2.7960    -1.2270    -1.8570 C.3   1 <1>  -0.2400 
  9 C       -3.4090    -1.6050    -0.9230 C.3   1 <1>   0.3430 
 10 C       -3.4870    -4.0250    -0.2810 C.3   1 <1>   0.3430 
 11 C       -3.8190    -1.0770     0.4710 C.3   1 <1>   0.1430 
 12 C       -4.4520    -3.5300     0.8100 C.3   1 <1>  -0.1600 
 13 C       -5.1000    -0.2990     0.2460 C.ar  1 <1>   0.1670 
 14 C       -4.0090    -2.2250     1.4950 C.3   1 <1>  -0.1600 
 15 C       -2.8560     0.0160     1.0110 C.3   1 <1>  -0.1600 
 16 N       -6.2530    -0.8360    -0.0650 N.ar  1 <1>  -0.6200 
 17 C       -4.9150     1.0420     0.3700 C.ar  1 <1>  -0.1440 
 18 C       -3.4850     1.3870     0.6970 C.3   1 <1>  -0.0170 
 19 C       -7.2690     0.0220    -0.2350 C.ar  1 <1>   0.6200 
 20 C       -6.0010     1.8560     0.1760 C.ar  1 <1>   0.1600 
 21 N       -7.1760     1.3540    -0.1260 N.ar  1 <1>  -0.6200 
 22 C       -8.5690    -0.5390    -0.5700 C.ar  1 <1>   0.0000 
 23 C       -9.4560     0.1290    -1.4180 C.ar  1 <1>  -0.1500 
 24 C       -8.9880    -1.7700    -0.0600 C.ar  1 <1>  -0.1500 
 25 C      -10.6900    -0.4030    -1.7440 C.ar  1 <1>  -0.1500 
 26 C      -10.2210    -2.3090    -0.3810 C.ar  1 <1>  -0.1500 
 27 C      -11.0750    -1.6250    -1.2260 C.ar  1 <1>  -0.1500 
 28 H       -1.3730    -2.4560     0.7350 H     1 <1>   0.0800 
 29 H       -0.8330    -3.7840    -0.2510 H     1 <1>   0.0800 
 30 H        2.0830     0.3230    -0.5500 H     1 <1>   0.0800 
 31 H        1.1120     0.0890    -1.9750 H     1 <1>   0.0800 
 32 H        0.6180    -2.3400     1.4430 H     1 <1>   0.0800 
 33 H        1.2240    -0.7010     1.5220 H     1 <1>   0.0800 
 34 H        2.2460    -1.9900     0.9310 H     1 <1>   0.0800 
 35 H       -2.4910    -3.1510    -1.8800 H     1 <1>   0.4500 
 36 H        3.3990    -1.7150    -1.1140 H     1 <1>   0.0800 
 37 H        3.4270    -0.5670    -2.4250 H     1 <1>   0.0800 
 38 H        2.3870    -1.9610    -2.5290 H     1 <1>   0.0800 
 39 H       -4.3110    -1.7420    -1.4980 H     1 <1>   0.0800 
 40 H       -2.8210    -0.8590    -1.4330 H     1 <1>   0.0800 
 41 H       -2.8270    -4.7670     0.1370 H     1 <1>   0.0800 
 42 H       -4.0690    -4.5090    -1.0510 H     1 <1>   0.0800 
 43 H       -4.5720    -4.3050     1.5470 H     1 <1>   0.0800 
 44 H       -5.4210    -3.3830     0.3640 H     1 <1>   0.0800 
 45 H       -4.7420    -1.9340     2.2310 H     1 <1>   0.0800 
 46 H       -3.0890    -2.4100     2.0210 H     1 <1>   0.0800 
 47 H       -1.8670    -0.0540     0.5970 H     1 <1>   0.0800 
 48 H       -2.7800    -0.0660     2.0820 H     1 <1>   0.0800 
 49 H       -3.0160     1.8410    -0.1600 H     1 <1>   0.0800 
 50 H       -3.4240     2.0540     1.5400 H     1 <1>   0.0800 
 51 H       -5.9090     2.9260     0.2660 H     1 <1>   0.1500 
 52 H       -9.1720     1.0830    -1.8280 H     1 <1>   0.1500 
 53 H       -8.3380    -2.3130     0.6030 H     1 <1>   0.1500 
 54 H      -11.3520     0.1360    -2.4000 H     1 <1>   0.1500 
 55 H      -10.5170    -3.2590     0.0270 H     1 <1>   0.1500 
 56 H      -12.0360    -2.0410    -1.4780 H     1 <1>   0.1500 
@<TRIPOS>BOND
  1   1   2  2   
  2   2   3  am  
  3   2   4  1   
  4   3   5  1   
  5   3   6  1   
  6   4   7  1   
  7   4  28  1   
  8   4  29  1   
  9   5   8  1   
 10   5  30  1   
 11   5  31  1   
 12   6  32  1   
 13   6  33  1   
 14   6  34  1   
 15   7   9  1   
 16   7  10  1   
 17   7  35  1   
 18   8  36  1   
 19   8  37  1   
 20   8  38  1   
 21   9  11  1   
 22   9  39  1   
 23   9  40  1   
 24  10  12  1   
 25  10  41  1   
 26  10  42  1   
 27  11  13  1   
 28  11  14  1   
 29  11  15  1   
 30  12  14  1   
 31  12  43  1   
 32  12  44  1   
 33  13  16  ar  
 34  13  17  ar  
 35  14  45  1   
 36  14  46  1   
 37  15  18  1   
 38  15  47  1   
 39  15  48  1   
 40  16  19  ar  
 41  17  18  1   
 42  17  20  ar  
 43  18  49  1   
 44  18  50  1   
 45  19  21  ar  
 46  19  22  1   
 47  20  21  ar  
 48  20  51  1   
 49  22  23  ar  
 50  22  24  ar  
 51  23  25  ar  
 52  23  52  1   
 53  24  26  ar  
 54  24  53  1   
 55  25  27  ar  
 56  25  54  1   
 57  26  27  ar  
 58  26  55  1   
 59  27  56  1   
@<TRIPOS>SUBSTRUCTURE
  1 ****  11 GROUP 4 **** **** 0

# MOE 2024.06 (io_trps.svl 2023.06)
