@<TRIPOS>MOLECULE
NONAME
45 46 1 0 0 
SMALL
USER_CHARGES


@<TRIPOS>ATOM
  1 S       -0.6420     0.3270     1.6470 S.o2  1 <1>   1.4470 
  2 O       -1.1420     1.5630     2.2100 O.2   1 <1>  -0.6500 
  3 O       -0.4700    -0.7850     2.5550 O.2   1 <1>  -0.6500 
  4 N       -1.7180    -0.1210     0.4120 N.am  1 <1>  -0.8490 
  5 C        0.9290     0.6650     0.8200 C.ar  1 <1>  -0.0090 
  6 C       -1.3110    -1.1150    -0.6110 C.3   1 <1>   0.1960 
  7 C       -3.1360    -0.1250     0.7610 C.3   1 <1>   0.1960 
  8 C        1.0320     1.6260    -0.1720 C.ar  1 <1>   0.1900 
  9 C        2.0930    -0.0250     1.1450 C.ar  1 <1>  -0.1500 
 10 C       -1.8160    -2.5630    -0.3880 C.3   1 <1>  -0.1060 
 11 C       -3.6320    -1.5300     1.0950 C.3   1 <1>  -0.1600 
 12 F       -0.0210     2.3140    -0.5200 F     1 <1>  -0.1900 
 13 C        2.2160     1.9060    -0.8310 C.ar  1 <1>  -0.1500 
 14 C        3.2910     0.2390     0.4980 C.ar  1 <1>  -0.1500 
 15 C       -1.6820    -3.3140    -1.7180 C.2   1 <1>   0.9060 
 16 C       -3.3240    -2.4650    -0.0720 C.3   1 <1>   0.2000 
 17 C       -1.0270    -3.3420     0.7130 C.3   1 <1>  -0.1600 
 18 C        3.3610     1.2050    -0.4930 C.ar  1 <1>  -0.1440 
 19 O       -0.9320    -2.8750    -2.5980 O.co2 1 <1>  -0.9000 
 20 O       -2.3410    -4.3510    -1.8890 O.co2 1 <1>  -0.9000 
 21 O       -3.8450    -3.7110     0.2090 O.3   1 <1>  -0.6800 
 22 C        0.4890    -3.4470     0.4730 C.3   1 <1>  -0.1600 
 23 C        4.6750     1.4820    -1.2000 C.3   1 <1>  -0.0970 
 24 C        1.1660    -4.2310     1.6000 C.3   1 <1>  -0.2400 
 25 H       -1.7270    -0.7740    -1.5450 H     1 <1>   0.0800 
 26 H       -0.2460    -1.1070    -0.7530 H     1 <1>   0.0800 
 27 H       -3.3230     0.5370     1.5900 H     1 <1>   0.0800 
 28 H       -3.6920     0.2480    -0.0820 H     1 <1>   0.0800 
 29 H        2.0610    -0.7820     1.9120 H     1 <1>   0.1500 
 30 H       -4.6940    -1.4980     1.2520 H     1 <1>   0.0800 
 31 H       -3.1660    -1.8740     2.0000 H     1 <1>   0.0800 
 32 H        2.2280     2.6610    -1.5970 H     1 <1>   0.1500 
 33 H        4.1710    -0.3180     0.7700 H     1 <1>   0.1500 
 34 H       -3.8370    -2.1100    -0.9500 H     1 <1>   0.0800 
 35 H       -1.2070    -2.9110     1.6760 H     1 <1>   0.0800 
 36 H       -1.4150    -4.3450     0.7560 H     1 <1>   0.0800 
 37 H       -3.4840    -4.3050    -0.5110 H     1 <1>   0.4000 
 38 H        0.6740    -3.9430    -0.4660 H     1 <1>   0.0800 
 39 H        0.9300    -2.4710     0.4230 H     1 <1>   0.0800 
 40 H        5.4910     1.4390    -0.5010 H     1 <1>   0.0800 
 41 H        4.6660     2.4590    -1.6510 H     1 <1>   0.0800 
 42 H        4.8360     0.7480    -1.9680 H     1 <1>   0.0800 
 43 H        0.7610    -5.2260     1.6560 H     1 <1>   0.0800 
 44 H        1.0070    -3.7360     2.5430 H     1 <1>   0.0800 
 45 H        2.2230    -4.2990     1.4170 H     1 <1>   0.0800 
@<TRIPOS>BOND
  1   1   2  2   
  2   1   3  2   
  3   1   4  am  
  4   1   5  1   
  5   4   6  1   
  6   4   7  1   
  7   5   8  ar  
  8   5   9  ar  
  9   6  10  1   
 10   6  25  1   
 11   6  26  1   
 12   7  11  1   
 13   7  27  1   
 14   7  28  1   
 15   8  12  1   
 16   8  13  ar  
 17   9  14  ar  
 18   9  29  1   
 19  10  15  1   
 20  10  16  1   
 21  10  17  1   
 22  11  16  1   
 23  11  30  1   
 24  11  31  1   
 25  13  18  ar  
 26  13  32  1   
 27  14  18  ar  
 28  14  33  1   
 29  15  19  ar  
 30  15  20  ar  
 31  16  21  1   
 32  16  34  1   
 33  17  22  1   
 34  17  35  1   
 35  17  36  1   
 36  18  23  1   
 37  21  37  1   
 38  22  24  1   
 39  22  38  1   
 40  22  39  1   
 41  23  40  1   
 42  23  41  1   
 43  23  42  1   
 44  24  43  1   
 45  24  44  1   
 46  24  45  1   
@<TRIPOS>SUBSTRUCTURE
  1 ****   6 GROUP 4 **** **** 0

# MOE 2024.06 (io_trps.svl 2023.06)
