@<TRIPOS>MOLECULE
NONAME
16 16 1 0 0 
SMALL
USER_CHARGES


@<TRIPOS>ATOM
  1 O        4.7050     2.2660    -0.1720 O.co2 1 <1>  -0.9000 
  2 C        4.4940     1.2800     0.5460 C.2   1 <1>   0.9060 
  3 O        4.0040     1.3770     1.6740 O.co2 1 <1>  -0.9000 
  4 C        4.8230    -0.0980    -0.0050 C.3   1 <1>  -0.0860 
  5 C        6.2780    -0.5620     0.1610 C.2   1 <1>  -0.3320 
  6 N        7.3680     0.1130    -0.2220 N.pl3 1 <1>   0.3140 
  7 C        6.7580    -1.6930     0.6990 C.2   1 <1>   0.0770 
  8 N        8.4620    -0.6090     0.0610 N.2   1 <1>  -0.4180 
  9 C        7.4500     1.4390    -0.8500 C.3   1 <1>   0.0160 
 10 N        8.0930    -1.7070     0.6240 N.2   1 <1>  -0.2270 
 11 H        4.5740    -0.0890    -1.0490 H     1 <1>   0.0800 
 12 H        4.1690    -0.7970     0.4790 H     1 <1>   0.0800 
 13 H        6.2070    -2.5050     1.1370 H     1 <1>   0.1500 
 14 H        6.7080     1.5140    -1.6220 H     1 <1>   0.0800 
 15 H        8.4290     1.5790    -1.2670 H     1 <1>   0.0800 
 16 H        7.2620     2.1890    -0.1040 H     1 <1>   0.0800 
@<TRIPOS>BOND
  1   1   2  ar  
  2   2   3  ar  
  3   2   4  1   
  4   4   5  1   
  5   4  11  1   
  6   4  12  1   
  7   5   6  1   
  8   5   7  2   
  9   6   8  1   
 10   6   9  1   
 11   7  10  1   
 12   7  13  1   
 13   8  10  2   
 14   9  14  1   
 15   9  15  1   
 16   9  16  1   
@<TRIPOS>SUBSTRUCTURE
  1 ****   5 GROUP 4 **** **** 0

# MOE 2024.06 (io_trps.svl 2023.06)
