@<TRIPOS>MOLECULE
NONAME
47 49 1 0 0 
SMALL
USER_CHARGES


@<TRIPOS>ATOM
  1 S       -0.5720    -1.0970    -0.4860 S.3   1 <1>  -0.0800 
  2 C       -1.5500    -1.6050     0.8850 C.2   1 <1>  -0.1400 
  3 C       -1.3360     0.4810    -0.5020 C.2   1 <1>  -0.1100 
  4 C       -2.3780    -0.6130     1.2670 C.2   1 <1>  -0.1500 
  5 C       -1.3290    -3.0110     1.3960 C.3   1 <1>   0.5230 
  6 C       -2.2550     0.5730     0.4750 C.2   1 <1>  -0.1500 
  7 N       -1.5560    -3.9580     0.2570 N.4   1 <1>  -0.9590 
  8 C       -2.9710    -3.8200    -0.2650 C.3   1 <1>   0.3430 
  9 C       -1.0860    -5.3250     0.6190 C.3   1 <1>   0.3430 
 10 C       -3.3920    -4.7930    -1.4040 C.3   1 <1>   0.3430 
 11 C       -0.8700    -6.1530    -0.6460 C.3   1 <1>  -0.1600 
 12 N       -3.3950    -6.2460    -0.9940 N.4   1 <1>  -0.9590 
 13 C       -2.0820    -6.9550    -1.1310 C.3   1 <1>   0.3430 
 14 C       -4.4400    -7.0070    -1.7520 C.3   1 <1>   0.4860 
 15 C       -4.6790    -8.3130    -1.0170 C.ar  1 <1>  -0.1430 
 16 C       -5.4040    -8.3270     0.1650 C.ar  1 <1>  -0.1500 
 17 C       -4.1740    -9.5090    -1.5110 C.ar  1 <1>  -0.1500 
 18 C       -5.5850    -9.5230     0.8330 C.ar  1 <1>   0.1900 
 19 C       -4.3700   -10.7000    -0.8270 C.ar  1 <1>  -0.1500 
 20 F       -6.2570    -9.4830     1.9500 F     1 <1>  -0.1900 
 21 C       -5.0820   -10.7270     0.3700 C.ar  1 <1>  -0.1430 
 22 C       -5.3200   -12.0140     1.1670 C.3   1 <1>   1.1630 
 23 F       -4.7730   -13.0760     0.5880 F     1 <1>  -0.3400 
 24 F       -6.6080   -12.2960     1.3080 F     1 <1>  -0.3400 
 25 F       -4.8010   -11.9540     2.3860 F     1 <1>  -0.3400 
 26 H       -1.0100     1.1880    -1.2480 H     1 <1>   0.1500 
 27 H       -3.0830    -0.6400     2.0830 H     1 <1>   0.1500 
 28 H       -2.0060    -3.2190     2.2090 H     1 <1>   0.0800 
 29 H       -0.3170    -3.0960     1.7590 H     1 <1>   0.0800 
 30 H       -2.8590     1.4420     0.6800 H     1 <1>   0.1500 
 31 H       -0.9200    -3.5870    -0.4680 H     1 <1>   0.4500 
 32 H       -3.1010    -2.8140    -0.6360 H     1 <1>   0.0800 
 33 H       -3.6640    -3.9370     0.5510 H     1 <1>   0.0800 
 34 H       -1.7780    -5.8110     1.2890 H     1 <1>   0.0800 
 35 H       -0.1370    -5.2420     1.1300 H     1 <1>   0.0800 
 36 H       -2.7510    -4.6490    -2.2590 H     1 <1>   0.0800 
 37 H       -4.3890    -4.5140    -1.7060 H     1 <1>   0.0800 
 38 H       -0.0980    -6.8730    -0.4350 H     1 <1>   0.0800 
 39 H       -0.4880    -5.5390    -1.4430 H     1 <1>   0.0800 
 40 H       -3.7000    -6.3350    -0.0150 H     1 <1>   0.4500 
 41 H       -2.1290    -7.8790    -0.5740 H     1 <1>   0.0800 
 42 H       -1.9190    -7.2210    -2.1650 H     1 <1>   0.0800 
 43 H       -4.1170    -7.1980    -2.7630 H     1 <1>   0.0800 
 44 H       -5.3640    -6.4510    -1.7870 H     1 <1>   0.0800 
 45 H       -5.8430    -7.4380     0.5850 H     1 <1>   0.1500 
 46 H       -3.6250    -9.5390    -2.4390 H     1 <1>   0.1500 
 47 H       -3.9640   -11.6110    -1.2400 H     1 <1>   0.1500 
@<TRIPOS>BOND
  1   1   2  1   
  2   1   3  1   
  3   2   4  2   
  4   2   5  1   
  5   3   6  2   
  6   3  26  1   
  7   4   6  1   
  8   4  27  1   
  9   5   7  1   
 10   5  28  1   
 11   5  29  1   
 12   6  30  1   
 13   7   8  1   
 14   7   9  1   
 15   7  31  1   
 16   8  10  1   
 17   8  32  1   
 18   8  33  1   
 19   9  11  1   
 20   9  34  1   
 21   9  35  1   
 22  10  12  1   
 23  10  36  1   
 24  10  37  1   
 25  11  13  1   
 26  11  38  1   
 27  11  39  1   
 28  12  13  1   
 29  12  14  1   
 30  12  40  1   
 31  13  41  1   
 32  13  42  1   
 33  14  15  1   
 34  14  43  1   
 35  14  44  1   
 36  15  16  ar  
 37  15  17  ar  
 38  16  18  ar  
 39  16  45  1   
 40  17  19  ar  
 41  17  46  1   
 42  18  20  1   
 43  18  21  ar  
 44  19  21  ar  
 45  19  47  1   
 46  21  22  1   
 47  22  23  1   
 48  22  24  1   
 49  22  25  1   
@<TRIPOS>SUBSTRUCTURE
  1 ****  12 GROUP 4 **** **** 0

# MOE 2024.06 (io_trps.svl 2023.06)
