@<TRIPOS>MOLECULE
NONAME
51 53 1 0 0 
SMALL
USER_CHARGES


@<TRIPOS>ATOM
  1 O       -0.7340     0.1310     0.4490 O.2   1 <1>  -0.5700 
  2 C       -1.6070     0.8590     0.0370 C.2   1 <1>   0.5690 
  3 N       -2.7450     0.3300    -0.5200 N.am  1 <1>  -0.6600 
  4 C       -1.4350     2.3650     0.1730 C.3   1 <1>  -0.0990 
  5 C       -2.8530    -1.1350    -0.7670 C.3   1 <1>   0.1400 
  6 C       -4.0250     1.0680    -0.7080 C.3   1 <1>   0.1400 
  7 C        0.0010     2.7950     0.5070 C.3   1 <1>  -0.0160 
  8 C       -3.8830    -1.7440     0.2100 C.3   1 <1>   0.4230 
  9 C       -5.0580     0.4870     0.2670 C.3   1 <1>  -0.1600 
 10 C        0.0910     4.3100     0.5930 C.ar  1 <1>  -0.1440 
 11 N       -3.9470    -3.2660     0.1710 N.4   1 <1>  -0.9590 
 12 C       -5.2740    -1.0470     0.1050 C.3   1 <1>   0.0000 
 13 C       -0.1250     4.9870     1.7760 C.ar  1 <1>  -0.1500 
 14 C        0.3890     5.0870    -0.5080 C.ar  1 <1>  -0.1500 
 15 C       -5.1900    -3.8420     0.7800 C.3   1 <1>   0.3430 
 16 C       -3.6980    -3.8900    -1.1700 C.3   1 <1>   0.2630 
 17 C       -6.1850    -1.5480     1.2650 C.3   1 <1>  -0.1600 
 18 C       -5.9290    -1.3580    -1.2720 C.3   1 <1>   0.1200 
 19 C       -0.0370     6.3690     1.7990 C.ar  1 <1>   0.1600 
 20 C        0.4530     6.4640    -0.3770 C.ar  1 <1>   0.1600 
 21 C       -5.7620    -2.9110     1.8470 C.3   1 <1>  -0.1600 
 22 O       -7.0590    -0.5880    -1.4880 O.3   1 <1>  -0.6800 
 23 N        0.2450     7.1250     0.7500 N.ar  1 <1>  -0.6200 
 24 H       -1.7210     2.8280    -0.7530 H     1 <1>   0.0800 
 25 H       -2.0930     2.7160     0.9460 H     1 <1>   0.0800 
 26 H       -3.1440    -1.2860    -1.7900 H     1 <1>   0.0800 
 27 H       -1.8980    -1.6080    -0.6190 H     1 <1>   0.0800 
 28 H       -3.9050     2.1200    -0.5130 H     1 <1>   0.0800 
 29 H       -4.3610     0.9620    -1.7260 H     1 <1>   0.0800 
 30 H        0.6750     2.4330    -0.2500 H     1 <1>   0.0800 
 31 H        0.3040     2.3630     1.4450 H     1 <1>   0.0800 
 32 H       -3.5150    -1.4860     1.1890 H     1 <1>   0.0800 
 33 H       -4.7160     0.7060     1.2640 H     1 <1>   0.0800 
 34 H       -5.9870     1.0160     0.1410 H     1 <1>   0.0800 
 35 H       -3.1700    -3.5650     0.7810 H     1 <1>   0.4500 
 36 H       -0.3590     4.4540     2.6790 H     1 <1>   0.1500 
 37 H        0.5740     4.6350    -1.4660 H     1 <1>   0.1500 
 38 H       -5.9380    -3.9850     0.0160 H     1 <1>   0.0800 
 39 H       -4.9720    -4.8060     1.2140 H     1 <1>   0.0800 
 40 H       -4.4520    -3.5840    -1.8770 H     1 <1>   0.0800 
 41 H       -3.7200    -4.9660    -1.0910 H     1 <1>   0.0800 
 42 H       -2.7300    -3.6020    -1.5490 H     1 <1>   0.0800 
 43 H       -6.1880    -0.8400     2.0780 H     1 <1>   0.0800 
 44 H       -7.2060    -1.6140     0.9290 H     1 <1>   0.0800 
 45 H       -6.2250    -2.3890    -1.3470 H     1 <1>   0.0800 
 46 H       -5.2580    -1.1390    -2.0830 H     1 <1>   0.0800 
 47 H       -0.2080     6.8800     2.7320 H     1 <1>   0.1500 
 48 H        0.6870     7.0540    -1.2470 H     1 <1>   0.1500 
 49 H       -6.6160    -3.3780     2.3050 H     1 <1>   0.0800 
 50 H       -5.0280    -2.7710     2.6220 H     1 <1>   0.0800 
 51 H       -7.7730    -0.7870    -0.8500 H     1 <1>   0.4000 
@<TRIPOS>BOND
  1   1   2  2   
  2   2   3  am  
  3   2   4  1   
  4   3   5  1   
  5   3   6  1   
  6   4   7  1   
  7   4  24  1   
  8   4  25  1   
  9   5   8  1   
 10   5  26  1   
 11   5  27  1   
 12   6   9  1   
 13   6  28  1   
 14   6  29  1   
 15   7  10  1   
 16   7  30  1   
 17   7  31  1   
 18   8  11  1   
 19   8  12  1   
 20   8  32  1   
 21   9  12  1   
 22   9  33  1   
 23   9  34  1   
 24  10  13  ar  
 25  10  14  ar  
 26  11  15  1   
 27  11  16  1   
 28  11  35  1   
 29  12  17  1   
 30  12  18  1   
 31  13  19  ar  
 32  13  36  1   
 33  14  20  ar  
 34  14  37  1   
 35  15  21  1   
 36  15  38  1   
 37  15  39  1   
 38  16  40  1   
 39  16  41  1   
 40  16  42  1   
 41  17  21  1   
 42  17  43  1   
 43  17  44  1   
 44  18  22  1   
 45  18  45  1   
 46  18  46  1   
 47  19  23  ar  
 48  19  47  1   
 49  20  23  ar  
 50  20  48  1   
 51  21  49  1   
 52  21  50  1   
 53  22  51  1   
@<TRIPOS>SUBSTRUCTURE
  1 ****   3 GROUP 4 **** **** 0

# MOE 2024.06 (io_trps.svl 2023.06)
