@<TRIPOS>MOLECULE
NONAME
47 50 1 0 0 
SMALL
USER_CHARGES


@<TRIPOS>ATOM
  1 S       -0.7040    -1.3190    -1.7500 S.3   1 <1>  -0.0800 
  2 C       -1.9450    -0.6670    -0.6750 C.2   1 <1>   0.0400 
  3 C       -0.0500     0.2720    -2.0780 C.2   1 <1>  -0.1100 
  4 C       -2.8690    -1.5720    -0.0500 C.2   1 <1>   0.4780 
  5 C       -1.8060     0.6820    -0.6200 C.2   1 <1>  -0.1500 
  6 C       -0.7420     1.2110    -1.4080 C.2   1 <1>  -0.1500 
  7 O       -3.8210    -1.0930     0.7320 O.3   1 <1>  -0.2800 
  8 N       -2.9150    -2.8680    -0.1530 N.2   1 <1>  -0.5650 
  9 C       -4.5090    -2.1120     1.1570 C.2   1 <1>  -0.0400 
 10 C       -3.9600    -3.2140     0.6250 C.2   1 <1>   0.0460 
 11 C       -5.6830    -1.8640     2.0830 C.3   1 <1>  -0.0600 
 12 C       -4.3580    -4.6740     0.7640 C.3   1 <1>   0.5240 
 13 N       -4.2870    -5.2980    -0.5870 N.4   1 <1>  -0.9590 
 14 C       -5.4210    -4.8320    -1.4410 C.3   1 <1>   0.3430 
 15 C       -4.3620    -6.7870    -0.5230 C.3   1 <1>   0.3430 
 16 C       -6.4830    -5.9280    -1.3270 C.3   1 <1>   0.2000 
 17 C       -5.6290    -7.1960    -1.2860 C.3   1 <1>  -0.0800 
 18 O       -7.1520    -5.7680    -0.1140 O.3   1 <1>  -0.6800 
 19 C       -6.2970    -8.4640    -0.7180 C.3   1 <1>   0.0200 
 20 C       -5.2760    -9.5740    -0.5680 C.2   1 <1>  -0.0400 
 21 O       -4.4730    -9.8560    -1.5590 O.3   1 <1>  -0.0190 
 22 C       -4.9750   -10.3920     0.4520 C.2   1 <1>  -0.1500 
 23 N       -3.6410   -10.8050    -1.2520 N.2   1 <1>  -0.4100 
 24 C       -3.9250   -11.1560    -0.0490 C.2   1 <1>   0.1080 
 25 C       -3.2090   -12.2540     0.7070 C.3   1 <1>  -0.0590 
 26 H        0.7930     0.3380    -2.7440 H     1 <1>   0.1500 
 27 H       -2.4350     1.3320    -0.0370 H     1 <1>   0.1500 
 28 H       -0.5430     2.2690    -1.4360 H     1 <1>   0.1500 
 29 H       -6.1670    -2.7860     2.3490 H     1 <1>   0.0800 
 30 H       -6.3990    -1.2230     1.5990 H     1 <1>   0.0800 
 31 H       -5.3420    -1.3790     2.9800 H     1 <1>   0.0800 
 32 H       -5.3490    -4.7610     1.1770 H     1 <1>   0.0800 
 33 H       -3.6580    -5.1570     1.4250 H     1 <1>   0.0800 
 34 H       -3.3950    -4.9510    -0.9810 H     1 <1>   0.4500 
 35 H       -5.8050    -3.8730    -1.1310 H     1 <1>   0.0800 
 36 H       -5.0920    -4.7640    -2.4650 H     1 <1>   0.0800 
 37 H       -3.4920    -7.2430    -0.9680 H     1 <1>   0.0800 
 38 H       -4.4370    -7.1100     0.5030 H     1 <1>   0.0800 
 39 H       -7.1970    -5.9010    -2.1340 H     1 <1>   0.0800 
 40 H       -5.3230    -7.4140    -2.2960 H     1 <1>   0.0800 
 41 H       -8.0230    -6.2210    -0.1300 H     1 <1>   0.4000 
 42 H       -7.0760    -8.7930    -1.3830 H     1 <1>   0.0800 
 43 H       -6.7350    -8.2760     0.2470 H     1 <1>   0.0800 
 44 H       -5.4090   -10.4730     1.4320 H     1 <1>   0.1500 
 45 H       -2.7760   -11.8590     1.6080 H     1 <1>   0.0800 
 46 H       -2.4260   -12.6700     0.0990 H     1 <1>   0.0800 
 47 H       -3.9020   -13.0350     0.9600 H     1 <1>   0.0800 
@<TRIPOS>BOND
  1   1   2  1   
  2   1   3  1   
  3   2   4  1   
  4   2   5  2   
  5   3   6  2   
  6   3  26  1   
  7   4   7  1   
  8   4   8  2   
  9   5   6  1   
 10   5  27  1   
 11   6  28  1   
 12   7   9  1   
 13   8  10  1   
 14   9  10  2   
 15   9  11  1   
 16  10  12  1   
 17  11  29  1   
 18  11  30  1   
 19  11  31  1   
 20  12  13  1   
 21  12  32  1   
 22  12  33  1   
 23  13  14  1   
 24  13  15  1   
 25  13  34  1   
 26  14  16  1   
 27  14  35  1   
 28  14  36  1   
 29  15  17  1   
 30  15  37  1   
 31  15  38  1   
 32  16  17  1   
 33  16  18  1   
 34  16  39  1   
 35  17  19  1   
 36  17  40  1   
 37  18  41  1   
 38  19  20  1   
 39  19  42  1   
 40  19  43  1   
 41  20  21  1   
 42  20  22  2   
 43  21  23  1   
 44  22  24  1   
 45  22  44  1   
 46  23  24  2   
 47  24  25  1   
 48  25  45  1   
 49  25  46  1   
 50  25  47  1   
@<TRIPOS>SUBSTRUCTURE
  1 ****  13 GROUP 4 **** **** 0

# MOE 2024.06 (io_trps.svl 2023.06)
