@<TRIPOS>MOLECULE
NONAME
50 53 1 0 0 
SMALL
USER_CHARGES


@<TRIPOS>ATOM
  1 S        4.1870    -3.5520    -1.8290 S.3   1 <1>  -0.0800 
  2 C        4.6590    -3.8430    -0.1700 C.2   1 <1>   0.2280 
  3 C        2.5240    -3.5150    -1.3180 C.2   1 <1>  -0.1100 
  4 N        3.6880    -3.8950     0.6540 N.2   1 <1>  -0.5650 
  5 C        2.4690    -3.7200     0.0080 C.2   1 <1>   0.0460 
  6 C        1.1930    -3.7900     0.8370 C.3   1 <1>   0.3210 
  7 N        0.6130    -5.1690     0.7880 N.am  1 <1>  -0.6600 
  8 C       -0.4450    -5.4240    -0.0460 C.2   1 <1>   0.5690 
  9 C        1.3990    -6.1890     1.5650 C.3   1 <1>   0.1400 
 10 O       -0.9370    -4.5430    -0.7100 O.2   1 <1>  -0.5700 
 11 C       -1.0680    -6.7960    -0.2140 C.3   1 <1>  -0.0990 
 12 C        1.6510    -7.5560     0.8650 C.3   1 <1>   0.2800 
 13 C       -0.7790    -7.8010     0.8960 C.3   1 <1>   0.1200 
 14 O        0.4960    -8.3510     0.7590 O.3   1 <1>  -0.5600 
 15 C        2.6160    -8.3800     1.7490 C.3   1 <1>  -0.1600 
 16 C        2.2090    -7.4040    -0.5710 C.3   1 <1>  -0.1600 
 17 C        3.5160    -9.3080     0.9320 C.3   1 <1>   0.1400 
 18 C        3.7310    -7.2860    -0.5890 C.3   1 <1>   0.1400 
 19 N        4.3700    -8.4830     0.0260 N.am  1 <1>  -0.6600 
 20 C        5.7030    -8.7920    -0.2030 C.2   1 <1>   0.7160 
 21 O        6.1130    -9.8640     0.2160 O.2   1 <1>  -0.5700 
 22 C        6.6150    -7.9070    -0.9360 C.2   1 <1>   0.1410 
 23 N        6.6170    -6.5370    -0.8290 N.2   1 <1>  -0.5650 
 24 C        7.6050    -8.2630    -1.8150 C.2   1 <1>  -0.3320 
 25 C        7.5650    -6.1380    -1.6040 C.2   1 <1>   0.0360 
 26 N        8.2050    -7.1410    -2.2310 N.pl3 1 <1>   0.0330 
 27 C        8.0380    -9.6380    -2.3030 C.3   1 <1>  -0.0600 
 28 H        5.7110    -3.9610     0.0270 H     1 <1>   0.1500 
 29 H        1.7610    -3.3570    -2.0590 H     1 <1>   0.1500 
 30 H        0.4890    -3.0700     0.4570 H     1 <1>   0.0800 
 31 H        1.4090    -3.5210     1.8560 H     1 <1>   0.0800 
 32 H        0.9260    -6.3530     2.5170 H     1 <1>   0.0800 
 33 H        2.3640    -5.7700     1.7840 H     1 <1>   0.0800 
 34 H       -0.7700    -7.2070    -1.1600 H     1 <1>   0.0800 
 35 H       -2.1310    -6.6500    -0.2530 H     1 <1>   0.0800 
 36 H       -1.4720    -8.6210     0.8150 H     1 <1>   0.0800 
 37 H       -0.8940    -7.3700     1.8760 H     1 <1>   0.0800 
 38 H        2.0560    -8.9540     2.4650 H     1 <1>   0.0800 
 39 H        3.2680    -7.7310     2.3050 H     1 <1>   0.0800 
 40 H        1.8030    -6.5420    -1.0620 H     1 <1>   0.0800 
 41 H        1.9390    -8.2620    -1.1610 H     1 <1>   0.0800 
 42 H        2.9200    -9.9860     0.3460 H     1 <1>   0.0800 
 43 H        4.1310    -9.8880     1.5990 H     1 <1>   0.0800 
 44 H        4.0310    -6.4180    -0.0320 H     1 <1>   0.0800 
 45 H        4.0720    -7.1730    -1.6040 H     1 <1>   0.0800 
 46 H        7.8390    -5.1080    -1.7530 H     1 <1>   0.1500 
 47 H        8.9890    -7.0560    -2.8840 H     1 <1>   0.2700 
 48 H        7.3740   -10.4020    -1.9380 H     1 <1>   0.0800 
 49 H        9.0300    -9.8590    -1.9520 H     1 <1>   0.0800 
 50 H        8.0290    -9.6730    -3.3770 H     1 <1>   0.0800 
@<TRIPOS>BOND
  1   1   2  1   
  2   1   3  1   
  3   2   4  2   
  4   2  28  1   
  5   3   5  2   
  6   3  29  1   
  7   4   5  1   
  8   5   6  1   
  9   6   7  1   
 10   6  30  1   
 11   6  31  1   
 12   7   8  am  
 13   7   9  1   
 14   8  10  2   
 15   8  11  1   
 16   9  12  1   
 17   9  32  1   
 18   9  33  1   
 19  11  13  1   
 20  11  34  1   
 21  11  35  1   
 22  12  14  1   
 23  12  15  1   
 24  12  16  1   
 25  13  14  1   
 26  13  36  1   
 27  13  37  1   
 28  15  17  1   
 29  15  38  1   
 30  15  39  1   
 31  16  18  1   
 32  16  40  1   
 33  16  41  1   
 34  17  19  1   
 35  17  42  1   
 36  17  43  1   
 37  18  19  1   
 38  18  44  1   
 39  18  45  1   
 40  19  20  am  
 41  20  21  2   
 42  20  22  1   
 43  22  23  1   
 44  22  24  2   
 45  23  25  2   
 46  24  26  1   
 47  24  27  1   
 48  25  26  1   
 49  25  46  1   
 50  26  47  1   
 51  27  48  1   
 52  27  49  1   
 53  27  50  1   
@<TRIPOS>SUBSTRUCTURE
  1 ****  18 GROUP 4 **** **** 0

# MOE 2024.06 (io_trps.svl 2023.06)
