@<TRIPOS>MOLECULE
NONAME
52 53 1 0 0 
SMALL
USER_CHARGES


@<TRIPOS>ATOM
  1 O       -0.4150     1.3670    -1.6090 O.2   1 <1>  -0.5700 
  2 C       -0.5620     2.5260    -1.2990 C.2   1 <1>   0.5690 
  3 N       -1.3690     2.9460    -0.2710 N.am  1 <1>  -0.6600 
  4 C        0.1900     3.5750    -2.1110 C.3   1 <1>   0.1810 
  5 C       -1.5120     4.4110     0.0330 C.3   1 <1>   0.3640 
  6 C       -2.0930     2.0430     0.6650 C.3   1 <1>   0.2200 
  7 O        0.5700     4.6650    -1.3150 O.3   1 <1>  -0.5600 
  8 C       -2.9500     4.8490    -0.2600 C.ar  1 <1>  -0.1440 
  9 C       -0.5210     5.3500    -0.7120 C.3   1 <1>   0.2610 
 10 C       -1.0940     1.2270     1.4850 C.3   1 <1>  -0.2400 
 11 C       -3.0890     1.1490    -0.0760 C.3   1 <1>  -0.2400 
 12 C       -3.6240     5.6530     0.6480 C.ar  1 <1>  -0.1500 
 13 C       -3.6000     4.4670    -1.4280 C.ar  1 <1>  -0.1500 
 14 C       -0.0030     6.4150     0.2620 C.2   1 <1>   0.5690 
 15 C       -4.9220     6.0630     0.3990 C.ar  1 <1>  -0.1500 
 16 C       -4.8980     4.8760    -1.6780 C.ar  1 <1>  -0.1500 
 17 O       -0.7900     7.1240     0.8450 O.2   1 <1>  -0.5700 
 18 N        1.3370     6.5310     0.4570 N.am  1 <1>  -0.7300 
 19 C       -5.5610     5.6740    -0.7640 C.ar  1 <1>  -0.1500 
 20 C        2.0250     7.5430     1.2940 C.3   1 <1>   0.1400 
 21 C        3.0790     8.3380     0.4890 C.3   1 <1>   0.0000 
 22 C        2.4140     9.1140    -0.6600 C.3   1 <1>  -0.2400 
 23 C        4.1570     7.4030    -0.0870 C.3   1 <1>  -0.2400 
 24 C        3.7580     9.3450     1.4290 C.3   1 <1>  -0.2400 
 25 H       -0.4260     3.9280    -2.9180 H     1 <1>   0.0800 
 26 H        1.0840     3.1370    -2.5160 H     1 <1>   0.0800 
 27 H       -1.3370     4.5300     1.0890 H     1 <1>   0.0800 
 28 H       -2.6620     2.6460     1.3540 H     1 <1>   0.0800 
 29 H       -1.0440     5.8630    -1.4990 H     1 <1>   0.0800 
 30 H       -0.5440     0.5520     0.8550 H     1 <1>   0.0800 
 31 H       -1.6170     0.6470     2.2230 H     1 <1>   0.0800 
 32 H       -0.4070     1.8810     1.9900 H     1 <1>   0.0800 
 33 H       -2.5850     0.4560    -0.7240 H     1 <1>   0.0800 
 34 H       -3.7680     1.7480    -0.6530 H     1 <1>   0.0800 
 35 H       -3.6630     0.5830     0.6340 H     1 <1>   0.0800 
 36 H       -3.1400     5.9750     1.5560 H     1 <1>   0.1500 
 37 H       -3.1030     3.8420    -2.1480 H     1 <1>   0.1500 
 38 H       -5.4330     6.6880     1.1110 H     1 <1>   0.1500 
 39 H       -5.3940     4.5710    -2.5840 H     1 <1>   0.1500 
 40 H        1.9400     5.9100    -0.0910 H     1 <1>   0.3700 
 41 H       -6.5710     5.9930    -0.9570 H     1 <1>   0.1500 
 42 H        1.2970     8.2230     1.7030 H     1 <1>   0.0800 
 43 H        2.5030     7.0400     2.1170 H     1 <1>   0.0800 
 44 H        3.1380     9.7140    -1.1830 H     1 <1>   0.0800 
 45 H        1.6450     9.7620    -0.2800 H     1 <1>   0.0800 
 46 H        1.9640     8.4400    -1.3670 H     1 <1>   0.0800 
 47 H        4.9220     7.9730    -0.5830 H     1 <1>   0.0800 
 48 H        3.7340     6.7230    -0.8050 H     1 <1>   0.0800 
 49 H        4.6170     6.8290     0.6980 H     1 <1>   0.0800 
 50 H        4.4960     9.9220     0.8990 H     1 <1>   0.0800 
 51 H        4.2470     8.8370     2.2410 H     1 <1>   0.0800 
 52 H        3.0330    10.0250     1.8410 H     1 <1>   0.0800 
@<TRIPOS>BOND
  1   1   2  2   
  2   2   3  am  
  3   2   4  1   
  4   3   5  1   
  5   3   6  1   
  6   4   7  1   
  7   4  25  1   
  8   4  26  1   
  9   5   8  1   
 10   5   9  1   
 11   5  27  1   
 12   6  10  1   
 13   6  11  1   
 14   6  28  1   
 15   7   9  1   
 16   8  12  ar  
 17   8  13  ar  
 18   9  14  1   
 19   9  29  1   
 20  10  30  1   
 21  10  31  1   
 22  10  32  1   
 23  11  33  1   
 24  11  34  1   
 25  11  35  1   
 26  12  15  ar  
 27  12  36  1   
 28  13  16  ar  
 29  13  37  1   
 30  14  17  2   
 31  14  18  am  
 32  15  19  ar  
 33  15  38  1   
 34  16  19  ar  
 35  16  39  1   
 36  18  20  1   
 37  18  40  1   
 38  19  41  1   
 39  20  21  1   
 40  20  42  1   
 41  20  43  1   
 42  21  22  1   
 43  21  23  1   
 44  21  24  1   
 45  22  44  1   
 46  22  45  1   
 47  22  46  1   
 48  23  47  1   
 49  23  48  1   
 50  23  49  1   
 51  24  50  1   
 52  24  51  1   
 53  24  52  1   
@<TRIPOS>SUBSTRUCTURE
  1 ****   9 GROUP 4 **** **** 0

# MOE 2024.06 (io_trps.svl 2023.06)
