@<TRIPOS>MOLECULE
NONAME
49 53 1 0 0 
SMALL
USER_CHARGES


@<TRIPOS>ATOM
  1 O       -0.5030     0.2140    -0.8250 O.2   1 <1>  -0.5700 
  2 C       -1.4450     0.8100    -0.3340 C.2   1 <1>   0.5440 
  3 N       -2.3870     0.0380     0.3380 N.am  1 <1>  -0.6600 
  4 C       -1.5180     2.2670    -0.4890 C.ar  1 <1>   0.3960 
  5 C       -3.4600     0.5660     1.2360 C.3   1 <1>   0.1400 
  6 C       -2.4350    -1.4480     0.1790 C.3   1 <1>   0.1400 
  7 N       -2.7380     2.8660    -0.6710 N.ar  1 <1>  -0.6200 
  8 C       -0.3670     3.0200    -0.4750 C.ar  1 <1>  -0.1500 
  9 C       -4.8620     0.1420     0.7410 C.3   1 <1>   0.4230 
 10 C       -3.8220    -1.8840    -0.3250 C.3   1 <1>   0.3430 
 11 C       -2.7610     4.1550    -0.8310 C.ar  1 <1>   0.1600 
 12 C       -0.3800     4.4120    -0.6340 C.ar  1 <1>   0.0000 
 13 N       -4.9520    -1.3630     0.5380 N.4   1 <1>  -0.9590 
 14 C       -5.2580     0.9010    -0.5470 C.3   1 <1>   0.1200 
 15 C       -1.6360     5.0050    -0.8210 C.ar  1 <1>   0.0000 
 16 C        0.7700     5.2240    -0.6170 C.ar  1 <1>  -0.1500 
 17 C       -6.3080    -1.7140    -0.0080 C.3   1 <1>   0.5180 
 18 O       -6.5270     0.4960    -0.9800 O.3   1 <1>  -0.5600 
 19 C       -1.7080     6.4020    -0.9880 C.ar  1 <1>  -0.1500 
 20 C        0.6740     6.5790    -0.7800 C.ar  1 <1>  -0.1500 
 21 C       -6.3940    -3.2400    -0.2190 C.3   1 <1>  -0.1950 
 22 C       -6.6450    -0.8700    -1.2620 C.3   1 <1>   0.1200 
 23 C       -0.5770     7.1750    -0.9680 C.ar  1 <1>  -0.1500 
 24 C       -5.9830    -3.9570    -1.4730 C.3   1 <1>  -0.2000 
 25 C       -7.4330    -3.8830    -1.0880 C.3   1 <1>  -0.2000 
 26 H       -3.3050     0.1700     2.2240 H     1 <1>   0.0800 
 27 H       -3.4090     1.6350     1.3270 H     1 <1>   0.0800 
 28 H       -1.6930    -1.7840    -0.5260 H     1 <1>   0.0800 
 29 H       -2.2170    -1.9170     1.1230 H     1 <1>   0.0800 
 30 H        0.5830     2.5330    -0.3440 H     1 <1>   0.1500 
 31 H       -5.5700     0.4340     1.4980 H     1 <1>   0.0800 
 32 H       -3.8520    -2.9600    -0.3590 H     1 <1>   0.0800 
 33 H       -3.9390    -1.5220    -1.3330 H     1 <1>   0.0800 
 34 H       -3.7170     4.6270    -0.9850 H     1 <1>   0.1500 
 35 H       -4.8700    -1.8100     1.4560 H     1 <1>   0.4500 
 36 H       -4.5470     0.7370    -1.3390 H     1 <1>   0.0800 
 37 H       -5.3050     1.9590    -0.3530 H     1 <1>   0.0800 
 38 H        1.7300     4.7600    -0.4740 H     1 <1>   0.1500 
 39 H       -7.0470    -1.4590     0.7340 H     1 <1>   0.0800 
 40 H       -2.6710     6.8590    -1.1340 H     1 <1>   0.1500 
 41 H        1.5540     7.2010    -0.7670 H     1 <1>   0.1500 
 42 H       -6.2290    -3.7550     0.7120 H     1 <1>   0.1000 
 43 H       -7.6630    -1.0450    -1.5620 H     1 <1>   0.0800 
 44 H       -6.0000    -1.1090    -2.0880 H     1 <1>   0.0800 
 45 H       -0.6350     8.2420    -1.0950 H     1 <1>   0.1500 
 46 H       -5.6870    -3.4260    -2.3620 H     1 <1>   0.1000 
 47 H       -5.4950    -4.9150    -1.3970 H     1 <1>   0.1000 
 48 H       -7.9130    -4.7860    -0.7450 H     1 <1>   0.1000 
 49 H       -8.0870    -3.3000    -1.7140 H     1 <1>   0.1000 
@<TRIPOS>BOND
  1   1   2  2   
  2   2   3  am  
  3   2   4  1   
  4   3   5  1   
  5   3   6  1   
  6   4   7  ar  
  7   4   8  ar  
  8   5   9  1   
  9   5  26  1   
 10   5  27  1   
 11   6  10  1   
 12   6  28  1   
 13   6  29  1   
 14   7  11  ar  
 15   8  12  ar  
 16   8  30  1   
 17   9  13  1   
 18   9  14  1   
 19   9  31  1   
 20  10  13  1   
 21  10  32  1   
 22  10  33  1   
 23  11  15  ar  
 24  11  34  1   
 25  12  15  ar  
 26  12  16  ar  
 27  13  17  1   
 28  13  35  1   
 29  14  18  1   
 30  14  36  1   
 31  14  37  1   
 32  15  19  ar  
 33  16  20  ar  
 34  16  38  1   
 35  17  21  1   
 36  17  22  1   
 37  17  39  1   
 38  18  22  1   
 39  19  23  ar  
 40  19  40  1   
 41  20  23  ar  
 42  20  41  1   
 43  21  24  1   
 44  21  25  1   
 45  21  42  1   
 46  22  43  1   
 47  22  44  1   
 48  23  45  1   
 49  24  25  1   
 50  24  46  1   
 51  24  47  1   
 52  25  48  1   
 53  25  49  1   
@<TRIPOS>SUBSTRUCTURE
  1 ****   3 GROUP 4 **** **** 0

# MOE 2024.06 (io_trps.svl 2023.06)
