@<TRIPOS>MOLECULE
NONAME
49 52 1 0 0 
SMALL
USER_CHARGES


@<TRIPOS>ATOM
  1 F       -1.7310    -0.9950     2.7240 F     1 <1>  -0.1900 
  2 C       -2.2720    -1.3480     1.5900 C.ar  1 <1>   0.1900 
  3 C       -2.3290    -2.6880     1.2700 C.ar  1 <1>  -0.1500 
  4 C       -2.7670    -0.3640     0.7560 C.ar  1 <1>  -0.1500 
  5 C       -2.9120    -3.0840     0.0680 C.ar  1 <1>   0.0860 
  6 C       -3.3370    -0.7390    -0.4490 C.ar  1 <1>  -0.1440 
  7 C       -3.0020    -4.4890    -0.2840 C.2   1 <1>   0.5440 
  8 C       -3.4000    -2.0850    -0.7800 C.ar  1 <1>  -0.1500 
  9 C       -3.8800     0.3210    -1.3910 C.3   1 <1>  -0.0960 
 10 O       -2.0070    -5.1840    -0.2070 O.2   1 <1>  -0.5700 
 11 N       -4.1890    -5.0610    -0.6910 N.am  1 <1>  -0.6600 
 12 C       -5.5390    -4.4990    -0.3740 C.3   1 <1>   0.1400 
 13 C       -4.2500    -6.4440    -1.2560 C.3   1 <1>   0.1400 
 14 C       -6.3480    -5.4730     0.5040 C.3   1 <1>   0.1900 
 15 C       -5.0990    -7.3660    -0.3660 C.3   1 <1>   0.1100 
 16 N       -6.4510    -6.8060    -0.1410 N.3   1 <1>  -0.8100 
 17 C       -7.7500    -4.9000     0.7900 C.3   1 <1>   0.1200 
 18 C       -7.2870    -7.7050     0.6910 C.3   1 <1>   0.3330 
 19 O       -8.4870    -5.7820     1.5880 O.3   1 <1>  -0.5600 
 20 C       -7.5220    -9.0420    -0.0090 C.ar  1 <1>  -0.1430 
 21 C       -8.6490    -7.0490     1.0060 C.3   1 <1>   0.1200 
 22 C       -7.3520   -10.2310     0.6860 C.ar  1 <1>  -0.1500 
 23 C       -7.9120    -9.0910    -1.3410 C.ar  1 <1>  -0.1500 
 24 C       -7.5690   -11.4470     0.0620 C.ar  1 <1>  -0.1500 
 25 C       -8.1300   -10.3060    -1.9670 C.ar  1 <1>  -0.1500 
 26 C       -7.9590   -11.4850    -1.2650 C.ar  1 <1>  -0.1500 
 27 H       -1.9250    -3.4240     1.9410 H     1 <1>   0.1500 
 28 H       -2.7020     0.6680     1.0500 H     1 <1>   0.1500 
 29 H       -3.8330    -2.3840    -1.7190 H     1 <1>   0.1500 
 30 H       -4.0500    -0.0870    -2.3720 H     1 <1>   0.0800 
 31 H       -3.1780     1.1310    -1.4800 H     1 <1>   0.0800 
 32 H       -4.8080     0.7070    -1.0120 H     1 <1>   0.0800 
 33 H       -5.4470    -3.5630     0.1450 H     1 <1>   0.0800 
 34 H       -6.0700    -4.3240    -1.2930 H     1 <1>   0.0800 
 35 H       -4.6890    -6.4040    -2.2370 H     1 <1>   0.0800 
 36 H       -3.2630    -6.8590    -1.3560 H     1 <1>   0.0800 
 37 H       -5.8350    -5.5700     1.4460 H     1 <1>   0.0800 
 38 H       -4.5940    -7.5070     0.5750 H     1 <1>   0.0800 
 39 H       -5.1760    -8.3240    -0.8490 H     1 <1>   0.0800 
 40 H       -8.2890    -4.7350    -0.1270 H     1 <1>   0.0800 
 41 H       -7.6730    -3.9690     1.3230 H     1 <1>   0.0800 
 42 H       -6.7840    -7.8830     1.6260 H     1 <1>   0.0800 
 43 H       -9.1990    -7.6610     1.6980 H     1 <1>   0.0800 
 44 H       -9.2280    -6.9410     0.1070 H     1 <1>   0.0800 
 45 H       -7.0500   -10.2180     1.7190 H     1 <1>   0.1500 
 46 H       -8.0400    -8.1750    -1.8920 H     1 <1>   0.1500 
 47 H       -7.4360   -12.3650     0.6080 H     1 <1>   0.1500 
 48 H       -8.4310   -10.3310    -3.0000 H     1 <1>   0.1500 
 49 H       -8.1280   -12.4300    -1.7510 H     1 <1>   0.1500 
@<TRIPOS>BOND
  1   1   2  1   
  2   2   3  ar  
  3   2   4  ar  
  4   3   5  ar  
  5   3  27  1   
  6   4   6  ar  
  7   4  28  1   
  8   5   7  1   
  9   5   8  ar  
 10   6   8  ar  
 11   6   9  1   
 12   7  10  2   
 13   7  11  am  
 14   8  29  1   
 15   9  30  1   
 16   9  31  1   
 17   9  32  1   
 18  11  12  1   
 19  11  13  1   
 20  12  14  1   
 21  12  33  1   
 22  12  34  1   
 23  13  15  1   
 24  13  35  1   
 25  13  36  1   
 26  14  16  1   
 27  14  17  1   
 28  14  37  1   
 29  15  16  1   
 30  15  38  1   
 31  15  39  1   
 32  16  18  1   
 33  17  19  1   
 34  17  40  1   
 35  17  41  1   
 36  18  20  1   
 37  18  21  1   
 38  18  42  1   
 39  19  21  1   
 40  20  22  ar  
 41  20  23  ar  
 42  21  43  1   
 43  21  44  1   
 44  22  24  ar  
 45  22  45  1   
 46  23  25  ar  
 47  23  46  1   
 48  24  26  ar  
 49  24  47  1   
 50  25  26  ar  
 51  25  48  1   
 52  26  49  1   
@<TRIPOS>SUBSTRUCTURE
  1 ****  12 GROUP 4 **** **** 0

# MOE 2024.06 (io_trps.svl 2023.06)
