@<TRIPOS>MOLECULE
NONAME
38 40 1 0 0 
SMALL
USER_CHARGES


@<TRIPOS>ATOM
  1 CL      -2.3720     0.4190    -0.8480 Cl    1 <1>  -0.1240 
  2 C       -2.1400    -1.1170    -0.0600 C.2   1 <1>   0.1640 
  3 S       -2.2240    -2.5390    -1.0770 S.3   1 <1>  -0.0800 
  4 C       -1.9020    -1.4300     1.2250 C.2   1 <1>  -0.1500 
  5 C       -1.9290    -3.5800     0.3170 C.2   1 <1>  -0.1400 
  6 C       -1.7780    -2.8420     1.4380 C.2   1 <1>  -0.1500 
  7 C       -1.8710    -5.0730     0.0680 C.3   1 <1>   0.5230 
  8 N       -3.2430    -5.6390     0.1420 N.4   1 <1>  -0.9590 
  9 C       -4.2060    -5.1410    -0.8820 C.3   1 <1>   0.3430 
 10 C       -3.3120    -7.1300     0.0900 C.3   1 <1>   0.3430 
 11 C       -5.3420    -6.1610    -0.8310 C.3   1 <1>   0.2000 
 12 C       -4.5790    -7.4830    -0.7040 C.3   1 <1>  -0.0800 
 13 O       -6.0640    -5.9240     0.3340 O.3   1 <1>  -0.6800 
 14 C       -5.3540    -8.6720    -0.1030 C.3   1 <1>  -0.0170 
 15 C       -4.4290    -9.8660     0.0600 C.ar  1 <1>  -0.1430 
 16 C       -3.9800   -10.2790     1.3000 C.ar  1 <1>  -0.1500 
 17 C       -3.9840   -10.5970    -1.0240 C.ar  1 <1>  -0.1500 
 18 C       -3.1150   -11.3570     1.3910 C.ar  1 <1>   0.1600 
 19 C       -3.1180   -11.6600    -0.8240 C.ar  1 <1>   0.1600 
 20 N       -2.6650   -12.0460     0.3560 N.ar  1 <1>  -0.6200 
 21 H       -1.8070    -0.7210     2.0300 H     1 <1>   0.1500 
 22 H       -1.5780    -3.2190     2.4280 H     1 <1>   0.1500 
 23 H       -1.2540    -5.5290     0.8240 H     1 <1>   0.0800 
 24 H       -1.4290    -5.2680    -0.8960 H     1 <1>   0.0800 
 25 H       -3.6630    -5.3510     1.0380 H     1 <1>   0.4500 
 26 H       -4.5600    -4.1480    -0.6570 H     1 <1>   0.0800 
 27 H       -3.7490    -5.1510    -1.8580 H     1 <1>   0.0800 
 28 H       -2.4470    -7.5470    -0.4000 H     1 <1>   0.0800 
 29 H       -3.3740    -7.5290     1.0900 H     1 <1>   0.0800 
 30 H       -6.0010    -6.1040    -1.6820 H     1 <1>   0.0800 
 31 H       -4.2570    -7.7680    -1.6900 H     1 <1>   0.0800 
 32 H       -6.9500    -6.3460     0.2980 H     1 <1>   0.4000 
 33 H       -6.1740    -8.9410    -0.7460 H     1 <1>   0.0800 
 34 H       -5.7650    -8.4140     0.8590 H     1 <1>   0.0800 
 35 H       -4.2930    -9.7830     2.2010 H     1 <1>   0.1500 
 36 H       -4.3000   -10.3600    -2.0230 H     1 <1>   0.1500 
 37 H       -2.7750   -11.6700     2.3640 H     1 <1>   0.1500 
 38 H       -2.7790   -12.2220    -1.6790 H     1 <1>   0.1500 
@<TRIPOS>BOND
  1   1   2  1   
  2   2   3  1   
  3   2   4  2   
  4   3   5  1   
  5   4   6  1   
  6   4  21  1   
  7   5   6  2   
  8   5   7  1   
  9   6  22  1   
 10   7   8  1   
 11   7  23  1   
 12   7  24  1   
 13   8   9  1   
 14   8  10  1   
 15   8  25  1   
 16   9  11  1   
 17   9  26  1   
 18   9  27  1   
 19  10  12  1   
 20  10  28  1   
 21  10  29  1   
 22  11  12  1   
 23  11  13  1   
 24  11  30  1   
 25  12  14  1   
 26  12  31  1   
 27  13  32  1   
 28  14  15  1   
 29  14  33  1   
 30  14  34  1   
 31  15  16  ar  
 32  15  17  ar  
 33  16  18  ar  
 34  16  35  1   
 35  17  19  ar  
 36  17  36  1   
 37  18  20  ar  
 38  18  37  1   
 39  19  20  ar  
 40  19  38  1   
@<TRIPOS>SUBSTRUCTURE
  1 ****  10 GROUP 4 **** **** 0

# MOE 2024.06 (io_trps.svl 2023.06)
