@<TRIPOS>MOLECULE
NONAME
50 51 1 0 0 
SMALL
USER_CHARGES


@<TRIPOS>ATOM
  1 O       -0.9420    -0.0960    -0.7270 O.2   1 <1>  -0.5700 
  2 C       -1.7720     0.6880    -1.1520 C.2   1 <1>   0.5440 
  3 N       -2.8560     0.2000    -1.8490 N.am  1 <1>  -0.6600 
  4 C       -1.6210     2.1030    -0.8910 C.ar  1 <1>   0.0860 
  5 C       -2.9150    -1.2290    -2.2490 C.3   1 <1>   0.3200 
  6 C       -4.1440     0.9580    -1.9870 C.3   1 <1>   0.1400 
  7 C       -1.7600     2.6030     0.4020 C.ar  1 <1>  -0.1500 
  8 C       -1.3530     3.0050    -1.9200 C.ar  1 <1>  -0.1500 
  9 C       -3.5500    -1.9990    -1.1160 C.2   1 <1>  -0.3320 
 10 C       -4.7660     1.4320    -0.6540 C.3   1 <1>   0.1200 
 11 C       -1.6560     3.9610     0.6700 C.ar  1 <1>   0.0830 
 12 C       -1.2340     4.3590    -1.6700 C.ar  1 <1>  -0.1500 
 13 N       -2.9570    -2.0850     0.0870 N.pl3 1 <1>   0.0330 
 14 C       -4.7100    -2.6830    -1.0220 C.2   1 <1>   0.0770 
 15 O       -4.5120     0.5560     0.3950 O.3   1 <1>  -0.6800 
 16 O       -1.8130     4.4770     1.9220 O.3   1 <1>  -0.3630 
 17 C       -1.3800     4.8410    -0.3780 C.ar  1 <1>   0.0830 
 18 C       -3.8080    -2.8020     0.8500 C.2   1 <1>   0.0070 
 19 N       -4.8720    -3.1790     0.2180 N.2   1 <1>  -0.5650 
 20 C       -2.3200     3.6900     2.9770 C.3   1 <1>   0.0400 
 21 O       -1.2810     6.1710    -0.1530 O.3   1 <1>  -0.3630 
 22 C       -3.5330    -3.1130     2.3040 C.3   1 <1>  -0.0600 
 23 C       -0.0100     6.7690    -0.2590 C.3   1 <1>   0.2000 
 24 C        0.7680     6.5030     1.0310 C.3   1 <1>  -0.2400 
 25 C       -0.2280     8.2640    -0.4810 C.3   1 <1>  -0.2400 
 26 H       -1.9230    -1.6030    -2.4390 H     1 <1>   0.0800 
 27 H       -3.4910    -1.3370    -3.1520 H     1 <1>   0.0800 
 28 H       -4.8680     0.3360    -2.4830 H     1 <1>   0.0800 
 29 H       -3.9840     1.8130    -2.6200 H     1 <1>   0.0800 
 30 H       -1.9630     1.8930     1.1820 H     1 <1>   0.1500 
 31 H       -1.2370     2.6330    -2.9230 H     1 <1>   0.1500 
 32 H       -5.8330     1.5240    -0.7610 H     1 <1>   0.0800 
 33 H       -4.3770     2.3960    -0.3770 H     1 <1>   0.0800 
 34 H       -1.0350     5.0470    -2.4720 H     1 <1>   0.1500 
 35 H       -2.0640    -1.6420     0.3440 H     1 <1>   0.2700 
 36 H       -5.4550    -2.8430    -1.7840 H     1 <1>   0.1500 
 37 H       -4.5420    -0.3780     0.0800 H     1 <1>   0.4000 
 38 H       -2.4590     4.3280     3.8310 H     1 <1>   0.0800 
 39 H       -1.6090     2.9180     3.2100 H     1 <1>   0.0800 
 40 H       -3.2640     3.2690     2.6780 H     1 <1>   0.0800 
 41 H       -3.4480    -2.2000     2.8640 H     1 <1>   0.0800 
 42 H       -2.6210    -3.6750     2.3940 H     1 <1>   0.0800 
 43 H       -4.3400    -3.6950     2.7100 H     1 <1>   0.0800 
 44 H        0.5060     6.3450    -1.1030 H     1 <1>   0.0800 
 45 H        0.2180     6.8730     1.8790 H     1 <1>   0.0800 
 46 H        1.7230     6.9940     0.9950 H     1 <1>   0.0800 
 47 H        0.9340     5.4480     1.1530 H     1 <1>   0.0800 
 48 H       -0.7660     8.6880     0.3480 H     1 <1>   0.0800 
 49 H       -0.7880     8.4200    -1.3850 H     1 <1>   0.0800 
 50 H        0.7170     8.7660    -0.5730 H     1 <1>   0.0800 
@<TRIPOS>BOND
  1   1   2  2   
  2   2   3  am  
  3   2   4  1   
  4   3   5  1   
  5   3   6  1   
  6   4   7  ar  
  7   4   8  ar  
  8   5   9  1   
  9   5  26  1   
 10   5  27  1   
 11   6  10  1   
 12   6  28  1   
 13   6  29  1   
 14   7  11  ar  
 15   7  30  1   
 16   8  12  ar  
 17   8  31  1   
 18   9  13  1   
 19   9  14  2   
 20  10  15  1   
 21  10  32  1   
 22  10  33  1   
 23  11  16  1   
 24  11  17  ar  
 25  12  17  ar  
 26  12  34  1   
 27  13  18  1   
 28  13  35  1   
 29  14  19  1   
 30  14  36  1   
 31  15  37  1   
 32  16  20  1   
 33  17  21  1   
 34  18  19  2   
 35  18  22  1   
 36  20  38  1   
 37  20  39  1   
 38  20  40  1   
 39  21  23  1   
 40  22  41  1   
 41  22  42  1   
 42  22  43  1   
 43  23  24  1   
 44  23  25  1   
 45  23  44  1   
 46  24  45  1   
 47  24  46  1   
 48  24  47  1   
 49  25  48  1   
 50  25  49  1   
 51  25  50  1   
@<TRIPOS>SUBSTRUCTURE
  1 ****   4 GROUP 4 **** **** 0

# MOE 2024.06 (io_trps.svl 2023.06)
