@<TRIPOS>MOLECULE
NONAME
50 52 1 0 0 
SMALL
USER_CHARGES


@<TRIPOS>ATOM
  1 O        4.7250     2.2500    -1.2850 O.co2 1 <1>  -0.9000 
  2 C        3.6150     2.6930    -0.9460 C.2   1 <1>   0.9060 
  3 O        3.1060     3.6040    -1.6230 O.co2 1 <1>  -0.9000 
  4 C        2.9880     2.3130     0.4430 C.3   1 <1>   0.1830 
  5 N        3.2340     3.3200     1.5770 N.pl3 1 <1>  -0.8690 
  6 C        3.4110     0.9180     0.9290 C.3   1 <1>  -0.0160 
  7 C        3.9560     4.3990     1.2590 C.ar  1 <1>   0.4100 
  8 C        2.6690    -0.1840     0.1830 C.ar  1 <1>  -0.1440 
  9 N        3.2680     5.4920     1.0420 N.ar  1 <1>  -0.6200 
 10 C        5.2830     4.2360     0.8410 C.ar  1 <1>  -0.1500 
 11 C        1.5160    -0.7380     0.7170 C.ar  1 <1>  -0.1500 
 12 C        3.1380    -0.6410    -1.0380 C.ar  1 <1>  -0.1500 
 13 C        3.6580     6.1840    -0.0260 C.ar  1 <1>   0.7710 
 14 C        5.6820     4.9730    -0.2200 C.ar  1 <1>   0.2180 
 15 C        0.8400    -1.7380     0.0390 C.ar  1 <1>  -0.1500 
 16 C        2.4650    -1.6400    -1.7180 C.ar  1 <1>  -0.1500 
 17 N        4.7970     5.8870    -0.6860 N.ar  1 <1>  -0.1790 
 18 N        2.8910     7.2260    -0.4590 N.pl3 1 <1>  -0.8380 
 19 C        7.0040     4.7650    -0.9420 C.3   1 <1>  -0.0170 
 20 C        1.3150    -2.1900    -1.1800 C.ar  1 <1>  -0.1500 
 21 C        3.1780     8.1320    -1.6200 C.3   1 <1>   0.2090 
 22 C        1.5160     7.4790     0.1010 C.3   1 <1>   0.2090 
 23 C        7.8900     6.0180    -0.9170 C.3   1 <1>  -0.2400 
 24 C        2.8580     9.5980    -1.2720 C.3   1 <1>   0.1200 
 25 C        1.2790     8.9790     0.3450 C.3   1 <1>   0.1200 
 26 O        1.5460     9.7230    -0.8100 O.3   1 <1>  -0.5600 
 27 H        1.9270     2.2880     0.2740 H     1 <1>   0.0800 
 28 H        2.3650     3.5280     2.0710 H     1 <1>   0.4000 
 29 H        3.1950     0.8280     1.9770 H     1 <1>   0.0800 
 30 H        4.4710     0.7950     0.8020 H     1 <1>   0.0800 
 31 H        5.8780     3.4600     1.2830 H     1 <1>   0.1500 
 32 H        1.1380    -0.3920     1.6630 H     1 <1>   0.1500 
 33 H        4.0310    -0.2130    -1.4670 H     1 <1>   0.1500 
 34 H       -0.0540    -2.1620     0.4590 H     1 <1>   0.1500 
 35 H        2.8380    -1.9830    -2.6670 H     1 <1>   0.1500 
 36 H        4.8710     6.2450    -1.6240 H     1 <1>   0.4570 
 37 H        6.8020     4.4680    -1.9580 H     1 <1>   0.0800 
 38 H        7.5300     3.9480    -0.4790 H     1 <1>   0.0800 
 39 H        0.7910    -2.9660    -1.7100 H     1 <1>   0.1500 
 40 H        2.5700     7.8350    -2.4590 H     1 <1>   0.0800 
 41 H        4.2090     8.0730    -1.9170 H     1 <1>   0.0800 
 42 H        1.3610     6.9580     1.0290 H     1 <1>   0.0800 
 43 H        0.7810     7.1170    -0.5970 H     1 <1>   0.0800 
 44 H        7.4210     6.8370    -1.4320 H     1 <1>   0.0800 
 45 H        8.8270     5.8070    -1.4020 H     1 <1>   0.0800 
 46 H        8.0930     6.3110     0.0980 H     1 <1>   0.0800 
 47 H        2.9550    10.2180    -2.1470 H     1 <1>   0.0800 
 48 H        3.5270     9.9650    -0.5130 H     1 <1>   0.0800 
 49 H        1.9100     9.3360     1.1410 H     1 <1>   0.0800 
 50 H        0.2530     9.1510     0.6160 H     1 <1>   0.0800 
@<TRIPOS>BOND
  1   1   2  ar  
  2   2   3  ar  
  3   2   4  1   
  4   4   5  1   
  5   4   6  1   
  6   4  27  1   
  7   5   7  1   
  8   5  28  1   
  9   6   8  1   
 10   6  29  1   
 11   6  30  1   
 12   7   9  ar  
 13   7  10  ar  
 14   8  11  ar  
 15   8  12  ar  
 16   9  13  ar  
 17  10  14  ar  
 18  10  31  1   
 19  11  15  ar  
 20  11  32  1   
 21  12  16  ar  
 22  12  33  1   
 23  13  17  ar  
 24  13  18  1   
 25  14  17  ar  
 26  14  19  1   
 27  15  20  ar  
 28  15  34  1   
 29  16  20  ar  
 30  16  35  1   
 31  17  36  1   
 32  18  21  1   
 33  18  22  1   
 34  19  23  1   
 35  19  37  1   
 36  19  38  1   
 37  20  39  1   
 38  21  24  1   
 39  21  40  1   
 40  21  41  1   
 41  22  25  1   
 42  22  42  1   
 43  22  43  1   
 44  23  44  1   
 45  23  45  1   
 46  23  46  1   
 47  24  26  1   
 48  24  47  1   
 49  24  48  1   
 50  25  26  1   
 51  25  49  1   
 52  25  50  1   
@<TRIPOS>SUBSTRUCTURE
  1 ****   2 GROUP 4 **** **** 0

# MOE 2024.06 (io_trps.svl 2023.06)
