@<TRIPOS>MOLECULE
NONAME
39 41 1 0 0 
SMALL
USER_CHARGES


@<TRIPOS>ATOM
  1 O       -2.4020     1.1670    -2.0640 O.2   1 <1>  -0.5700 
  2 C       -2.1900     1.2140    -0.8700 C.2   1 <1>   0.5440 
  3 N       -2.2720     0.0560    -0.1520 N.am  1 <1>  -0.7300 
  4 C       -1.8470     2.4710    -0.2360 C.ar  1 <1>   0.0860 
  5 C       -2.5710    -1.2810    -0.7170 C.3   1 <1>   0.2200 
  6 C       -2.1180     2.7150     1.1090 C.ar  1 <1>   0.1600 
  7 C       -1.2360     3.5000    -0.9390 C.ar  1 <1>  -0.1500 
  8 C       -3.9410    -1.7290    -0.2330 C.3   1 <1>  -0.0800 
  9 C       -1.6650    -2.3110    -0.0590 C.3   1 <1>   0.1200 
 10 N       -1.8300     3.8220     1.7720 N.ar  1 <1>  -0.6200 
 11 C       -0.9320     4.6640    -0.2670 C.ar  1 <1>  -0.1500 
 12 C       -3.6270    -2.3670     1.1280 C.3   1 <1>   0.1200 
 13 C       -4.5840    -2.7280    -1.2140 C.3   1 <1>  -0.0170 
 14 O       -2.2420    -2.5600     1.1850 O.3   1 <1>  -0.5600 
 15 C       -1.2340     4.8000     1.0840 C.ar  1 <1>   0.3830 
 16 C       -5.9600    -3.1720    -0.7400 C.ar  1 <1>  -0.1430 
 17 C       -0.8980     6.0280     1.7580 C.1   1 <1>   0.4840 
 18 C       -6.1830    -4.4220    -0.1980 C.ar  1 <1>  -0.1500 
 19 C       -7.0600    -2.3430    -0.8300 C.ar  1 <1>  -0.1500 
 20 N       -0.6090     7.0200     2.2460 N.1   1 <1>  -0.5570 
 21 C       -7.4560    -4.7700     0.2210 C.ar  1 <1>   0.1600 
 22 C       -8.2920    -2.7890    -0.3820 C.ar  1 <1>   0.1600 
 23 N       -8.5160    -3.9820     0.1450 N.ar  1 <1>  -0.6200 
 24 H       -2.0050     0.0160     0.8350 H     1 <1>   0.3700 
 25 H       -2.4750    -1.2760    -1.7900 H     1 <1>   0.0800 
 26 H       -2.6110     1.9420     1.6740 H     1 <1>   0.1500 
 27 H       -1.0100     3.3810    -1.9860 H     1 <1>   0.1500 
 28 H       -4.6040    -0.8890    -0.1180 H     1 <1>   0.0800 
 29 H       -0.6560    -1.9590     0.0710 H     1 <1>   0.0800 
 30 H       -1.6620    -3.2330    -0.6130 H     1 <1>   0.0800 
 31 H       -0.4560     5.4750    -0.7900 H     1 <1>   0.1500 
 32 H       -4.1100    -3.3180     1.2660 H     1 <1>   0.0800 
 33 H       -3.8990    -1.7100     1.9350 H     1 <1>   0.0800 
 34 H       -3.9510    -3.5890    -1.3390 H     1 <1>   0.0800 
 35 H       -4.6890    -2.2620    -2.1790 H     1 <1>   0.0800 
 36 H       -5.3810    -5.1310    -0.0960 H     1 <1>   0.1500 
 37 H       -6.9710    -1.3560    -1.2450 H     1 <1>   0.1500 
 38 H       -7.6110    -5.7490     0.6430 H     1 <1>   0.1500 
 39 H       -9.1390    -2.1280    -0.4610 H     1 <1>   0.1500 
@<TRIPOS>BOND
  1   1   2  2   
  2   2   3  am  
  3   2   4  1   
  4   3   5  1   
  5   3  24  1   
  6   4   6  ar  
  7   4   7  ar  
  8   5   8  1   
  9   5   9  1   
 10   5  25  1   
 11   6  10  ar  
 12   6  26  1   
 13   7  11  ar  
 14   7  27  1   
 15   8  12  1   
 16   8  13  1   
 17   8  28  1   
 18   9  14  1   
 19   9  29  1   
 20   9  30  1   
 21  10  15  ar  
 22  11  15  ar  
 23  11  31  1   
 24  12  14  1   
 25  12  32  1   
 26  12  33  1   
 27  13  16  1   
 28  13  34  1   
 29  13  35  1   
 30  15  17  1   
 31  16  18  ar  
 32  16  19  ar  
 33  17  20  3   
 34  18  21  ar  
 35  18  36  1   
 36  19  22  ar  
 37  19  37  1   
 38  21  23  ar  
 39  21  38  1   
 40  22  23  ar  
 41  22  39  1   
@<TRIPOS>SUBSTRUCTURE
  1 ****   3 GROUP 4 **** **** 0

# MOE 2024.06 (io_trps.svl 2023.06)
