@<TRIPOS>MOLECULE
NONAME
50 52 1 0 0 
SMALL
USER_CHARGES


@<TRIPOS>ATOM
  1 O        0.1210     0.2270    -0.2810 O.2   1 <1>  -0.5700 
  2 C        1.0410    -0.3820    -0.7700 C.2   1 <1>   0.5690 
  3 N        2.1750     0.2350    -1.1770 N.am  1 <1>  -0.7300 
  4 C        0.9360    -1.8820    -0.9440 C.3   1 <1>  -0.0990 
  5 C        2.4030     1.6990    -1.1130 C.3   1 <1>   0.1400 
  6 C       -0.2770    -2.4800    -0.2200 C.3   1 <1>   0.2000 
  7 C        2.9960     2.0780     0.2440 C.3   1 <1>  -0.0160 
  8 O       -0.1870    -3.8690    -0.3580 O.3   1 <1>  -0.5600 
  9 C       -1.6350    -1.9870    -0.7880 C.3   1 <1>   0.3430 
 10 C        3.1700     3.5810     0.3350 C.ar  1 <1>   0.1660 
 11 C       -1.1860    -4.5970     0.2990 C.3   1 <1>   0.1200 
 12 N       -2.7980    -2.7310    -0.1940 N.4   1 <1>  -0.9590 
 13 N        4.0950     4.1110    -0.4500 N.ar  1 <1>  -0.6200 
 14 C        2.3780     4.3290     1.2050 C.ar  1 <1>   0.1600 
 15 C       -2.5750    -4.2170    -0.2490 C.3   1 <1>   0.3430 
 16 C       -4.0850    -2.3330    -0.8240 C.3   1 <1>   0.4860 
 17 C        4.1760     5.4230    -0.3060 C.ar  1 <1>   0.1600 
 18 N        2.4570     5.6410     1.3500 N.ar  1 <1>  -0.6200 
 19 C       -5.2160    -3.0020    -0.0690 C.ar  1 <1>  -0.1440 
 20 C        3.3840     6.1630     0.5650 C.ar  1 <1>   0.1600 
 21 C       -5.8760    -4.0920    -0.6200 C.ar  1 <1>  -0.1500 
 22 C       -5.5960    -2.5360     1.1820 C.ar  1 <1>  -0.1500 
 23 C       -6.8940    -4.7160     0.0790 C.ar  1 <1>  -0.1500 
 24 C       -6.6140    -3.1620     1.8790 C.ar  1 <1>  -0.1500 
 25 C       -7.2620    -4.2530     1.3290 C.ar  1 <1>  -0.1500 
 26 H        2.9530    -0.3090    -1.5600 H     1 <1>   0.3700 
 27 H        1.8290    -2.3280    -0.5450 H     1 <1>   0.0800 
 28 H        0.8800    -2.1030    -1.9930 H     1 <1>   0.0800 
 29 H        1.4680     2.2170    -1.2530 H     1 <1>   0.0800 
 30 H        3.0730     1.9960    -1.9030 H     1 <1>   0.0800 
 31 H       -0.2100    -2.2400     0.8280 H     1 <1>   0.0800 
 32 H        3.9550     1.6090     0.3660 H     1 <1>   0.0800 
 33 H        2.3430     1.7370     1.0270 H     1 <1>   0.0800 
 34 H       -1.6210    -2.1250    -1.8570 H     1 <1>   0.0800 
 35 H       -1.7450    -0.9330    -0.5960 H     1 <1>   0.0800 
 36 H       -1.1190    -4.4080     1.3560 H     1 <1>   0.0800 
 37 H       -0.9950    -5.6430     0.1270 H     1 <1>   0.0800 
 38 H       -2.8710    -2.4760     0.7980 H     1 <1>   0.4500 
 39 H        1.6460     3.8210     1.8080 H     1 <1>   0.1500 
 40 H       -3.3350    -4.7260     0.3230 H     1 <1>   0.0800 
 41 H       -2.6430    -4.5600    -1.2680 H     1 <1>   0.0800 
 42 H       -4.1040    -2.6350    -1.8590 H     1 <1>   0.0800 
 43 H       -4.2090    -1.2630    -0.7770 H     1 <1>   0.0800 
 44 H        4.9040     5.9400    -0.9050 H     1 <1>   0.1500 
 45 H        3.5230     7.2280     0.6110 H     1 <1>   0.1500 
 46 H       -5.6130    -4.4670    -1.5950 H     1 <1>   0.1500 
 47 H       -5.1140    -1.6820     1.6290 H     1 <1>   0.1500 
 48 H       -7.4070    -5.5620    -0.3490 H     1 <1>   0.1500 
 49 H       -6.9090    -2.8000     2.8500 H     1 <1>   0.1500 
 50 H       -8.0550    -4.7390     1.8720 H     1 <1>   0.1500 
@<TRIPOS>BOND
  1   1   2  2   
  2   2   3  am  
  3   2   4  1   
  4   3   5  1   
  5   3  26  1   
  6   4   6  1   
  7   4  27  1   
  8   4  28  1   
  9   5   7  1   
 10   5  29  1   
 11   5  30  1   
 12   6   8  1   
 13   6   9  1   
 14   6  31  1   
 15   7  10  1   
 16   7  32  1   
 17   7  33  1   
 18   8  11  1   
 19   9  12  1   
 20   9  34  1   
 21   9  35  1   
 22  10  13  ar  
 23  10  14  ar  
 24  11  15  1   
 25  11  36  1   
 26  11  37  1   
 27  12  15  1   
 28  12  16  1   
 29  12  38  1   
 30  13  17  ar  
 31  14  18  ar  
 32  14  39  1   
 33  15  40  1   
 34  15  41  1   
 35  16  19  1   
 36  16  42  1   
 37  16  43  1   
 38  17  20  ar  
 39  17  44  1   
 40  18  20  ar  
 41  19  21  ar  
 42  19  22  ar  
 43  20  45  1   
 44  21  23  ar  
 45  21  46  1   
 46  22  24  ar  
 47  22  47  1   
 48  23  25  ar  
 49  23  48  1   
 50  24  25  ar  
 51  24  49  1   
 52  25  50  1   
@<TRIPOS>SUBSTRUCTURE
  1 ****   1 GROUP 4 **** **** 0

# MOE 2024.06 (io_trps.svl 2023.06)
