@<TRIPOS>MOLECULE
NONAME
47 49 1 0 0 
SMALL
USER_CHARGES


@<TRIPOS>ATOM
  1 O        0.1790     0.8750     1.3590 O.2   1 <1>  -0.5700 
  2 C       -0.0760     1.5460     0.3790 C.2   1 <1>   0.5440 
  3 N       -1.3800     1.5900    -0.0310 N.am  1 <1>  -0.7300 
  4 C        0.9680     2.2420    -0.3540 C.ar  1 <1>   0.0860 
  5 C       -2.5270     1.0090     0.7090 C.3   1 <1>   0.2200 
  6 C        2.2740     1.7500    -0.3740 C.ar  1 <1>  -0.1500 
  7 C        0.7160     3.4180    -1.0640 C.ar  1 <1>  -0.1500 
  8 C       -2.6100    -0.5210     0.5170 C.3   1 <1>   0.2000 
  9 C       -3.8080     1.7020     0.2370 C.3   1 <1>  -0.1600 
 10 C        3.2770     2.3890    -1.0800 C.ar  1 <1>  -0.1500 
 11 C        1.7150     4.0610    -1.7730 C.ar  1 <1>  -0.1500 
 12 O       -1.5780    -1.1400     1.1980 O.3   1 <1>  -0.6800 
 13 C       -3.9170    -1.0990     1.0790 C.3   1 <1>   0.3430 
 14 C       -5.0380     1.1130     0.9260 C.3   1 <1>   0.3430 
 15 C        2.9980     3.5460    -1.7830 C.ar  1 <1>  -0.1500 
 16 N       -5.1390    -0.3430     0.6250 N.4   1 <1>  -0.9590 
 17 C       -6.3740    -0.9330     1.2150 C.3   1 <1>   0.4860 
 18 C       -6.6010    -2.3030     0.6000 C.ar  1 <1>  -0.1430 
 19 C       -7.1860    -2.4240    -0.6530 C.ar  1 <1>  -0.1500 
 20 C       -6.2320    -3.4490     1.2890 C.ar  1 <1>  -0.1500 
 21 C       -7.3980    -3.6710    -1.2350 C.ar  1 <1>   0.0730 
 22 C       -6.4340    -4.6940     0.7230 C.ar  1 <1>  -0.1500 
 23 C       -8.0010    -3.7810    -2.5330 C.1   1 <1>   0.4840 
 24 C       -7.0110    -4.8030    -0.5290 C.ar  1 <1>  -0.1500 
 25 N       -8.4720    -3.8340    -3.5700 N.1   1 <1>  -0.5570 
 26 H       -1.5820     2.0400    -0.9260 H     1 <1>   0.3700 
 27 H       -2.3970     1.2120     1.7610 H     1 <1>   0.0800 
 28 H        2.5030     0.8520     0.1740 H     1 <1>   0.1500 
 29 H       -0.2700     3.8460    -1.0580 H     1 <1>   0.1500 
 30 H       -2.5140    -0.7730    -0.5250 H     1 <1>   0.0800 
 31 H       -3.7490     2.7490     0.4800 H     1 <1>   0.0800 
 32 H       -3.9170     1.6090    -0.8290 H     1 <1>   0.0800 
 33 H        4.2760     1.9860    -1.0810 H     1 <1>   0.1500 
 34 H        1.4990     4.9670    -2.3150 H     1 <1>   0.1500 
 35 H       -0.7890    -0.5280     1.2460 H     1 <1>   0.4000 
 36 H       -3.8580    -1.0660     2.1540 H     1 <1>   0.0800 
 37 H       -3.9890    -2.1310     0.7770 H     1 <1>   0.0800 
 38 H       -5.9220     1.6250     0.5770 H     1 <1>   0.0800 
 39 H       -4.9600     1.2640     1.9920 H     1 <1>   0.0800 
 40 H        3.7770     4.0440    -2.3340 H     1 <1>   0.1500 
 41 H       -5.2180    -0.4720    -0.3930 H     1 <1>   0.4500 
 42 H       -6.2760    -1.0180     2.2850 H     1 <1>   0.0800 
 43 H       -7.2250    -0.3060     1.0000 H     1 <1>   0.0800 
 44 H       -7.4940    -1.5480    -1.2000 H     1 <1>   0.1500 
 45 H       -5.7870    -3.3930     2.2690 H     1 <1>   0.1500 
 46 H       -6.1450    -5.5840     1.2580 H     1 <1>   0.1500 
 47 H       -7.1660    -5.7790    -0.9590 H     1 <1>   0.1500 
@<TRIPOS>BOND
  1   1   2  2   
  2   2   3  am  
  3   2   4  1   
  4   3   5  1   
  5   3  26  1   
  6   4   6  ar  
  7   4   7  ar  
  8   5   8  1   
  9   5   9  1   
 10   5  27  1   
 11   6  10  ar  
 12   6  28  1   
 13   7  11  ar  
 14   7  29  1   
 15   8  12  1   
 16   8  13  1   
 17   8  30  1   
 18   9  14  1   
 19   9  31  1   
 20   9  32  1   
 21  10  15  ar  
 22  10  33  1   
 23  11  15  ar  
 24  11  34  1   
 25  12  35  1   
 26  13  16  1   
 27  13  36  1   
 28  13  37  1   
 29  14  16  1   
 30  14  38  1   
 31  14  39  1   
 32  15  40  1   
 33  16  17  1   
 34  16  41  1   
 35  17  18  1   
 36  17  42  1   
 37  17  43  1   
 38  18  19  ar  
 39  18  20  ar  
 40  19  21  ar  
 41  19  44  1   
 42  20  22  ar  
 43  20  45  1   
 44  21  23  1   
 45  21  24  ar  
 46  22  24  ar  
 47  22  46  1   
 48  23  25  3   
 49  24  47  1   
@<TRIPOS>SUBSTRUCTURE
  1 ****   8 GROUP 4 **** **** 0

# MOE 2024.06 (io_trps.svl 2023.06)
