@<TRIPOS>MOLECULE
NONAME
49 52 1 0 0 
SMALL
USER_CHARGES


@<TRIPOS>ATOM
  1 S       -1.2600    -0.2320     1.1800 S.3   1 <1>  -0.0800 
  2 C       -1.0990    -1.8860     0.6570 C.2   1 <1>  -0.1400 
  3 C       -1.2320    -0.7850     2.8400 C.2   1 <1>   0.2280 
  4 C       -1.0410    -2.6770     1.7400 C.2   1 <1>   0.0770 
  5 C       -1.0520    -2.1740    -0.8240 C.3   1 <1>   0.5230 
  6 N       -1.1230    -2.0460     2.9690 N.2   1 <1>  -0.5650 
  7 N       -2.3800    -2.6840    -1.2380 N.4   1 <1>  -0.9590 
  8 C       -2.3590    -3.4340    -2.5280 C.3   1 <1>   0.3430 
  9 C       -3.4960    -1.7050    -1.1300 C.3   1 <1>   0.3430 
 10 C       -3.5470    -4.4190    -2.6320 C.3   1 <1>   0.1400 
 11 C       -4.6750    -2.3310    -0.3740 C.3   1 <1>  -0.1600 
 12 N       -4.3010    -4.5830    -1.3430 N.am  1 <1>  -0.6600 
 13 C       -5.3230    -3.5430    -1.0600 C.3   1 <1>   0.1400 
 14 C       -3.7950    -5.3500    -0.3180 C.2   1 <1>   0.5440 
 15 O       -2.5940    -5.2650    -0.1250 O.2   1 <1>  -0.5700 
 16 C       -4.6490    -6.1460     0.5460 C.ar  1 <1>   0.0860 
 17 C       -5.8410    -6.7060     0.0780 C.ar  1 <1>  -0.1500 
 18 C       -4.3080    -6.3810     1.8790 C.ar  1 <1>  -0.1500 
 19 C       -6.6680    -7.4540     0.8980 C.ar  1 <1>  -0.1430 
 20 C       -5.1250    -7.1250     2.7090 C.ar  1 <1>  -0.1500 
 21 C       -6.3070    -7.6590     2.2260 C.ar  1 <1>   0.0830 
 22 C       -7.9540    -8.0530     0.3500 C.3   1 <1>  -0.0170 
 23 O       -7.0710    -8.3830     3.0750 O.3   1 <1>  -0.3620 
 24 C       -8.4340    -9.1930     1.2520 C.3   1 <1>  -0.1600 
 25 C       -8.3890    -8.7500     2.7160 C.3   1 <1>   0.1200 
 26 H       -1.3090    -0.0380     3.6130 H     1 <1>   0.1500 
 27 H       -0.9410    -3.7520     1.7400 H     1 <1>   0.1500 
 28 H       -0.3040    -2.9280    -1.0060 H     1 <1>   0.0800 
 29 H       -0.7910    -1.2850    -1.3750 H     1 <1>   0.0800 
 30 H       -2.5970    -3.4420    -0.5560 H     1 <1>   0.4500 
 31 H       -1.4520    -4.0140    -2.5850 H     1 <1>   0.0800 
 32 H       -2.3670    -2.7550    -3.3650 H     1 <1>   0.0800 
 33 H       -3.8110    -1.3880    -2.1110 H     1 <1>   0.0800 
 34 H       -3.1680    -0.8330    -0.5890 H     1 <1>   0.0800 
 35 H       -3.1680    -5.3800    -2.9380 H     1 <1>   0.0800 
 36 H       -4.2200    -4.0880    -3.4030 H     1 <1>   0.0800 
 37 H       -5.4320    -1.5760    -0.2560 H     1 <1>   0.0800 
 38 H       -4.3590    -2.6030     0.6180 H     1 <1>   0.0800 
 39 H       -5.8010    -3.2440    -1.9780 H     1 <1>   0.0800 
 40 H       -6.0860    -3.9510    -0.4160 H     1 <1>   0.0800 
 41 H       -6.1190    -6.5550    -0.9490 H     1 <1>   0.1500 
 42 H       -3.3900    -5.9770     2.2690 H     1 <1>   0.1500 
 43 H       -4.8540    -7.3010     3.7340 H     1 <1>   0.1500 
 44 H       -7.7980    -8.4240    -0.6480 H     1 <1>   0.0800 
 45 H       -8.7050    -7.2830     0.3130 H     1 <1>   0.0800 
 46 H       -7.7990   -10.0530     1.1280 H     1 <1>   0.0800 
 47 H       -9.4370    -9.4740     0.9840 H     1 <1>   0.0800 
 48 H       -9.0230    -7.8970     2.8790 H     1 <1>   0.0800 
 49 H       -8.6940    -9.5490     3.3690 H     1 <1>   0.0800 
@<TRIPOS>BOND
  1   1   2  1   
  2   1   3  1   
  3   2   4  2   
  4   2   5  1   
  5   3   6  2   
  6   3  26  1   
  7   4   6  1   
  8   4  27  1   
  9   5   7  1   
 10   5  28  1   
 11   5  29  1   
 12   7   8  1   
 13   7   9  1   
 14   7  30  1   
 15   8  10  1   
 16   8  31  1   
 17   8  32  1   
 18   9  11  1   
 19   9  33  1   
 20   9  34  1   
 21  10  12  1   
 22  10  35  1   
 23  10  36  1   
 24  11  13  1   
 25  11  37  1   
 26  11  38  1   
 27  12  13  1   
 28  12  14  am  
 29  13  39  1   
 30  13  40  1   
 31  14  15  2   
 32  14  16  1   
 33  16  17  ar  
 34  16  18  ar  
 35  17  19  ar  
 36  17  41  1   
 37  18  20  ar  
 38  18  42  1   
 39  19  21  ar  
 40  19  22  1   
 41  20  21  ar  
 42  20  43  1   
 43  21  23  1   
 44  22  24  1   
 45  22  44  1   
 46  22  45  1   
 47  23  25  1   
 48  24  25  1   
 49  24  46  1   
 50  24  47  1   
 51  25  48  1   
 52  25  49  1   
@<TRIPOS>SUBSTRUCTURE
  1 ****  14 GROUP 4 **** **** 0

# MOE 2024.06 (io_trps.svl 2023.06)
