@<TRIPOS>MOLECULE
NONAME
45 47 1 0 0 
SMALL
USER_CHARGES


@<TRIPOS>ATOM
  1 CL      -0.8630     0.2150    -0.7180 Cl    1 <1>  -0.1770 
  2 C       -0.7680     1.9170    -0.3190 C.ar  1 <1>   0.1770 
  3 C        0.4490     2.5120    -0.0340 C.ar  1 <1>   0.1900 
  4 C       -1.9240     2.6720    -0.2940 C.ar  1 <1>  -0.1500 
  5 F        1.5500     1.8020    -0.0570 F     1 <1>  -0.1900 
  6 C        0.5360     3.8560     0.2770 C.ar  1 <1>  -0.1500 
  7 C       -1.8660     4.0300     0.0190 C.ar  1 <1>   0.1170 
  8 C       -0.6280     4.6070     0.3000 C.ar  1 <1>  -0.1500 
  9 N       -3.0090     4.8390     0.0430 N.am  1 <1>  -0.5470 
 10 C       -4.3130     4.5310     0.3090 C.2   1 <1>   0.6900 
 11 O       -4.6110     3.4290     0.7290 O.2   1 <1>  -0.5700 
 12 N       -5.2730     5.4940     0.1200 N.am  1 <1>  -0.6600 
 13 C       -6.6600     5.3150     0.6540 C.3   1 <1>   0.1400 
 14 C       -5.1250     6.6840    -0.7620 C.3   1 <1>   0.1400 
 15 C       -7.6920     5.1880    -0.4950 C.3   1 <1>   0.0000 
 16 C       -6.1160     6.5940    -1.9280 C.3   1 <1>  -0.1600 
 17 C       -9.1230     5.0490     0.0540 C.3   1 <1>   0.2000 
 18 C       -7.5620     6.4030    -1.4380 C.3   1 <1>  -0.1600 
 19 C       -7.5150     3.8500    -1.2350 C.3   1 <1>  -0.1600 
 20 O       -9.3390     5.8980     1.1420 O.3   1 <1>  -0.5600 
 21 C       -9.2740     3.5770     0.4510 C.3   1 <1>  -0.1600 
 22 C       -8.2310     2.8070    -0.3710 C.3   1 <1>  -0.1600 
 23 C      -10.6730     6.0570     1.5070 C.3   1 <1>   0.0400 
 24 H       -2.8640     2.2030    -0.5190 H     1 <1>   0.1500 
 25 H        1.4930     4.2970     0.4960 H     1 <1>   0.1500 
 26 H       -0.5750     5.6530     0.5440 H     1 <1>   0.1500 
 27 H       -2.8550     5.8390    -0.0120 H     1 <1>   0.3700 
 28 H       -6.7100     4.4530     1.2960 H     1 <1>   0.0800 
 29 H       -6.8980     6.1730     1.2580 H     1 <1>   0.0800 
 30 H       -5.3250     7.5710    -0.1840 H     1 <1>   0.0800 
 31 H       -4.1270     6.7550    -1.1560 H     1 <1>   0.0800 
 32 H       -6.0540     7.4930    -2.5150 H     1 <1>   0.0800 
 33 H       -5.8330     5.7720    -2.5620 H     1 <1>   0.0800 
 34 H       -9.8240     5.2920    -0.7270 H     1 <1>   0.0800 
 35 H       -8.2180     6.2910    -2.2830 H     1 <1>   0.0800 
 36 H       -7.8680     7.2870    -0.9040 H     1 <1>   0.0800 
 37 H       -8.0020     3.8980    -2.1930 H     1 <1>   0.0800 
 38 H       -6.4830     3.5890    -1.3900 H     1 <1>   0.0800 
 39 H       -9.0670     3.4510     1.5000 H     1 <1>   0.0800 
 40 H      -10.2670     3.2280     0.2330 H     1 <1>   0.0800 
 41 H       -7.5200     2.3420     0.2930 H     1 <1>   0.0800 
 42 H       -8.6850     2.0450    -0.9800 H     1 <1>   0.0800 
 43 H      -10.7120     6.7440     2.3340 H     1 <1>   0.0800 
 44 H      -11.0790     5.1070     1.8080 H     1 <1>   0.0800 
 45 H      -11.2240     6.4600     0.6760 H     1 <1>   0.0800 
@<TRIPOS>BOND
  1   1   2  1   
  2   2   3  ar  
  3   2   4  ar  
  4   3   5  1   
  5   3   6  ar  
  6   4   7  ar  
  7   4  24  1   
  8   6   8  ar  
  9   6  25  1   
 10   7   8  ar  
 11   7   9  1   
 12   8  26  1   
 13   9  10  am  
 14   9  27  1   
 15  10  11  2   
 16  10  12  am  
 17  12  13  1   
 18  12  14  1   
 19  13  15  1   
 20  13  28  1   
 21  13  29  1   
 22  14  16  1   
 23  14  30  1   
 24  14  31  1   
 25  15  17  1   
 26  15  18  1   
 27  15  19  1   
 28  16  18  1   
 29  16  32  1   
 30  16  33  1   
 31  17  20  1   
 32  17  21  1   
 33  17  34  1   
 34  18  35  1   
 35  18  36  1   
 36  19  22  1   
 37  19  37  1   
 38  19  38  1   
 39  20  23  1   
 40  21  22  1   
 41  21  39  1   
 42  21  40  1   
 43  22  41  1   
 44  22  42  1   
 45  23  43  1   
 46  23  44  1   
 47  23  45  1   
@<TRIPOS>SUBSTRUCTURE
  1 ****  10 GROUP 4 **** **** 0

# MOE 2024.06 (io_trps.svl 2023.06)
