@<TRIPOS>MOLECULE
NONAME
51 53 1 0 0 
SMALL
USER_CHARGES


@<TRIPOS>ATOM
  1 O        0.5410     0.3410     3.2200 O.2   1 <1>  -0.5700 
  2 C        0.7710    -0.1800     2.1540 C.2   1 <1>   0.5690 
  3 N        1.3530     0.4910     1.1340 N.am  1 <1>  -0.7300 
  4 C        0.3960    -1.6510     1.9430 C.3   1 <1>   0.1710 
  5 C        1.8270     1.8830     1.1550 C.3   1 <1>   0.2840 
  6 N        0.1940    -2.0460     0.5170 N.3   1 <1>  -0.8100 
  7 C        3.2040     1.9300     0.5160 C.ar  1 <1>  -0.1430 
  8 C       -0.9900    -1.4160    -0.1100 C.3   1 <1>   0.1100 
  9 C        0.0860    -3.5030     0.3400 C.3   1 <1>   0.1100 
 10 C        3.3560     2.1480    -0.8510 C.ar  1 <1>   0.0820 
 11 C        4.3240     1.7460     1.3110 C.ar  1 <1>  -0.1500 
 12 C       -1.9460    -2.5470    -0.4870 C.3   1 <1>   0.2000 
 13 C       -1.0010    -3.7230    -0.7120 C.3   1 <1>  -0.0800 
 14 O        2.2300     2.3110    -1.5960 O.3   1 <1>  -0.3630 
 15 C        4.6360     2.1880    -1.4010 C.ar  1 <1>  -0.1500 
 16 C        5.5920     1.7850     0.7590 C.ar  1 <1>  -0.1500 
 17 O       -2.7680    -2.8030     0.6010 O.3   1 <1>  -0.6800 
 18 C       -1.6480    -5.1200    -0.6650 C.3   1 <1>  -0.0170 
 19 C        2.2880     2.5590    -2.9830 C.3   1 <1>   0.0400 
 20 C        5.7470     2.0070    -0.5970 C.ar  1 <1>  -0.1500 
 21 C       -0.6020    -6.2090    -0.8510 C.ar  1 <1>  -0.1430 
 22 C       -0.1590    -6.9840     0.2020 C.ar  1 <1>  -0.1500 
 23 C       -0.0370    -6.4740    -2.0820 C.ar  1 <1>  -0.1500 
 24 C        0.8060    -7.9520    -0.0190 C.ar  1 <1>   0.1600 
 25 C        0.9230    -7.4660    -2.1960 C.ar  1 <1>   0.1600 
 26 N        1.3600    -8.2090    -1.1930 N.ar  1 <1>  -0.6200 
 27 H        1.5120    -0.0180     0.2590 H     1 <1>   0.3700 
 28 H       -0.4940    -1.8580     2.5080 H     1 <1>   0.0800 
 29 H        1.1950    -2.2400     2.3560 H     1 <1>   0.0800 
 30 H        1.1340     2.5050     0.6160 H     1 <1>   0.0800 
 31 H        1.8750     2.2380     2.1700 H     1 <1>   0.0800 
 32 H       -1.4660    -0.6890     0.5270 H     1 <1>   0.0800 
 33 H       -0.6670    -0.9210    -1.0090 H     1 <1>   0.0800 
 34 H        1.0290    -3.9170     0.0220 H     1 <1>   0.0800 
 35 H       -0.2070    -3.9710     1.2650 H     1 <1>   0.0800 
 36 H        4.2100     1.5670     2.3670 H     1 <1>   0.1500 
 37 H       -2.5630    -2.3180    -1.3390 H     1 <1>   0.0800 
 38 H       -0.5410    -3.5940    -1.6760 H     1 <1>   0.0800 
 39 H        4.7890     2.3550    -2.4500 H     1 <1>   0.1500 
 40 H        6.4560     1.6420     1.3850 H     1 <1>   0.1500 
 41 H       -2.2150    -2.8350     1.4040 H     1 <1>   0.4000 
 42 H       -2.3870    -5.1980    -1.4440 H     1 <1>   0.0800 
 43 H       -2.1540    -5.2700     0.2720 H     1 <1>   0.0800 
 44 H        1.2820     2.6630    -3.3470 H     1 <1>   0.0800 
 45 H        2.7680     1.7270    -3.4670 H     1 <1>   0.0800 
 46 H        2.8330     3.4710    -3.1520 H     1 <1>   0.0800 
 47 H        6.7340     2.0380    -1.0260 H     1 <1>   0.1500 
 48 H       -0.5530    -6.8450     1.1920 H     1 <1>   0.1500 
 49 H       -0.3320    -5.9180    -2.9520 H     1 <1>   0.1500 
 50 H        1.1400    -8.5480     0.8130 H     1 <1>   0.1500 
 51 H        1.3530    -7.6580    -3.1640 H     1 <1>   0.1500 
@<TRIPOS>BOND
  1   1   2  2   
  2   2   3  am  
  3   2   4  1   
  4   3   5  1   
  5   3  27  1   
  6   4   6  1   
  7   4  28  1   
  8   4  29  1   
  9   5   7  1   
 10   5  30  1   
 11   5  31  1   
 12   6   8  1   
 13   6   9  1   
 14   7  10  ar  
 15   7  11  ar  
 16   8  12  1   
 17   8  32  1   
 18   8  33  1   
 19   9  13  1   
 20   9  34  1   
 21   9  35  1   
 22  10  14  1   
 23  10  15  ar  
 24  11  16  ar  
 25  11  36  1   
 26  12  13  1   
 27  12  17  1   
 28  12  37  1   
 29  13  18  1   
 30  13  38  1   
 31  14  19  1   
 32  15  20  ar  
 33  15  39  1   
 34  16  20  ar  
 35  16  40  1   
 36  17  41  1   
 37  18  21  1   
 38  18  42  1   
 39  18  43  1   
 40  19  44  1   
 41  19  45  1   
 42  19  46  1   
 43  20  47  1   
 44  21  22  ar  
 45  21  23  ar  
 46  22  24  ar  
 47  22  48  1   
 48  23  25  ar  
 49  23  49  1   
 50  24  26  ar  
 51  24  50  1   
 52  25  26  ar  
 53  25  51  1   
@<TRIPOS>SUBSTRUCTURE
  1 ****   6 GROUP 4 **** **** 0

# MOE 2024.06 (io_trps.svl 2023.06)
