@<TRIPOS>MOLECULE
NONAME
51 53 1 0 0 
SMALL
USER_CHARGES


@<TRIPOS>ATOM
  1 O       -1.4880     0.7330    -1.7440 O.2   1 <1>  -0.5700 
  2 C       -1.5130     1.4310    -0.7470 C.2   1 <1>   0.5440 
  3 N       -2.3270     1.0490     0.3030 N.am  1 <1>  -0.6600 
  4 C       -0.7050     2.6370    -0.7060 C.ar  1 <1>   0.0860 
  5 C       -2.9140    -0.3240     0.3230 C.3   1 <1>   0.1400 
  6 C       -2.7570     1.9860     1.3820 C.3   1 <1>   0.1400 
  7 C        0.1160     2.9340     0.3810 C.ar  1 <1>  -0.1500 
  8 C       -0.7200     3.5420    -1.7680 C.ar  1 <1>  -0.1500 
  9 C       -4.2080    -0.3930    -0.5030 C.3   1 <1>   0.1400 
 10 C       -4.2620     1.9320     1.6810 C.3   1 <1>  -0.1600 
 11 C        0.8650     4.0940     0.4110 C.ar  1 <1>   0.0830 
 12 C        0.0340     4.7030    -1.7430 C.ar  1 <1>  -0.1500 
 13 N       -5.3540     0.2990     0.1710 N.am  1 <1>  -0.6600 
 14 C       -5.1460     1.7500     0.4430 C.3   1 <1>   0.1400 
 15 O        1.6320     4.3470     1.4810 O.3   1 <1>  -0.5320 
 16 C        0.8300     4.9860    -0.6480 C.ar  1 <1>  -0.1500 
 17 C       -6.5160    -0.3140     0.5750 C.2   1 <1>   0.5690 
 18 O       -7.2880     0.2420     1.3230 O.2   1 <1>  -0.5700 
 19 C       -6.8520    -1.7290     0.1100 C.3   1 <1>  -0.0990 
 20 C       -8.3420    -2.1220     0.1990 C.3   1 <1>  -0.0800 
 21 C       -8.5180    -3.6150    -0.1350 C.3   1 <1>   0.1200 
 22 C       -9.2170    -1.2710    -0.7400 C.3   1 <1>  -0.1600 
 23 O       -9.8680    -3.9660    -0.0850 O.3   1 <1>  -0.5600 
 24 C      -10.6540    -1.8040    -0.7400 C.3   1 <1>  -0.1600 
 25 C      -10.6780    -3.3120    -1.0120 C.3   1 <1>   0.1200 
 26 H       -3.1020    -0.6380     1.3350 H     1 <1>   0.0800 
 27 H       -2.2000    -1.0080    -0.1020 H     1 <1>   0.0800 
 28 H       -2.5200     2.9940     1.0890 H     1 <1>   0.0800 
 29 H       -2.2050     1.7680     2.2800 H     1 <1>   0.0800 
 30 H        0.1730     2.2510     1.2090 H     1 <1>   0.1500 
 31 H       -1.3330     3.3200    -2.6250 H     1 <1>   0.1500 
 32 H       -4.4320    -1.4310    -0.6580 H     1 <1>   0.0800 
 33 H       -4.0390     0.0480    -1.4710 H     1 <1>   0.0800 
 34 H       -4.5290     2.8600     2.1530 H     1 <1>   0.0800 
 35 H       -4.4750     1.1560     2.3950 H     1 <1>   0.0800 
 36 H        0.0010     5.3830    -2.5770 H     1 <1>   0.1500 
 37 H       -4.7060     2.2270    -0.4160 H     1 <1>   0.0800 
 38 H       -6.0990     2.2200     0.6190 H     1 <1>   0.0800 
 39 H        2.1520     5.1660     1.3990 H     1 <1>   0.4500 
 40 H        1.4140     5.8880    -0.6270 H     1 <1>   0.1500 
 41 H       -6.2760    -2.4060     0.7130 H     1 <1>   0.0800 
 42 H       -6.5430    -1.8400    -0.9120 H     1 <1>   0.0800 
 43 H       -8.6740    -1.9770     1.2140 H     1 <1>   0.0800 
 44 H       -8.0000    -4.2240     0.5850 H     1 <1>   0.0800 
 45 H       -8.1450    -3.8420    -1.1190 H     1 <1>   0.0800 
 46 H       -8.8250    -1.3130    -1.7410 H     1 <1>   0.0800 
 47 H       -9.2170    -0.2420    -0.4220 H     1 <1>   0.0800 
 48 H      -11.2350    -1.2920    -1.4860 H     1 <1>   0.0800 
 49 H      -11.1100    -1.6190     0.2170 H     1 <1>   0.0800 
 50 H      -11.6770    -3.6990    -0.9040 H     1 <1>   0.0800 
 51 H      -10.3190    -3.5370    -2.0020 H     1 <1>   0.0800 
@<TRIPOS>BOND
  1   1   2  2   
  2   2   3  am  
  3   2   4  1   
  4   3   5  1   
  5   3   6  1   
  6   4   7  ar  
  7   4   8  ar  
  8   5   9  1   
  9   5  26  1   
 10   5  27  1   
 11   6  10  1   
 12   6  28  1   
 13   6  29  1   
 14   7  11  ar  
 15   7  30  1   
 16   8  12  ar  
 17   8  31  1   
 18   9  13  1   
 19   9  32  1   
 20   9  33  1   
 21  10  14  1   
 22  10  34  1   
 23  10  35  1   
 24  11  15  1   
 25  11  16  ar  
 26  12  16  ar  
 27  12  36  1   
 28  13  14  1   
 29  13  17  am  
 30  14  37  1   
 31  14  38  1   
 32  15  39  1   
 33  16  40  1   
 34  17  18  2   
 35  17  19  1   
 36  19  20  1   
 37  19  41  1   
 38  19  42  1   
 39  20  21  1   
 40  20  22  1   
 41  20  43  1   
 42  21  23  1   
 43  21  44  1   
 44  21  45  1   
 45  22  24  1   
 46  22  46  1   
 47  22  47  1   
 48  23  25  1   
 49  24  25  1   
 50  24  48  1   
 51  24  49  1   
 52  25  50  1   
 53  25  51  1   
@<TRIPOS>SUBSTRUCTURE
  1 ****   9 GROUP 4 **** **** 0

# MOE 2024.06 (io_trps.svl 2023.06)
