@<TRIPOS>MOLECULE
NONAME
47 50 1 0 0 
SMALL
USER_CHARGES


@<TRIPOS>ATOM
  1 CL      -0.9160     1.0850    -1.4530 Cl    1 <1>  -0.1770 
  2 C        0.2560     2.2200    -0.8300 C.ar  1 <1>   0.1770 
  3 C        0.0300     3.5690    -0.9570 C.ar  1 <1>  -0.1500 
  4 C        1.4060     1.7190    -0.2120 C.ar  1 <1>  -0.1500 
  5 C        0.9860     4.4590    -0.4500 C.ar  1 <1>  -0.1520 
  6 C        2.3440     2.5900     0.2880 C.ar  1 <1>  -0.1500 
  7 N        1.0340     5.8330    -0.4290 N.pl3 1 <1>   0.0480 
  8 C        2.1330     3.9700     0.1680 C.ar  1 <1>   0.0000 
  9 C        2.2080     6.2250     0.1910 C.2   1 <1>  -0.2370 
 10 C       -0.0370     6.7180    -0.9380 C.3   1 <1>   0.0160 
 11 C        2.8730     5.0920     0.5670 C.2   1 <1>  -0.1500 
 12 C        2.6110     7.5960     0.4030 C.2   1 <1>   0.7150 
 13 O        1.7970     8.5000     0.4460 O.2   1 <1>  -0.5700 
 14 N        3.9360     7.9400     0.5320 N.am  1 <1>  -0.6600 
 15 C        4.3440     9.0480     1.4560 C.3   1 <1>   0.1400 
 16 C        5.0040     7.3310    -0.3100 C.3   1 <1>   0.1400 
 17 C        4.9970    10.2950     0.7930 C.3   1 <1>   0.4230 
 18 C        5.5800     8.3510    -1.3160 C.3   1 <1>  -0.0800 
 19 N        4.5530    10.6160    -0.6220 N.4   1 <1>  -0.9590 
 20 C        6.5380    10.2590     0.8970 C.3   1 <1>   0.1200 
 21 C        6.9930     8.8320    -0.9510 C.3   1 <1>   0.1200 
 22 C        4.5920     9.4900    -1.6190 C.3   1 <1>   0.3430 
 23 C        3.1760    11.2030    -0.6060 C.3   1 <1>   0.2630 
 24 O        7.0940     9.0770     0.4130 O.3   1 <1>  -0.5600 
 25 H       -0.8640     3.9230    -1.4340 H     1 <1>   0.1500 
 26 H        1.5350     0.6540    -0.1390 H     1 <1>   0.1500 
 27 H        3.2370     2.2350     0.7700 H     1 <1>   0.1500 
 28 H        0.3930     7.4830    -1.5560 H     1 <1>   0.0800 
 29 H       -0.5430     7.1730    -0.1060 H     1 <1>   0.0800 
 30 H       -0.7420     6.1540    -1.5190 H     1 <1>   0.0800 
 31 H        3.8090     5.0250     1.0930 H     1 <1>   0.1500 
 32 H        3.4800     9.3820     2.0040 H     1 <1>   0.0800 
 33 H        5.0220     8.6450     2.1900 H     1 <1>   0.0800 
 34 H        5.7790     6.9290     0.3210 H     1 <1>   0.0800 
 35 H        4.5910     6.5080    -0.8680 H     1 <1>   0.0800 
 36 H        4.7080    11.1320     1.4070 H     1 <1>   0.0800 
 37 H        5.6940     7.8150    -2.2420 H     1 <1>   0.0800 
 38 H        5.1960    11.3390    -0.9670 H     1 <1>   0.4500 
 39 H        6.8170    10.3190     1.9350 H     1 <1>   0.0800 
 40 H        6.9880    11.0930     0.3880 H     1 <1>   0.0800 
 41 H        7.2860     9.7110    -1.5000 H     1 <1>   0.0800 
 42 H        7.7010     8.0510    -1.1700 H     1 <1>   0.0800 
 43 H        3.6090     9.0540    -1.6920 H     1 <1>   0.0800 
 44 H        4.8260     9.8990    -2.5890 H     1 <1>   0.0800 
 45 H        2.4650    10.4850    -0.2350 H     1 <1>   0.0800 
 46 H        2.8790    11.4930    -1.6010 H     1 <1>   0.0800 
 47 H        3.1430    12.0730     0.0280 H     1 <1>   0.0800 
@<TRIPOS>BOND
  1   1   2  1   
  2   2   3  ar  
  3   2   4  ar  
  4   3   5  ar  
  5   3  25  1   
  6   4   6  ar  
  7   4  26  1   
  8   5   7  1   
  9   5   8  ar  
 10   6   8  ar  
 11   6  27  1   
 12   7   9  1   
 13   7  10  1   
 14   8  11  1   
 15   9  11  2   
 16   9  12  1   
 17  10  28  1   
 18  10  29  1   
 19  10  30  1   
 20  11  31  1   
 21  12  13  2   
 22  12  14  am  
 23  14  15  1   
 24  14  16  1   
 25  15  17  1   
 26  15  32  1   
 27  15  33  1   
 28  16  18  1   
 29  16  34  1   
 30  16  35  1   
 31  17  19  1   
 32  17  20  1   
 33  17  36  1   
 34  18  21  1   
 35  18  22  1   
 36  18  37  1   
 37  19  22  1   
 38  19  23  1   
 39  19  38  1   
 40  20  24  1   
 41  20  39  1   
 42  20  40  1   
 43  21  24  1   
 44  21  41  1   
 45  21  42  1   
 46  22  43  1   
 47  22  44  1   
 48  23  45  1   
 49  23  46  1   
 50  23  47  1   
@<TRIPOS>SUBSTRUCTURE
  1 ****   9 GROUP 4 **** **** 0

# MOE 2024.06 (io_trps.svl 2023.06)
