@<TRIPOS>MOLECULE
NONAME
56 59 1 0 0 
SMALL
USER_CHARGES


@<TRIPOS>ATOM
  1 O        0.8310    -1.7850     0.6520 O.3   1 <1>  -0.5600 
  2 C        0.1340    -2.1470    -0.5160 C.3   1 <1>   0.2800 
  3 C        1.1660    -0.4270     0.8610 C.3   1 <1>   0.1200 
  4 C       -1.2150    -1.3840    -0.6040 C.3   1 <1>  -0.1600 
  5 C       -0.1090    -3.6660    -0.4020 C.3   1 <1>  -0.1600 
  6 C        1.0450    -1.9150    -1.7400 C.3   1 <1>  -0.1600 
  7 C        0.0600     0.5330     0.3980 C.3   1 <1>   0.2000 
  8 C       -1.3130    -0.1730     0.3380 C.3   1 <1>   0.2800 
  9 C        1.1500    -4.5290    -0.5790 C.3   1 <1>   0.3430 
 10 C        2.3810    -2.6680    -1.6550 C.3   1 <1>   0.3430 
 11 O        0.0210     1.6410     1.2340 O.3   1 <1>  -0.6800 
 12 O       -2.2270     0.7110    -0.2020 O.3   1 <1>  -0.6800 
 13 C       -1.8720    -0.5670     1.7150 C.3   1 <1>  -0.2400 
 14 N        2.3540    -3.6670    -0.5470 N.4   1 <1>  -0.9590 
 15 C        3.6390    -4.3820    -0.3500 C.3   1 <1>   0.4860 
 16 C        4.7010    -3.3380    -0.0650 C.ar  1 <1>  -0.1440 
 17 C        5.7160    -3.0960    -0.9780 C.ar  1 <1>  -0.1500 
 18 C        4.6440    -2.5850     1.0990 C.ar  1 <1>  -0.1500 
 19 C        6.6450    -2.1010    -0.7390 C.ar  1 <1>  -0.1500 
 20 C        5.5750    -1.5910     1.3290 C.ar  1 <1>  -0.1500 
 21 C        6.5910    -1.3220     0.4150 C.ar  1 <1>   0.0000 
 22 C        7.5440    -0.2600     0.6600 C.ar  1 <1>   0.3100 
 23 N        7.0590     0.9440     0.9690 N.ar  1 <1>  -0.6200 
 24 C        8.9120    -0.5120     0.5720 C.ar  1 <1>  -0.1500 
 25 C        7.9440     1.9010     1.1820 C.ar  1 <1>   0.1600 
 26 C        9.8250     0.4940     0.7970 C.ar  1 <1>  -0.1500 
 27 C        9.3160     1.7340     1.1100 C.ar  1 <1>  -0.1500 
 28 H        1.3310    -0.3050     1.9180 H     1 <1>   0.0800 
 29 H        2.0840    -0.2130     0.3430 H     1 <1>   0.0800 
 30 H       -1.3480    -1.0510    -1.6190 H     1 <1>   0.0800 
 31 H       -2.0320    -2.0510    -0.3970 H     1 <1>   0.0800 
 32 H       -0.5580    -3.8810     0.5520 H     1 <1>   0.0800 
 33 H       -0.8170    -3.9730    -1.1520 H     1 <1>   0.0800 
 34 H        0.5310    -2.2540    -2.6220 H     1 <1>   0.0800 
 35 H        1.2350    -0.8680    -1.8920 H     1 <1>   0.0800 
 36 H        0.3050     0.8950    -0.5850 H     1 <1>   0.0800 
 37 H        1.1050    -5.0520    -1.5210 H     1 <1>   0.0800 
 38 H        1.1940    -5.2590     0.2140 H     1 <1>   0.0800 
 39 H        3.1690    -1.9550    -1.4680 H     1 <1>   0.0800 
 40 H        2.5870    -3.1560    -2.5940 H     1 <1>   0.0800 
 41 H       -0.7890     2.1500     1.0150 H     1 <1>   0.4000 
 42 H       -3.1320     0.3620    -0.0870 H     1 <1>   0.4000 
 43 H       -1.2110    -1.2570     2.2060 H     1 <1>   0.0800 
 44 H       -2.8330    -1.0380     1.6230 H     1 <1>   0.0800 
 45 H       -1.9660     0.2990     2.3460 H     1 <1>   0.0800 
 46 H        2.2150    -3.0710     0.2930 H     1 <1>   0.4500 
 47 H        3.5670    -5.0580     0.4860 H     1 <1>   0.0800 
 48 H        3.8950    -4.9450    -1.2330 H     1 <1>   0.0800 
 49 H        5.7920    -3.6710    -1.8860 H     1 <1>   0.1500 
 50 H        3.8770    -2.7540     1.8370 H     1 <1>   0.1500 
 51 H        7.4210    -1.9120    -1.4600 H     1 <1>   0.1500 
 52 H        5.5220    -0.9990     2.2280 H     1 <1>   0.1500 
 53 H        9.2530    -1.5010     0.3300 H     1 <1>   0.1500 
 54 H        7.5560     2.8740     1.4300 H     1 <1>   0.1500 
 55 H       10.8860     0.3200     0.7330 H     1 <1>   0.1500 
 56 H        9.9710     2.5650     1.2980 H     1 <1>   0.1500 
@<TRIPOS>BOND
  1   1   2  1   
  2   1   3  1   
  3   2   4  1   
  4   2   5  1   
  5   2   6  1   
  6   3   7  1   
  7   3  28  1   
  8   3  29  1   
  9   4   8  1   
 10   4  30  1   
 11   4  31  1   
 12   5   9  1   
 13   5  32  1   
 14   5  33  1   
 15   6  10  1   
 16   6  34  1   
 17   6  35  1   
 18   7   8  1   
 19   7  11  1   
 20   7  36  1   
 21   8  12  1   
 22   8  13  1   
 23   9  14  1   
 24   9  37  1   
 25   9  38  1   
 26  10  14  1   
 27  10  39  1   
 28  10  40  1   
 29  11  41  1   
 30  12  42  1   
 31  13  43  1   
 32  13  44  1   
 33  13  45  1   
 34  14  15  1   
 35  14  46  1   
 36  15  16  1   
 37  15  47  1   
 38  15  48  1   
 39  16  17  ar  
 40  16  18  ar  
 41  17  19  ar  
 42  17  49  1   
 43  18  20  ar  
 44  18  50  1   
 45  19  21  ar  
 46  19  51  1   
 47  20  21  ar  
 48  20  52  1   
 49  21  22  1   
 50  22  23  ar  
 51  22  24  ar  
 52  23  25  ar  
 53  24  26  ar  
 54  24  53  1   
 55  25  27  ar  
 56  25  54  1   
 57  26  27  ar  
 58  26  55  1   
 59  27  56  1   
@<TRIPOS>SUBSTRUCTURE
  1 ****  18 GROUP 4 **** **** 0

# MOE 2024.06 (io_trps.svl 2023.06)
