@<TRIPOS>MOLECULE
NONAME
49 51 1 0 0 
SMALL
USER_CHARGES


@<TRIPOS>ATOM
  1 S        0.0190     1.5090    -1.1420 S.o2  1 <1>   1.0900 
  2 O       -0.7790     0.3860    -1.5740 O.2   1 <1>  -0.6500 
  3 O       -0.5860     2.8210    -1.0640 O.2   1 <1>  -0.6500 
  4 C        1.4460     1.6260    -2.1990 C.3   1 <1>  -0.0550 
  5 C        0.7120     1.1290     0.4520 C.3   1 <1>  -0.0550 
  6 C        2.4570     2.5790    -1.5880 C.3   1 <1>   0.2090 
  7 C        1.8010     2.1320     0.7890 C.3   1 <1>   0.2090 
  8 N        2.8560     2.0520    -0.2560 N.pl3 1 <1>  -0.8380 
  9 C        4.1400     2.3720     0.1630 C.ar  1 <1>   0.1000 
 10 C        4.4820     3.6740     0.5000 C.ar  1 <1>  -0.1500 
 11 C        5.1030     1.3790     0.2560 C.ar  1 <1>  -0.1500 
 12 C        5.7640     4.0100     0.9210 C.ar  1 <1>   0.0860 
 13 C        6.3830     1.6820     0.6820 C.ar  1 <1>  -0.1500 
 14 C        6.0890     5.3820     1.2600 C.2   1 <1>   0.5440 
 15 C        6.7070     2.9860     1.0140 C.ar  1 <1>  -0.1500 
 16 O        5.4180     5.9530     2.0990 O.2   1 <1>  -0.5700 
 17 N        7.1240     6.0630     0.6540 N.am  1 <1>  -0.6600 
 18 C        7.5950     7.3890     1.1800 C.3   1 <1>   0.2840 
 19 C        7.8450     5.5870    -0.5640 C.3   1 <1>   0.0600 
 20 C        7.5520     8.5040     0.1310 C.ar  1 <1>   0.1670 
 21 N        8.7260     8.8180    -0.4080 N.ar  1 <1>  -0.6200 
 22 C        6.3500     9.1280    -0.2100 C.ar  1 <1>  -0.1430 
 23 C        8.7130     9.7830    -1.3120 C.ar  1 <1>   0.1600 
 24 C        6.3650    10.1320    -1.1580 C.ar  1 <1>  -0.1500 
 25 C        5.0170     8.7380     0.4180 C.3   1 <1>  -0.0970 
 26 C        7.5790    10.4610    -1.7170 C.ar  1 <1>  -0.1500 
 27 H        1.1550     1.9850    -3.1670 H     1 <1>   0.0800 
 28 H        1.9040     0.6640    -2.3190 H     1 <1>   0.0800 
 29 H        1.1360     0.1430     0.4510 H     1 <1>   0.0800 
 30 H       -0.0530     1.1660     1.2020 H     1 <1>   0.0800 
 31 H        2.0310     3.5640    -1.4820 H     1 <1>   0.0800 
 32 H        3.3240     2.6480    -2.2240 H     1 <1>   0.0800 
 33 H        2.2260     1.8990     1.7510 H     1 <1>   0.0800 
 34 H        1.3940     3.1300     0.8280 H     1 <1>   0.0800 
 35 H        3.7380     4.4460     0.4380 H     1 <1>   0.1500 
 36 H        4.8370     0.3710    -0.0040 H     1 <1>   0.1500 
 37 H        7.1230     0.9040     0.7580 H     1 <1>   0.1500 
 38 H        7.7010     3.2210     1.3540 H     1 <1>   0.1500 
 39 H        8.6100     7.2760     1.5190 H     1 <1>   0.0800 
 40 H        7.0190     7.6880     2.0360 H     1 <1>   0.0800 
 41 H        7.4230     4.6720    -0.9390 H     1 <1>   0.0800 
 42 H        8.8830     5.4270    -0.3310 H     1 <1>   0.0800 
 43 H        7.7760     6.3270    -1.3430 H     1 <1>   0.0800 
 44 H        9.6580    10.0470    -1.7540 H     1 <1>   0.1500 
 45 H        5.4660    10.6430    -1.4560 H     1 <1>   0.1500 
 46 H        5.0790     8.7650     1.4910 H     1 <1>   0.0800 
 47 H        4.7480     7.7430     0.1130 H     1 <1>   0.0800 
 48 H        4.2340     9.4070     0.1120 H     1 <1>   0.0800 
 49 H        7.6480    11.2350    -2.4590 H     1 <1>   0.1500 
@<TRIPOS>BOND
  1   1   2  2   
  2   1   3  2   
  3   1   4  1   
  4   1   5  1   
  5   4   6  1   
  6   4  27  1   
  7   4  28  1   
  8   5   7  1   
  9   5  29  1   
 10   5  30  1   
 11   6   8  1   
 12   6  31  1   
 13   6  32  1   
 14   7   8  1   
 15   7  33  1   
 16   7  34  1   
 17   8   9  1   
 18   9  10  ar  
 19   9  11  ar  
 20  10  12  ar  
 21  10  35  1   
 22  11  13  ar  
 23  11  36  1   
 24  12  14  1   
 25  12  15  ar  
 26  13  15  ar  
 27  13  37  1   
 28  14  16  2   
 29  14  17  am  
 30  15  38  1   
 31  17  18  1   
 32  17  19  1   
 33  18  20  1   
 34  18  39  1   
 35  18  40  1   
 36  19  41  1   
 37  19  42  1   
 38  19  43  1   
 39  20  21  ar  
 40  20  22  ar  
 41  21  23  ar  
 42  22  24  ar  
 43  22  25  1   
 44  23  26  ar  
 45  23  44  1   
 46  24  26  ar  
 47  24  45  1   
 48  25  46  1   
 49  25  47  1   
 50  25  48  1   
 51  26  49  1   
@<TRIPOS>SUBSTRUCTURE
  1 ****  10 GROUP 4 **** **** 0

# MOE 2024.06 (io_trps.svl 2023.06)
