@<TRIPOS>MOLECULE
NONAME
45 48 1 0 0 
SMALL
USER_CHARGES


@<TRIPOS>ATOM
  1 O        0.1650     0.1170    -0.2670 O.3   1 <1>  -0.5600 
  2 C        1.3450    -0.5100    -0.6890 C.3   1 <1>   0.3440 
  3 C        0.0820     1.4830    -0.5470 C.3   1 <1>   0.2950 
  4 C        1.2990    -1.9870    -0.3260 C.ar  1 <1>  -0.1440 
  5 C        2.5630     0.1460     0.0020 C.3   1 <1>   0.3430 
  6 C       -1.2800     1.9710    -0.0520 C.3   1 <1>  -0.1950 
  7 C        1.2300     2.2380     0.1620 C.3   1 <1>   0.3430 
  8 C        0.6970    -2.4220     0.8480 C.ar  1 <1>  -0.1500 
  9 C        1.8870    -2.9210    -1.1690 C.ar  1 <1>  -0.1500 
 10 N        2.5920     1.6520    -0.1370 N.4   1 <1>  -0.9590 
 11 C       -2.5090     1.8030    -0.8870 C.3   1 <1>  -0.2000 
 12 C       -1.9370     3.1740    -0.6550 C.3   1 <1>  -0.2000 
 13 C        0.6920    -3.7660     1.1780 C.ar  1 <1>  -0.1500 
 14 C        1.8810    -4.2650    -0.8390 C.ar  1 <1>  -0.1500 
 15 C        3.6530     2.2620     0.7130 C.3   1 <1>   0.4860 
 16 C        1.2860    -4.6880     0.3360 C.ar  1 <1>  -0.1500 
 17 C        3.7160     3.7470     0.4100 C.ar  1 <1>  -0.1440 
 18 C        3.1890     4.6880     1.2760 C.ar  1 <1>  -0.1500 
 19 C        4.2980     4.2340    -0.7460 C.ar  1 <1>  -0.1500 
 20 C        3.2500     6.0310     0.9430 C.ar  1 <1>   0.1600 
 21 C        4.3050     5.5990    -0.9830 C.ar  1 <1>   0.1600 
 22 N        3.7860     6.5000    -0.1690 N.ar  1 <1>  -0.6200 
 23 H        1.4130    -0.4080    -1.7590 H     1 <1>   0.0800 
 24 H        0.1440     1.6170    -1.6130 H     1 <1>   0.0800 
 25 H        3.4640    -0.2830    -0.4040 H     1 <1>   0.0800 
 26 H        2.5200    -0.1210     1.0450 H     1 <1>   0.0800 
 27 H       -1.4020     1.8300     1.0090 H     1 <1>   0.1000 
 28 H        1.0420     2.1980     1.2220 H     1 <1>   0.0800 
 29 H        1.2000     3.2740    -0.1340 H     1 <1>   0.0800 
 30 H        0.2190    -1.7220     1.5120 H     1 <1>   0.1500 
 31 H        2.3510    -2.6210    -2.0920 H     1 <1>   0.1500 
 32 H        2.8180     1.8930    -1.1100 H     1 <1>   0.4500 
 33 H       -2.4240     1.3590    -1.8640 H     1 <1>   0.1000 
 34 H       -3.4310     1.5340    -0.3980 H     1 <1>   0.1000 
 35 H       -2.4880     3.8480    -0.0200 H     1 <1>   0.1000 
 36 H       -1.4990     3.6770    -1.5000 H     1 <1>   0.1000 
 37 H        0.2210    -4.0970     2.0880 H     1 <1>   0.1500 
 38 H        2.3370    -4.9860    -1.4960 H     1 <1>   0.1500 
 39 H        3.4300     2.1080     1.7570 H     1 <1>   0.0800 
 40 H        4.6090     1.8130     0.4980 H     1 <1>   0.0800 
 41 H        1.2800    -5.7340     0.5920 H     1 <1>   0.1500 
 42 H        2.7330     4.4060     2.2090 H     1 <1>   0.1500 
 43 H        4.7520     3.5820    -1.4700 H     1 <1>   0.1500 
 44 H        2.8370     6.7580     1.6240 H     1 <1>   0.1500 
 45 H        4.7610     5.9710    -1.8860 H     1 <1>   0.1500 
@<TRIPOS>BOND
  1   1   2  1   
  2   1   3  1   
  3   2   4  1   
  4   2   5  1   
  5   2  23  1   
  6   3   6  1   
  7   3   7  1   
  8   3  24  1   
  9   4   8  ar  
 10   4   9  ar  
 11   5  10  1   
 12   5  25  1   
 13   5  26  1   
 14   6  11  1   
 15   6  12  1   
 16   6  27  1   
 17   7  10  1   
 18   7  28  1   
 19   7  29  1   
 20   8  13  ar  
 21   8  30  1   
 22   9  14  ar  
 23   9  31  1   
 24  10  15  1   
 25  10  32  1   
 26  11  12  1   
 27  11  33  1   
 28  11  34  1   
 29  12  35  1   
 30  12  36  1   
 31  13  16  ar  
 32  13  37  1   
 33  14  16  ar  
 34  14  38  1   
 35  15  17  1   
 36  15  39  1   
 37  15  40  1   
 38  16  41  1   
 39  17  18  ar  
 40  17  19  ar  
 41  18  20  ar  
 42  18  42  1   
 43  19  21  ar  
 44  19  43  1   
 45  20  22  ar  
 46  20  44  1   
 47  21  22  ar  
 48  21  45  1   
@<TRIPOS>SUBSTRUCTURE
  1 ****  10 GROUP 4 **** **** 0

# MOE 2024.06 (io_trps.svl 2023.06)
