@<TRIPOS>MOLECULE
NONAME
45 47 1 0 0 
SMALL
USER_CHARGES


@<TRIPOS>ATOM
  1 O        0.7100     0.0130     2.6580 O.co2 1 <1>  -0.9000 
  2 C        1.2000    -0.4680     1.6300 C.2   1 <1>   0.9060 
  3 O        0.9320    -1.6290     1.2770 O.co2 1 <1>  -0.9000 
  4 C        2.1740     0.3450     0.7640 C.3   1 <1>  -0.1060 
  5 C        3.4650    -0.5020     0.6480 C.3   1 <1>   0.2000 
  6 C        2.5790     1.6790     1.4530 C.3   1 <1>  -0.1600 
  7 C        1.5300     0.5940    -0.6350 C.3   1 <1>  -0.0160 
  8 O        3.1960    -1.6710    -0.0520 O.3   1 <1>  -0.6800 
  9 C        4.6390     0.2290    -0.0280 C.3   1 <1>   0.2090 
 10 C        3.6920     2.4240     0.7120 C.3   1 <1>   0.2090 
 11 C        0.4920     1.7150    -0.6950 C.ar  1 <1>  -0.1440 
 12 N        4.9010     1.5620     0.5960 N.pl3 1 <1>  -0.8380 
 13 C        0.7420     2.8600    -1.4380 C.ar  1 <1>  -0.1500 
 14 C       -0.7120     1.6030    -0.0160 C.ar  1 <1>  -0.1500 
 15 C        6.0980     2.1670     0.2680 C.ar  1 <1>   0.4100 
 16 C       -0.1940     3.8780    -1.4990 C.ar  1 <1>  -0.1500 
 17 C       -1.6490     2.6200    -0.0740 C.ar  1 <1>  -0.1500 
 18 N        6.0580     3.2090    -0.5560 N.ar  1 <1>  -0.6200 
 19 C        7.2830     1.6620     0.7960 C.ar  1 <1>  -0.1500 
 20 C       -1.3920     3.7590    -0.8150 C.ar  1 <1>  -0.1500 
 21 C        7.2260     3.7520    -0.8550 C.ar  1 <1>   0.1600 
 22 C        8.4890     2.2370     0.4740 C.ar  1 <1>  -0.1500 
 23 C        8.4560     3.3190    -0.3830 C.ar  1 <1>  -0.1430 
 24 C        9.7500     4.0070    -0.7840 C.3   1 <1>  -0.0970 
 25 H        3.7760    -0.7960     1.6360 H     1 <1>   0.0800 
 26 H        2.9200     1.4730     2.4520 H     1 <1>   0.0800 
 27 H        1.7210     2.3190     1.5510 H     1 <1>   0.0800 
 28 H        2.2970     0.8140    -1.3510 H     1 <1>   0.0800 
 29 H        1.0590    -0.3130    -0.9740 H     1 <1>   0.0800 
 30 H        2.3210    -1.9970     0.3180 H     1 <1>   0.4000 
 31 H        4.4280     0.3720    -1.0720 H     1 <1>   0.0800 
 32 H        5.5180    -0.3840     0.0560 H     1 <1>   0.0800 
 33 H        3.9460     3.3200     1.2540 H     1 <1>   0.0800 
 34 H        3.3620     2.7120    -0.2700 H     1 <1>   0.0800 
 35 H        1.6680     2.9630    -1.9740 H     1 <1>   0.1500 
 36 H       -0.9220     0.7220     0.5690 H     1 <1>   0.1500 
 37 H        0.0110     4.7620    -2.0760 H     1 <1>   0.1500 
 38 H       -2.5730     2.5170     0.4650 H     1 <1>   0.1500 
 39 H        7.2280     0.8220     1.4610 H     1 <1>   0.1500 
 40 H       -2.1200     4.5490    -0.8580 H     1 <1>   0.1500 
 41 H        7.1980     4.5960    -1.5210 H     1 <1>   0.1500 
 42 H        9.4150     1.8600     0.8730 H     1 <1>   0.1500 
 43 H       10.4030     3.3040    -1.2700 H     1 <1>   0.0800 
 44 H       10.2440     4.3950     0.0890 H     1 <1>   0.0800 
 45 H        9.5600     4.8220    -1.4600 H     1 <1>   0.0800 
@<TRIPOS>BOND
  1   1   2  ar  
  2   2   3  ar  
  3   2   4  1   
  4   4   5  1   
  5   4   6  1   
  6   4   7  1   
  7   5   8  1   
  8   5   9  1   
  9   5  25  1   
 10   6  10  1   
 11   6  26  1   
 12   6  27  1   
 13   7  11  1   
 14   7  28  1   
 15   7  29  1   
 16   8  30  1   
 17   9  12  1   
 18   9  31  1   
 19   9  32  1   
 20  10  12  1   
 21  10  33  1   
 22  10  34  1   
 23  11  13  ar  
 24  11  14  ar  
 25  12  15  1   
 26  13  16  ar  
 27  13  35  1   
 28  14  17  ar  
 29  14  36  1   
 30  15  18  ar  
 31  15  19  ar  
 32  16  20  ar  
 33  16  37  1   
 34  17  20  ar  
 35  17  38  1   
 36  18  21  ar  
 37  19  22  ar  
 38  19  39  1   
 39  20  40  1   
 40  21  23  ar  
 41  21  41  1   
 42  22  23  ar  
 43  22  42  1   
 44  23  24  1   
 45  24  43  1   
 46  24  44  1   
 47  24  45  1   
@<TRIPOS>SUBSTRUCTURE
  1 ****  10 GROUP 4 **** **** 0

# MOE 2024.06 (io_trps.svl 2023.06)
