@<TRIPOS>MOLECULE
NONAME
60 64 1 0 0 
SMALL
USER_CHARGES


@<TRIPOS>ATOM
  1 O       -1.0190     1.0330    -1.9660 O.3   1 <1>  -0.3630 
  2 C       -0.8320     2.1290    -1.1970 C.ar  1 <1>   0.0830 
  3 C        0.0480     0.1050    -2.0220 C.3   1 <1>   0.2640 
  4 C       -1.4080     2.2200     0.0690 C.ar  1 <1>  -0.1440 
  5 C       -0.0760     3.1760    -1.7030 C.ar  1 <1>  -0.1500 
  6 C       -0.1730    -0.9150    -0.9160 C.ar  1 <1>  -0.1440 
  7 C       -1.1940     3.3640     0.8240 C.ar  1 <1>  -0.1500 
  8 C       -2.2510     1.0950     0.6420 C.3   1 <1>   0.4870 
  9 C        0.1250     4.3130    -0.9420 C.ar  1 <1>  -0.1500 
 10 C       -1.0550    -1.9680    -1.1050 C.ar  1 <1>  -0.1500 
 11 C        0.4960    -0.7920     0.2930 C.ar  1 <1>  -0.1500 
 12 C       -0.4320     4.4050     0.3210 C.ar  1 <1>  -0.1500 
 13 N       -3.2960     0.7090    -0.3370 N.4   1 <1>  -0.9590 
 14 C       -1.2790    -2.8820    -0.0890 C.ar  1 <1>  -0.1500 
 15 C        0.2700    -1.7030     1.3100 C.ar  1 <1>  -0.1500 
 16 C       -4.2740     1.8120    -0.6340 C.3   1 <1>   0.3430 
 17 C       -3.9430    -0.5890     0.0280 C.3   1 <1>   0.3430 
 18 C       -0.6200    -2.7460     1.1200 C.ar  1 <1>  -0.1500 
 19 C       -5.2220     2.1350     0.5460 C.3   1 <1>   0.1440 
 20 C       -5.3210    -0.4060     0.6860 C.3   1 <1>  -0.1600 
 21 C       -6.5450     2.5940    -0.0330 C.ar  1 <1>   0.1670 
 22 C       -5.4530     0.9110     1.4690 C.3   1 <1>  -0.1600 
 23 C       -4.7790     3.3810     1.3600 C.3   1 <1>  -0.1600 
 24 N       -7.1940     1.9860    -1.0000 N.ar  1 <1>  -0.6200 
 25 C       -6.9960     3.7300     0.5680 C.ar  1 <1>  -0.1430 
 26 C       -6.0480     4.2090     1.6370 C.3   1 <1>  -0.0170 
 27 C       -8.3380     2.5690    -1.3390 C.ar  1 <1>   0.4770 
 28 C       -8.1910     4.2500     0.1370 C.ar  1 <1>   0.1600 
 29 N       -8.8740     3.6680    -0.8270 N.ar  1 <1>  -0.6200 
 30 C       -9.1250     1.9070    -2.4440 C.3   1 <1>  -0.0970 
 31 H        0.9850     0.6230    -1.9080 H     1 <1>   0.0800 
 32 H        0.0240    -0.3700    -2.9870 H     1 <1>   0.0800 
 33 H        0.3520     3.1040    -2.6870 H     1 <1>   0.1500 
 34 H       -1.6110     3.4620     1.8120 H     1 <1>   0.1500 
 35 H       -2.7060     1.4090     1.5660 H     1 <1>   0.0800 
 36 H       -1.6190     0.2490     0.8510 H     1 <1>   0.0800 
 37 H        0.7140     5.1260    -1.3320 H     1 <1>   0.1500 
 38 H       -1.5630    -2.0880    -2.0470 H     1 <1>   0.1500 
 39 H        1.1950     0.0130     0.4500 H     1 <1>   0.1500 
 40 H       -0.2690     5.2920     0.9110 H     1 <1>   0.1500 
 41 H       -2.7430     0.5620    -1.2000 H     1 <1>   0.4500 
 42 H       -1.9540    -3.7070    -0.2420 H     1 <1>   0.1500 
 43 H        0.7940    -1.6080     2.2460 H     1 <1>   0.1500 
 44 H       -4.8810     1.5010    -1.4690 H     1 <1>   0.0800 
 45 H       -3.7530     2.7040    -0.9380 H     1 <1>   0.0800 
 46 H       -3.2950    -1.1320     0.6980 H     1 <1>   0.0800 
 47 H       -4.0650    -1.1920    -0.8570 H     1 <1>   0.0800 
 48 H       -0.7870    -3.4610     1.9090 H     1 <1>   0.1500 
 49 H       -5.5090    -1.2410     1.3390 H     1 <1>   0.0800 
 50 H       -6.0760    -0.4380    -0.0810 H     1 <1>   0.0800 
 51 H       -6.4300     0.9700     1.9190 H     1 <1>   0.0800 
 52 H       -4.7350     0.9010     2.2690 H     1 <1>   0.0800 
 53 H       -4.1220     3.9870     0.7600 H     1 <1>   0.0800 
 54 H       -4.2690     3.1340     2.2740 H     1 <1>   0.0800 
 55 H       -5.8610     5.2660     1.5610 H     1 <1>   0.0800 
 56 H       -6.4530     3.9790     2.6080 H     1 <1>   0.0800 
 57 H       -8.5930     5.1460     0.5790 H     1 <1>   0.1500 
 58 H       -8.8570     0.8710    -2.5270 H     1 <1>   0.0800 
 59 H       -8.9160     2.4030    -3.3730 H     1 <1>   0.0800 
 60 H      -10.1760     1.9790    -2.2360 H     1 <1>   0.0800 
@<TRIPOS>BOND
  1   1   2  1   
  2   1   3  1   
  3   2   4  ar  
  4   2   5  ar  
  5   3   6  1   
  6   3  31  1   
  7   3  32  1   
  8   4   7  ar  
  9   4   8  1   
 10   5   9  ar  
 11   5  33  1   
 12   6  10  ar  
 13   6  11  ar  
 14   7  12  ar  
 15   7  34  1   
 16   8  13  1   
 17   8  35  1   
 18   8  36  1   
 19   9  12  ar  
 20   9  37  1   
 21  10  14  ar  
 22  10  38  1   
 23  11  15  ar  
 24  11  39  1   
 25  12  40  1   
 26  13  16  1   
 27  13  17  1   
 28  13  41  1   
 29  14  18  ar  
 30  14  42  1   
 31  15  18  ar  
 32  15  43  1   
 33  16  19  1   
 34  16  44  1   
 35  16  45  1   
 36  17  20  1   
 37  17  46  1   
 38  17  47  1   
 39  18  48  1   
 40  19  21  1   
 41  19  22  1   
 42  19  23  1   
 43  20  22  1   
 44  20  49  1   
 45  20  50  1   
 46  21  24  ar  
 47  21  25  ar  
 48  22  51  1   
 49  22  52  1   
 50  23  26  1   
 51  23  53  1   
 52  23  54  1   
 53  24  27  ar  
 54  25  26  1   
 55  25  28  ar  
 56  26  55  1   
 57  26  56  1   
 58  27  29  ar  
 59  27  30  1   
 60  28  29  ar  
 61  28  57  1   
 62  30  58  1   
 63  30  59  1   
 64  30  60  1   
@<TRIPOS>SUBSTRUCTURE
  1 ****  13 GROUP 4 **** **** 0

# MOE 2024.06 (io_trps.svl 2023.06)
