@<TRIPOS>MOLECULE
NONAME
41 42 1 0 0 
SMALL
USER_CHARGES


@<TRIPOS>ATOM
  1 S        0.0640     0.0630    -1.3750 S.o2  1 <1>   1.3330 
  2 O        0.6090     0.4360    -2.6610 O.2   1 <1>  -0.6500 
  3 O       -0.7450    -1.1280    -1.2580 O.2   1 <1>  -0.6500 
  4 N        1.3640    -0.1010    -0.2920 N.am  1 <1>  -0.8490 
  5 C       -0.8570     1.4670    -0.7420 C.3   1 <1>  -0.0550 
  6 C        0.9980    -0.7980     0.9470 C.3   1 <1>   0.1160 
  7 C        2.5090    -0.7770    -0.9130 C.3   1 <1>   0.1160 
  8 C       -0.1300     2.8200    -0.8980 C.3   1 <1>  -0.0800 
  9 C       -0.9490     4.0310    -0.4540 C.3   1 <1>   0.2000 
 10 C        1.1730     2.9390    -0.0970 C.3   1 <1>   0.2090 
 11 O       -1.5100     3.7610     0.7860 O.3   1 <1>  -0.6800 
 12 C        0.1140     5.1080    -0.2610 C.3   1 <1>   0.2090 
 13 N        1.2810     4.3690     0.3010 N.pl3 1 <1>  -0.8380 
 14 C        2.5300     4.9640     0.3520 C.ar  1 <1>   0.4100 
 15 N        2.6600     6.1630    -0.2030 N.ar  1 <1>  -0.6200 
 16 C        3.5890     4.3050     0.9730 C.ar  1 <1>  -0.1500 
 17 C        3.8640     6.7050    -0.1540 C.ar  1 <1>   0.1600 
 18 C        4.8370     4.8770     1.0170 C.ar  1 <1>  -0.1500 
 19 C        4.9770     6.1240     0.4270 C.ar  1 <1>  -0.1440 
 20 C        6.2940     6.8860     0.3910 C.3   1 <1>   1.1630 
 21 F        6.6620     7.1870    -0.8470 F     1 <1>  -0.3400 
 22 F        7.3050     6.2150     0.9290 F     1 <1>  -0.3400 
 23 F        6.2200     8.0370     1.0460 F     1 <1>  -0.3400 
 24 H       -1.7850     1.5290    -1.2750 H     1 <1>   0.0800 
 25 H       -1.0960     1.2990     0.2900 H     1 <1>   0.0800 
 26 H        1.8320    -0.8060     1.6280 H     1 <1>   0.0800 
 27 H        0.7090    -1.8150     0.7380 H     1 <1>   0.0800 
 28 H        0.1740    -0.2980     1.4270 H     1 <1>   0.0800 
 29 H        3.3190    -0.8650    -0.2100 H     1 <1>   0.0800 
 30 H        2.8580    -0.2090    -1.7600 H     1 <1>   0.0800 
 31 H        2.2240    -1.7600    -1.2510 H     1 <1>   0.0800 
 32 H        0.1190     2.9580    -1.9370 H     1 <1>   0.0800 
 33 H       -1.7290     4.3090    -1.1420 H     1 <1>   0.0800 
 34 H        2.0190     2.6340    -0.6920 H     1 <1>   0.0800 
 35 H        1.1280     2.3380     0.7940 H     1 <1>   0.0800 
 36 H       -0.7910     3.8460     1.4500 H     1 <1>   0.4000 
 37 H       -0.2150     5.8900     0.4010 H     1 <1>   0.0800 
 38 H        0.3780     5.5330    -1.2140 H     1 <1>   0.0800 
 39 H        3.4160     3.3460     1.4220 H     1 <1>   0.1500 
 40 H        3.9600     7.6780    -0.6110 H     1 <1>   0.1500 
 41 H        5.6600     4.3710     1.4940 H     1 <1>   0.1500 
@<TRIPOS>BOND
  1   1   2  2   
  2   1   3  2   
  3   1   4  am  
  4   1   5  1   
  5   4   6  1   
  6   4   7  1   
  7   5   8  1   
  8   5  24  1   
  9   5  25  1   
 10   6  26  1   
 11   6  27  1   
 12   6  28  1   
 13   7  29  1   
 14   7  30  1   
 15   7  31  1   
 16   8   9  1   
 17   8  10  1   
 18   8  32  1   
 19   9  11  1   
 20   9  12  1   
 21   9  33  1   
 22  10  13  1   
 23  10  34  1   
 24  10  35  1   
 25  11  36  1   
 26  12  13  1   
 27  12  37  1   
 28  12  38  1   
 29  13  14  1   
 30  14  15  ar  
 31  14  16  ar  
 32  15  17  ar  
 33  16  18  ar  
 34  16  39  1   
 35  17  19  ar  
 36  17  40  1   
 37  18  19  ar  
 38  18  41  1   
 39  19  20  1   
 40  20  21  1   
 41  20  22  1   
 42  20  23  1   
@<TRIPOS>SUBSTRUCTURE
  1 ****  10 GROUP 4 **** **** 0

# MOE 2024.06 (io_trps.svl 2023.06)
