@<TRIPOS>MOLECULE
NONAME
43 45 1 0 0 
SMALL
USER_CHARGES


@<TRIPOS>ATOM
  1 O        2.1710    -0.2730    -1.6850 O.2   1 <1>  -0.5700 
  2 C        2.4410    -0.7880    -0.6170 C.2   1 <1>   0.5440 
  3 N        3.0870    -0.0300     0.3410 N.am  1 <1>  -0.6600 
  4 C        2.0890    -2.1790    -0.3930 C.ar  1 <1>   0.0860 
  5 C        3.8890    -0.6200     1.4580 C.3   1 <1>   0.1400 
  6 C        3.2110     1.4470     0.2130 C.3   1 <1>   0.1400 
  7 C        1.4000    -2.5860     0.7500 C.ar  1 <1>  -0.1500 
  8 C        2.4250    -3.1590    -1.3260 C.ar  1 <1>  -0.1500 
  9 C        5.3690    -0.2420     1.3200 C.3   1 <1>   0.2000 
 10 C        4.6780     1.8100    -0.0210 C.3   1 <1>  -0.1600 
 11 C        1.0770    -3.9140     0.9610 C.ar  1 <1>  -0.1500 
 12 C        2.1050    -4.4890    -1.1220 C.ar  1 <1>  -0.1500 
 13 O        6.0190    -0.6470     2.4790 O.3   1 <1>  -0.6800 
 14 C        5.5680     1.2770     1.1060 C.3   1 <1>   0.2200 
 15 C        1.4310    -4.8690     0.0250 C.ar  1 <1>  -0.1500 
 16 N        6.9740     1.6050     0.7600 N.am  1 <1>  -0.7300 
 17 C        8.0430     1.6070     1.5980 C.2   1 <1>   0.5690 
 18 O        7.9200     1.2920     2.7570 O.2   1 <1>  -0.5700 
 19 C        9.4090     2.0220     1.1030 C.3   1 <1>   0.1570 
 20 N        9.6670     1.4410    -0.2170 N.pl3 1 <1>   0.5800 
 21 N       10.5720     0.4770    -0.4110 N.2   1 <1>  -0.7070 
 22 N        9.0300     1.8540    -1.3250 N.2   1 <1>  -0.7070 
 23 C       10.5000     0.2770    -1.6820 C.2   1 <1>   0.1390 
 24 C        9.5610     1.1170    -2.2390 C.2   1 <1>   0.1390 
 25 H        3.5080    -0.2440     2.3910 H     1 <1>   0.0800 
 26 H        3.8120    -1.6920     1.4620 H     1 <1>   0.0800 
 27 H        2.6100     1.8110    -0.6040 H     1 <1>   0.0800 
 28 H        2.8520     1.9100     1.1170 H     1 <1>   0.0800 
 29 H        1.1150    -1.8470     1.4770 H     1 <1>   0.1500 
 30 H        2.9420    -2.8630    -2.2230 H     1 <1>   0.1500 
 31 H        5.7970    -0.7830     0.4940 H     1 <1>   0.0800 
 32 H        4.7660     2.8800    -0.0750 H     1 <1>   0.0800 
 33 H        4.9810     1.3940    -0.9660 H     1 <1>   0.0800 
 34 H        0.5480    -4.2060     1.8520 H     1 <1>   0.1500 
 35 H        2.3770    -5.2280    -1.8570 H     1 <1>   0.1500 
 36 H        6.7960    -0.0520     2.6460 H     1 <1>   0.4000 
 37 H        5.3020     1.7840     2.0190 H     1 <1>   0.0800 
 38 H        1.1800    -5.9040     0.1860 H     1 <1>   0.1500 
 39 H        7.1530     1.7720    -0.2410 H     1 <1>   0.3700 
 40 H       10.1620     1.6780     1.7850 H     1 <1>   0.0800 
 41 H        9.4580     3.0890     1.0260 H     1 <1>   0.0800 
 42 H       11.0950    -0.4440    -2.2160 H     1 <1>   0.1500 
 43 H        9.3020     1.1600    -3.2830 H     1 <1>   0.1500 
@<TRIPOS>BOND
  1   1   2  2   
  2   2   3  am  
  3   2   4  1   
  4   3   5  1   
  5   3   6  1   
  6   4   7  ar  
  7   4   8  ar  
  8   5   9  1   
  9   5  25  1   
 10   5  26  1   
 11   6  10  1   
 12   6  27  1   
 13   6  28  1   
 14   7  11  ar  
 15   7  29  1   
 16   8  12  ar  
 17   8  30  1   
 18   9  13  1   
 19   9  14  1   
 20   9  31  1   
 21  10  14  1   
 22  10  32  1   
 23  10  33  1   
 24  11  15  ar  
 25  11  34  1   
 26  12  15  ar  
 27  12  35  1   
 28  13  36  1   
 29  14  16  1   
 30  14  37  1   
 31  15  38  1   
 32  16  17  am  
 33  16  39  1   
 34  17  18  2   
 35  17  19  1   
 36  19  20  1   
 37  19  40  1   
 38  19  41  1   
 39  20  21  1   
 40  20  22  1   
 41  21  23  2   
 42  22  24  2   
 43  23  24  1   
 44  23  42  1   
 45  24  43  1   
@<TRIPOS>SUBSTRUCTURE
  1 ****   9 GROUP 4 **** **** 0

# MOE 2024.06 (io_trps.svl 2023.06)
