@<TRIPOS>MOLECULE
NONAME
39 40 1 0 0 
SMALL
USER_CHARGES


@<TRIPOS>ATOM
  1 SI      -0.4880    -0.1110    -0.6970 Si    1 <1>   1.1130 
  2 O       -0.1140     0.7890     0.6330 O.3   1 <1>  -0.5770 
  3 O       -0.5950     0.9130    -1.9850 O.3   1 <1>  -0.5770 
  4 O        0.7430    -1.1740    -0.9540 O.3   1 <1>  -0.5770 
  5 C       -2.0690    -1.0010    -0.4570 C.ar  1 <1>  -0.2210 
  6 C        1.0420     1.5440     0.6600 C.3   1 <1>   0.1200 
  7 C       -1.5850     1.8750    -2.0400 C.3   1 <1>   0.1200 
  8 C        1.0120    -2.1810    -0.0480 C.3   1 <1>   0.1200 
  9 C       -2.7970    -0.8850     0.7280 C.ar  1 <1>  -0.1500 
 10 C       -2.5970    -1.8270    -1.4550 C.ar  1 <1>  -0.1500 
 11 C        1.1000     2.2510     2.0090 C.3   1 <1>  -0.2400 
 12 C       -1.3920     2.6640    -3.3290 C.3   1 <1>  -0.2400 
 13 C        2.2150    -2.9600    -0.5670 C.3   1 <1>  -0.2400 
 14 C       -3.9860    -1.5700     0.8760 C.ar  1 <1>   0.0830 
 15 C       -3.7930    -2.5160    -1.3030 C.ar  1 <1>  -0.1500 
 16 O       -4.8130    -1.5830     1.9260 O.3   1 <1>  -0.3630 
 17 C       -4.4730    -2.3670    -0.1140 C.ar  1 <1>   0.0830 
 18 C       -5.8960    -2.4430     1.5810 C.3   1 <1>   0.4000 
 19 O       -5.6300    -2.9200     0.2640 O.3   1 <1>  -0.3630 
 20 H        1.0100     2.2580    -0.1470 H     1 <1>   0.0800 
 21 H        1.8880     0.8890     0.5330 H     1 <1>   0.0800 
 22 H       -1.4940     2.5170    -1.1790 H     1 <1>   0.0800 
 23 H       -2.5460     1.3850    -2.0310 H     1 <1>   0.0800 
 24 H        0.1470    -2.8200     0.0300 H     1 <1>   0.0800 
 25 H        1.2270    -1.7380     0.9110 H     1 <1>   0.0800 
 26 H       -2.4460    -0.2650     1.5360 H     1 <1>   0.1500 
 27 H       -2.0550    -1.9360    -2.3810 H     1 <1>   0.1500 
 28 H        0.2450     2.8920     2.1270 H     1 <1>   0.0800 
 29 H        1.9900     2.8510     2.0670 H     1 <1>   0.0800 
 30 H        1.1200     1.5280     2.8040 H     1 <1>   0.0800 
 31 H       -0.4260     3.1360    -3.3300 H     1 <1>   0.0800 
 32 H       -2.1470     3.4240    -3.4070 H     1 <1>   0.0800 
 33 H       -1.4730     2.0090    -4.1770 H     1 <1>   0.0800 
 34 H        1.9910    -3.3860    -1.5280 H     1 <1>   0.0800 
 35 H        2.4550    -3.7550     0.1140 H     1 <1>   0.0800 
 36 H        3.0660    -2.3090    -0.6520 H     1 <1>   0.0800 
 37 H       -4.1860    -3.1470    -2.0790 H     1 <1>   0.1500 
 38 H       -6.8150    -1.8850     1.5840 H     1 <1>   0.0800 
 39 H       -5.9300    -3.2730     2.2650 H     1 <1>   0.0800 
@<TRIPOS>BOND
  1   1   2  1   
  2   1   3  1   
  3   1   4  1   
  4   1   5  1   
  5   2   6  1   
  6   3   7  1   
  7   4   8  1   
  8   5   9  ar  
  9   5  10  ar  
 10   6  11  1   
 11   6  20  1   
 12   6  21  1   
 13   7  12  1   
 14   7  22  1   
 15   7  23  1   
 16   8  13  1   
 17   8  24  1   
 18   8  25  1   
 19   9  14  ar  
 20   9  26  1   
 21  10  15  ar  
 22  10  27  1   
 23  11  28  1   
 24  11  29  1   
 25  11  30  1   
 26  12  31  1   
 27  12  32  1   
 28  12  33  1   
 29  13  34  1   
 30  13  35  1   
 31  13  36  1   
 32  14  16  1   
 33  14  17  ar  
 34  15  17  ar  
 35  15  37  1   
 36  16  18  1   
 37  17  19  1   
 38  18  19  1   
 39  18  38  1   
 40  18  39  1   
@<TRIPOS>SUBSTRUCTURE
  1 ****   5 GROUP 4 **** **** 0

# MOE 2024.06 (io_trps.svl 2023.06)
