@<TRIPOS>MOLECULE
NONAME
43 45 1 0 0 
SMALL
USER_CHARGES


@<TRIPOS>ATOM
  1 CL       0.9430    -0.8300     0.9690 Cl    1 <1>  -0.1240 
  2 C       -0.2830    -1.8730     0.3080 C.2   1 <1>   0.1640 
  3 S       -0.3330    -3.5110     0.9080 S.3   1 <1>  -0.0800 
  4 C       -1.2360    -1.6470    -0.6120 C.2   1 <1>  -0.1500 
  5 C       -1.7110    -3.9020    -0.1350 C.2   1 <1>  -0.0450 
  6 C       -2.0400    -2.7980    -0.8610 C.2   1 <1>  -0.1500 
  7 C       -2.2610    -5.2330    -0.0840 C.2   1 <1>   0.7150 
  8 O       -1.6510    -6.1610     0.4250 O.2   1 <1>  -0.5700 
  9 N       -3.5180    -5.5080    -0.5760 N.am  1 <1>  -0.6600 
 10 C       -3.8870    -6.9030    -0.8920 C.3   1 <1>   0.1400 
 11 C       -4.6970    -4.7280    -0.1210 C.3   1 <1>   0.1400 
 12 C       -4.5250    -7.4480     0.3990 C.3   1 <1>   0.4230 
 13 C       -5.4670    -5.4980     0.9850 C.3   1 <1>  -0.1600 
 14 N       -4.1810    -8.8830     0.7190 N.4   1 <1>  -0.9590 
 15 C       -6.0420    -6.9430     0.5120 C.3   1 <1>   0.0000 
 16 C       -4.5690    -9.8100    -0.3590 C.3   1 <1>   0.3430 
 17 C       -2.7300    -9.0190     1.0730 C.3   1 <1>   0.2630 
 18 C       -6.6550    -8.3410    -0.0250 C.3   1 <1>  -0.1600 
 19 C       -7.5380    -6.4050     0.7090 C.3   1 <1>   0.1200 
 20 C       -5.8820    -9.3220    -0.9430 C.3   1 <1>  -0.1600 
 21 O       -7.8880    -5.6190    -0.3870 O.3   1 <1>  -0.6800 
 22 H       -1.3970    -0.7140    -1.1210 H     1 <1>   0.1500 
 23 H       -2.8380    -2.7590    -1.5840 H     1 <1>   0.1500 
 24 H       -4.5870    -6.9060    -1.7090 H     1 <1>   0.0800 
 25 H       -3.0110    -7.4580    -1.1750 H     1 <1>   0.0800 
 26 H       -4.3840    -3.7700     0.2620 H     1 <1>   0.0800 
 27 H       -5.3500    -4.5490    -0.9600 H     1 <1>   0.0800 
 28 H       -3.9590    -6.9500     1.1640 H     1 <1>   0.0800 
 29 H       -4.8580    -5.5700     1.8730 H     1 <1>   0.0800 
 30 H       -6.1640    -4.7360     1.2940 H     1 <1>   0.0800 
 31 H       -4.7390    -9.1260     1.5470 H     1 <1>   0.4500 
 32 H       -3.8160    -9.8340    -1.1310 H     1 <1>   0.0800 
 33 H       -4.6850   -10.8050     0.0400 H     1 <1>   0.0800 
 34 H       -2.1080    -8.7690     0.2280 H     1 <1>   0.0800 
 35 H       -2.5080   -10.0280     1.3800 H     1 <1>   0.0800 
 36 H       -2.4770    -8.3490     1.8800 H     1 <1>   0.0800 
 37 H       -6.9950    -8.9090     0.8270 H     1 <1>   0.0800 
 38 H       -7.5190    -8.1850    -0.6600 H     1 <1>   0.0800 
 39 H       -7.6920    -5.8340     1.6110 H     1 <1>   0.0800 
 40 H       -8.3170    -7.1460     0.8210 H     1 <1>   0.0800 
 41 H       -5.6930    -8.8560    -1.8950 H     1 <1>   0.0800 
 42 H       -6.4980   -10.1800    -1.1520 H     1 <1>   0.0800 
 43 H       -8.8090    -5.2950    -0.3110 H     1 <1>   0.4000 
@<TRIPOS>BOND
  1   1   2  1   
  2   2   3  1   
  3   2   4  2   
  4   3   5  1   
  5   4   6  1   
  6   4  22  1   
  7   5   6  2   
  8   5   7  1   
  9   6  23  1   
 10   7   8  2   
 11   7   9  am  
 12   9  10  1   
 13   9  11  1   
 14  10  12  1   
 15  10  24  1   
 16  10  25  1   
 17  11  13  1   
 18  11  26  1   
 19  11  27  1   
 20  12  14  1   
 21  12  15  1   
 22  12  28  1   
 23  13  15  1   
 24  13  29  1   
 25  13  30  1   
 26  14  16  1   
 27  14  17  1   
 28  14  31  1   
 29  15  18  1   
 30  15  19  1   
 31  16  20  1   
 32  16  32  1   
 33  16  33  1   
 34  17  34  1   
 35  17  35  1   
 36  17  36  1   
 37  18  20  1   
 38  18  37  1   
 39  18  38  1   
 40  19  21  1   
 41  19  39  1   
 42  19  40  1   
 43  20  41  1   
 44  20  42  1   
 45  21  43  1   
@<TRIPOS>SUBSTRUCTURE
  1 ****   9 GROUP 4 **** **** 0

# MOE 2024.06 (io_trps.svl 2023.06)
