@<TRIPOS>MOLECULE
NONAME
50 53 1 0 0 
SMALL
USER_CHARGES


@<TRIPOS>ATOM
  1 O       -0.7850    -0.9910    -2.2900 O.2   1 <1>  -0.5700 
  2 C       -1.4160    -1.1910    -1.2840 C.2   1 <1>   0.5690 
  3 N       -1.7660    -0.1860    -0.4280 N.am  1 <1>  -0.6600 
  4 C       -1.8550    -2.6080    -1.0150 C.3   1 <1>  -0.0190 
  5 C       -2.6160    -0.4060     0.7760 C.3   1 <1>   0.2200 
  6 C       -1.2720     1.2120    -0.6310 C.3   1 <1>   0.0600 
  7 C       -1.3090    -3.1470     0.3240 C.3   1 <1>   0.1200 
  8 C       -3.3690    -2.7040    -1.2410 C.3   1 <1>   0.3430 
  9 C       -1.9200    -1.3570     1.7800 C.3   1 <1>   0.1200 
 10 C       -4.0490    -0.8480     0.3700 C.3   1 <1>   0.3430 
 11 O       -2.0480    -2.7110     1.4320 O.3   1 <1>  -0.5600 
 12 N       -4.1880    -2.2870    -0.0550 N.4   1 <1>  -0.9590 
 13 C       -5.6080    -2.7160    -0.1600 C.3   1 <1>   0.4860 
 14 C       -5.6680    -4.2260    -0.3020 C.ar  1 <1>  -0.1440 
 15 C       -5.2940    -5.0500     0.7500 C.ar  1 <1>  -0.1500 
 16 C       -6.0990    -4.7970    -1.4910 C.ar  1 <1>  -0.1500 
 17 C       -5.3500    -6.4260     0.6120 C.ar  1 <1>  -0.1500 
 18 C       -6.1530    -6.1740    -1.6260 C.ar  1 <1>  -0.1500 
 19 C       -5.7800    -6.9970    -0.5750 C.ar  1 <1>  -0.1440 
 20 C       -5.8460    -8.5180    -0.7140 C.3   1 <1>   0.2390 
 21 N       -6.8950    -9.1050     0.1480 N.pl3 1 <1>   0.3140 
 22 N       -6.6750   -10.2240     0.8660 N.2   1 <1>  -0.7070 
 23 C       -8.1600    -8.6640     0.3170 C.2   1 <1>  -0.3020 
 24 C       -7.7980   -10.4610     1.4720 C.2   1 <1>   0.1390 
 25 C       -8.7690    -9.5160     1.1670 C.2   1 <1>  -0.1500 
 26 H       -1.3970    -3.2030    -1.7850 H     1 <1>   0.0800 
 27 H       -2.7130     0.5450     1.2710 H     1 <1>   0.0800 
 28 H       -0.7000     1.5280     0.2240 H     1 <1>   0.0800 
 29 H       -2.1020     1.8820    -0.7710 H     1 <1>   0.0800 
 30 H       -0.6370     1.2760    -1.5000 H     1 <1>   0.0800 
 31 H       -0.2770    -2.8660     0.4590 H     1 <1>   0.0800 
 32 H       -1.3610    -4.2230     0.3220 H     1 <1>   0.0800 
 33 H       -3.5930    -3.7330    -1.4720 H     1 <1>   0.0800 
 34 H       -3.6370    -2.1120    -2.1020 H     1 <1>   0.0800 
 35 H       -2.3780    -1.2460     2.7470 H     1 <1>   0.0800 
 36 H       -0.8750    -1.1140     1.8790 H     1 <1>   0.0800 
 37 H       -4.3950    -0.1990    -0.4180 H     1 <1>   0.0800 
 38 H       -4.6860    -0.6870     1.2240 H     1 <1>   0.0800 
 39 H       -3.7630    -2.8310     0.7220 H     1 <1>   0.4500 
 40 H       -6.1490    -2.4270     0.7260 H     1 <1>   0.0800 
 41 H       -6.0740    -2.2490    -1.0120 H     1 <1>   0.0800 
 42 H       -4.9620    -4.6400     1.6890 H     1 <1>   0.1500 
 43 H       -6.4030    -4.1840    -2.3220 H     1 <1>   0.1500 
 44 H       -5.0630    -7.0570     1.4390 H     1 <1>   0.1500 
 45 H       -6.4950    -6.6000    -2.5540 H     1 <1>   0.1500 
 46 H       -4.9030    -8.9490    -0.4330 H     1 <1>   0.0800 
 47 H       -6.0550    -8.7980    -1.7290 H     1 <1>   0.0800 
 48 H       -8.5450    -7.7850    -0.1670 H     1 <1>   0.1500 
 49 H       -7.9490   -11.2980     2.1340 H     1 <1>   0.1500 
 50 H       -9.7760    -9.4970     1.5430 H     1 <1>   0.1500 
@<TRIPOS>BOND
  1   1   2  2   
  2   2   3  am  
  3   2   4  1   
  4   3   5  1   
  5   3   6  1   
  6   4   7  1   
  7   4   8  1   
  8   4  26  1   
  9   5   9  1   
 10   5  10  1   
 11   5  27  1   
 12   6  28  1   
 13   6  29  1   
 14   6  30  1   
 15   7  11  1   
 16   7  31  1   
 17   7  32  1   
 18   8  12  1   
 19   8  33  1   
 20   8  34  1   
 21   9  11  1   
 22   9  35  1   
 23   9  36  1   
 24  10  12  1   
 25  10  37  1   
 26  10  38  1   
 27  12  13  1   
 28  12  39  1   
 29  13  14  1   
 30  13  40  1   
 31  13  41  1   
 32  14  15  ar  
 33  14  16  ar  
 34  15  17  ar  
 35  15  42  1   
 36  16  18  ar  
 37  16  43  1   
 38  17  19  ar  
 39  17  44  1   
 40  18  19  ar  
 41  18  45  1   
 42  19  20  1   
 43  20  21  1   
 44  20  46  1   
 45  20  47  1   
 46  21  22  1   
 47  21  23  1   
 48  22  24  2   
 49  23  25  2   
 50  23  48  1   
 51  24  25  1   
 52  24  49  1   
 53  25  50  1   
@<TRIPOS>SUBSTRUCTURE
  1 ****  14 GROUP 4 **** **** 0

# MOE 2024.06 (io_trps.svl 2023.06)
