@<TRIPOS>MOLECULE
NONAME
52 55 1 0 0 
SMALL
USER_CHARGES


@<TRIPOS>ATOM
  1 O       -2.5300     2.6620    -2.0030 O.2   1 <1>  -0.5700 
  2 C       -2.5620     2.1490    -0.8980 C.2   1 <1>   0.5440 
  3 N       -3.3950     1.0660    -0.7170 N.am  1 <1>  -0.6600 
  4 C       -1.7930     2.7250     0.1820 C.ar  1 <1>   0.0860 
  5 C       -4.3580     0.6240    -1.7660 C.3   1 <1>   0.1400 
  6 C       -3.0680    -0.0720     0.1730 C.3   1 <1>   0.1400 
  7 C       -0.5340     2.2520     0.6170 C.ar  1 <1>   0.1000 
  8 C       -2.3430     3.8370     0.8230 C.ar  1 <1>  -0.1500 
  9 C       -4.7920    -0.7800    -1.3390 C.3   1 <1>   0.2000 
 10 C       -3.5640    -1.2990    -0.5940 C.3   1 <1>  -0.0800 
 11 N        0.1160     1.1350     0.0780 N.pl3 1 <1>  -0.8380 
 12 C        0.1100     2.9360     1.6480 C.ar  1 <1>  -0.1500 
 13 C       -1.6950     4.4840     1.8540 C.ar  1 <1>  -0.1500 
 14 O       -5.8540    -0.6710    -0.4530 O.3   1 <1>  -0.6800 
 15 C       -3.7740    -2.5330     0.2970 C.3   1 <1>   0.0200 
 16 C        0.1430     0.8470    -1.3920 C.3   1 <1>   0.2090 
 17 C        0.6760     0.0480     0.9460 C.3   1 <1>   0.2090 
 18 C       -0.4560     4.0310     2.2670 C.ar  1 <1>  -0.1500 
 19 C       -2.4470    -3.1170     0.7570 C.2   1 <1>  -0.0400 
 20 C        1.4640     0.1780    -1.8150 C.3   1 <1>   0.1200 
 21 C        1.9750    -0.5200     0.3530 C.3   1 <1>   0.1200 
 22 O       -2.4050    -3.8380     1.8460 O.3   1 <1>  -0.0190 
 23 C       -1.2020    -3.0650     0.2550 C.2   1 <1>  -0.1500 
 24 O        1.7810    -0.9040    -0.9800 O.3   1 <1>  -0.5600 
 25 N       -1.2020    -4.2680     2.0990 N.2   1 <1>  -0.4100 
 26 C       -0.4570    -3.8220     1.1520 C.2   1 <1>   0.1080 
 27 C        1.0250    -4.1000     1.0380 C.3   1 <1>  -0.0590 
 28 H       -5.1910     1.3010    -1.8430 H     1 <1>   0.0800 
 29 H       -3.8480     0.5790    -2.7130 H     1 <1>   0.0800 
 30 H       -2.0180    -0.1400     0.3690 H     1 <1>   0.0800 
 31 H       -3.5960     0.0440     1.1040 H     1 <1>   0.0800 
 32 H       -3.3010     4.1980     0.4920 H     1 <1>   0.1500 
 33 H       -5.0920    -1.4010    -2.1650 H     1 <1>   0.0800 
 34 H       -2.8300    -1.5400    -1.3430 H     1 <1>   0.0800 
 35 H        1.0820     2.6090     1.9640 H     1 <1>   0.1500 
 36 H       -2.1440     5.3390     2.3300 H     1 <1>   0.1500 
 37 H       -5.6800     0.0720     0.1580 H     1 <1>   0.4000 
 38 H       -4.3110    -3.2910    -0.2460 H     1 <1>   0.0800 
 39 H       -4.3640    -2.2670     1.1560 H     1 <1>   0.0800 
 40 H       -0.6730     0.1940    -1.6430 H     1 <1>   0.0800 
 41 H        0.0180     1.7630    -1.9430 H     1 <1>   0.0800 
 42 H        0.8660     0.4150     1.9380 H     1 <1>   0.0800 
 43 H       -0.0400    -0.7470     1.0310 H     1 <1>   0.0800 
 44 H        0.0640     4.5350     3.0630 H     1 <1>   0.1500 
 45 H        2.2690     0.8910    -1.7760 H     1 <1>   0.0800 
 46 H        1.3830    -0.1920    -2.8210 H     1 <1>   0.0800 
 47 H        2.2880    -1.3850     0.9070 H     1 <1>   0.0800 
 48 H        2.7590     0.2170     0.3920 H     1 <1>   0.0800 
 49 H       -0.8180    -2.5790    -0.6240 H     1 <1>   0.1500 
 50 H        1.4230    -3.6550     0.1440 H     1 <1>   0.0800 
 51 H        1.1890    -5.1610     1.0020 H     1 <1>   0.0800 
 52 H        1.5350    -3.6970     1.8930 H     1 <1>   0.0800 
@<TRIPOS>BOND
  1   1   2  2   
  2   2   3  am  
  3   2   4  1   
  4   3   5  1   
  5   3   6  1   
  6   4   7  ar  
  7   4   8  ar  
  8   5   9  1   
  9   5  28  1   
 10   5  29  1   
 11   6  10  1   
 12   6  30  1   
 13   6  31  1   
 14   7  11  1   
 15   7  12  ar  
 16   8  13  ar  
 17   8  32  1   
 18   9  10  1   
 19   9  14  1   
 20   9  33  1   
 21  10  15  1   
 22  10  34  1   
 23  11  16  1   
 24  11  17  1   
 25  12  18  ar  
 26  12  35  1   
 27  13  18  ar  
 28  13  36  1   
 29  14  37  1   
 30  15  19  1   
 31  15  38  1   
 32  15  39  1   
 33  16  20  1   
 34  16  40  1   
 35  16  41  1   
 36  17  21  1   
 37  17  42  1   
 38  17  43  1   
 39  18  44  1   
 40  19  22  1   
 41  19  23  2   
 42  20  24  1   
 43  20  45  1   
 44  20  46  1   
 45  21  24  1   
 46  21  47  1   
 47  21  48  1   
 48  22  25  1   
 49  23  26  1   
 50  23  49  1   
 51  25  26  2   
 52  26  27  1   
 53  27  50  1   
 54  27  51  1   
 55  27  52  1   
@<TRIPOS>SUBSTRUCTURE
  1 ****   6 GROUP 4 **** **** 0

# MOE 2024.06 (io_trps.svl 2023.06)
