@<TRIPOS>MOLECULE
NONAME
53 57 1 0 0 
SMALL
USER_CHARGES


@<TRIPOS>ATOM
  1 O        2.1470     1.6200     0.8690 O.3   1 <1>  -0.0190 
  2 N        2.7470     0.4970     0.6090 N.2   1 <1>  -0.4100 
  3 C        0.9290     1.6450     0.3960 C.2   1 <1>  -0.0400 
  4 C        1.8950    -0.2220    -0.0300 C.2   1 <1>   0.1080 
  5 C        0.6960     0.4660    -0.2000 C.2   1 <1>  -0.1500 
  6 C        0.0670     2.8800     0.5800 C.3   1 <1>   0.0200 
  7 C        2.1690    -1.6240    -0.5280 C.3   1 <1>  -0.0590 
  8 C        0.6020     4.0600    -0.2570 C.3   1 <1>  -0.0800 
  9 C       -0.2160     5.3480    -0.1720 C.3   1 <1>   0.2000 
 10 C        2.0290     4.4940     0.1020 C.3   1 <1>   0.2090 
 11 O       -0.5390     5.6140     1.1510 O.3   1 <1>  -0.6800 
 12 C        0.7610     6.4210    -0.6510 C.3   1 <1>   0.2090 
 13 N        2.1070     5.9640    -0.1730 N.pl3 1 <1>  -0.8380 
 14 C        3.2240     6.7000     0.0060 C.ar  1 <1>   0.4610 
 15 N        3.2150     8.0040    -0.2700 N.ar  1 <1>  -0.1790 
 16 C        4.4460     6.1570     0.4820 C.ar  1 <1>  -0.1500 
 17 C        4.3000     8.8480    -0.1220 C.ar  1 <1>   0.3610 
 18 C        5.5610     6.9190     0.6560 C.ar  1 <1>  -0.1430 
 19 C        5.5170     8.3140     0.3530 C.ar  1 <1>   0.0000 
 20 C        4.1930    10.2080    -0.4380 C.ar  1 <1>  -0.1500 
 21 C        6.8490     6.2860     1.1700 C.3   1 <1>  -0.0970 
 22 C        6.6090     9.1880     0.4980 C.ar  1 <1>  -0.1500 
 23 C        5.2830    11.0250    -0.2830 C.ar  1 <1>  -0.1430 
 24 C        6.4780    10.5160     0.1820 C.ar  1 <1>  -0.1430 
 25 C        5.3950    12.5070    -0.5560 C.3   1 <1>  -0.0170 
 26 C        7.5280    11.5970     0.2730 C.3   1 <1>  -0.0170 
 27 C        6.7180    12.8950     0.1220 C.3   1 <1>  -0.1600 
 28 H       -0.1830     0.1040    -0.6990 H     1 <1>   0.1500 
 29 H       -0.9390     2.6550     0.2740 H     1 <1>   0.0800 
 30 H        0.0440     3.1290     1.6270 H     1 <1>   0.0800 
 31 H        1.4720    -2.3100    -0.0840 H     1 <1>   0.0800 
 32 H        3.1670    -1.9200    -0.2610 H     1 <1>   0.0800 
 33 H        2.0700    -1.6580    -1.5970 H     1 <1>   0.0800 
 34 H        0.6160     3.7500    -1.2880 H     1 <1>   0.0800 
 35 H       -1.1270     5.3170    -0.7470 H     1 <1>   0.0800 
 36 H        2.7490     3.9490    -0.4880 H     1 <1>   0.0800 
 37 H        2.2200     4.3160     1.1470 H     1 <1>   0.0800 
 38 H        0.2760     5.6780     1.6860 H     1 <1>   0.4000 
 39 H        0.4850     7.3860    -0.2620 H     1 <1>   0.0800 
 40 H        0.7580     6.4460    -1.7280 H     1 <1>   0.0800 
 41 H        2.3500     8.3990    -0.6150 H     1 <1>   0.4570 
 42 H        4.4760     5.1070     0.7080 H     1 <1>   0.1500 
 43 H        3.2690    10.6200    -0.8000 H     1 <1>   0.1500 
 44 H        6.7220     5.2330     1.3490 H     1 <1>   0.0800 
 45 H        7.1480     6.7480     2.0940 H     1 <1>   0.0800 
 46 H        7.6370     6.4080     0.4470 H     1 <1>   0.0800 
 47 H        7.5560     8.8250     0.8580 H     1 <1>   0.1500 
 48 H        5.4550    12.6750    -1.6180 H     1 <1>   0.0800 
 49 H        4.5660    13.0570    -0.1460 H     1 <1>   0.0800 
 50 H        8.0540    11.5660     1.2120 H     1 <1>   0.0800 
 51 H        8.2260    11.4910    -0.5390 H     1 <1>   0.0800 
 52 H        7.2550    13.6400    -0.4390 H     1 <1>   0.0800 
 53 H        6.5040    13.2850     1.1030 H     1 <1>   0.0800 
@<TRIPOS>BOND
  1   1   2  1   
  2   1   3  1   
  3   2   4  2   
  4   3   5  2   
  5   3   6  1   
  6   4   5  1   
  7   4   7  1   
  8   5  28  1   
  9   6   8  1   
 10   6  29  1   
 11   6  30  1   
 12   7  31  1   
 13   7  32  1   
 14   7  33  1   
 15   8   9  1   
 16   8  10  1   
 17   8  34  1   
 18   9  11  1   
 19   9  12  1   
 20   9  35  1   
 21  10  13  1   
 22  10  36  1   
 23  10  37  1   
 24  11  38  1   
 25  12  13  1   
 26  12  39  1   
 27  12  40  1   
 28  13  14  1   
 29  14  15  ar  
 30  14  16  ar  
 31  15  17  ar  
 32  15  41  1   
 33  16  18  ar  
 34  16  42  1   
 35  17  19  ar  
 36  17  20  ar  
 37  18  19  ar  
 38  18  21  1   
 39  19  22  ar  
 40  20  23  ar  
 41  20  43  1   
 42  21  44  1   
 43  21  45  1   
 44  21  46  1   
 45  22  24  ar  
 46  22  47  1   
 47  23  24  ar  
 48  23  25  1   
 49  24  26  1   
 50  25  27  1   
 51  25  48  1   
 52  25  49  1   
 53  26  27  1   
 54  26  50  1   
 55  26  51  1   
 56  27  52  1   
 57  27  53  1   
@<TRIPOS>SUBSTRUCTURE
  1 ****  14 GROUP 4 **** **** 0

# MOE 2024.06 (io_trps.svl 2023.06)
