@<TRIPOS>MOLECULE
NONAME
38 40 1 0 0 
SMALL
USER_CHARGES


@<TRIPOS>ATOM
  1 S       -0.0710    -0.3030     1.5760 S.3   1 <1>  -0.3320 
  2 C       -0.1570    -1.9180     0.8210 C.ar  1 <1>   0.7220 
  3 C       -0.8500     0.8480     0.3560 C.3   1 <1>  -0.0100 
  4 N        0.3820    -2.8950     1.5300 N.ar  1 <1>  -0.6200 
  5 N       -0.7510    -1.9850    -0.3610 N.ar  1 <1>  -0.6200 
  6 C        0.3160    -4.0810     0.9790 C.ar  1 <1>   0.1600 
  7 C       -0.8010    -3.1850    -0.8850 C.ar  1 <1>   0.1600 
  8 C       -0.2900    -4.2910    -0.2400 C.ar  1 <1>  -0.1430 
  9 C       -0.3960    -5.6730    -0.8430 C.3   1 <1>   0.4870 
 10 N       -1.4190    -6.4700    -0.1000 N.4   1 <1>  -0.9590 
 11 C       -1.4480    -7.8860    -0.5780 C.3   1 <1>   0.3430 
 12 C       -2.7770    -5.8330    -0.1390 C.3   1 <1>   0.3430 
 13 C       -2.3740    -8.7150     0.3060 C.3   1 <1>  -0.1600 
 14 C       -3.7310    -6.6050     0.7630 C.3   1 <1>  -0.1600 
 15 C       -3.7660    -8.0770     0.3590 C.3   1 <1>   0.2580 
 16 O       -4.5910    -8.7850     1.2570 O.3   1 <1>  -0.5160 
 17 C       -4.7380    -8.4370    -0.7770 C.3   1 <1>   0.0000 
 18 C       -5.2390    -9.5010     0.2060 C.3   1 <1>   0.2580 
 19 H       -0.8080     1.8390     0.7680 H     1 <1>   0.0800 
 20 H       -1.8670     0.5350     0.2070 H     1 <1>   0.0800 
 21 H       -0.2890     0.7870    -0.5600 H     1 <1>   0.0800 
 22 H        0.7580    -4.8960     1.5300 H     1 <1>   0.1500 
 23 H       -1.2700    -3.2750    -1.8530 H     1 <1>   0.1500 
 24 H        0.5640    -6.1600    -0.7840 H     1 <1>   0.0800 
 25 H       -0.6710    -5.5980    -1.8830 H     1 <1>   0.0800 
 26 H       -1.1380    -6.4880     0.8900 H     1 <1>   0.4500 
 27 H       -0.4560    -8.3100    -0.5470 H     1 <1>   0.0800 
 28 H       -1.7990    -7.9220    -1.5980 H     1 <1>   0.0800 
 29 H       -3.1560    -5.8330    -1.1490 H     1 <1>   0.0800 
 30 H       -2.7220    -4.8120     0.2040 H     1 <1>   0.0800 
 31 H       -1.9650    -8.7680     1.2990 H     1 <1>   0.0800 
 32 H       -2.4320    -9.7160    -0.0830 H     1 <1>   0.0800 
 33 H       -4.7160    -6.1780     0.6950 H     1 <1>   0.0800 
 34 H       -3.4050    -6.5180     1.7850 H     1 <1>   0.0800 
 35 H       -4.2710    -8.8390    -1.6590 H     1 <1>   0.0000 
 36 H       -5.4740    -7.6810    -0.9890 H     1 <1>   0.0000 
 37 H       -6.3030    -9.5110     0.3610 H     1 <1>   0.0000 
 38 H       -4.7870   -10.4700     0.0900 H     1 <1>   0.0000 
@<TRIPOS>BOND
  1   1   2  1   
  2   1   3  1   
  3   2   4  ar  
  4   2   5  ar  
  5   3  19  1   
  6   3  20  1   
  7   3  21  1   
  8   4   6  ar  
  9   5   7  ar  
 10   6   8  ar  
 11   6  22  1   
 12   7   8  ar  
 13   7  23  1   
 14   8   9  1   
 15   9  10  1   
 16   9  24  1   
 17   9  25  1   
 18  10  11  1   
 19  10  12  1   
 20  10  26  1   
 21  11  13  1   
 22  11  27  1   
 23  11  28  1   
 24  12  14  1   
 25  12  29  1   
 26  12  30  1   
 27  13  15  1   
 28  13  31  1   
 29  13  32  1   
 30  14  15  1   
 31  14  33  1   
 32  14  34  1   
 33  15  16  1   
 34  15  17  1   
 35  16  18  1   
 36  17  18  1   
 37  17  35  1   
 38  17  36  1   
 39  18  37  1   
 40  18  38  1   
@<TRIPOS>SUBSTRUCTURE
  1 ****  12 GROUP 4 **** **** 0

# MOE 2024.06 (io_trps.svl 2023.06)
