@<TRIPOS>MOLECULE
NONAME
42 44 1 0 0 
SMALL
USER_CHARGES


@<TRIPOS>ATOM
  1 CL      -2.1070     1.1790     1.3580 Cl    1 <1>  -0.1770 
  2 C       -0.9750     2.3500     0.7270 C.ar  1 <1>   0.1770 
  3 C       -1.1220     3.7020     0.9820 C.ar  1 <1>   0.1900 
  4 C        0.0900     1.9210    -0.0420 C.ar  1 <1>  -0.1500 
  5 F       -2.1230     4.1240     1.7080 F     1 <1>  -0.1900 
  6 C       -0.2310     4.6350     0.4900 C.ar  1 <1>  -0.1500 
  7 C        0.9900     2.8530    -0.5380 C.ar  1 <1>  -0.1500 
  8 C        0.8590     4.2250    -0.2840 C.ar  1 <1>   0.0860 
  9 C        1.8220     5.1810    -0.8090 C.2   1 <1>   0.5440 
 10 O        2.6350     4.8640    -1.6570 O.2   1 <1>  -0.5700 
 11 N        1.9010     6.4640    -0.3340 N.am  1 <1>  -0.6600 
 12 C        2.6010     6.6560     0.9890 C.3   1 <1>   0.2200 
 13 C        1.9300     7.5870    -1.3290 C.3   1 <1>   0.1400 
 14 C        2.1900     7.9620     1.6880 C.3   1 <1>   0.1200 
 15 C        4.1420     6.5530     0.8420 C.3   1 <1>   0.3430 
 16 C        3.0350     8.6400    -1.1140 C.3   1 <1>  -0.0800 
 17 O        2.9920     9.0270     1.2810 O.3   1 <1>  -0.5600 
 18 N        4.5980     6.6920    -0.5830 N.4   1 <1>  -0.9590 
 19 C        2.7090     9.5930     0.0470 C.3   1 <1>   0.1200 
 20 C        4.4820     8.1040    -1.0550 C.3   1 <1>   0.3430 
 21 C        6.0520     6.2570    -0.6750 C.3   1 <1>   0.2370 
 22 C        7.0070     7.0490     0.2240 C.2   1 <1>   0.9060 
 23 O        7.5100     8.0790    -0.2320 O.co2 1 <1>  -0.9000 
 24 O        7.1190     6.6890     1.4000 O.co2 1 <1>  -0.9000 
 25 H        0.2100     0.8720    -0.2490 H     1 <1>   0.1500 
 26 H       -0.3930     5.6750     0.7060 H     1 <1>   0.1500 
 27 H        1.8170     2.5110    -1.1390 H     1 <1>   0.1500 
 28 H        2.2900     5.8590     1.6420 H     1 <1>   0.0800 
 29 H        2.0440     7.1760    -2.3190 H     1 <1>   0.0800 
 30 H        0.9720     8.0770    -1.3080 H     1 <1>   0.0800 
 31 H        2.3500     7.8560     2.7470 H     1 <1>   0.0800 
 32 H        1.1530     8.1980     1.5240 H     1 <1>   0.0800 
 33 H        4.4560     5.5930     1.2160 H     1 <1>   0.0800 
 34 H        4.6230     7.2970     1.4580 H     1 <1>   0.0800 
 35 H        3.0020     9.2680    -1.9860 H     1 <1>   0.0800 
 36 H        3.9900     6.0770    -1.1600 H     1 <1>   0.4500 
 37 H        1.6770     9.9010     0.0330 H     1 <1>   0.0800 
 38 H        3.3210    10.4760    -0.0310 H     1 <1>   0.0800 
 39 H        5.0750     8.7440    -0.4180 H     1 <1>   0.0800 
 40 H        4.9070     8.1630    -2.0430 H     1 <1>   0.0800 
 41 H        6.1390     5.2240    -0.3950 H     1 <1>   0.0800 
 42 H        6.4010     6.3660    -1.6850 H     1 <1>   0.0800 
@<TRIPOS>BOND
  1   1   2  1   
  2   2   3  ar  
  3   2   4  ar  
  4   3   5  1   
  5   3   6  ar  
  6   4   7  ar  
  7   4  25  1   
  8   6   8  ar  
  9   6  26  1   
 10   7   8  ar  
 11   7  27  1   
 12   8   9  1   
 13   9  10  2   
 14   9  11  am  
 15  11  12  1   
 16  11  13  1   
 17  12  14  1   
 18  12  15  1   
 19  12  28  1   
 20  13  16  1   
 21  13  29  1   
 22  13  30  1   
 23  14  17  1   
 24  14  31  1   
 25  14  32  1   
 26  15  18  1   
 27  15  33  1   
 28  15  34  1   
 29  16  19  1   
 30  16  20  1   
 31  16  35  1   
 32  17  19  1   
 33  18  20  1   
 34  18  21  1   
 35  18  36  1   
 36  19  37  1   
 37  19  38  1   
 38  20  39  1   
 39  20  40  1   
 40  21  22  1   
 41  21  41  1   
 42  21  42  1   
 43  22  23  ar  
 44  22  24  ar  
@<TRIPOS>SUBSTRUCTURE
  1 ****  11 GROUP 4 **** **** 0

# MOE 2024.06 (io_trps.svl 2023.06)
