@<TRIPOS>MOLECULE
NONAME
49 51 1 0 0 
SMALL
USER_CHARGES


@<TRIPOS>ATOM
  1 O       -3.2540    -0.8190     0.1670 O.2   1 <1>  -0.5700 
  2 C       -3.2730    -2.0240     0.0920 C.2   1 <1>   0.5690 
  3 N       -3.8580    -2.8610     0.9870 N.am  1 <1>  -0.6600 
  4 C       -2.6660    -2.7800    -1.0550 C.3   1 <1>  -0.0990 
  5 C       -3.6950    -4.2760     0.5930 C.3   1 <1>   0.1400 
  6 C       -4.3610    -2.5710     2.3720 C.3   1 <1>   0.1400 
  7 C       -3.1680    -4.2160    -0.8460 C.3   1 <1>  -0.1600 
  8 C       -4.7890    -1.1110     2.6510 C.3   1 <1>   0.3430 
  9 N       -5.6040    -0.5080     1.5540 N.4   1 <1>  -0.9590 
 10 C       -6.8160    -1.3060     1.1940 C.3   1 <1>   0.3430 
 11 C       -5.9170     0.9220     1.8030 C.3   1 <1>   0.3430 
 12 C       -7.5100    -0.7500    -0.0670 C.3   1 <1>   0.0000 
 13 C       -6.5830     1.5320     0.5680 C.3   1 <1>  -0.1600 
 14 C       -8.7710    -1.5800    -0.3550 C.3   1 <1>   0.2000 
 15 C       -7.8320     0.7440     0.1350 C.3   1 <1>  -0.1600 
 16 C       -6.6560    -1.0040    -1.3210 C.3   1 <1>  -0.1600 
 17 O       -9.3640    -1.9820     0.8440 O.3   1 <1>  -0.5600 
 18 C       -8.3050    -2.7960    -1.1680 C.3   1 <1>  -0.1600 
 19 C       -6.8880    -2.4760    -1.6620 C.3   1 <1>  -0.1600 
 20 C      -10.6820    -2.4220     0.7230 C.3   1 <1>   0.0400 
 21 H       -2.9890    -2.3750    -1.9960 H     1 <1>   0.0800 
 22 H       -1.5950    -2.7290    -0.9810 H     1 <1>   0.0800 
 23 H       -2.9750    -4.7510     1.2400 H     1 <1>   0.0800 
 24 H       -4.6340    -4.8030     0.6430 H     1 <1>   0.0800 
 25 H       -5.2020    -3.2120     2.5690 H     1 <1>   0.0800 
 26 H       -3.5920    -2.8390     3.0760 H     1 <1>   0.0800 
 27 H       -2.3910    -4.9430    -1.0110 H     1 <1>   0.0800 
 28 H       -3.9770    -4.4220    -1.5260 H     1 <1>   0.0800 
 29 H       -3.8950    -0.5230     2.7790 H     1 <1>   0.0800 
 30 H       -5.3400    -1.0760     3.5770 H     1 <1>   0.0800 
 31 H       -4.9640    -0.5350     0.7340 H     1 <1>   0.4500 
 32 H       -6.5460    -2.3320     1.0130 H     1 <1>   0.0800 
 33 H       -7.5140    -1.2850     2.0150 H     1 <1>   0.0800 
 34 H       -6.5810     1.0060     2.6480 H     1 <1>   0.0800 
 35 H       -5.0100     1.4630     2.0240 H     1 <1>   0.0800 
 36 H       -6.8640     2.5470     0.7890 H     1 <1>   0.0800 
 37 H       -5.8690     1.5680    -0.2370 H     1 <1>   0.0800 
 38 H       -9.4730    -0.9930    -0.9260 H     1 <1>   0.0800 
 39 H       -8.2340     1.1680    -0.7700 H     1 <1>   0.0800 
 40 H       -8.5870     0.8390     0.8980 H     1 <1>   0.0800 
 41 H       -7.0240    -0.4030    -2.1350 H     1 <1>   0.0800 
 42 H       -5.6120    -0.7840    -1.1880 H     1 <1>   0.0800 
 43 H       -8.2930    -3.6880    -0.5670 H     1 <1>   0.0800 
 44 H       -8.9650    -2.9420    -2.0060 H     1 <1>   0.0800 
 45 H       -6.1760    -3.0900    -1.1380 H     1 <1>   0.0800 
 46 H       -6.7850    -2.6550    -2.7200 H     1 <1>   0.0800 
 47 H      -11.0330    -2.7030     1.7010 H     1 <1>   0.0800 
 48 H      -10.7210    -3.2740     0.0680 H     1 <1>   0.0800 
 49 H      -11.2910    -1.6220     0.3390 H     1 <1>   0.0800 
@<TRIPOS>BOND
  1   1   2  2   
  2   2   3  am  
  3   2   4  1   
  4   3   5  1   
  5   3   6  1   
  6   4   7  1   
  7   4  21  1   
  8   4  22  1   
  9   5   7  1   
 10   5  23  1   
 11   5  24  1   
 12   6   8  1   
 13   6  25  1   
 14   6  26  1   
 15   7  27  1   
 16   7  28  1   
 17   8   9  1   
 18   8  29  1   
 19   8  30  1   
 20   9  10  1   
 21   9  11  1   
 22   9  31  1   
 23  10  12  1   
 24  10  32  1   
 25  10  33  1   
 26  11  13  1   
 27  11  34  1   
 28  11  35  1   
 29  12  14  1   
 30  12  15  1   
 31  12  16  1   
 32  13  15  1   
 33  13  36  1   
 34  13  37  1   
 35  14  17  1   
 36  14  18  1   
 37  14  38  1   
 38  15  39  1   
 39  15  40  1   
 40  16  19  1   
 41  16  41  1   
 42  16  42  1   
 43  17  20  1   
 44  18  19  1   
 45  18  43  1   
 46  18  44  1   
 47  19  45  1   
 48  19  46  1   
 49  20  47  1   
 50  20  48  1   
 51  20  49  1   
@<TRIPOS>SUBSTRUCTURE
  1 ****  10 GROUP 4 **** **** 0

# MOE 2024.06 (io_trps.svl 2023.06)
