@<TRIPOS>MOLECULE
NONAME
42 43 1 0 0 
SMALL
USER_CHARGES


@<TRIPOS>ATOM
  1 O        0.9250    -0.0130    -0.6960 O.3   1 <1>  -0.3630 
  2 C        0.5070    -1.2040    -0.1760 C.ar  1 <1>   0.0830 
  3 C        0.7450     1.2160    -0.0350 C.3   1 <1>   0.1200 
  4 C       -0.4150    -1.3870     0.8730 C.ar  1 <1>   0.0830 
  5 C        1.0770    -2.3140    -0.7790 C.ar  1 <1>  -0.1500 
  6 C        1.5870     2.2720    -0.7480 C.3   1 <1>  -0.1600 
  7 O       -1.0130    -0.3100     1.4650 O.3   1 <1>  -0.3630 
  8 C       -0.7130    -2.6860     1.2860 C.ar  1 <1>  -0.1500 
  9 C        0.7670    -3.5950    -0.3620 C.ar  1 <1>  -0.1500 
 10 C        1.4250     3.6320    -0.0720 C.3   1 <1>   0.2090 
 11 C       -2.0770    -0.4500     2.3820 C.3   1 <1>   0.0400 
 12 C       -0.1270    -3.7800     0.6740 C.ar  1 <1>  -0.1500 
 13 N        2.2990     4.6260    -0.7420 N.pl3 1 <1>  -0.8380 
 14 C        3.3600     5.1940    -0.0630 C.ar  1 <1>   0.4100 
 15 C        1.6830     5.3410    -1.8960 C.3   1 <1>   0.1290 
 16 N        3.5150     6.5030    -0.1350 N.ar  1 <1>  -0.6200 
 17 C        4.2370     4.4240     0.6770 C.ar  1 <1>  -0.1500 
 18 C        4.5300     7.0070     0.5390 C.ar  1 <1>   0.4770 
 19 C        5.2550     5.0570     1.3330 C.ar  1 <1>   0.1600 
 20 N        5.4170     6.3640     1.2780 N.ar  1 <1>  -0.6200 
 21 C        4.7070     8.5040     0.4570 C.3   1 <1>  -0.0970 
 22 H        1.0600     1.1000     0.9870 H     1 <1>   0.0800 
 23 H       -0.3000     1.4700    -0.0780 H     1 <1>   0.0800 
 24 H        1.7730    -2.1660    -1.5850 H     1 <1>   0.1500 
 25 H        1.2710     2.3410    -1.7730 H     1 <1>   0.0800 
 26 H        2.6210     1.9780    -0.7150 H     1 <1>   0.0800 
 27 H       -1.4000    -2.8750     2.0870 H     1 <1>   0.1500 
 28 H        1.2220    -4.4440    -0.8440 H     1 <1>   0.1500 
 29 H        1.6880     3.5600     0.9700 H     1 <1>   0.0800 
 30 H        0.4000     3.9560    -0.1310 H     1 <1>   0.0800 
 31 H       -2.4280     0.5330     2.6390 H     1 <1>   0.0800 
 32 H       -1.7160    -0.9490     3.2640 H     1 <1>   0.0800 
 33 H       -2.8690    -1.0090     1.9160 H     1 <1>   0.0800 
 34 H       -0.3680    -4.7760     1.0030 H     1 <1>   0.1500 
 35 H        1.2220     4.6380    -2.5670 H     1 <1>   0.0800 
 36 H        2.4390     5.8840    -2.4370 H     1 <1>   0.0800 
 37 H        0.9440     6.0360    -1.5400 H     1 <1>   0.0800 
 38 H        4.1200     3.3610     0.7210 H     1 <1>   0.1500 
 39 H        5.9590     4.4910     1.9180 H     1 <1>   0.1500 
 40 H        3.8100     8.9680     0.0890 H     1 <1>   0.0800 
 41 H        5.5180     8.7280    -0.2090 H     1 <1>   0.0800 
 42 H        4.9290     8.8960     1.4310 H     1 <1>   0.0800 
@<TRIPOS>BOND
  1   1   2  1   
  2   1   3  1   
  3   2   4  ar  
  4   2   5  ar  
  5   3   6  1   
  6   3  22  1   
  7   3  23  1   
  8   4   7  1   
  9   4   8  ar  
 10   5   9  ar  
 11   5  24  1   
 12   6  10  1   
 13   6  25  1   
 14   6  26  1   
 15   7  11  1   
 16   8  12  ar  
 17   8  27  1   
 18   9  12  ar  
 19   9  28  1   
 20  10  13  1   
 21  10  29  1   
 22  10  30  1   
 23  11  31  1   
 24  11  32  1   
 25  11  33  1   
 26  12  34  1   
 27  13  14  1   
 28  13  15  1   
 29  14  16  ar  
 30  14  17  ar  
 31  15  35  1   
 32  15  36  1   
 33  15  37  1   
 34  16  18  ar  
 35  17  19  ar  
 36  17  38  1   
 37  18  20  ar  
 38  18  21  1   
 39  19  20  ar  
 40  19  39  1   
 41  21  40  1   
 42  21  41  1   
 43  21  42  1   
@<TRIPOS>SUBSTRUCTURE
  1 ****   6 GROUP 4 **** **** 0

# MOE 2024.06 (io_trps.svl 2023.06)
