@<TRIPOS>MOLECULE
NONAME
53 55 1 0 0 
SMALL
USER_CHARGES


@<TRIPOS>ATOM
  1 O       -1.9620     1.7110     2.6250 O.2   1 <1>  -0.5700 
  2 C       -1.6740     1.9160     1.4670 C.2   1 <1>   0.5690 
  3 N       -0.5340     1.3700     0.9330 N.am  1 <1>  -0.6600 
  4 C       -2.6530     2.7900     0.6670 C.3   1 <1>  -0.0190 
  5 C        0.2850     0.4120     1.7110 C.3   1 <1>   0.1400 
  6 C       -0.0540     1.4350    -0.4650 C.3   1 <1>   0.1400 
  7 C       -3.5840     2.0190    -0.3210 C.3   1 <1>  -0.0190 
  8 C       -2.0010     4.0530     0.0590 C.3   1 <1>  -0.1600 
  9 C        1.3250    -0.1260     0.7320 C.3   1 <1>  -0.1600 
 10 C        0.7430     0.1530    -0.6490 C.3   1 <1>  -0.1600 
 11 C       -3.3480     0.4980    -0.3510 C.2   1 <1>   0.5690 
 12 C       -3.5840     2.6530    -1.7320 C.3   1 <1>  -0.1600 
 13 C       -3.0520     4.9270    -0.6390 C.3   1 <1>  -0.1600 
 14 O       -2.8390     0.0130    -1.3390 O.2   1 <1>  -0.5700 
 15 N       -3.7250    -0.3080     0.6920 N.am  1 <1>  -0.6600 
 16 C       -3.8760     4.1620    -1.6920 C.3   1 <1>  -0.1600 
 17 C       -3.2610    -1.7260     0.7370 C.3   1 <1>   0.3200 
 18 C       -4.5780     0.1030     1.8490 C.3   1 <1>   0.1400 
 19 C       -4.2070    -2.6140    -0.0520 C.2   1 <1>   0.0070 
 20 C       -6.0370    -0.2980     1.6050 C.3   1 <1>   0.1200 
 21 N       -4.9060    -3.5890     0.4380 N.2   1 <1>  -0.5650 
 22 N       -4.3880    -2.4280    -1.3750 N.pl3 1 <1>   0.0330 
 23 O       -6.8270     0.2020     2.6300 O.3   1 <1>  -0.6800 
 24 C       -5.5790    -4.0640    -0.6280 C.2   1 <1>   0.0770 
 25 C       -5.2770    -3.3670    -1.7450 C.2   1 <1>  -0.3020 
 26 H       -3.3210     3.1810     1.4150 H     1 <1>   0.0800 
 27 H        0.7460     0.9050     2.5500 H     1 <1>   0.0800 
 28 H       -0.3480    -0.3830     2.0660 H     1 <1>   0.0800 
 29 H       -0.8590     1.4990    -1.1720 H     1 <1>   0.0800 
 30 H        0.5930     2.2880    -0.5730 H     1 <1>   0.0800 
 31 H       -4.5900     2.1510     0.0340 H     1 <1>   0.0800 
 32 H       -1.5240     4.6190     0.8410 H     1 <1>   0.0800 
 33 H       -1.2450     3.7900    -0.6550 H     1 <1>   0.0800 
 34 H        2.2410     0.4240     0.8610 H     1 <1>   0.0800 
 35 H        1.5200    -1.1720     0.8920 H     1 <1>   0.0800 
 36 H        0.0680    -0.6370    -0.9330 H     1 <1>   0.0800 
 37 H        1.5020     0.2570    -1.4050 H     1 <1>   0.0800 
 38 H       -2.6290     2.4940    -2.2010 H     1 <1>   0.0800 
 39 H       -4.3220     2.1650    -2.3460 H     1 <1>   0.0800 
 40 H       -3.7220     5.3230     0.1060 H     1 <1>   0.0800 
 41 H       -2.5650     5.7670    -1.1050 H     1 <1>   0.0800 
 42 H       -3.6830     4.5770    -2.6660 H     1 <1>   0.0800 
 43 H       -4.9230     4.3110    -1.4860 H     1 <1>   0.0800 
 44 H       -2.2730    -1.7970     0.3180 H     1 <1>   0.0800 
 45 H       -3.2100    -2.0700     1.7540 H     1 <1>   0.0800 
 46 H       -4.2140    -0.3660     2.7460 H     1 <1>   0.0800 
 47 H       -4.5260     1.1650     1.9970 H     1 <1>   0.0800 
 48 H       -6.1510    -1.3690     1.5790 H     1 <1>   0.0800 
 49 H       -6.3920     0.1260     0.6830 H     1 <1>   0.0800 
 50 H       -3.9310    -1.6890    -1.9280 H     1 <1>   0.2700 
 51 H       -6.6700    -0.2920     3.4590 H     1 <1>   0.4000 
 52 H       -6.2570    -4.8970    -0.5340 H     1 <1>   0.1500 
 53 H       -5.6330    -3.4820    -2.7520 H     1 <1>   0.1500 
@<TRIPOS>BOND
  1   1   2  2   
  2   2   3  am  
  3   2   4  1   
  4   3   5  1   
  5   3   6  1   
  6   4   7  1   
  7   4   8  1   
  8   4  26  1   
  9   5   9  1   
 10   5  27  1   
 11   5  28  1   
 12   6  10  1   
 13   6  29  1   
 14   6  30  1   
 15   7  11  1   
 16   7  12  1   
 17   7  31  1   
 18   8  13  1   
 19   8  32  1   
 20   8  33  1   
 21   9  10  1   
 22   9  34  1   
 23   9  35  1   
 24  10  36  1   
 25  10  37  1   
 26  11  14  2   
 27  11  15  am  
 28  12  16  1   
 29  12  38  1   
 30  12  39  1   
 31  13  16  1   
 32  13  40  1   
 33  13  41  1   
 34  15  17  1   
 35  15  18  1   
 36  16  42  1   
 37  16  43  1   
 38  17  19  1   
 39  17  44  1   
 40  17  45  1   
 41  18  20  1   
 42  18  46  1   
 43  18  47  1   
 44  19  21  2   
 45  19  22  1   
 46  20  23  1   
 47  20  48  1   
 48  20  49  1   
 49  21  24  1   
 50  22  25  1   
 51  22  50  1   
 52  23  51  1   
 53  24  25  2   
 54  24  52  1   
 55  25  53  1   
@<TRIPOS>SUBSTRUCTURE
  1 ****  11 GROUP 4 **** **** 0

# MOE 2024.06 (io_trps.svl 2023.06)
