@<TRIPOS>MOLECULE
NONAME
58 61 1 0 0 
SMALL
USER_CHARGES


@<TRIPOS>ATOM
  1 O        0.2940     0.0380    -0.3400 O.2   1 <1>  -0.5700 
  2 C       -0.3540     1.0350    -0.5570 C.2   1 <1>   0.5690 
  3 N       -1.7060     1.0780    -0.3260 N.am  1 <1>  -0.6600 
  4 C        0.3670     2.2670    -1.0850 C.3   1 <1>  -0.0990 
  5 C       -2.5910     2.2640    -0.5730 C.3   1 <1>   0.1400 
  6 C       -2.4370    -0.0990     0.2240 C.3   1 <1>   0.1400 
  7 C        1.8820     2.0850    -1.2670 C.3   1 <1>  -0.0160 
  8 C       -3.2930     2.7070     0.7250 C.3   1 <1>   0.1440 
  9 C       -3.1510     0.2910     1.5250 C.3   1 <1>  -0.1600 
 10 C        2.5130     3.4020    -1.7040 C.ar  1 <1>  -0.1440 
 11 C       -4.1970     3.8790     0.3960 C.ar  1 <1>   0.1660 
 12 C       -4.0640     1.5150     1.3320 C.3   1 <1>  -0.1600 
 13 C       -2.2940     3.3310     1.7380 C.3   1 <1>  -0.1600 
 14 C        3.0600     4.3110    -0.8000 C.ar  1 <1>  -0.1440 
 15 C        2.5290     3.6970    -3.0600 C.ar  1 <1>  -0.1500 
 16 N       -5.3280     3.8030    -0.2590 N.ar  1 <1>  -0.6200 
 17 C       -3.6780     5.0540     0.8480 C.ar  1 <1>  -0.1440 
 18 C       -2.3560     4.8570     1.5460 C.3   1 <1>  -0.0170 
 19 C        3.6080     5.4950    -1.2720 C.ar  1 <1>  -0.1500 
 20 C        3.0820     4.0480     0.7000 C.3   1 <1>  -0.0970 
 21 C        3.0760     4.8800    -3.5210 C.ar  1 <1>  -0.1500 
 22 C       -5.9580     4.9660    -0.4460 C.ar  1 <1>   0.7200 
 23 C       -4.3930     6.2000     0.6080 C.ar  1 <1>   0.1600 
 24 C        3.6160     5.7810    -2.6240 C.ar  1 <1>  -0.1500 
 25 N       -5.5340     6.1670    -0.0380 N.ar  1 <1>  -0.6200 
 26 N       -7.1570     4.9220    -1.1310 N.pl3 1 <1>  -0.8380 
 27 C       -7.9040     3.6520    -1.3400 C.3   1 <1>   0.1290 
 28 C       -7.8120     6.1520    -1.6550 C.3   1 <1>   0.1290 
 29 H        0.2020     3.0770    -0.4010 H     1 <1>   0.0800 
 30 H       -0.0610     2.5320    -2.0340 H     1 <1>   0.0800 
 31 H       -3.3390     1.9880    -1.2960 H     1 <1>   0.0800 
 32 H       -2.0420     3.0920    -0.9810 H     1 <1>   0.0800 
 33 H       -1.7610    -0.9150     0.4160 H     1 <1>   0.0800 
 34 H       -3.1580    -0.4310    -0.5030 H     1 <1>   0.0800 
 35 H        2.0640     1.3280    -2.0110 H     1 <1>   0.0800 
 36 H        2.3240     1.7340    -0.3520 H     1 <1>   0.0800 
 37 H       -2.4100     0.4950     2.2780 H     1 <1>   0.0800 
 38 H       -3.7370    -0.5440     1.8670 H     1 <1>   0.0800 
 39 H       -4.8650     1.2450     0.6660 H     1 <1>   0.0800 
 40 H       -4.5100     1.7990     2.2690 H     1 <1>   0.0800 
 41 H       -1.2940     2.9530     1.6230 H     1 <1>   0.0800 
 42 H       -2.6200     3.1110     2.7390 H     1 <1>   0.0800 
 43 H        2.1120     3.0020    -3.7670 H     1 <1>   0.1500 
 44 H       -1.5560     5.1940     0.9100 H     1 <1>   0.0800 
 45 H       -2.3210     5.3760     2.4880 H     1 <1>   0.0800 
 46 H        4.0370     6.2050    -0.5870 H     1 <1>   0.1500 
 47 H        2.0980     3.7970     1.0510 H     1 <1>   0.0800 
 48 H        3.4200     4.9140     1.2390 H     1 <1>   0.0800 
 49 H        3.7500     3.2340     0.9160 H     1 <1>   0.0800 
 50 H        3.0820     5.0970    -4.5750 H     1 <1>   0.1500 
 51 H       -4.0250     7.1530     0.9460 H     1 <1>   0.1500 
 52 H        4.0440     6.7030    -2.9780 H     1 <1>   0.1500 
 53 H       -7.6770     2.9450    -0.5600 H     1 <1>   0.0800 
 54 H       -7.6280     3.2260    -2.2890 H     1 <1>   0.0800 
 55 H       -8.9630     3.8390    -1.3270 H     1 <1>   0.0800 
 56 H       -7.0750     6.8970    -1.9020 H     1 <1>   0.0800 
 57 H       -8.4760     6.5510    -0.9080 H     1 <1>   0.0800 
 58 H       -8.3720     5.9230    -2.5440 H     1 <1>   0.0800 
@<TRIPOS>BOND
  1   1   2  2   
  2   2   3  am  
  3   2   4  1   
  4   3   5  1   
  5   3   6  1   
  6   4   7  1   
  7   4  29  1   
  8   4  30  1   
  9   5   8  1   
 10   5  31  1   
 11   5  32  1   
 12   6   9  1   
 13   6  33  1   
 14   6  34  1   
 15   7  10  1   
 16   7  35  1   
 17   7  36  1   
 18   8  11  1   
 19   8  12  1   
 20   8  13  1   
 21   9  12  1   
 22   9  37  1   
 23   9  38  1   
 24  10  14  ar  
 25  10  15  ar  
 26  11  16  ar  
 27  11  17  ar  
 28  12  39  1   
 29  12  40  1   
 30  13  18  1   
 31  13  41  1   
 32  13  42  1   
 33  14  19  ar  
 34  14  20  1   
 35  15  21  ar  
 36  15  43  1   
 37  16  22  ar  
 38  17  18  1   
 39  17  23  ar  
 40  18  44  1   
 41  18  45  1   
 42  19  24  ar  
 43  19  46  1   
 44  20  47  1   
 45  20  48  1   
 46  20  49  1   
 47  21  24  ar  
 48  21  50  1   
 49  22  25  ar  
 50  22  26  1   
 51  23  25  ar  
 52  23  51  1   
 53  24  52  1   
 54  26  27  1   
 55  26  28  1   
 56  27  53  1   
 57  27  54  1   
 58  27  55  1   
 59  28  56  1   
 60  28  57  1   
 61  28  58  1   
@<TRIPOS>SUBSTRUCTURE
  1 ****   5 GROUP 4 **** **** 0

# MOE 2024.06 (io_trps.svl 2023.06)
