@<TRIPOS>MOLECULE
NONAME
54 58 1 0 0 
SMALL
USER_CHARGES


@<TRIPOS>ATOM
  1 F       -1.4360    -0.5170     0.1390 F     1 <1>  -0.1900 
  2 C       -2.6950    -0.8050    -0.0700 C.ar  1 <1>   0.1900 
  3 C       -3.4840    -1.1580     0.9980 C.ar  1 <1>  -0.1500 
  4 C       -3.1710    -0.7380    -1.3840 C.ar  1 <1>  -0.1500 
  5 C       -4.8180    -1.4580     0.7380 C.ar  1 <1>   0.2270 
  6 C       -4.4920    -1.0360    -1.6370 C.ar  1 <1>  -0.1500 
  7 N       -5.8030    -1.8350     1.6000 N.2   1 <1>  -0.5650 
  8 C       -5.3070    -1.3950    -0.5580 C.ar  1 <1>  -0.1520 
  9 C       -6.8410    -1.9880     0.8520 C.2   1 <1>   0.0060 
 10 N       -6.6150    -1.7400    -0.4620 N.pl3 1 <1>   0.0330 
 11 C       -8.2050    -2.4230     1.3610 C.3   1 <1>   0.3000 
 12 O       -8.7110    -3.4650     0.5710 O.3   1 <1>  -0.5600 
 13 C       -8.0310    -4.6930     0.7330 C.3   1 <1>   0.1810 
 14 C       -8.5060    -5.7640    -0.2600 C.2   1 <1>   0.5690 
 15 O       -7.6590    -6.4540    -0.7740 O.2   1 <1>  -0.5700 
 16 N       -9.8370    -5.9680    -0.5540 N.am  1 <1>  -0.6600 
 17 C      -10.9690    -5.3050     0.1660 C.3   1 <1>   0.1400 
 18 C      -10.2440    -6.8730    -1.6700 C.3   1 <1>   0.1400 
 19 C      -12.2530    -6.1730     0.2330 C.3   1 <1>   0.4230 
 20 C      -11.1970    -7.9850    -1.1880 C.3   1 <1>   0.3430 
 21 N      -11.9640    -7.6500     0.0740 N.4   1 <1>  -0.9590 
 22 C      -13.3270    -5.7220    -0.7830 C.3   1 <1>   0.1200 
 23 C      -13.2450    -8.4150     0.2040 C.3   1 <1>   0.5180 
 24 O      -14.4870    -6.4940    -0.6300 O.3   1 <1>  -0.5600 
 25 C      -12.9790    -9.9140     0.0190 C.3   1 <1>  -0.1950 
 26 C      -14.3210    -7.8820    -0.7720 C.3   1 <1>   0.1200 
 27 C      -13.7090   -10.9170     0.8570 C.3   1 <1>  -0.2000 
 28 C      -12.2340   -10.7110     1.0460 C.3   1 <1>  -0.2000 
 29 H       -3.1070    -1.2070     2.0000 H     1 <1>   0.1500 
 30 H       -2.4960    -0.4550    -2.1720 H     1 <1>   0.1500 
 31 H       -4.8930    -0.9960    -2.6350 H     1 <1>   0.1500 
 32 H       -7.2860    -1.8410    -1.2280 H     1 <1>   0.2700 
 33 H       -8.8930    -1.5990     1.3000 H     1 <1>   0.0800 
 34 H       -8.1430    -2.7490     2.3850 H     1 <1>   0.0800 
 35 H       -6.9780    -4.5350     0.5780 H     1 <1>   0.0800 
 36 H       -8.1840    -5.0430     1.7370 H     1 <1>   0.0800 
 37 H      -10.6650    -5.0900     1.1750 H     1 <1>   0.0800 
 38 H      -11.1830    -4.3600    -0.3040 H     1 <1>   0.0800 
 39 H      -10.7360    -6.2860    -2.4260 H     1 <1>   0.0800 
 40 H       -9.3870    -7.3260    -2.1400 H     1 <1>   0.0800 
 41 H      -12.6860    -6.0070     1.2060 H     1 <1>   0.0800 
 42 H      -10.6160    -8.8770    -1.0170 H     1 <1>   0.0800 
 43 H      -11.8810    -8.2050    -1.9900 H     1 <1>   0.0800 
 44 H      -11.3550    -7.9250     0.8530 H     1 <1>   0.4500 
 45 H      -12.9820    -5.8100    -1.7980 H     1 <1>   0.0800 
 46 H      -13.6000    -4.6960    -0.6050 H     1 <1>   0.0800 
 47 H      -13.6250    -8.2750     1.2030 H     1 <1>   0.0800 
 48 H      -12.8610   -10.1920    -1.0150 H     1 <1>   0.1000 
 49 H      -15.2690    -8.3460    -0.5590 H     1 <1>   0.0800 
 50 H      -14.0640    -8.0940    -1.7940 H     1 <1>   0.0800 
 51 H      -14.3690   -10.5930     1.6450 H     1 <1>   0.1000 
 52 H      -14.0390   -11.8390     0.4080 H     1 <1>   0.1000 
 53 H      -11.5700   -11.4980     0.7240 H     1 <1>   0.1000 
 54 H      -11.9120   -10.2640     1.9710 H     1 <1>   0.1000 
@<TRIPOS>BOND
  1   1   2  1   
  2   2   3  ar  
  3   2   4  ar  
  4   3   5  ar  
  5   3  29  1   
  6   4   6  ar  
  7   4  30  1   
  8   5   7  1   
  9   5   8  ar  
 10   6   8  ar  
 11   6  31  1   
 12   7   9  2   
 13   8  10  1   
 14   9  10  1   
 15   9  11  1   
 16  10  32  1   
 17  11  12  1   
 18  11  33  1   
 19  11  34  1   
 20  12  13  1   
 21  13  14  1   
 22  13  35  1   
 23  13  36  1   
 24  14  15  2   
 25  14  16  am  
 26  16  17  1   
 27  16  18  1   
 28  17  19  1   
 29  17  37  1   
 30  17  38  1   
 31  18  20  1   
 32  18  39  1   
 33  18  40  1   
 34  19  21  1   
 35  19  22  1   
 36  19  41  1   
 37  20  21  1   
 38  20  42  1   
 39  20  43  1   
 40  21  23  1   
 41  21  44  1   
 42  22  24  1   
 43  22  45  1   
 44  22  46  1   
 45  23  25  1   
 46  23  26  1   
 47  23  47  1   
 48  24  26  1   
 49  25  27  1   
 50  25  28  1   
 51  25  48  1   
 52  26  49  1   
 53  26  50  1   
 54  27  28  1   
 55  27  51  1   
 56  27  52  1   
 57  28  53  1   
 58  28  54  1   
@<TRIPOS>SUBSTRUCTURE
  1 ****  14 GROUP 4 **** **** 0

# MOE 2024.06 (io_trps.svl 2023.06)
