@<TRIPOS>MOLECULE
NONAME
53 54 1 0 0 
SMALL
USER_CHARGES


@<TRIPOS>ATOM
  1 O       -1.5940     0.2390     0.5200 O.2   1 <1>  -0.5700 
  2 C       -2.2490     0.9810    -0.1710 C.2   1 <1>   0.5690 
  3 N       -3.2620     0.4780    -0.9460 N.am  1 <1>  -0.6600 
  4 C       -1.9350     2.4850    -0.1420 C.3   1 <1>  -0.0190 
  5 C       -3.0990    -0.8790    -1.5420 C.3   1 <1>   0.3200 
  6 C       -4.5830     1.1640    -1.1260 C.3   1 <1>   0.1400 
  7 C       -0.5730     2.7320    -0.8260 C.3   1 <1>  -0.1600 
  8 C       -2.0120     3.0350     1.3000 C.3   1 <1>  -0.1600 
  9 C       -4.0460    -1.8290    -0.8430 C.2   1 <1>  -0.3320 
 10 C       -5.2920     1.4340     0.2240 C.3   1 <1>   0.3430 
 11 C       -0.3480     4.2000    -1.2200 C.3   1 <1>  -0.1600 
 12 C       -1.6960     4.5320     1.4530 C.3   1 <1>  -0.1600 
 13 N       -5.2030    -2.2940    -1.3550 N.pl3 1 <1>   0.0330 
 14 C       -3.9220    -2.3760     0.3850 C.2   1 <1>   0.0770 
 15 N       -5.2690     0.2310     1.1150 N.4   1 <1>  -0.9590 
 16 C        0.2820     5.0740    -0.1250 C.3   1 <1>  -0.1600 
 17 C       -0.1970     4.8280     1.3130 C.3   1 <1>  -0.1600 
 18 C       -5.7380    -3.0520    -0.3750 C.2   1 <1>   0.0060 
 19 N       -5.0130    -3.0990     0.6930 N.2   1 <1>  -0.5650 
 20 C       -6.6220    -0.2940     1.4600 C.3   1 <1>   0.2630 
 21 C       -4.4440     0.4190     2.3450 C.3   1 <1>   0.2630 
 22 C       -7.0520    -3.7890    -0.5310 C.3   1 <1>  -0.0600 
 23 H       -2.6740     2.9980    -0.7240 H     1 <1>   0.0800 
 24 H       -2.0850    -1.2230    -1.4080 H     1 <1>   0.0800 
 25 H       -3.2970    -0.8430    -2.5990 H     1 <1>   0.0800 
 26 H       -5.2250     0.5530    -1.7350 H     1 <1>   0.0800 
 27 H       -4.4440     2.0910    -1.6540 H     1 <1>   0.0800 
 28 H       -0.5490     2.1500    -1.7320 H     1 <1>   0.0800 
 29 H        0.2330     2.3750    -0.2060 H     1 <1>   0.0800 
 30 H       -1.3440     2.4720     1.9300 H     1 <1>   0.0800 
 31 H       -3.0040     2.8740     1.6740 H     1 <1>   0.0800 
 32 H       -6.3090     1.7320     0.0320 H     1 <1>   0.0800 
 33 H       -4.8030     2.2580     0.7150 H     1 <1>   0.0800 
 34 H       -1.2780     4.6400    -1.5360 H     1 <1>   0.0800 
 35 H        0.3090     4.2290    -2.0720 H     1 <1>   0.0800 
 36 H       -1.9920     4.8260     2.4450 H     1 <1>   0.0800 
 37 H       -2.2680     5.1250     0.7610 H     1 <1>   0.0800 
 38 H       -5.5880    -2.1560    -2.2960 H     1 <1>   0.2700 
 39 H       -3.1000    -2.2660     1.0780 H     1 <1>   0.1500 
 40 H       -4.7880    -0.5210     0.5760 H     1 <1>   0.4500 
 41 H        0.0990     6.1040    -0.3790 H     1 <1>   0.0800 
 42 H        1.3490     4.9340    -0.1440 H     1 <1>   0.0800 
 43 H        0.3720     4.0220     1.7450 H     1 <1>   0.0800 
 44 H        0.0360     5.7080     1.8880 H     1 <1>   0.0800 
 45 H       -7.1580     0.4140     2.0700 H     1 <1>   0.0800 
 46 H       -6.5260    -1.2210     2.0030 H     1 <1>   0.0800 
 47 H       -7.1870    -0.4870     0.5640 H     1 <1>   0.0800 
 48 H       -4.8490     1.2080     2.9570 H     1 <1>   0.0800 
 49 H       -3.4280     0.6660     2.0820 H     1 <1>   0.0800 
 50 H       -4.4270    -0.4930     2.9200 H     1 <1>   0.0800 
 51 H       -7.8480    -3.1020    -0.7520 H     1 <1>   0.0800 
 52 H       -7.2880    -4.3110     0.3810 H     1 <1>   0.0800 
 53 H       -6.9760    -4.5120    -1.3230 H     1 <1>   0.0800 
@<TRIPOS>BOND
  1   1   2  2   
  2   2   3  am  
  3   2   4  1   
  4   3   5  1   
  5   3   6  1   
  6   4   7  1   
  7   4   8  1   
  8   4  23  1   
  9   5   9  1   
 10   5  24  1   
 11   5  25  1   
 12   6  10  1   
 13   6  26  1   
 14   6  27  1   
 15   7  11  1   
 16   7  28  1   
 17   7  29  1   
 18   8  12  1   
 19   8  30  1   
 20   8  31  1   
 21   9  13  1   
 22   9  14  2   
 23  10  15  1   
 24  10  32  1   
 25  10  33  1   
 26  11  16  1   
 27  11  34  1   
 28  11  35  1   
 29  12  17  1   
 30  12  36  1   
 31  12  37  1   
 32  13  18  1   
 33  13  38  1   
 34  14  19  1   
 35  14  39  1   
 36  15  20  1   
 37  15  21  1   
 38  15  40  1   
 39  16  17  1   
 40  16  41  1   
 41  16  42  1   
 42  17  43  1   
 43  17  44  1   
 44  18  19  2   
 45  18  22  1   
 46  20  45  1   
 47  20  46  1   
 48  20  47  1   
 49  21  48  1   
 50  21  49  1   
 51  21  50  1   
 52  22  51  1   
 53  22  52  1   
 54  22  53  1   
@<TRIPOS>SUBSTRUCTURE
  1 ****   3 GROUP 4 **** **** 0

# MOE 2024.06 (io_trps.svl 2023.06)
