@<TRIPOS>MOLECULE
NONAME
49 52 1 0 0 
SMALL
USER_CHARGES


@<TRIPOS>ATOM
  1 O        1.0820     0.3330     1.9780 O.2   1 <1>  -0.5700 
  2 C        1.6330    -0.2060     1.0480 C.2   1 <1>   0.5690 
  3 N        1.0450    -1.1020     0.2390 N.am  1 <1>  -0.7300 
  4 C        3.0680     0.0570     0.6020 C.3   1 <1>   0.2810 
  5 C        1.9140    -1.5670    -0.8490 C.3   1 <1>   0.1400 
  6 N        3.2110     1.3820    -0.0520 N.am  1 <1>  -0.7300 
  7 C        3.3030    -1.0540    -0.4360 C.3   1 <1>  -0.1600 
  8 C        4.2600     2.2270     0.1110 C.2   1 <1>   0.7160 
  9 O        5.2960     1.7640     0.5480 O.2   1 <1>  -0.5700 
 10 C        4.1210     3.6150    -0.2190 C.2   1 <1>  -0.0860 
 11 C        2.9120     4.2770    -0.4840 C.2   1 <1>   0.3720 
 12 C        5.0510     4.5980    -0.3830 C.2   1 <1>   0.0870 
 13 N        3.1110     5.5110    -0.7840 N.2   1 <1>  -0.4100 
 14 N        1.6350     3.6940    -0.4090 N.pl3 1 <1>  -0.8210 
 15 O        4.4030     5.6840    -0.7220 O.3   1 <1>  -0.0190 
 16 C        6.4860     4.6510    -0.2730 C.ar  1 <1>   0.0530 
 17 C        1.0070     3.8000     0.9400 C.3   1 <1>   0.2090 
 18 C        0.6410     4.1280    -1.4310 C.3   1 <1>   0.2090 
 19 C        7.1720     4.1060     0.8120 C.ar  1 <1>  -0.1500 
 20 C        7.2460     5.2800    -1.2600 C.ar  1 <1>  -0.1500 
 21 C       -0.3590     4.4360     0.7230 C.3   1 <1>  -0.1600 
 22 C       -0.7040     4.1040    -0.7210 C.3   1 <1>  -0.1600 
 23 C        8.5500     4.1710     0.9070 C.ar  1 <1>  -0.1500 
 24 C        8.6230     5.3510    -1.1730 C.ar  1 <1>  -0.1500 
 25 C        9.2890     4.7970    -0.0930 C.ar  1 <1>   0.0820 
 26 O       10.6390     4.9030    -0.0810 O.3   1 <1>  -0.3620 
 27 C       11.4120     4.3370     0.9530 C.3   1 <1>   0.0400 
 28 H        0.0640    -1.3760     0.3370 H     1 <1>   0.3700 
 29 H        3.7450    -0.0320     1.4350 H     1 <1>   0.0800 
 30 H        1.5990    -1.1200    -1.7780 H     1 <1>   0.0800 
 31 H        1.8950    -2.6410    -0.9290 H     1 <1>   0.0800 
 32 H        2.3250     1.8560    -0.2860 H     1 <1>   0.3700 
 33 H        3.8350    -1.8600     0.0370 H     1 <1>   0.0800 
 34 H        3.8800    -0.7170    -1.2790 H     1 <1>   0.0800 
 35 H        1.6060     4.3930     1.6130 H     1 <1>   0.0800 
 36 H        0.8900     2.8130     1.3530 H     1 <1>   0.0800 
 37 H        0.6500     3.4600    -2.2740 H     1 <1>   0.0800 
 38 H        0.8530     5.1290    -1.7700 H     1 <1>   0.0800 
 39 H        6.6150     3.6250     1.5960 H     1 <1>   0.1500 
 40 H        6.7460     5.7170    -2.1070 H     1 <1>   0.1500 
 41 H       -0.2690     5.5010     0.8440 H     1 <1>   0.0800 
 42 H       -1.0880     4.0610     1.4190 H     1 <1>   0.0800 
 43 H       -1.1170     3.1130    -0.7830 H     1 <1>   0.0800 
 44 H       -1.3960     4.8060    -1.1510 H     1 <1>   0.0800 
 45 H        9.0280     3.7300     1.7600 H     1 <1>   0.1500 
 46 H        9.1950     5.8370    -1.9430 H     1 <1>   0.1500 
 47 H       12.4480     4.5350     0.7420 H     1 <1>   0.0800 
 48 H       11.2400     3.2760     0.9760 H     1 <1>   0.0800 
 49 H       11.1350     4.7940     1.8870 H     1 <1>   0.0800 
@<TRIPOS>BOND
  1   1   2  2   
  2   2   3  am  
  3   2   4  1   
  4   3   5  1   
  5   3  28  1   
  6   4   6  1   
  7   4   7  1   
  8   4  29  1   
  9   5   7  1   
 10   5  30  1   
 11   5  31  1   
 12   6   8  am  
 13   6  32  1   
 14   7  33  1   
 15   7  34  1   
 16   8   9  2   
 17   8  10  1   
 18  10  11  1   
 19  10  12  2   
 20  11  13  2   
 21  11  14  1   
 22  12  15  1   
 23  12  16  1   
 24  13  15  1   
 25  14  17  1   
 26  14  18  1   
 27  16  19  ar  
 28  16  20  ar  
 29  17  21  1   
 30  17  35  1   
 31  17  36  1   
 32  18  22  1   
 33  18  37  1   
 34  18  38  1   
 35  19  23  ar  
 36  19  39  1   
 37  20  24  ar  
 38  20  40  1   
 39  21  22  1   
 40  21  41  1   
 41  21  42  1   
 42  22  43  1   
 43  22  44  1   
 44  23  25  ar  
 45  23  45  1   
 46  24  25  ar  
 47  24  46  1   
 48  25  26  1   
 49  26  27  1   
 50  27  47  1   
 51  27  48  1   
 52  27  49  1   
@<TRIPOS>SUBSTRUCTURE
  1 ****  10 GROUP 4 **** **** 0

# MOE 2024.06 (io_trps.svl 2023.06)
