@<TRIPOS>MOLECULE
NONAME
48 51 1 0 0 
SMALL
USER_CHARGES


@<TRIPOS>ATOM
  1 O        1.6760    -0.1700     1.5640 O.2   1 <1>  -0.5700 
  2 C        2.6640     0.0900     0.9130 C.2   1 <1>   0.7150 
  3 N        3.4180    -0.9860     0.5700 N.am  1 <1>  -0.7300 
  4 C        2.9510     1.4510     0.5640 C.2   1 <1>  -0.2370 
  5 C        4.8200    -1.1530     0.0970 C.3   1 <1>   0.1400 
  6 N        3.8350     1.8800    -0.3680 N.pl3 1 <1>   0.3140 
  7 C        2.3920     2.5830     1.0640 C.2   1 <1>  -0.1500 
  8 C        5.5490     0.1370    -0.3090 C.3   1 <1>   0.2000 
  9 N        3.8650     3.2120    -0.4740 N.2   1 <1>  -0.7070 
 10 C        4.7180     1.0540    -1.2030 C.3   1 <1>   0.0960 
 11 C        2.9800     3.6570     0.4040 C.2   1 <1>   0.2030 
 12 O        6.7030    -0.2210    -0.9960 O.3   1 <1>  -0.6800 
 13 C        2.6660     5.0570     0.6460 C.2   1 <1>   0.7160 
 14 O        1.8380     5.4020     1.4730 O.2   1 <1>  -0.5700 
 15 N        3.3200     6.0200    -0.0710 N.am  1 <1>  -0.7300 
 16 C        3.1430     7.4790     0.0410 C.3   1 <1>   0.1400 
 17 C        4.4530     8.1050     0.5140 C.3   1 <1>  -0.1600 
 18 C        4.2870     9.6130     0.7270 C.3   1 <1>   0.0960 
 19 N        5.5650    10.2160     1.1510 N.pl3 1 <1>   0.0480 
 20 C        6.5720    10.6620     0.3260 C.ar  1 <1>  -0.1520 
 21 C        5.9560    10.4330     2.4430 C.2   1 <1>  -0.3020 
 22 C        7.5990    11.1620     1.1210 C.ar  1 <1>   0.0000 
 23 C        6.6850    10.6740    -1.0680 C.ar  1 <1>  -0.1500 
 24 C        7.1830    11.0050     2.4590 C.2   1 <1>  -0.1500 
 25 C        8.7530    11.6810     0.5250 C.ar  1 <1>  -0.1500 
 26 C        7.8240    11.1880    -1.6430 C.ar  1 <1>  -0.1500 
 27 C        8.8590    11.6920    -0.8460 C.ar  1 <1>  -0.1500 
 28 H        2.9890    -1.8530     0.9030 H     1 <1>   0.3700 
 29 H        4.7960    -1.8180    -0.7500 H     1 <1>   0.0800 
 30 H        5.3870    -1.6300     0.8780 H     1 <1>   0.0800 
 31 H        1.6340     2.6610     1.8250 H     1 <1>   0.1500 
 32 H        5.8710     0.6720     0.5690 H     1 <1>   0.0800 
 33 H        5.3660     1.7170    -1.7480 H     1 <1>   0.0800 
 34 H        4.1170     0.4910    -1.8910 H     1 <1>   0.0800 
 35 H        6.5020    -0.6740    -1.8390 H     1 <1>   0.4000 
 36 H        4.0160     5.6680    -0.7350 H     1 <1>   0.3700 
 37 H        2.3560     7.6970     0.7440 H     1 <1>   0.0800 
 38 H        2.8610     7.8760    -0.9200 H     1 <1>   0.0800 
 39 H        5.2190     7.9300    -0.2210 H     1 <1>   0.0800 
 40 H        4.7460     7.6500     1.4440 H     1 <1>   0.0800 
 41 H        3.5510     9.8010     1.4880 H     1 <1>   0.0800 
 42 H        3.9680    10.0900    -0.1820 H     1 <1>   0.0800 
 43 H        5.3350    10.1650     3.2790 H     1 <1>   0.1500 
 44 H        5.8900    10.2850    -1.6770 H     1 <1>   0.1500 
 45 H        7.7700    11.3010     3.3100 H     1 <1>   0.1500 
 46 H        9.5380    12.0630     1.1510 H     1 <1>   0.1500 
 47 H        7.9330    11.2080    -2.7130 H     1 <1>   0.1500 
 48 H        9.7400    12.0880    -1.3200 H     1 <1>   0.1500 
@<TRIPOS>BOND
  1   1   2  2   
  2   2   3  am  
  3   2   4  1   
  4   3   5  1   
  5   3  28  1   
  6   4   6  1   
  7   4   7  2   
  8   5   8  1   
  9   5  29  1   
 10   5  30  1   
 11   6   9  1   
 12   6  10  1   
 13   7  11  1   
 14   7  31  1   
 15   8  10  1   
 16   8  12  1   
 17   8  32  1   
 18   9  11  2   
 19  10  33  1   
 20  10  34  1   
 21  11  13  1   
 22  12  35  1   
 23  13  14  2   
 24  13  15  am  
 25  15  16  1   
 26  15  36  1   
 27  16  17  1   
 28  16  37  1   
 29  16  38  1   
 30  17  18  1   
 31  17  39  1   
 32  17  40  1   
 33  18  19  1   
 34  18  41  1   
 35  18  42  1   
 36  19  20  1   
 37  19  21  1   
 38  20  22  ar  
 39  20  23  ar  
 40  21  24  2   
 41  21  43  1   
 42  22  24  1   
 43  22  25  ar  
 44  23  26  ar  
 45  23  44  1   
 46  24  45  1   
 47  25  27  ar  
 48  25  46  1   
 49  26  27  ar  
 50  26  47  1   
 51  27  48  1   
@<TRIPOS>SUBSTRUCTURE
  1 ****  15 GROUP 4 **** **** 0

# MOE 2024.06 (io_trps.svl 2023.06)
