@<TRIPOS>MOLECULE
NONAME
57 59 1 0 0 
SMALL
USER_CHARGES


@<TRIPOS>ATOM
  1 O       -0.8240     0.0530    -0.6720 O.2   1 <1>  -0.5700 
  2 C       -1.4780     1.0290    -0.3750 C.2   1 <1>   0.5690 
  3 N       -2.8410     0.9320    -0.1850 N.am  1 <1>  -0.6600 
  4 C       -0.7370     2.3810    -0.2410 C.3   1 <1>   0.2610 
  5 C       -3.5290    -0.3960    -0.2590 C.3   1 <1>   0.1400 
  6 C       -3.7460     2.1110    -0.0360 C.3   1 <1>   0.1400 
  7 O       -0.9610     3.1820    -1.3690 O.3   1 <1>  -0.6800 
  8 C        0.7800     2.2210    -0.0290 C.3   1 <1>  -0.0160 
  9 C       -4.4910    -0.4900    -1.4510 C.3   1 <1>   0.1400 
 10 C       -4.3380     2.4830    -1.4000 C.3   1 <1>  -0.1600 
 11 C        1.4480     3.5190     0.4100 C.ar  1 <1>  -0.1430 
 12 N       -5.7060     0.3520    -1.2310 N.am  1 <1>  -0.6600 
 13 C       -5.6370     1.7470    -1.7590 C.3   1 <1>   0.1400 
 14 C        1.8460     4.4590    -0.5280 C.ar  1 <1>  -0.1500 
 15 C        1.6660     3.7710     1.7560 C.ar  1 <1>  -0.1500 
 16 C       -6.8600    -0.1140    -0.6340 C.2   1 <1>   0.5690 
 17 C        2.4540     5.6360    -0.1270 C.ar  1 <1>  -0.1500 
 18 C        2.2740     4.9480     2.1590 C.ar  1 <1>  -0.1500 
 19 O       -7.8260     0.6030    -0.4960 O.2   1 <1>  -0.5700 
 20 C       -6.9680    -1.5320    -0.0600 C.3   1 <1>   0.1810 
 21 C        2.6690     5.8810     1.2170 C.ar  1 <1>  -0.1500 
 22 O       -6.8750    -2.5310    -1.0510 O.3   1 <1>  -0.5600 
 23 C       -6.9210    -3.8440    -0.5770 C.3   1 <1>   0.2630 
 24 C       -8.2620    -4.1430     0.0840 C.ar  1 <1>  -0.1430 
 25 C       -9.4470    -3.8480    -0.5730 C.ar  1 <1>  -0.1500 
 26 C       -8.3100    -4.7120     1.3480 C.ar  1 <1>  -0.1500 
 27 C      -10.6660    -4.1150     0.0260 C.ar  1 <1>  -0.1500 
 28 C       -9.5280    -4.9810     1.9480 C.ar  1 <1>  -0.1500 
 29 C      -10.7070    -4.6820     1.2870 C.ar  1 <1>  -0.1500 
 30 H       -1.1300     2.9070     0.6090 H     1 <1>   0.0800 
 31 H       -4.0670    -0.5670     0.6560 H     1 <1>   0.0800 
 32 H       -2.8020    -1.1830    -0.3520 H     1 <1>   0.0800 
 33 H       -3.2020     2.9550     0.3470 H     1 <1>   0.0800 
 34 H       -4.5300     1.8900     0.6680 H     1 <1>   0.0800 
 35 H       -0.6440     2.7110    -2.1640 H     1 <1>   0.4000 
 36 H        1.2400     1.8470    -0.9260 H     1 <1>   0.0800 
 37 H        0.9430     1.4810     0.7350 H     1 <1>   0.0800 
 38 H       -4.7740    -1.5160    -1.5920 H     1 <1>   0.0800 
 39 H       -3.9840    -0.1820    -2.3490 H     1 <1>   0.0800 
 40 H       -3.6040     2.3260    -2.1710 H     1 <1>   0.0800 
 41 H       -4.5570     3.5350    -1.4000 H     1 <1>   0.0800 
 42 H       -5.7540     1.7210    -2.8290 H     1 <1>   0.0800 
 43 H       -6.4600     2.3180    -1.3650 H     1 <1>   0.0800 
 44 H        1.6780     4.2800    -1.5750 H     1 <1>   0.1500 
 45 H        1.3650     3.0540     2.4990 H     1 <1>   0.1500 
 46 H        2.7580     6.3610    -0.8620 H     1 <1>   0.1500 
 47 H        2.4400     5.1370     3.2050 H     1 <1>   0.1500 
 48 H       -7.9200    -1.6250     0.4320 H     1 <1>   0.0800 
 49 H       -6.1870    -1.6860     0.6610 H     1 <1>   0.0800 
 50 H        3.1410     6.7960     1.5290 H     1 <1>   0.1500 
 51 H       -6.1050    -3.9910     0.1080 H     1 <1>   0.0800 
 52 H       -6.7840    -4.4960    -1.4220 H     1 <1>   0.0800 
 53 H       -9.4190    -3.4010    -1.5520 H     1 <1>   0.1500 
 54 H       -7.4020    -4.9510     1.8740 H     1 <1>   0.1500 
 55 H      -11.5800    -3.8800    -0.4900 H     1 <1>   0.1500 
 56 H       -9.5610    -5.4220     2.9290 H     1 <1>   0.1500 
 57 H      -11.6540    -4.8890     1.7530 H     1 <1>   0.1500 
@<TRIPOS>BOND
  1   1   2  2   
  2   2   3  am  
  3   2   4  1   
  4   3   5  1   
  5   3   6  1   
  6   4   7  1   
  7   4   8  1   
  8   4  30  1   
  9   5   9  1   
 10   5  31  1   
 11   5  32  1   
 12   6  10  1   
 13   6  33  1   
 14   6  34  1   
 15   7  35  1   
 16   8  11  1   
 17   8  36  1   
 18   8  37  1   
 19   9  12  1   
 20   9  38  1   
 21   9  39  1   
 22  10  13  1   
 23  10  40  1   
 24  10  41  1   
 25  11  14  ar  
 26  11  15  ar  
 27  12  13  1   
 28  12  16  am  
 29  13  42  1   
 30  13  43  1   
 31  14  17  ar  
 32  14  44  1   
 33  15  18  ar  
 34  15  45  1   
 35  16  19  2   
 36  16  20  1   
 37  17  21  ar  
 38  17  46  1   
 39  18  21  ar  
 40  18  47  1   
 41  20  22  1   
 42  20  48  1   
 43  20  49  1   
 44  21  50  1   
 45  22  23  1   
 46  23  24  1   
 47  23  51  1   
 48  23  52  1   
 49  24  25  ar  
 50  24  26  ar  
 51  25  27  ar  
 52  25  53  1   
 53  26  28  ar  
 54  26  54  1   
 55  27  29  ar  
 56  27  55  1   
 57  28  29  ar  
 58  28  56  1   
 59  29  57  1   
@<TRIPOS>SUBSTRUCTURE
  1 ****   5 GROUP 4 **** **** 0

# MOE 2024.06 (io_trps.svl 2023.06)
