@<TRIPOS>MOLECULE
NONAME
50 53 1 0 0 
SMALL
USER_CHARGES


@<TRIPOS>ATOM
  1 S        1.1440    -1.2950    -1.5990 S.3   1 <1>  -0.0800 
  2 C       -0.0550    -1.7740    -0.4220 C.2   1 <1>   0.1980 
  3 C        1.7880    -2.9050    -1.5660 C.2   1 <1>  -0.1100 
  4 N        0.0370    -2.9880    -0.0530 N.2   1 <1>  -0.5650 
  5 C       -1.0520    -0.7110     0.0110 C.3   1 <1>   0.0200 
  6 C        1.0870    -3.6670    -0.6990 C.2   1 <1>   0.1410 
  7 C       -2.1750    -1.2760     0.8960 C.3   1 <1>  -0.1600 
  8 C        1.3120    -5.0780    -0.4220 C.2   1 <1>   0.7160 
  9 C       -3.1890    -0.1950     1.2870 C.3   1 <1>  -0.2400 
 10 O        1.9870    -5.7750    -1.1560 O.2   1 <1>  -0.5700 
 11 N        0.7070    -5.6470     0.6570 N.am  1 <1>  -0.7300 
 12 C        0.3070    -7.0660     0.7670 C.3   1 <1>   0.2200 
 13 C       -1.2100    -7.2150     0.6520 C.3   1 <1>  -0.0800 
 14 C        0.5450    -7.5480     2.1910 C.3   1 <1>   0.1200 
 15 C       -1.6900    -7.0340     2.0990 C.3   1 <1>   0.1200 
 16 C       -1.9000    -6.2530    -0.3430 C.3   1 <1>  -0.0170 
 17 O       -0.5640    -7.1200     2.9200 O.3   1 <1>  -0.5600 
 18 C       -3.4190    -6.3890    -0.4920 C.ar  1 <1>  -0.1440 
 19 C       -4.1670    -5.3340    -1.0730 C.ar  1 <1>   0.0000 
 20 C       -4.1150    -7.4950    -0.0910 C.ar  1 <1>  -0.1500 
 21 C       -5.5740    -5.4850    -1.1550 C.ar  1 <1>   0.3100 
 22 C       -3.6050    -4.1370    -1.5830 C.ar  1 <1>  -0.1500 
 23 C       -5.5070    -7.5480    -0.2320 C.ar  1 <1>   0.1600 
 24 N       -6.2260    -6.5950    -0.7320 N.ar  1 <1>  -0.6200 
 25 C       -6.3420    -4.4440    -1.7020 C.ar  1 <1>  -0.1500 
 26 C       -4.3820    -3.1440    -2.1130 C.ar  1 <1>  -0.1500 
 27 C       -5.7690    -3.2940    -2.1720 C.ar  1 <1>  -0.1500 
 28 H        2.6250    -3.1380    -2.1980 H     1 <1>   0.1500 
 29 H       -0.5230     0.0570     0.5460 H     1 <1>   0.0800 
 30 H       -1.4830    -0.2700    -0.8700 H     1 <1>   0.0800 
 31 H       -2.6850    -2.0640     0.3680 H     1 <1>   0.0800 
 32 H       -1.7460    -1.7010     1.7870 H     1 <1>   0.0800 
 33 H       -3.6510     0.2250     0.4100 H     1 <1>   0.0800 
 34 H       -2.7080     0.5930     1.8390 H     1 <1>   0.0800 
 35 H       -3.9590    -0.6230     1.9040 H     1 <1>   0.0800 
 36 H        0.1920    -5.0100     1.2720 H     1 <1>   0.3700 
 37 H        0.8390    -7.6660     0.0470 H     1 <1>   0.0800 
 38 H       -1.4080    -8.2290     0.3560 H     1 <1>   0.0800 
 39 H        1.4430    -7.1420     2.6230 H     1 <1>   0.0800 
 40 H        0.5700    -8.6230     2.2310 H     1 <1>   0.0800 
 41 H       -2.3870    -7.8000     2.3900 H     1 <1>   0.0800 
 42 H       -2.1330    -6.0650     2.2550 H     1 <1>   0.0800 
 43 H       -1.4500    -6.3670    -1.3140 H     1 <1>   0.0800 
 44 H       -1.7080    -5.2510    -0.0060 H     1 <1>   0.0800 
 45 H       -3.6410    -8.3550     0.3400 H     1 <1>   0.1500 
 46 H       -2.5400    -3.9950    -1.5620 H     1 <1>   0.1500 
 47 H       -6.0120    -8.4390     0.1000 H     1 <1>   0.1500 
 48 H       -7.4060    -4.5850    -1.7400 H     1 <1>   0.1500 
 49 H       -3.9370    -2.2400    -2.4930 H     1 <1>   0.1500 
 50 H       -6.3710    -2.5050    -2.5890 H     1 <1>   0.1500 
@<TRIPOS>BOND
  1   1   2  1   
  2   1   3  1   
  3   2   4  2   
  4   2   5  1   
  5   3   6  2   
  6   3  28  1   
  7   4   6  1   
  8   5   7  1   
  9   5  29  1   
 10   5  30  1   
 11   6   8  1   
 12   7   9  1   
 13   7  31  1   
 14   7  32  1   
 15   8  10  2   
 16   8  11  am  
 17   9  33  1   
 18   9  34  1   
 19   9  35  1   
 20  11  12  1   
 21  11  36  1   
 22  12  13  1   
 23  12  14  1   
 24  12  37  1   
 25  13  15  1   
 26  13  16  1   
 27  13  38  1   
 28  14  17  1   
 29  14  39  1   
 30  14  40  1   
 31  15  17  1   
 32  15  41  1   
 33  15  42  1   
 34  16  18  1   
 35  16  43  1   
 36  16  44  1   
 37  18  19  ar  
 38  18  20  ar  
 39  19  21  ar  
 40  19  22  ar  
 41  20  23  ar  
 42  20  45  1   
 43  21  24  ar  
 44  21  25  ar  
 45  22  26  ar  
 46  22  46  1   
 47  23  24  ar  
 48  23  47  1   
 49  25  27  ar  
 50  25  48  1   
 51  26  27  ar  
 52  26  49  1   
 53  27  50  1   
@<TRIPOS>SUBSTRUCTURE
  1 ****  16 GROUP 4 **** **** 0

# MOE 2024.06 (io_trps.svl 2023.06)
