@<TRIPOS>MOLECULE
NONAME
44 46 1 0 0 
SMALL
USER_CHARGES


@<TRIPOS>ATOM
  1 CL      -0.7710    -1.0060    -2.3860 Cl    1 <1>  -0.1770 
  2 C       -1.4360    -2.3380    -1.4770 C.ar  1 <1>   0.1770 
  3 C       -1.1550    -2.4490    -0.1290 C.ar  1 <1>  -0.1500 
  4 C       -2.2330    -3.2680    -2.1150 C.ar  1 <1>  -0.1500 
  5 C       -1.6860    -3.5070     0.5870 C.ar  1 <1>  -0.1500 
  6 C       -2.7570    -4.3230    -1.3890 C.ar  1 <1>  -0.1500 
  7 C       -2.5000    -4.4660    -0.0220 C.ar  1 <1>   0.0530 
  8 C       -3.0470    -5.5610     0.7420 C.2   1 <1>   0.0870 
  9 O       -2.4560    -5.9730     1.8390 O.3   1 <1>  -0.0190 
 10 C       -4.1400    -6.3450     0.5780 C.2   1 <1>  -0.2330 
 11 N       -3.0730    -6.9810     2.4030 N.2   1 <1>  -0.4100 
 12 C       -4.0880    -7.2240     1.6560 C.2   1 <1>   0.3720 
 13 C       -5.1600    -6.3700    -0.4070 C.2   1 <1>   1.0330 
 14 N       -4.9910    -8.2600     1.9260 N.pl3 1 <1>  -0.8210 
 15 O       -4.9930    -6.9700    -1.4790 O.co2 1 <1>  -0.9000 
 16 O       -6.3190    -5.9980    -0.1480 O.co2 1 <1>  -0.9000 
 17 C       -4.9560    -9.3970     0.9470 C.3   1 <1>   0.2090 
 18 C       -6.3430    -7.8030     2.3860 C.3   1 <1>   0.2090 
 19 C       -6.0650    -9.3950    -0.1400 C.3   1 <1>   0.3430 
 20 C       -7.5280    -8.4400     1.6270 C.3   1 <1>   0.3430 
 21 N       -7.2660    -8.5350     0.1560 N.4   1 <1>  -0.9590 
 22 C       -8.4270    -8.7670    -0.7290 C.3   1 <1>   0.4230 
 23 C       -7.9930    -8.6240    -2.1880 C.3   1 <1>  -0.2400 
 24 C       -9.5190    -7.7390    -0.4330 C.3   1 <1>  -0.2400 
 25 H       -0.5320    -1.7150     0.3490 H     1 <1>   0.1500 
 26 H       -2.4410    -3.1690    -3.1650 H     1 <1>   0.1500 
 27 H       -1.4710    -3.5930     1.6380 H     1 <1>   0.1500 
 28 H       -3.3690    -5.0490    -1.8960 H     1 <1>   0.1500 
 29 H       -5.0270   -10.3140     1.5030 H     1 <1>   0.0800 
 30 H       -3.9990    -9.4110     0.4530 H     1 <1>   0.0800 
 31 H       -6.4120    -6.7320     2.2850 H     1 <1>   0.0800 
 32 H       -6.4400    -8.0220     3.4350 H     1 <1>   0.0800 
 33 H       -6.3800   -10.4110    -0.2980 H     1 <1>   0.0800 
 34 H       -5.6220    -9.0600    -1.0630 H     1 <1>   0.0800 
 35 H       -8.3970    -7.8340     1.8110 H     1 <1>   0.0800 
 36 H       -7.7130    -9.4230     2.0240 H     1 <1>   0.0800 
 37 H       -6.9460    -7.5650    -0.1050 H     1 <1>   0.4500 
 38 H       -8.8170    -9.7590    -0.5690 H     1 <1>   0.0800 
 39 H       -7.5170    -7.6690    -2.3470 H     1 <1>   0.0800 
 40 H       -8.8480    -8.6820    -2.8360 H     1 <1>   0.0800 
 41 H       -7.3180    -9.4060    -2.4790 H     1 <1>   0.0800 
 42 H       -9.1160    -6.7410    -0.4760 H     1 <1>   0.0800 
 43 H       -9.9690    -7.9100     0.5270 H     1 <1>   0.0800 
 44 H      -10.3010    -7.8150    -1.1660 H     1 <1>   0.0800 
@<TRIPOS>BOND
  1   1   2  1   
  2   2   3  ar  
  3   2   4  ar  
  4   3   5  ar  
  5   3  25  1   
  6   4   6  ar  
  7   4  26  1   
  8   5   7  ar  
  9   5  27  1   
 10   6   7  ar  
 11   6  28  1   
 12   7   8  1   
 13   8   9  1   
 14   8  10  2   
 15   9  11  1   
 16  10  12  1   
 17  10  13  1   
 18  11  12  2   
 19  12  14  1   
 20  13  15  ar  
 21  13  16  ar  
 22  14  17  1   
 23  14  18  1   
 24  17  19  1   
 25  17  29  1   
 26  17  30  1   
 27  18  20  1   
 28  18  31  1   
 29  18  32  1   
 30  19  21  1   
 31  19  33  1   
 32  19  34  1   
 33  20  21  1   
 34  20  35  1   
 35  20  36  1   
 36  21  22  1   
 37  21  37  1   
 38  22  23  1   
 39  22  24  1   
 40  22  38  1   
 41  23  39  1   
 42  23  40  1   
 43  23  41  1   
 44  24  42  1   
 45  24  43  1   
 46  24  44  1   
@<TRIPOS>SUBSTRUCTURE
  1 ****  10 GROUP 4 **** **** 0

# MOE 2024.06 (io_trps.svl 2023.06)
