@<TRIPOS>MOLECULE
NONAME
43 44 1 0 0 
SMALL
USER_CHARGES


@<TRIPOS>ATOM
  1 O        0.8640     0.5840     0.0610 O.2   1 <1>  -0.5700 
  2 C        1.8170    -0.0420    -0.3300 C.2   1 <1>   0.5690 
  3 N        2.9480     0.5500    -0.7830 N.am  1 <1>  -0.7300 
  4 C        1.7630    -1.5460    -0.3180 C.3   1 <1>  -0.1790 
  5 C        3.1680     2.0120    -0.8580 C.3   1 <1>   0.1400 
  6 C        4.1510     2.4690     0.2300 C.3   1 <1>  -0.0800 
  7 C        4.3060     4.0010     0.1860 C.3   1 <1>  -0.1600 
  8 C        5.5330     1.7990     0.0920 C.3   1 <1>  -0.1600 
  9 C        5.3210     4.5050     1.2140 C.3   1 <1>   0.2090 
 10 C        6.5310     2.3340     1.1220 C.3   1 <1>   0.2090 
 11 N        6.6230     3.8150     0.9920 N.pl3 1 <1>  -0.8380 
 12 C        7.7930     4.4780     0.7040 C.ar  1 <1>   0.7200 
 13 N        7.7600     5.8100     0.6700 N.ar  1 <1>  -0.6200 
 14 N        8.8830     3.7460     0.4820 N.ar  1 <1>  -0.6200 
 15 C        8.8690     6.4440     0.3870 C.ar  1 <1>   0.1670 
 16 C        9.9790     4.3970     0.1910 C.ar  1 <1>   0.1600 
 17 C       10.0550     5.7760     0.0910 C.ar  1 <1>   0.0860 
 18 C        8.7680     7.9590     0.4340 C.3   1 <1>  -0.0970 
 19 C       11.3000     6.3780    -0.2960 C.2   1 <1>   0.4230 
 20 O       12.3590     6.0090     0.1380 O.2   1 <1>  -0.5700 
 21 C       11.3420     7.4780    -1.3390 C.3   1 <1>  -0.1790 
 22 H        3.7300    -0.0280    -1.0900 H     1 <1>   0.3700 
 23 H        2.5770    -1.9350     0.2640 H     1 <1>   0.0800 
 24 H        1.8260    -1.9190    -1.3230 H     1 <1>   0.0800 
 25 H        0.8360    -1.8710     0.1170 H     1 <1>   0.0800 
 26 H        2.2270     2.5220    -0.7290 H     1 <1>   0.0800 
 27 H        3.5500     2.2630    -1.8330 H     1 <1>   0.0800 
 28 H        3.7310     2.2060     1.1860 H     1 <1>   0.0800 
 29 H        3.3560     4.4670     0.3790 H     1 <1>   0.0800 
 30 H        4.6330     4.3120    -0.7910 H     1 <1>   0.0800 
 31 H        5.9340     1.9760    -0.8910 H     1 <1>   0.0800 
 32 H        5.4450     0.7370     0.2290 H     1 <1>   0.0800 
 33 H        4.9760     4.2870     2.2100 H     1 <1>   0.0800 
 34 H        5.4130     5.5730     1.1260 H     1 <1>   0.0800 
 35 H        7.4850     1.8580     0.9750 H     1 <1>   0.0800 
 36 H        6.1960     2.0920     2.1160 H     1 <1>   0.0800 
 37 H       10.8710     3.8200     0.0130 H     1 <1>   0.1500 
 38 H        7.9710     8.2520     1.0950 H     1 <1>   0.0800 
 39 H        8.5530     8.3450    -0.5450 H     1 <1>   0.0800 
 40 H        9.6770     8.3950     0.8060 H     1 <1>   0.0800 
 41 H       10.4410     7.4870    -1.9240 H     1 <1>   0.0800 
 42 H       12.1740     7.3090    -1.9980 H     1 <1>   0.0800 
 43 H       11.4750     8.4300    -0.8610 H     1 <1>   0.0800 
@<TRIPOS>BOND
  1   1   2  2   
  2   2   3  am  
  3   2   4  1   
  4   3   5  1   
  5   3  22  1   
  6   4  23  1   
  7   4  24  1   
  8   4  25  1   
  9   5   6  1   
 10   5  26  1   
 11   5  27  1   
 12   6   7  1   
 13   6   8  1   
 14   6  28  1   
 15   7   9  1   
 16   7  29  1   
 17   7  30  1   
 18   8  10  1   
 19   8  31  1   
 20   8  32  1   
 21   9  11  1   
 22   9  33  1   
 23   9  34  1   
 24  10  11  1   
 25  10  35  1   
 26  10  36  1   
 27  11  12  1   
 28  12  13  ar  
 29  12  14  ar  
 30  13  15  ar  
 31  14  16  ar  
 32  15  17  ar  
 33  15  18  1   
 34  16  17  ar  
 35  16  37  1   
 36  17  19  1   
 37  18  38  1   
 38  18  39  1   
 39  18  40  1   
 40  19  20  2   
 41  19  21  1   
 42  21  41  1   
 43  21  42  1   
 44  21  43  1   
@<TRIPOS>SUBSTRUCTURE
  1 ****  11 GROUP 4 **** **** 0

# MOE 2024.06 (io_trps.svl 2023.06)
