@<TRIPOS>MOLECULE
NONAME
47 48 1 0 0 
SMALL
USER_CHARGES


@<TRIPOS>ATOM
  1 CL       0.4780     3.9790     2.1920 Cl    1 <1>  -0.1770 
  2 C        0.4190     3.2230     0.6160 C.ar  1 <1>   0.1770 
  3 C        1.4400     2.3890     0.1760 C.ar  1 <1>  -0.1440 
  4 C       -0.6960     3.4750    -0.1620 C.ar  1 <1>  -0.1500 
  5 C        1.2970     1.7840    -1.0690 C.ar  1 <1>  -0.1500 
  6 C        2.6840     2.1240     1.0250 C.3   1 <1>   0.3640 
  7 C       -0.8150     2.8780    -1.4040 C.ar  1 <1>  -0.1500 
  8 C        0.1820     2.0290    -1.8530 C.ar  1 <1>  -0.1500 
  9 N        2.7060     0.6730     1.3330 N.am  1 <1>  -0.7300 
 10 C        3.9900     2.5660     0.3040 C.3   1 <1>   0.2610 
 11 C        3.8240    -0.0840     1.2990 C.2   1 <1>   0.5690 
 12 O        5.1260     1.9610     0.9070 O.3   1 <1>  -0.5600 
 13 C        4.1500     4.0970     0.2560 C.2   1 <1>   0.5690 
 14 O        3.7830    -1.2530     1.5850 O.2   1 <1>  -0.5700 
 15 C        5.1450     0.5510     0.8570 C.3   1 <1>   0.1810 
 16 O        3.3890     4.7760     0.9080 O.2   1 <1>  -0.5700 
 17 N        5.1300     4.6930    -0.5110 N.am  1 <1>  -0.6600 
 18 C        5.2510     6.1850    -0.5530 C.3   1 <1>   0.1400 
 19 C        6.1380     3.9540    -1.3240 C.3   1 <1>   0.1400 
 20 C        5.7880     6.7330     0.7710 C.3   1 <1>   0.1200 
 21 C        7.4820     3.9090    -0.5940 C.3   1 <1>  -0.1600 
 22 O        6.1690     8.0600     0.5800 O.3   1 <1>  -0.5600 
 23 C        8.5000     3.0510    -1.3530 C.3   1 <1>  -0.2400 
 24 C        6.6020     8.6890     1.7420 C.3   1 <1>   0.0400 
 25 H       -1.4630     4.1330     0.2060 H     1 <1>   0.1500 
 26 H        2.0510     1.1100    -1.4380 H     1 <1>   0.1500 
 27 H        2.6260     2.6530     1.9590 H     1 <1>   0.0800 
 28 H       -1.6800     3.0690    -2.0160 H     1 <1>   0.1500 
 29 H        0.0870     1.5560    -2.8160 H     1 <1>   0.1500 
 30 H        1.8330     0.2500     1.6520 H     1 <1>   0.3700 
 31 H        3.9480     2.2200    -0.7100 H     1 <1>   0.0800 
 32 H        5.3660     0.2500    -0.1510 H     1 <1>   0.0800 
 33 H        5.9350     0.2120     1.5010 H     1 <1>   0.0800 
 34 H        5.9140     6.4750    -1.3490 H     1 <1>   0.0800 
 35 H        4.2820     6.6140    -0.7420 H     1 <1>   0.0800 
 36 H        5.8060     2.9500    -1.5170 H     1 <1>   0.0800 
 37 H        6.2550     4.4420    -2.2780 H     1 <1>   0.0800 
 38 H        6.6510     6.1760     1.0890 H     1 <1>   0.0800 
 39 H        5.0220     6.6950     1.5260 H     1 <1>   0.0800 
 40 H        7.8740     4.9060    -0.4950 H     1 <1>   0.0800 
 41 H        7.3400     3.4970     0.3900 H     1 <1>   0.0800 
 42 H        8.6720     3.4490    -2.3370 H     1 <1>   0.0800 
 43 H        8.1470     2.0380    -1.4420 H     1 <1>   0.0800 
 44 H        9.4360     3.0390    -0.8220 H     1 <1>   0.0800 
 45 H        6.8760     9.6990     1.4950 H     1 <1>   0.0800 
 46 H        7.4570     8.1650     2.1330 H     1 <1>   0.0800 
 47 H        5.8000     8.6960     2.4610 H     1 <1>   0.0800 
@<TRIPOS>BOND
  1   1   2  1   
  2   2   3  ar  
  3   2   4  ar  
  4   3   5  ar  
  5   3   6  1   
  6   4   7  ar  
  7   4  25  1   
  8   5   8  ar  
  9   5  26  1   
 10   6   9  1   
 11   6  10  1   
 12   6  27  1   
 13   7   8  ar  
 14   7  28  1   
 15   8  29  1   
 16   9  11  am  
 17   9  30  1   
 18  10  12  1   
 19  10  13  1   
 20  10  31  1   
 21  11  14  2   
 22  11  15  1   
 23  12  15  1   
 24  13  16  2   
 25  13  17  am  
 26  15  32  1   
 27  15  33  1   
 28  17  18  1   
 29  17  19  1   
 30  18  20  1   
 31  18  34  1   
 32  18  35  1   
 33  19  21  1   
 34  19  36  1   
 35  19  37  1   
 36  20  22  1   
 37  20  38  1   
 38  20  39  1   
 39  21  23  1   
 40  21  40  1   
 41  21  41  1   
 42  22  24  1   
 43  23  42  1   
 44  23  43  1   
 45  23  44  1   
 46  24  45  1   
 47  24  46  1   
 48  24  47  1   
@<TRIPOS>SUBSTRUCTURE
  1 ****  10 GROUP 4 **** **** 0

# MOE 2024.06 (io_trps.svl 2023.06)
