@<TRIPOS>MOLECULE
NONAME
51 54 1 0 0 
SMALL
USER_CHARGES


@<TRIPOS>ATOM
  1 O       -0.3780     1.4400     2.1090 O.2   1 <1>  -0.5700 
  2 C       -1.2500     1.6940     1.3010 C.2   1 <1>   0.5440 
  3 N       -2.0100     0.6620     0.7910 N.am  1 <1>  -0.6600 
  4 C       -1.4550     3.0700     0.8940 C.ar  1 <1>   0.0860 
  5 C       -1.9760    -0.7120     1.3780 C.3   1 <1>   0.1400 
  6 C       -2.7060     0.7160    -0.5300 C.3   1 <1>   0.1400 
  7 C       -0.4060     3.8920     0.5310 C.ar  1 <1>  -0.1500 
  8 C       -2.7100     3.6640     0.8480 C.ar  1 <1>  -0.1500 
  9 C       -1.4970    -1.7350     0.3350 C.3   1 <1>   0.1200 
 10 C       -2.1920    -0.3970    -1.4600 C.3   1 <1>   0.1200 
 11 C       -0.6280     5.2020     0.1340 C.ar  1 <1>   0.4100 
 12 C       -2.8380     4.9760     0.4400 C.ar  1 <1>   0.1600 
 13 O       -2.2670    -1.6440    -0.8310 O.3   1 <1>  -0.5600 
 14 N       -1.8330     5.7520     0.0780 N.ar  1 <1>  -0.6200 
 15 N        0.4450     5.9850    -0.2220 N.pl3 1 <1>  -0.8690 
 16 C        0.3100     7.4430    -0.4110 C.3   1 <1>   0.2090 
 17 C        1.6850     8.0310    -0.7140 C.3   1 <1>  -0.1600 
 18 C        1.5860     9.5400    -0.9590 C.3   1 <1>   0.0960 
 19 N        2.9280    10.1070    -1.1960 N.pl3 1 <1>   0.0480 
 20 C        3.8320    10.4920    -0.2320 C.ar  1 <1>  -0.1520 
 21 C        3.5000    10.3280    -2.4170 C.2   1 <1>  -0.3020 
 22 C        4.9780    10.9580    -0.8690 C.ar  1 <1>   0.0000 
 23 C        3.7540    10.4740     1.1640 C.ar  1 <1>  -0.1500 
 24 C        4.7410    10.8440    -2.2540 C.2   1 <1>  -0.1500 
 25 C        6.0610    11.4130    -0.1100 C.ar  1 <1>  -0.1500 
 26 C        4.8260    10.9240     1.9000 C.ar  1 <1>  -0.1500 
 27 C        5.9800    11.3940     1.2630 C.ar  1 <1>  -0.1500 
 28 H       -2.9640    -0.9800     1.7070 H     1 <1>   0.0800 
 29 H       -1.3250    -0.7470     2.2350 H     1 <1>   0.0800 
 30 H       -2.5460     1.6650    -1.0090 H     1 <1>   0.0800 
 31 H       -3.7640     0.5890    -0.3800 H     1 <1>   0.0800 
 32 H        0.5960     3.5090     0.5540 H     1 <1>   0.1500 
 33 H       -3.5770     3.0980     1.1350 H     1 <1>   0.1500 
 34 H       -1.5990    -2.7330     0.7210 H     1 <1>   0.0800 
 35 H       -0.4650    -1.5630     0.0850 H     1 <1>   0.0800 
 36 H       -1.1690    -0.2130    -1.7400 H     1 <1>   0.0800 
 37 H       -2.7910    -0.4430    -2.3520 H     1 <1>   0.0800 
 38 H       -3.8220     5.4150     0.4100 H     1 <1>   0.1500 
 39 H        1.3480     5.6940     0.1580 H     1 <1>   0.4000 
 40 H       -0.1000     7.8820     0.4830 H     1 <1>   0.0800 
 41 H       -0.3670     7.6300    -1.2290 H     1 <1>   0.0800 
 42 H        2.0860     7.5570    -1.5920 H     1 <1>   0.0800 
 43 H        2.3390     7.8490     0.1200 H     1 <1>   0.0800 
 44 H        1.1530    10.0340    -0.1080 H     1 <1>   0.0800 
 45 H        0.9720     9.7390    -1.8200 H     1 <1>   0.0800 
 46 H        2.9880    10.1030    -3.3360 H     1 <1>   0.1500 
 47 H        2.8670    10.1120     1.6510 H     1 <1>   0.1500 
 48 H        5.4500    11.1280    -3.0110 H     1 <1>   0.1500 
 49 H        6.9390    11.7710    -0.6150 H     1 <1>   0.1500 
 50 H        4.7880    10.9190     2.9750 H     1 <1>   0.1500 
 51 H        6.8050    11.7410     1.8600 H     1 <1>   0.1500 
@<TRIPOS>BOND
  1   1   2  2   
  2   2   3  am  
  3   2   4  1   
  4   3   5  1   
  5   3   6  1   
  6   4   7  ar  
  7   4   8  ar  
  8   5   9  1   
  9   5  28  1   
 10   5  29  1   
 11   6  10  1   
 12   6  30  1   
 13   6  31  1   
 14   7  11  ar  
 15   7  32  1   
 16   8  12  ar  
 17   8  33  1   
 18   9  13  1   
 19   9  34  1   
 20   9  35  1   
 21  10  13  1   
 22  10  36  1   
 23  10  37  1   
 24  11  14  ar  
 25  11  15  1   
 26  12  14  ar  
 27  12  38  1   
 28  15  16  1   
 29  15  39  1   
 30  16  17  1   
 31  16  40  1   
 32  16  41  1   
 33  17  18  1   
 34  17  42  1   
 35  17  43  1   
 36  18  19  1   
 37  18  44  1   
 38  18  45  1   
 39  19  20  1   
 40  19  21  1   
 41  20  22  ar  
 42  20  23  ar  
 43  21  24  2   
 44  21  46  1   
 45  22  24  1   
 46  22  25  ar  
 47  23  26  ar  
 48  23  47  1   
 49  24  48  1   
 50  25  27  ar  
 51  25  49  1   
 52  26  27  ar  
 53  26  50  1   
 54  27  51  1   
@<TRIPOS>SUBSTRUCTURE
  1 ****  15 GROUP 4 **** **** 0

# MOE 2024.06 (io_trps.svl 2023.06)
