@<TRIPOS>MOLECULE
NONAME
50 52 1 0 0 
SMALL
USER_CHARGES


@<TRIPOS>ATOM
  1 O       -1.6410     0.5740     1.9670 O.2   1 <1>  -0.5700 
  2 C       -1.8260     1.2030     0.9500 C.2   1 <1>   0.5690 
  3 N       -0.9000     2.1220     0.5080 N.am  1 <1>  -0.6600 
  4 C       -3.1220     0.9410     0.1660 C.3   1 <1>  -0.0190 
  5 C       -0.9960     2.9230    -0.7450 C.3   1 <1>   0.1400 
  6 C        0.3270     2.4140     1.3040 C.3   1 <1>   0.1400 
  7 C       -4.2450     0.2500     0.9460 C.3   1 <1>  -0.1600 
  8 C       -2.9330     0.0170    -1.0420 C.3   1 <1>  -0.1600 
  9 C       -0.9980     4.4110    -0.3930 C.3   1 <1>  -0.1600 
 10 C        0.3510     3.8980     1.6750 C.3   1 <1>  -0.1600 
 11 C       -5.1930    -0.2820    -0.1280 C.3   1 <1>  -0.1600 
 12 C       -4.3290    -0.5210    -1.3720 C.3   1 <1>  -0.1600 
 13 C        0.2430     4.7710     0.4270 C.3   1 <1>   0.2890 
 14 N        0.1570     6.1760     0.8480 N.pl3 1 <1>  -0.8690 
 15 C        0.3130     7.2010    -0.0750 C.ar  1 <1>   0.4100 
 16 N        1.2390     7.0360    -1.0030 N.ar  1 <1>  -0.6200 
 17 C       -0.5280     8.3590     0.0110 C.ar  1 <1>   0.4100 
 18 C        1.3000     8.0690    -1.8340 C.ar  1 <1>   0.1600 
 19 N       -0.4530     9.3690    -0.8390 N.ar  1 <1>  -0.6200 
 20 N       -1.4840     8.4760     1.0340 N.pl3 1 <1>  -0.8380 
 21 C        0.4880     9.1860    -1.7570 C.ar  1 <1>   0.1600 
 22 C       -2.7840     9.1110     0.6840 C.3   1 <1>   0.1290 
 23 C       -0.9430     8.9350     2.3400 C.3   1 <1>   0.1290 
 24 H       -3.5170     1.8820    -0.1690 H     1 <1>   0.0800 
 25 H       -1.8810     2.6870    -1.3040 H     1 <1>   0.0800 
 26 H       -0.1460     2.6990    -1.3670 H     1 <1>   0.0800 
 27 H        1.1950     2.1660     0.7170 H     1 <1>   0.0800 
 28 H        0.3560     1.8210     2.2030 H     1 <1>   0.0800 
 29 H       -4.7350     0.9220     1.6290 H     1 <1>   0.0800 
 30 H       -3.8470    -0.5830     1.5020 H     1 <1>   0.0800 
 31 H       -2.2960    -0.8030    -0.7570 H     1 <1>   0.0800 
 32 H       -2.4910     0.5240    -1.8810 H     1 <1>   0.0800 
 33 H       -1.8890     4.6390     0.1630 H     1 <1>   0.0800 
 34 H       -1.0040     4.9850    -1.3020 H     1 <1>   0.0800 
 35 H        1.2690     4.1210     2.1860 H     1 <1>   0.0800 
 36 H       -0.4690     4.0990     2.3410 H     1 <1>   0.0800 
 37 H       -5.9420     0.4610    -0.3480 H     1 <1>   0.0800 
 38 H       -5.6830    -1.1840     0.1970 H     1 <1>   0.0800 
 39 H       -4.2790    -1.5700    -1.6110 H     1 <1>   0.0800 
 40 H       -4.7460     0.0070    -2.2120 H     1 <1>   0.0800 
 41 H        1.1260     4.6290    -0.1750 H     1 <1>   0.0800 
 42 H       -0.6850     6.3660     1.4030 H     1 <1>   0.4000 
 43 H        2.0360     8.0160    -2.6160 H     1 <1>   0.1500 
 44 H        0.6140     9.9700    -2.4810 H     1 <1>   0.1500 
 45 H       -3.1060     8.7710    -0.2850 H     1 <1>   0.0800 
 46 H       -2.6760    10.1820     0.6570 H     1 <1>   0.0800 
 47 H       -3.5310     8.8440     1.4120 H     1 <1>   0.0800 
 48 H        0.0200     8.4870     2.5220 H     1 <1>   0.0800 
 49 H       -1.6120     8.6540     3.1340 H     1 <1>   0.0800 
 50 H       -0.8280    10.0060     2.3320 H     1 <1>   0.0800 
@<TRIPOS>BOND
  1   1   2  2   
  2   2   3  am  
  3   2   4  1   
  4   3   5  1   
  5   3   6  1   
  6   4   7  1   
  7   4   8  1   
  8   4  24  1   
  9   5   9  1   
 10   5  25  1   
 11   5  26  1   
 12   6  10  1   
 13   6  27  1   
 14   6  28  1   
 15   7  11  1   
 16   7  29  1   
 17   7  30  1   
 18   8  12  1   
 19   8  31  1   
 20   8  32  1   
 21   9  13  1   
 22   9  33  1   
 23   9  34  1   
 24  10  13  1   
 25  10  35  1   
 26  10  36  1   
 27  11  12  1   
 28  11  37  1   
 29  11  38  1   
 30  12  39  1   
 31  12  40  1   
 32  13  14  1   
 33  13  41  1   
 34  14  15  1   
 35  14  42  1   
 36  15  16  ar  
 37  15  17  ar  
 38  16  18  ar  
 39  17  19  ar  
 40  17  20  1   
 41  18  21  ar  
 42  18  43  1   
 43  19  21  ar  
 44  20  22  1   
 45  20  23  1   
 46  21  44  1   
 47  22  45  1   
 48  22  46  1   
 49  22  47  1   
 50  23  48  1   
 51  23  49  1   
 52  23  50  1   
@<TRIPOS>SUBSTRUCTURE
  1 ****   9 GROUP 4 **** **** 0

# MOE 2024.06 (io_trps.svl 2023.06)
