@<TRIPOS>MOLECULE
NONAME
48 51 1 0 0 
SMALL
USER_CHARGES


@<TRIPOS>ATOM
  1 O        0.4090     0.7050     0.2930 O.2   1 <1>  -0.5700 
  2 C        0.4700     1.8420    -0.1400 C.2   1 <1>   0.5440 
  3 N        1.5950     2.2070    -0.8190 N.am  1 <1>  -0.5390 
  4 C       -0.5760     2.8210     0.0380 C.ar  1 <1>   0.0860 
  5 C        1.7740     3.4670    -1.3250 C.2   1 <1>  -0.0410 
  6 C       -0.4050     4.1170    -0.4910 C.ar  1 <1>   0.0280 
  7 C       -1.7560     2.5200     0.7240 C.ar  1 <1>  -0.1500 
  8 C        0.8300     4.4390    -1.1690 C.2   1 <1>  -0.0140 
  9 C       -1.4420     5.0450    -0.3310 C.ar  1 <1>  -0.1500 
 10 C       -2.7540     3.4560     0.8830 C.ar  1 <1>  -0.1500 
 11 C        1.0620     5.7790    -1.6370 C.2   1 <1>   0.6160 
 12 C       -2.5960     4.7240     0.3480 C.ar  1 <1>  -0.1500 
 13 O        0.8190     6.0600    -2.7960 O.2   1 <1>  -0.5700 
 14 N        1.5310     6.7790    -0.8030 N.am  1 <1>  -0.6600 
 15 C        1.8450     6.5200     0.6550 C.3   1 <1>   0.2200 
 16 C        1.7810     8.1380    -1.3860 C.3   1 <1>   0.1400 
 17 C        1.1750     7.5400     1.5890 C.3   1 <1>   0.1200 
 18 C        3.3650     6.4400     0.9190 C.3   1 <1>   0.3430 
 19 C        2.6440     9.0890    -0.5370 C.3   1 <1>  -0.0800 
 20 O        1.9640     8.6810     1.7460 O.3   1 <1>  -0.5600 
 21 N        4.1780     7.1020    -0.1530 N.4   1 <1>  -0.9590 
 22 C        1.9060     9.6010     0.7090 C.3   1 <1>   0.1200 
 23 C        4.0650     8.5820    -0.2220 C.3   1 <1>   0.3430 
 24 C        5.6080     6.5860    -0.1210 C.3   1 <1>   0.2370 
 25 C        5.7130     5.0850    -0.4200 C.2   1 <1>   0.9060 
 26 O        6.6850     4.4550    -0.0120 O.co2 1 <1>  -0.9000 
 27 O        4.7550     4.5650    -1.0100 O.co2 1 <1>  -0.9000 
 28 H        2.3200     1.4890    -0.9010 H     1 <1>   0.3700 
 29 H        2.7040     3.6600    -1.8420 H     1 <1>   0.1500 
 30 H       -1.8800     1.5310     1.1320 H     1 <1>   0.1500 
 31 H       -1.3510     6.0330    -0.7490 H     1 <1>   0.1500 
 32 H       -3.6560     3.2050     1.4140 H     1 <1>   0.1500 
 33 H       -3.3820     5.4510     0.4620 H     1 <1>   0.1500 
 34 H        1.4360     5.5680     0.9400 H     1 <1>   0.0800 
 35 H        2.2610     8.0130    -2.3430 H     1 <1>   0.0800 
 36 H        0.8270     8.6000    -1.5780 H     1 <1>   0.0800 
 37 H        1.0760     7.1040     2.5680 H     1 <1>   0.0800 
 38 H        0.1930     7.8110     1.2410 H     1 <1>   0.0800 
 39 H        3.6290     5.3950     0.9600 H     1 <1>   0.0800 
 40 H        3.5940     6.8690     1.8800 H     1 <1>   0.0800 
 41 H        2.7790     9.9660    -1.1450 H     1 <1>   0.0800 
 42 H        3.7860     6.6780    -1.0170 H     1 <1>   0.4500 
 43 H        0.8740     9.8320     0.4970 H     1 <1>   0.0800 
 44 H        2.3800    10.4980     1.0670 H     1 <1>   0.0800 
 45 H        4.3980     9.0130     0.7090 H     1 <1>   0.0800 
 46 H        4.7250     8.9320    -0.9990 H     1 <1>   0.0800 
 47 H        6.1980     7.0930    -0.8610 H     1 <1>   0.0800 
 48 H        6.0480     6.7590     0.8440 H     1 <1>   0.0800 
@<TRIPOS>BOND
  1   1   2  2   
  2   2   3  am  
  3   2   4  1   
  4   3   5  1   
  5   3  28  1   
  6   4   6  ar  
  7   4   7  ar  
  8   5   8  2   
  9   5  29  1   
 10   6   8  1   
 11   6   9  ar  
 12   7  10  ar  
 13   7  30  1   
 14   8  11  1   
 15   9  12  ar  
 16   9  31  1   
 17  10  12  ar  
 18  10  32  1   
 19  11  13  2   
 20  11  14  am  
 21  12  33  1   
 22  14  15  1   
 23  14  16  1   
 24  15  17  1   
 25  15  18  1   
 26  15  34  1   
 27  16  19  1   
 28  16  35  1   
 29  16  36  1   
 30  17  20  1   
 31  17  37  1   
 32  17  38  1   
 33  18  21  1   
 34  18  39  1   
 35  18  40  1   
 36  19  22  1   
 37  19  23  1   
 38  19  41  1   
 39  20  22  1   
 40  21  23  1   
 41  21  24  1   
 42  21  42  1   
 43  22  43  1   
 44  22  44  1   
 45  23  45  1   
 46  23  46  1   
 47  24  25  1   
 48  24  47  1   
 49  24  48  1   
 50  25  26  ar  
 51  25  27  ar  
@<TRIPOS>SUBSTRUCTURE
  1 ****  15 GROUP 4 **** **** 0

# MOE 2024.06 (io_trps.svl 2023.06)
