@<TRIPOS>MOLECULE
NONAME
44 45 1 0 0 
SMALL
USER_CHARGES


@<TRIPOS>ATOM
  1 O        0.6030     3.1270    -0.9830 O.co2 1 <1>  -0.9000 
  2 C       -0.6220     3.2690    -1.0780 C.2   1 <1>   0.9060 
  3 O       -1.1140     4.0920    -1.8660 O.co2 1 <1>  -0.9000 
  4 C       -1.5320     2.4230    -0.1470 C.3   1 <1>   0.0840 
  5 N       -2.9570     2.8650     0.0960 N.3   1 <1>  -0.8100 
  6 C       -1.6440     0.9770    -0.6420 C.3   1 <1>  -0.1600 
  7 C       -3.8240     1.6790    -0.0020 C.3   1 <1>   0.1100 
  8 C       -3.1500     3.6410     1.3540 C.3   1 <1>   0.1710 
  9 C       -2.9120     0.4550     0.0010 C.3   1 <1>   0.2000 
 10 C       -2.5330     5.0480     1.4130 C.2   1 <1>   0.5690 
 11 O       -2.6200     0.1190     1.3110 O.3   1 <1>  -0.6800 
 12 O       -2.5050     5.6070     2.4870 O.2   1 <1>  -0.5700 
 13 N       -2.0480     5.6340     0.2900 N.am  1 <1>  -0.7300 
 14 C       -1.3080     6.9070     0.2120 C.3   1 <1>   0.1400 
 15 C        0.1900     6.6310     0.0740 C.3   1 <1>  -0.0170 
 16 C        0.9650     7.9420     0.0260 C.ar  1 <1>  -0.1440 
 17 C        1.4190     8.4410    -1.1840 C.ar  1 <1>  -0.1500 
 18 C        1.2180     8.6490     1.1910 C.ar  1 <1>  -0.1500 
 19 C        2.1170     9.6360    -1.2350 C.ar  1 <1>  -0.1500 
 20 C        1.9150     9.8440     1.1440 C.ar  1 <1>  -0.1500 
 21 C        2.3680    10.3470    -0.0650 C.ar  1 <1>   0.0820 
 22 O        3.0420    11.5250    -0.0250 O.3   1 <1>  -0.3620 
 23 C        3.5580    12.1100    -1.1990 C.3   1 <1>   0.0400 
 24 H       -1.0220     2.3980     0.7990 H     1 <1>   0.0800 
 25 H       -0.7730     0.3950    -0.4030 H     1 <1>   0.0800 
 26 H       -1.7640     0.9920    -1.7110 H     1 <1>   0.0800 
 27 H       -4.5570     1.6290     0.7850 H     1 <1>   0.0800 
 28 H       -4.3360     1.7250    -0.9470 H     1 <1>   0.0800 
 29 H       -4.2040     3.7730     1.5110 H     1 <1>   0.0800 
 30 H       -2.7680     3.0760     2.1840 H     1 <1>   0.0800 
 31 H       -3.3370    -0.4000    -0.4950 H     1 <1>   0.0800 
 32 H       -2.1850     0.8930     1.7170 H     1 <1>   0.4000 
 33 H       -1.9720     5.0420    -0.5690 H     1 <1>   0.3700 
 34 H       -1.6540     7.4610    -0.6430 H     1 <1>   0.0800 
 35 H       -1.4940     7.4890     1.0980 H     1 <1>   0.0800 
 36 H        0.5260     6.0430     0.9100 H     1 <1>   0.0800 
 37 H        0.3700     6.0620    -0.8220 H     1 <1>   0.0800 
 38 H        1.2270     7.8920    -2.0910 H     1 <1>   0.1500 
 39 H        0.8710     8.2680     2.1360 H     1 <1>   0.1500 
 40 H        2.4530     9.9910    -2.1900 H     1 <1>   0.1500 
 41 H        2.1110    10.3930     2.0460 H     1 <1>   0.1500 
 42 H        4.0540    13.0240    -0.9270 H     1 <1>   0.0800 
 43 H        2.7430    12.3210    -1.8700 H     1 <1>   0.0800 
 44 H        4.2610    11.4300    -1.6470 H     1 <1>   0.0800 
@<TRIPOS>BOND
  1   1   2  ar  
  2   2   3  ar  
  3   2   4  1   
  4   4   5  1   
  5   4   6  1   
  6   4  24  1   
  7   5   7  1   
  8   5   8  1   
  9   6   9  1   
 10   6  25  1   
 11   6  26  1   
 12   7   9  1   
 13   7  27  1   
 14   7  28  1   
 15   8  10  1   
 16   8  29  1   
 17   8  30  1   
 18   9  11  1   
 19   9  31  1   
 20  10  12  2   
 21  10  13  am  
 22  11  32  1   
 23  13  14  1   
 24  13  33  1   
 25  14  15  1   
 26  14  34  1   
 27  14  35  1   
 28  15  16  1   
 29  15  36  1   
 30  15  37  1   
 31  16  17  ar  
 32  16  18  ar  
 33  17  19  ar  
 34  17  38  1   
 35  18  20  ar  
 36  18  39  1   
 37  19  21  ar  
 38  19  40  1   
 39  20  21  ar  
 40  20  41  1   
 41  21  22  1   
 42  22  23  1   
 43  23  42  1   
 44  23  43  1   
 45  23  44  1   
@<TRIPOS>SUBSTRUCTURE
  1 ****  15 GROUP 4 **** **** 0

# MOE 2024.06 (io_trps.svl 2023.06)
