@<TRIPOS>MOLECULE
NONAME
52 54 1 0 0 
SMALL
USER_CHARGES


@<TRIPOS>ATOM
  1 O       -0.3490    -0.7470    -0.1660 O.2   1 <1>  -0.5700 
  2 C        0.4240    -1.6580     0.0060 C.2   1 <1>   0.5690 
  3 N        0.0360    -2.9610     0.1560 N.am  1 <1>  -0.6600 
  4 C        1.9080    -1.3590     0.0660 C.3   1 <1>  -0.0990 
  5 C        1.0390    -4.0290     0.3780 C.3   1 <1>   0.1400 
  6 C       -1.3950    -3.3710     0.1580 C.3   1 <1>   0.0600 
  7 C        2.6990    -2.3790    -0.7740 C.3   1 <1>  -0.0800 
  8 C        2.2290    -3.8420    -0.5860 C.3   1 <1>  -0.0800 
  9 C        4.2060    -2.3650    -0.4870 C.3   1 <1>  -0.1600 
 10 C        3.4760    -4.6380    -0.1730 C.3   1 <1>  -0.1600 
 11 C        4.6420    -3.8100    -0.7070 C.3   1 <1>   0.4230 
 12 N        5.9590    -4.1470    -0.0970 N.4   1 <1>  -0.9590 
 13 C        6.1180    -3.8940     1.3740 C.3   1 <1>   0.4860 
 14 C        6.4350    -5.5080    -0.4820 C.3   1 <1>   0.2630 
 15 C        6.8030    -2.5420     1.5820 C.ar  1 <1>   0.1670 
 16 N        7.5500    -2.0790     0.5960 N.ar  1 <1>  -0.6200 
 17 C        6.6320    -1.8330     2.7490 C.ar  1 <1>  -0.1500 
 18 C        8.1250    -0.8970     0.8010 C.ar  1 <1>   0.4770 
 19 C        7.2700    -0.6210     2.8530 C.ar  1 <1>   0.1600 
 20 N        8.0160    -0.1460     1.8840 N.ar  1 <1>  -0.6200 
 21 C        9.0010    -0.3340    -0.3260 C.3   1 <1>   0.0630 
 22 C        8.1930    -0.0840    -1.6110 C.3   1 <1>  -0.2400 
 23 C       10.2060    -1.2420    -0.6260 C.3   1 <1>  -0.2400 
 24 H        2.0860    -0.3620    -0.2970 H     1 <1>   0.0800 
 25 H        2.2020    -1.3980     1.0980 H     1 <1>   0.0800 
 26 H        1.3680    -3.9720     1.4010 H     1 <1>   0.0800 
 27 H        0.5910    -4.9960     0.2200 H     1 <1>   0.0800 
 28 H       -1.6420    -3.8330     1.0980 H     1 <1>   0.0800 
 29 H       -1.5760    -4.0680    -0.6410 H     1 <1>   0.0800 
 30 H       -2.0340    -2.5160     0.0180 H     1 <1>   0.0800 
 31 H        2.5450    -2.1270    -1.8120 H     1 <1>   0.0800 
 32 H        1.9090    -4.2010    -1.5510 H     1 <1>   0.0800 
 33 H        4.3620    -2.0600     0.5310 H     1 <1>   0.0800 
 34 H        4.7220    -1.6890    -1.1450 H     1 <1>   0.0800 
 35 H        3.4580    -5.6250    -0.6010 H     1 <1>   0.0800 
 36 H        3.5160    -4.7080     0.8980 H     1 <1>   0.0800 
 37 H        4.6990    -3.9690    -1.7730 H     1 <1>   0.0800 
 38 H        6.6350    -3.4560    -0.4820 H     1 <1>   0.4500 
 39 H        5.1640    -3.9050     1.8720 H     1 <1>   0.0800 
 40 H        6.7420    -4.6550     1.8100 H     1 <1>   0.0800 
 41 H        5.7960    -6.2650    -0.0580 H     1 <1>   0.0800 
 42 H        7.4420    -5.6660    -0.1310 H     1 <1>   0.0800 
 43 H        6.4300    -5.6140    -1.5550 H     1 <1>   0.0800 
 44 H        6.0280    -2.1940     3.5610 H     1 <1>   0.1500 
 45 H        7.1680    -0.0270     3.7470 H     1 <1>   0.1500 
 46 H        9.3880     0.6170     0.0020 H     1 <1>   0.0800 
 47 H        7.8120    -1.0080    -2.0070 H     1 <1>   0.0800 
 48 H        8.8130     0.3830    -2.3550 H     1 <1>   0.0800 
 49 H        7.3650     0.5690    -1.3990 H     1 <1>   0.0800 
 50 H        9.8800    -2.1990    -0.9910 H     1 <1>   0.0800 
 51 H       10.7800    -1.3930     0.2720 H     1 <1>   0.0800 
 52 H       10.8420    -0.7870    -1.3640 H     1 <1>   0.0800 
@<TRIPOS>BOND
  1   1   2  2   
  2   2   3  am  
  3   2   4  1   
  4   3   5  1   
  5   3   6  1   
  6   4   7  1   
  7   4  24  1   
  8   4  25  1   
  9   5   8  1   
 10   5  26  1   
 11   5  27  1   
 12   6  28  1   
 13   6  29  1   
 14   6  30  1   
 15   7   8  1   
 16   7   9  1   
 17   7  31  1   
 18   8  10  1   
 19   8  32  1   
 20   9  11  1   
 21   9  33  1   
 22   9  34  1   
 23  10  11  1   
 24  10  35  1   
 25  10  36  1   
 26  11  12  1   
 27  11  37  1   
 28  12  13  1   
 29  12  14  1   
 30  12  38  1   
 31  13  15  1   
 32  13  39  1   
 33  13  40  1   
 34  14  41  1   
 35  14  42  1   
 36  14  43  1   
 37  15  16  ar  
 38  15  17  ar  
 39  16  18  ar  
 40  17  19  ar  
 41  17  44  1   
 42  18  20  ar  
 43  18  21  1   
 44  19  20  ar  
 45  19  45  1   
 46  21  22  1   
 47  21  23  1   
 48  21  46  1   
 49  22  47  1   
 50  22  48  1   
 51  22  49  1   
 52  23  50  1   
 53  23  51  1   
 54  23  52  1   
@<TRIPOS>SUBSTRUCTURE
  1 ****   9 GROUP 4 **** **** 0

# MOE 2024.06 (io_trps.svl 2023.06)
