@<TRIPOS>MOLECULE
NONAME
54 56 1 0 0 
SMALL
USER_CHARGES


@<TRIPOS>ATOM
  1 S        3.4460     2.1930     1.6440 S.o2  1 <1>   1.3330 
  2 O        3.2440     3.2590     2.5990 O.2   1 <1>  -0.6500 
  3 O        2.5580     1.0520     1.6480 O.2   1 <1>  -0.6500 
  4 N        5.0290     1.6150     1.8630 N.am  1 <1>  -0.8490 
  5 C        3.4480     2.8850    -0.0100 C.3   1 <1>  -0.0550 
  6 C        5.9990     2.6780     2.1530 C.3   1 <1>   0.1160 
  7 C        5.0940     0.5930     2.9110 C.3   1 <1>   0.1160 
  8 C        3.6280     1.8560    -1.1470 C.3   1 <1>  -0.0800 
  9 C        3.4140     2.4160    -2.5490 C.3   1 <1>   0.2200 
 10 C        5.0320     1.2410    -1.2320 C.3   1 <1>   0.1200 
 11 N        4.0030     3.7700    -2.6590 N.am  1 <1>  -0.7300 
 12 C        4.2470     1.4460    -3.3730 C.3   1 <1>   0.1200 
 13 O        5.3680     1.1800    -2.5880 O.3   1 <1>  -0.5600 
 14 C        3.3090     4.9350    -2.6330 C.2   1 <1>   0.5690 
 15 O        2.1030     4.9560    -2.6560 O.2   1 <1>  -0.5700 
 16 C        4.0780     6.2390    -2.5240 C.3   1 <1>   0.0440 
 17 C        5.0950     6.1660    -1.3910 C.ar  1 <1>  -0.1440 
 18 C        4.6700     6.2480    -0.0750 C.ar  1 <1>  -0.1500 
 19 C        6.4440     5.9870    -1.6550 C.ar  1 <1>  -0.1500 
 20 C        5.5780     6.1280     0.9610 C.ar  1 <1>  -0.1500 
 21 C        7.3470     5.8740    -0.6140 C.ar  1 <1>  -0.1500 
 22 C        6.9330     5.9310     0.7130 C.ar  1 <1>   0.0000 
 23 C        7.8780     5.7760     1.7990 C.ar  1 <1>   0.0000 
 24 C        8.7940     4.7270     1.8080 C.ar  1 <1>  -0.1500 
 25 C        7.8980     6.6660     2.8700 C.ar  1 <1>  -0.1500 
 26 C        9.6910     4.5670     2.8480 C.ar  1 <1>  -0.1500 
 27 C        8.7930     6.5120     3.9130 C.ar  1 <1>  -0.1500 
 28 C        9.6920     5.4600     3.9040 C.ar  1 <1>  -0.1500 
 29 H        2.5110     3.3860    -0.1620 H     1 <1>   0.0800 
 30 H        4.2180     3.6250    -0.0740 H     1 <1>   0.0800 
 31 H        6.9900     2.2650     2.2360 H     1 <1>   0.0800 
 32 H        5.7530     3.1780     3.0760 H     1 <1>   0.0800 
 33 H        6.0020     3.4010     1.3580 H     1 <1>   0.0800 
 34 H        6.1030     0.2320     3.0190 H     1 <1>   0.0800 
 35 H        4.4640    -0.2420     2.6530 H     1 <1>   0.0800 
 36 H        4.7600     1.0000     3.8510 H     1 <1>   0.0800 
 37 H        2.9270     1.0530    -1.0000 H     1 <1>   0.0800 
 38 H        2.3780     2.4240    -2.8450 H     1 <1>   0.0800 
 39 H        5.0570     0.2470    -0.8190 H     1 <1>   0.0800 
 40 H        5.7710     1.8540    -0.7450 H     1 <1>   0.0800 
 41 H        5.0230     3.7840    -2.5730 H     1 <1>   0.3700 
 42 H        4.5530     1.8570    -4.3190 H     1 <1>   0.0800 
 43 H        3.7210     0.5200    -3.5240 H     1 <1>   0.0800 
 44 H        4.5640     6.4340    -3.4610 H     1 <1>   0.0800 
 45 H        3.3870     7.0410    -2.3370 H     1 <1>   0.0800 
 46 H        3.6270     6.3950     0.1500 H     1 <1>   0.1500 
 47 H        6.7990     5.9320    -2.6700 H     1 <1>   0.1500 
 48 H        5.2270     6.1800     1.9780 H     1 <1>   0.1500 
 49 H        8.3930     5.7420    -0.8330 H     1 <1>   0.1500 
 50 H        8.8030     4.0260     0.9920 H     1 <1>   0.1500 
 51 H        7.2080     7.4910     2.8820 H     1 <1>   0.1500 
 52 H       10.3910     3.7500     2.8370 H     1 <1>   0.1500 
 53 H        8.7930     7.2110     4.7310 H     1 <1>   0.1500 
 54 H       10.3900     5.3400     4.7150 H     1 <1>   0.1500 
@<TRIPOS>BOND
  1   1   2  2   
  2   1   3  2   
  3   1   4  am  
  4   1   5  1   
  5   4   6  1   
  6   4   7  1   
  7   5   8  1   
  8   5  29  1   
  9   5  30  1   
 10   6  31  1   
 11   6  32  1   
 12   6  33  1   
 13   7  34  1   
 14   7  35  1   
 15   7  36  1   
 16   8   9  1   
 17   8  10  1   
 18   8  37  1   
 19   9  11  1   
 20   9  12  1   
 21   9  38  1   
 22  10  13  1   
 23  10  39  1   
 24  10  40  1   
 25  11  14  am  
 26  11  41  1   
 27  12  13  1   
 28  12  42  1   
 29  12  43  1   
 30  14  15  2   
 31  14  16  1   
 32  16  17  1   
 33  16  44  1   
 34  16  45  1   
 35  17  18  ar  
 36  17  19  ar  
 37  18  20  ar  
 38  18  46  1   
 39  19  21  ar  
 40  19  47  1   
 41  20  22  ar  
 42  20  48  1   
 43  21  22  ar  
 44  21  49  1   
 45  22  23  1   
 46  23  24  ar  
 47  23  25  ar  
 48  24  26  ar  
 49  24  50  1   
 50  25  27  ar  
 51  25  51  1   
 52  26  28  ar  
 53  26  52  1   
 54  27  28  ar  
 55  27  53  1   
 56  28  54  1   
@<TRIPOS>SUBSTRUCTURE
  1 ****  20 GROUP 4 **** **** 0

# MOE 2024.06 (io_trps.svl 2023.06)
