@<TRIPOS>MOLECULE
NONAME
52 54 1 0 0 
SMALL
USER_CHARGES


@<TRIPOS>ATOM
  1 O       -0.0390     0.2850     0.2370 O.co2 1 <1>  -0.9000 
  2 C        1.1140     0.0970     0.6210 C.2   1 <1>   0.9060 
  3 O        1.3710    -0.1600     1.8090 O.co2 1 <1>  -0.9000 
  4 C        2.2520     0.1160    -0.4160 C.3   1 <1>  -0.1060 
  5 C        3.6130    -0.0420     0.2860 C.3   1 <1>   0.4230 
  6 C        2.2030     1.4760    -1.1820 C.3   1 <1>  -0.1600 
  7 C        2.1080    -1.0850    -1.3790 C.3   1 <1>  -0.1600 
  8 N        3.6440    -1.2880     1.1230 N.4   1 <1>  -0.9590 
  9 C        3.9780     1.2960     0.9570 C.3   1 <1>   0.2090 
 10 C        3.5640     2.1590    -1.3980 C.3   1 <1>   0.2090 
 11 C        2.2230    -2.4110    -0.6020 C.3   1 <1>  -0.1600 
 12 C        3.4820    -2.4980     0.2730 C.3   1 <1>   0.3430 
 13 C        4.8090    -1.3840     2.0400 C.3   1 <1>   0.2630 
 14 N        4.3640     2.2530    -0.1320 N.pl3 1 <1>  -0.8380 
 15 C        5.7150     2.4490    -0.3060 C.ar  1 <1>   0.4100 
 16 N        6.4370     1.3630    -0.5100 N.ar  1 <1>  -0.6200 
 17 C        6.2820     3.7170    -0.2770 C.ar  1 <1>  -0.1430 
 18 C        7.7250     1.5650    -0.7030 C.ar  1 <1>   0.4770 
 19 C        7.6380     3.7800    -0.4850 C.ar  1 <1>   0.1600 
 20 C        5.4000     4.9430    -0.0180 C.3   1 <1>  -0.0170 
 21 N        8.3760     2.7100    -0.7010 N.ar  1 <1>  -0.6200 
 22 C        8.5680     0.3380    -0.9530 C.3   1 <1>  -0.0970 
 23 C        6.1560     6.2690     0.1580 C.3   1 <1>  -0.1600 
 24 C        5.1920     7.4220     0.4580 C.3   1 <1>  -0.2400 
 25 H        4.3580    -0.1730    -0.4800 H     1 <1>   0.0800 
 26 H        1.5990     2.1730    -0.6250 H     1 <1>   0.0800 
 27 H        1.7070     1.3520    -2.1280 H     1 <1>   0.0800 
 28 H        1.1460    -1.0420    -1.8640 H     1 <1>   0.0800 
 29 H        2.8670    -1.0390    -2.1400 H     1 <1>   0.0800 
 30 H        2.7620    -1.1660     1.6910 H     1 <1>   0.4500 
 31 H        4.8090     1.1820     1.6270 H     1 <1>   0.0800 
 32 H        3.1440     1.6930     1.5100 H     1 <1>   0.0800 
 33 H        3.4070     3.1500    -1.7880 H     1 <1>   0.0800 
 34 H        4.1280     1.6040    -2.1300 H     1 <1>   0.0800 
 35 H        2.2220    -3.2310    -1.2980 H     1 <1>   0.0800 
 36 H        1.3580    -2.5350     0.0270 H     1 <1>   0.0800 
 37 H        4.3450    -2.5990    -0.3640 H     1 <1>   0.0800 
 38 H        3.4170    -3.3740     0.8970 H     1 <1>   0.0800 
 39 H        5.7280    -1.3470     1.4780 H     1 <1>   0.0800 
 40 H        4.7690    -2.3060     2.5950 H     1 <1>   0.0800 
 41 H        4.7950    -0.5660     2.7410 H     1 <1>   0.0800 
 42 H        8.1560     4.7230    -0.4800 H     1 <1>   0.1500 
 43 H        4.7080     5.0410    -0.8360 H     1 <1>   0.0800 
 44 H        4.8200     4.7570     0.8700 H     1 <1>   0.0800 
 45 H        9.2600     0.5330    -1.7520 H     1 <1>   0.0800 
 46 H        7.9500    -0.4960    -1.2240 H     1 <1>   0.0800 
 47 H        9.1200     0.1000    -0.0630 H     1 <1>   0.0800 
 48 H        6.8570     6.1790     0.9700 H     1 <1>   0.0800 
 49 H        6.7010     6.4980    -0.7420 H     1 <1>   0.0800 
 50 H        4.6480     7.2310     1.3670 H     1 <1>   0.0800 
 51 H        4.4880     7.5450    -0.3470 H     1 <1>   0.0800 
 52 H        5.7410     8.3400     0.5750 H     1 <1>   0.0800 
@<TRIPOS>BOND
  1   1   2  ar  
  2   2   3  ar  
  3   2   4  1   
  4   4   5  1   
  5   4   6  1   
  6   4   7  1   
  7   5   8  1   
  8   5   9  1   
  9   5  25  1   
 10   6  10  1   
 11   6  26  1   
 12   6  27  1   
 13   7  11  1   
 14   7  28  1   
 15   7  29  1   
 16   8  12  1   
 17   8  13  1   
 18   8  30  1   
 19   9  14  1   
 20   9  31  1   
 21   9  32  1   
 22  10  14  1   
 23  10  33  1   
 24  10  34  1   
 25  11  12  1   
 26  11  35  1   
 27  11  36  1   
 28  12  37  1   
 29  12  38  1   
 30  13  39  1   
 31  13  40  1   
 32  13  41  1   
 33  14  15  1   
 34  15  16  ar  
 35  15  17  ar  
 36  16  18  ar  
 37  17  19  ar  
 38  17  20  1   
 39  18  21  ar  
 40  18  22  1   
 41  19  21  ar  
 42  19  42  1   
 43  20  23  1   
 44  20  43  1   
 45  20  44  1   
 46  22  45  1   
 47  22  46  1   
 48  22  47  1   
 49  23  24  1   
 50  23  48  1   
 51  23  49  1   
 52  24  50  1   
 53  24  51  1   
 54  24  52  1   
@<TRIPOS>SUBSTRUCTURE
  1 ****  14 GROUP 4 **** **** 0

# MOE 2024.06 (io_trps.svl 2023.06)
