@<TRIPOS>MOLECULE
NONAME
42 44 1 0 0 
SMALL
USER_CHARGES


@<TRIPOS>ATOM
  1 F       -0.3260    -1.0080    -0.4500 F     1 <1>  -0.1900 
  2 C        0.8740    -1.5350    -0.4420 C.ar  1 <1>   0.1900 
  3 C        1.7230    -1.3070    -1.5130 C.ar  1 <1>   0.1900 
  4 C        1.2720    -2.3200     0.6320 C.ar  1 <1>  -0.1440 
  5 F        1.3310    -0.5700    -2.5210 F     1 <1>  -0.1900 
  6 C        2.9930    -1.8510    -1.5440 C.ar  1 <1>  -0.1500 
  7 C        2.5500    -2.8670     0.5970 C.ar  1 <1>  -0.1500 
  8 C        0.3670    -2.6020     1.8300 C.3   1 <1>   0.0450 
  9 C        3.4020    -2.6370    -0.4770 C.ar  1 <1>  -0.1500 
 10 C        0.0060    -4.0760     1.9320 C.2   1 <1>   0.5690 
 11 O        0.5560    -4.7370     2.7810 O.2   1 <1>  -0.5700 
 12 N       -0.9090    -4.6380     1.0830 N.am  1 <1>  -0.6600 
 13 C       -1.6110    -3.9700    -0.0450 C.3   1 <1>   0.1400 
 14 C       -1.2180    -6.0890     1.0950 C.3   1 <1>   0.1400 
 15 C       -2.6790    -4.9740    -0.4750 C.3   1 <1>   0.2000 
 16 C       -2.0370    -6.3330    -0.1780 C.3   1 <1>  -0.0800 
 17 O       -3.7890    -4.7970     0.3390 O.3   1 <1>  -0.6800 
 18 C       -3.0270    -7.5090    -0.0690 C.3   1 <1>   0.0200 
 19 C       -2.3380    -8.8550     0.0820 C.2   1 <1>  -0.0400 
 20 O       -3.0710    -9.9100     0.3220 O.3   1 <1>  -0.0190 
 21 C       -1.0580    -9.2560     0.0190 C.2   1 <1>  -0.1500 
 22 N       -2.3530   -10.9900     0.4270 N.2   1 <1>  -0.4100 
 23 C       -1.1350   -10.6270     0.2500 C.2   1 <1>   0.1080 
 24 C        0.0480   -11.5680     0.2880 C.3   1 <1>  -0.0590 
 25 H        3.6420    -1.6650    -2.3810 H     1 <1>   0.1500 
 26 H        2.8900    -3.4840     1.4140 H     1 <1>   0.1500 
 27 H       -0.5350    -2.0220     1.7930 H     1 <1>   0.0800 
 28 H        0.8850    -2.3170     2.7280 H     1 <1>   0.0800 
 29 H        4.3870    -3.0720    -0.4790 H     1 <1>   0.1500 
 30 H       -2.0460    -3.0290     0.2440 H     1 <1>   0.0800 
 31 H       -0.9130    -3.8160    -0.8490 H     1 <1>   0.0800 
 32 H       -0.3110    -6.6680     1.1070 H     1 <1>   0.0800 
 33 H       -1.7940    -6.3160     1.9760 H     1 <1>   0.0800 
 34 H       -2.9840    -4.8550    -1.5010 H     1 <1>   0.0800 
 35 H       -1.3470    -6.5430    -0.9760 H     1 <1>   0.0800 
 36 H       -3.4950    -4.7540     1.2710 H     1 <1>   0.4000 
 37 H       -3.6430    -7.5400    -0.9500 H     1 <1>   0.0800 
 38 H       -3.6770    -7.3650     0.7760 H     1 <1>   0.0800 
 39 H       -0.1580    -8.6990    -0.1630 H     1 <1>   0.1500 
 40 H        0.7470   -11.2450     1.0370 H     1 <1>   0.0800 
 41 H        0.5330   -11.5830    -0.6700 H     1 <1>   0.0800 
 42 H       -0.2830   -12.5630     0.5270 H     1 <1>   0.0800 
@<TRIPOS>BOND
  1   1   2  1   
  2   2   3  ar  
  3   2   4  ar  
  4   3   5  1   
  5   3   6  ar  
  6   4   7  ar  
  7   4   8  1   
  8   6   9  ar  
  9   6  25  1   
 10   7   9  ar  
 11   7  26  1   
 12   8  10  1   
 13   8  27  1   
 14   8  28  1   
 15   9  29  1   
 16  10  11  2   
 17  10  12  am  
 18  12  13  1   
 19  12  14  1   
 20  13  15  1   
 21  13  30  1   
 22  13  31  1   
 23  14  16  1   
 24  14  32  1   
 25  14  33  1   
 26  15  16  1   
 27  15  17  1   
 28  15  34  1   
 29  16  18  1   
 30  16  35  1   
 31  17  36  1   
 32  18  19  1   
 33  18  37  1   
 34  18  38  1   
 35  19  20  1   
 36  19  21  2   
 37  20  22  1   
 38  21  23  1   
 39  21  39  1   
 40  22  23  2   
 41  23  24  1   
 42  24  40  1   
 43  24  41  1   
 44  24  42  1   
@<TRIPOS>SUBSTRUCTURE
  1 ****  12 GROUP 4 **** **** 0

# MOE 2024.06 (io_trps.svl 2023.06)
