@<TRIPOS>MOLECULE
NONAME
42 44 1 0 0 
SMALL
USER_CHARGES


@<TRIPOS>ATOM
  1 F       -2.5280    -0.7820    -1.4150 F     1 <1>  -0.1900 
  2 C       -2.5180     0.1440    -0.4930 C.ar  1 <1>   0.1900 
  3 C       -2.8050    -0.2000     0.8250 C.ar  1 <1>   0.0860 
  4 C       -2.2160     1.4330    -0.8900 C.ar  1 <1>  -0.1500 
  5 C       -3.1320    -1.5490     1.2260 C.2   1 <1>   0.5440 
  6 C       -2.7540     0.8340     1.7600 C.ar  1 <1>  -0.1500 
  7 C       -2.1860     2.4420     0.0580 C.ar  1 <1>  -0.1440 
  8 O       -2.4060    -2.1400     2.0020 O.2   1 <1>  -0.5700 
  9 N       -4.2720    -2.1800     0.7880 N.am  1 <1>  -0.6600 
 10 C       -2.4540     2.1320     1.3830 C.ar  1 <1>  -0.1500 
 11 C       -1.8560     3.8710    -0.3360 C.3   1 <1>  -0.0970 
 12 C       -5.3470    -1.5760    -0.0390 C.3   1 <1>   0.1400 
 13 C       -4.5830    -3.5970     1.0950 C.3   1 <1>   0.1400 
 14 C       -6.4880    -2.5950     0.0120 C.3   1 <1>   0.2000 
 15 C       -5.7880    -3.9430     0.2090 C.3   1 <1>  -0.0800 
 16 O       -7.2540    -2.3400     1.1380 O.3   1 <1>  -0.6800 
 17 C       -5.3490    -4.5350    -1.1450 C.3   1 <1>  -0.0170 
 18 C       -4.6860    -5.8930    -0.9780 C.ar  1 <1>  -0.1430 
 19 C       -5.4200    -7.0390    -0.7500 C.ar  1 <1>  -0.1500 
 20 C       -3.3160    -6.0510    -1.0450 C.ar  1 <1>  -0.1500 
 21 C       -4.7680    -8.2520    -0.6030 C.ar  1 <1>   0.1600 
 22 C       -2.7630    -7.3100    -0.8830 C.ar  1 <1>   0.1600 
 23 N       -3.4570    -8.4160    -0.6630 N.ar  1 <1>  -0.6200 
 24 H       -2.0040     1.6350    -1.9240 H     1 <1>   0.1500 
 25 H       -2.9520     0.6070     2.7940 H     1 <1>   0.1500 
 26 H       -2.4250     2.9070     2.1310 H     1 <1>   0.1500 
 27 H       -2.5650     4.5500     0.1040 H     1 <1>   0.0800 
 28 H       -1.8890     3.9920    -1.4040 H     1 <1>   0.0800 
 29 H       -0.8700     4.1270     0.0090 H     1 <1>   0.0800 
 30 H       -5.6520    -0.6150     0.3380 H     1 <1>   0.0800 
 31 H       -4.9990    -1.4740    -1.0510 H     1 <1>   0.0800 
 32 H       -3.7280    -4.2240     0.9080 H     1 <1>   0.0800 
 33 H       -4.8460    -3.6780     2.1350 H     1 <1>   0.0800 
 34 H       -7.1320    -2.5570    -0.8490 H     1 <1>   0.0800 
 35 H       -6.4370    -4.6480     0.6990 H     1 <1>   0.0800 
 36 H       -6.6610    -2.2590     1.9130 H     1 <1>   0.4000 
 37 H       -4.6690    -3.8640    -1.6420 H     1 <1>   0.0800 
 38 H       -6.2100    -4.6510    -1.7800 H     1 <1>   0.0800 
 39 H       -6.4920    -7.0010    -0.6860 H     1 <1>   0.1500 
 40 H       -2.6720    -5.2080    -1.2190 H     1 <1>   0.1500 
 41 H       -5.3580    -9.1360    -0.4260 H     1 <1>   0.1500 
 42 H       -1.6920    -7.4130    -0.9360 H     1 <1>   0.1500 
@<TRIPOS>BOND
  1   1   2  1   
  2   2   3  ar  
  3   2   4  ar  
  4   3   5  1   
  5   3   6  ar  
  6   4   7  ar  
  7   4  24  1   
  8   5   8  2   
  9   5   9  am  
 10   6  10  ar  
 11   6  25  1   
 12   7  10  ar  
 13   7  11  1   
 14   9  12  1   
 15   9  13  1   
 16  10  26  1   
 17  11  27  1   
 18  11  28  1   
 19  11  29  1   
 20  12  14  1   
 21  12  30  1   
 22  12  31  1   
 23  13  15  1   
 24  13  32  1   
 25  13  33  1   
 26  14  15  1   
 27  14  16  1   
 28  14  34  1   
 29  15  17  1   
 30  15  35  1   
 31  16  36  1   
 32  17  18  1   
 33  17  37  1   
 34  17  38  1   
 35  18  19  ar  
 36  18  20  ar  
 37  19  21  ar  
 38  19  39  1   
 39  20  22  ar  
 40  20  40  1   
 41  21  23  ar  
 42  21  41  1   
 43  22  23  ar  
 44  22  42  1   
@<TRIPOS>SUBSTRUCTURE
  1 ****   9 GROUP 4 **** **** 0

# MOE 2024.06 (io_trps.svl 2023.06)
