@<TRIPOS>MOLECULE
NONAME
56 59 1 0 0 
SMALL
USER_CHARGES


@<TRIPOS>ATOM
  1 O        1.6510     0.2480     2.1350 O.3   1 <1>  -0.6800 
  2 C        1.2080    -0.1350     0.8720 C.3   1 <1>   0.2000 
  3 C        1.8050    -1.4930     0.5060 C.3   1 <1>  -0.0800 
  4 C        1.8580     0.7870    -0.1640 C.3   1 <1>   0.3430 
  5 C        3.2440    -1.1640     0.0960 C.3   1 <1>   0.3430 
  6 C        1.7160    -2.6010     1.5770 C.3   1 <1>  -0.0170 
  7 N        3.2480     0.2610    -0.3570 N.4   1 <1>  -0.9590 
  8 C        2.5600    -3.8030     1.1640 C.ar  1 <1>  -0.1440 
  9 C        4.2130     1.0730     0.4270 C.3   1 <1>   0.5240 
 10 C        2.1780    -4.6800     0.1200 C.ar  1 <1>   0.0000 
 11 C        3.7470    -4.0490     1.7920 C.ar  1 <1>  -0.1500 
 12 C        4.3190     2.4210    -0.2430 C.2   1 <1>  -0.1810 
 13 C        3.0890    -5.7000    -0.2470 C.ar  1 <1>   0.3100 
 14 C        0.9480    -4.6110    -0.5770 C.ar  1 <1>  -0.1500 
 15 C        4.5620    -5.1060     1.3710 C.ar  1 <1>   0.1600 
 16 C        5.0080     2.7230    -1.4140 C.2   1 <1>   0.1080 
 17 C        3.7690     3.5950     0.1420 C.2   1 <1>  -0.3020 
 18 N        4.2740    -5.8920     0.3840 N.ar  1 <1>  -0.6200 
 19 C        2.7610    -6.5570    -1.3090 C.ar  1 <1>  -0.1500 
 20 C        0.6560    -5.4670    -1.6040 C.ar  1 <1>  -0.1500 
 21 N        4.8810     3.9660    -1.7380 N.2   1 <1>  -0.7070 
 22 C        5.8320     1.7830    -2.2680 C.3   1 <1>  -0.0590 
 23 N        4.1280     4.5190    -0.7720 N.pl3 1 <1>   0.3140 
 24 C        1.5760    -6.4480    -1.9810 C.ar  1 <1>  -0.1500 
 25 C        3.7790     5.9570    -0.7810 C.3   1 <1>   0.0960 
 26 C        4.3020     6.7000     0.4620 C.3   1 <1>  -0.1600 
 27 C        5.8310     6.6520     0.5850 C.3   1 <1>  -0.2400 
 28 H        1.0600    -0.0970     2.8390 H     1 <1>   0.4000 
 29 H        0.1310    -0.1000     0.8440 H     1 <1>   0.0800 
 30 H        1.3050    -1.8410    -0.3810 H     1 <1>   0.0800 
 31 H        1.8470     1.8130     0.1650 H     1 <1>   0.0800 
 32 H        1.3150     0.7110    -1.0910 H     1 <1>   0.0800 
 33 H        3.5800    -1.8290    -0.6830 H     1 <1>   0.0800 
 34 H        3.8880    -1.2780     0.9530 H     1 <1>   0.0800 
 35 H        0.6940    -2.9010     1.7290 H     1 <1>   0.0800 
 36 H        2.0800    -2.2360     2.5220 H     1 <1>   0.0800 
 37 H        3.5110     0.3550    -1.3450 H     1 <1>   0.4500 
 38 H        3.8660     1.1890     1.4420 H     1 <1>   0.0800 
 39 H        5.1820     0.6020     0.4410 H     1 <1>   0.0800 
 40 H        4.0940    -3.4490     2.6130 H     1 <1>   0.1500 
 41 H        0.2140    -3.8820    -0.2940 H     1 <1>   0.1500 
 42 H        5.4890    -5.2720     1.8940 H     1 <1>   0.1500 
 43 H        3.1600     3.8340     0.9950 H     1 <1>   0.1500 
 44 H        3.4790    -7.3130    -1.5740 H     1 <1>   0.1500 
 45 H       -0.2820    -5.4050    -2.1310 H     1 <1>   0.1500 
 46 H        6.0800     0.8830    -1.7390 H     1 <1>   0.0800 
 47 H        6.7460     2.2760    -2.5510 H     1 <1>   0.0800 
 48 H        5.2910     1.5400    -3.1640 H     1 <1>   0.0800 
 49 H        1.3370    -7.1140    -2.7930 H     1 <1>   0.1500 
 50 H        4.1990     6.3970    -1.6680 H     1 <1>   0.0800 
 51 H        2.7110     6.0430    -0.8380 H     1 <1>   0.0800 
 52 H        3.9960     7.7300     0.3950 H     1 <1>   0.0800 
 53 H        3.8520     6.2890     1.3480 H     1 <1>   0.0800 
 54 H        6.2930     7.0630    -0.2970 H     1 <1>   0.0800 
 55 H        6.1740     5.6390     0.7080 H     1 <1>   0.0800 
 56 H        6.1520     7.2240     1.4370 H     1 <1>   0.0800 
@<TRIPOS>BOND
  1   1   2  1   
  2   1  28  1   
  3   2   3  1   
  4   2   4  1   
  5   2  29  1   
  6   3   5  1   
  7   3   6  1   
  8   3  30  1   
  9   4   7  1   
 10   4  31  1   
 11   4  32  1   
 12   5   7  1   
 13   5  33  1   
 14   5  34  1   
 15   6   8  1   
 16   6  35  1   
 17   6  36  1   
 18   7   9  1   
 19   7  37  1   
 20   8  10  ar  
 21   8  11  ar  
 22   9  12  1   
 23   9  38  1   
 24   9  39  1   
 25  10  13  ar  
 26  10  14  ar  
 27  11  15  ar  
 28  11  40  1   
 29  12  16  1   
 30  12  17  2   
 31  13  18  ar  
 32  13  19  ar  
 33  14  20  ar  
 34  14  41  1   
 35  15  18  ar  
 36  15  42  1   
 37  16  21  2   
 38  16  22  1   
 39  17  23  1   
 40  17  43  1   
 41  19  24  ar  
 42  19  44  1   
 43  20  24  ar  
 44  20  45  1   
 45  21  23  1   
 46  22  46  1   
 47  22  47  1   
 48  22  48  1   
 49  23  25  1   
 50  24  49  1   
 51  25  26  1   
 52  25  50  1   
 53  25  51  1   
 54  26  27  1   
 55  26  52  1   
 56  26  53  1   
 57  27  54  1   
 58  27  55  1   
 59  27  56  1   
@<TRIPOS>SUBSTRUCTURE
  1 ****   5 GROUP 4 **** **** 0

# MOE 2024.06 (io_trps.svl 2023.06)
