@<TRIPOS>MOLECULE
NONAME
51 54 1 0 0 
SMALL
USER_CHARGES


@<TRIPOS>ATOM
  1 O        1.7380     1.2190     1.9920 O.2   1 <1>  -0.5700 
  2 C        2.2410     0.2850     1.4130 C.2   1 <1>   0.9370 
  3 N        3.4800     0.4340     0.7840 N.pl3 1 <1>  -0.5760 
  4 C        1.5800    -0.9660     1.3520 C.2   1 <1>  -0.1360 
  5 C        4.0420    -0.6180     0.1340 C.cat 1 <1>   0.7390 
  6 C        4.1470     1.6370     0.8300 C.2   1 <1>   0.1910 
  7 C        2.1260    -2.0050     0.6890 C.2   1 <1>   0.2030 
  8 N        3.3620    -1.7980     0.0890 N.pl3 1 <1>  -0.6450 
  9 C        5.3060    -0.4800    -0.4820 C.2   1 <1>  -0.1680 
 10 C        5.3660     1.7940     0.2380 C.2   1 <1>  -0.1500 
 11 C        1.4290    -3.3810     0.5920 C.3   1 <1>   0.4810 
 12 C        5.9630     0.7220    -0.4300 C.2   1 <1>  -0.1500 
 13 C        5.9760    -1.6440    -1.2150 C.3   1 <1>  -0.1020 
 14 N        1.0220    -3.7290    -0.8210 N.4   1 <1>  -0.9590 
 15 C       -0.4540    -3.7060    -1.0960 C.3   1 <1>   0.4230 
 16 C        1.5700    -5.0690    -1.2260 C.3   1 <1>   0.2630 
 17 C       -1.2870    -4.6650    -0.2440 C.3   1 <1>  -0.1600 
 18 C       -1.1000    -2.3440    -0.8660 C.3   1 <1>  -0.1600 
 19 C       -2.7250    -4.1560    -0.4140 C.3   1 <1>  -0.0800 
 20 C       -2.6020    -2.6490    -0.7550 C.3   1 <1>  -0.0800 
 21 C       -3.6520    -4.5120     0.7690 C.3   1 <1>   0.1400 
 22 C       -3.3460    -1.7130     0.2200 C.3   1 <1>  -0.0990 
 23 N       -4.8050    -3.5930     0.7920 N.am  1 <1>  -0.7300 
 24 C       -4.7150    -2.2690     0.5470 C.2   1 <1>   0.5690 
 25 O       -5.6750    -1.5490     0.5950 O.2   1 <1>  -0.5700 
 26 H        0.6370    -1.0100     1.8650 H     1 <1>   0.1500 
 27 H        3.6910     2.4710     1.3480 H     1 <1>   0.1500 
 28 H        3.8810    -2.5590    -0.3600 H     1 <1>   0.4500 
 29 H        5.8820     2.7400     0.2790 H     1 <1>   0.1500 
 30 H        0.5610    -3.3760     1.2290 H     1 <1>   0.0800 
 31 H        2.1000    -4.1330     0.9750 H     1 <1>   0.0800 
 32 H        6.9300     0.8720    -0.8870 H     1 <1>   0.1500 
 33 H        5.3720    -1.9740    -2.0410 H     1 <1>   0.0800 
 34 H        6.1540    -2.4660    -0.5440 H     1 <1>   0.0800 
 35 H        6.9300    -1.3420    -1.6140 H     1 <1>   0.0800 
 36 H        1.4220    -3.0260    -1.4590 H     1 <1>   0.4500 
 37 H       -0.6230    -3.9680    -2.1300 H     1 <1>   0.0800 
 38 H        1.1660    -5.8480    -0.5990 H     1 <1>   0.0800 
 39 H        2.6450    -5.0860    -1.1420 H     1 <1>   0.0800 
 40 H        1.3070    -5.2890    -2.2490 H     1 <1>   0.0800 
 41 H       -1.2060    -5.6830    -0.5850 H     1 <1>   0.0800 
 42 H       -1.0130    -4.6080     0.7930 H     1 <1>   0.0800 
 43 H       -0.7700    -1.9050     0.0540 H     1 <1>   0.0800 
 44 H       -0.9100    -1.6680    -1.6820 H     1 <1>   0.0800 
 45 H       -3.1420    -4.6390    -1.2840 H     1 <1>   0.0800 
 46 H       -3.0520    -2.5100    -1.7270 H     1 <1>   0.0800 
 47 H       -3.1310    -4.4170     1.7070 H     1 <1>   0.0800 
 48 H       -4.0000    -5.5270     0.6760 H     1 <1>   0.0800 
 49 H       -3.4580    -0.7350    -0.2120 H     1 <1>   0.0800 
 50 H       -2.8130    -1.6150     1.1470 H     1 <1>   0.0800 
 51 H       -5.7270    -3.9580     1.0470 H     1 <1>   0.3700 
@<TRIPOS>BOND
  1   1   2  2   
  2   2   3  1   
  3   2   4  1   
  4   3   5  ar  
  5   3   6  1   
  6   4   7  2   
  7   4  26  1   
  8   5   8  ar  
  9   5   9  1   
 10   6  10  2   
 11   6  27  1   
 12   7   8  1   
 13   7  11  1   
 14   8  28  1   
 15   9  12  2   
 16   9  13  1   
 17  10  12  1   
 18  10  29  1   
 19  11  14  1   
 20  11  30  1   
 21  11  31  1   
 22  12  32  1   
 23  13  33  1   
 24  13  34  1   
 25  13  35  1   
 26  14  15  1   
 27  14  16  1   
 28  14  36  1   
 29  15  17  1   
 30  15  18  1   
 31  15  37  1   
 32  16  38  1   
 33  16  39  1   
 34  16  40  1   
 35  17  19  1   
 36  17  41  1   
 37  17  42  1   
 38  18  20  1   
 39  18  43  1   
 40  18  44  1   
 41  19  20  1   
 42  19  21  1   
 43  19  45  1   
 44  20  22  1   
 45  20  46  1   
 46  21  23  1   
 47  21  47  1   
 48  21  48  1   
 49  22  24  1   
 50  22  49  1   
 51  22  50  1   
 52  23  24  am  
 53  23  51  1   
 54  24  25  2   
@<TRIPOS>SUBSTRUCTURE
  1 ****   7 GROUP 4 **** **** 0

# MOE 2024.06 (io_trps.svl 2023.06)
