@<TRIPOS>MOLECULE
NONAME
63 66 1 0 0 
SMALL
USER_CHARGES


@<TRIPOS>ATOM
  1 F        0.0030    -3.8970    -3.7060 F     1 <1>  -0.1900 
  2 C       -0.1210    -4.0500    -2.4150 C.ar  1 <1>   0.1900 
  3 C       -1.3900    -4.1010    -1.8690 C.ar  1 <1>  -0.1500 
  4 C        1.0210    -4.1550    -1.6450 C.ar  1 <1>  -0.1500 
  5 C       -1.5250    -4.2620    -0.4980 C.ar  1 <1>  -0.1440 
  6 C        0.8810    -4.3180    -0.2770 C.ar  1 <1>  -0.1500 
  7 C       -0.3850    -4.3710     0.2900 C.ar  1 <1>  -0.1500 
  8 C       -2.9090    -4.3200     0.1280 C.3   1 <1>   0.2640 
  9 O       -3.5240    -5.5290    -0.2650 O.3   1 <1>  -0.3630 
 10 C       -4.5450    -6.0720     0.4520 C.ar  1 <1>   0.0830 
 11 C       -5.5020    -5.3600     1.1920 C.ar  1 <1>   0.0830 
 12 C       -4.6050    -7.4530     0.4020 C.ar  1 <1>  -0.1500 
 13 O       -5.4730    -3.9970     1.2010 O.3   1 <1>  -0.3620 
 14 C       -6.4750    -6.0730     1.8890 C.ar  1 <1>  -0.1500 
 15 C       -5.5930    -8.1550     1.0740 C.ar  1 <1>  -0.1430 
 16 C       -6.5140    -3.2260     1.7630 C.3   1 <1>   0.0400 
 17 C       -6.5190    -7.4560     1.8320 C.ar  1 <1>  -0.1500 
 18 C       -5.6540    -9.6640     0.9620 C.3   1 <1>   0.4860 
 19 N       -5.9530   -10.0560    -0.4530 N.4   1 <1>  -0.9590 
 20 C       -7.3560    -9.8880    -0.9500 C.3   1 <1>   0.4230 
 21 C       -5.4910   -11.4550    -0.6990 C.3   1 <1>   0.2630 
 22 C       -8.4650   -10.1850     0.0570 C.3   1 <1>  -0.1600 
 23 C       -7.6600    -8.4840    -1.4620 C.3   1 <1>  -0.1600 
 24 C       -9.7120    -9.5470    -0.5680 C.3   1 <1>  -0.0800 
 25 C       -9.1920    -8.3810    -1.4420 C.3   1 <1>  -0.0800 
 26 C      -10.7830    -9.1680     0.4780 C.3   1 <1>   0.1400 
 27 C       -9.6960    -7.0020    -0.9780 C.3   1 <1>  -0.0990 
 28 N      -11.6900    -8.1250    -0.0590 N.am  1 <1>  -0.6600 
 29 C      -11.1910    -7.0460    -0.7370 C.2   1 <1>   0.5690 
 30 C      -13.1380    -8.2690     0.2530 C.3   1 <1>   0.0600 
 31 O      -11.8750    -6.1400    -1.1440 O.2   1 <1>  -0.5700 
 32 H       -2.2510    -4.0180    -2.5080 H     1 <1>   0.1500 
 33 H        1.9900    -4.1110    -2.1070 H     1 <1>   0.1500 
 34 H        1.7540    -4.4040     0.3470 H     1 <1>   0.1500 
 35 H       -0.4770    -4.5010     1.3540 H     1 <1>   0.1500 
 36 H       -3.5130    -3.5020    -0.2220 H     1 <1>   0.0800 
 37 H       -2.8480    -4.2960     1.2020 H     1 <1>   0.0800 
 38 H       -3.8520    -7.9610    -0.1750 H     1 <1>   0.1500 
 39 H       -7.2120    -5.5680     2.4850 H     1 <1>   0.1500 
 40 H       -6.3020    -2.1890     1.5720 H     1 <1>   0.0800 
 41 H       -6.5480    -3.4000     2.8230 H     1 <1>   0.0800 
 42 H       -7.4450    -3.4970     1.2950 H     1 <1>   0.0800 
 43 H       -7.2860    -7.9700     2.3860 H     1 <1>   0.1500 
 44 H       -6.3900   -10.0670     1.6370 H     1 <1>   0.0800 
 45 H       -4.6930   -10.0580     1.2510 H     1 <1>   0.0800 
 46 H       -5.3820    -9.4210    -1.0290 H     1 <1>   0.4500 
 47 H       -7.5040   -10.5510    -1.7890 H     1 <1>   0.0800 
 48 H       -6.0680   -12.1490    -0.1100 H     1 <1>   0.0800 
 49 H       -4.4500   -11.5590    -0.4350 H     1 <1>   0.0800 
 50 H       -5.6050   -11.7090    -1.7400 H     1 <1>   0.0800 
 51 H       -8.6010   -11.2410     0.2060 H     1 <1>   0.0800 
 52 H       -8.2770    -9.7020     0.9960 H     1 <1>   0.0800 
 53 H       -7.2450    -7.7300    -0.8240 H     1 <1>   0.0800 
 54 H       -7.2830    -8.3430    -2.4600 H     1 <1>   0.0800 
 55 H      -10.1590   -10.2690    -1.2320 H     1 <1>   0.0800 
 56 H       -9.5650    -8.5370    -2.4420 H     1 <1>   0.0800 
 57 H      -10.3210    -8.7740     1.3670 H     1 <1>   0.0800 
 58 H      -11.3480   -10.0430     0.7530 H     1 <1>   0.0800 
 59 H       -9.4780    -6.2580    -1.7230 H     1 <1>   0.0800 
 60 H       -9.2230    -6.7080    -0.0600 H     1 <1>   0.0800 
 61 H      -13.5120    -9.1870    -0.1660 H     1 <1>   0.0800 
 62 H      -13.6980    -7.4490    -0.1630 H     1 <1>   0.0800 
 63 H      -13.2820    -8.2780     1.3190 H     1 <1>   0.0800 
@<TRIPOS>BOND
  1   1   2  1   
  2   2   3  ar  
  3   2   4  ar  
  4   3   5  ar  
  5   3  32  1   
  6   4   6  ar  
  7   4  33  1   
  8   5   7  ar  
  9   5   8  1   
 10   6   7  ar  
 11   6  34  1   
 12   7  35  1   
 13   8   9  1   
 14   8  36  1   
 15   8  37  1   
 16   9  10  1   
 17  10  11  ar  
 18  10  12  ar  
 19  11  13  1   
 20  11  14  ar  
 21  12  15  ar  
 22  12  38  1   
 23  13  16  1   
 24  14  17  ar  
 25  14  39  1   
 26  15  17  ar  
 27  15  18  1   
 28  16  40  1   
 29  16  41  1   
 30  16  42  1   
 31  17  43  1   
 32  18  19  1   
 33  18  44  1   
 34  18  45  1   
 35  19  20  1   
 36  19  21  1   
 37  19  46  1   
 38  20  22  1   
 39  20  23  1   
 40  20  47  1   
 41  21  48  1   
 42  21  49  1   
 43  21  50  1   
 44  22  24  1   
 45  22  51  1   
 46  22  52  1   
 47  23  25  1   
 48  23  53  1   
 49  23  54  1   
 50  24  25  1   
 51  24  26  1   
 52  24  55  1   
 53  25  27  1   
 54  25  56  1   
 55  26  28  1   
 56  26  57  1   
 57  26  58  1   
 58  27  29  1   
 59  27  59  1   
 60  27  60  1   
 61  28  29  am  
 62  28  30  1   
 63  29  31  2   
 64  30  61  1   
 65  30  62  1   
 66  30  63  1   
@<TRIPOS>SUBSTRUCTURE
  1 ****  12 GROUP 4 **** **** 0

# MOE 2024.06 (io_trps.svl 2023.06)
