@<TRIPOS>MOLECULE
NONAME
46 48 1 0 0 
SMALL
USER_CHARGES


@<TRIPOS>ATOM
  1 O        3.4490    -1.7160     1.7410 O.2   1 <1>  -0.5700 
  2 C        2.6540    -1.5370     0.8360 C.2   1 <1>   0.5440 
  3 N        2.6300    -0.2700     0.3100 N.am  1 <1>  -0.6600 
  4 C        1.8850    -2.6400     0.2960 C.ar  1 <1>   0.0860 
  5 C        2.7310     0.9110     1.2420 C.3   1 <1>   0.2200 
  6 C        2.8190    -0.0700    -1.1520 C.3   1 <1>   0.1400 
  7 C        0.5770    -2.4910    -0.1940 C.ar  1 <1>   0.3920 
  8 C        2.4350    -3.9150     0.2500 C.ar  1 <1>  -0.1500 
  9 C        2.0270     2.1640     0.6990 C.3   1 <1>   0.1200 
 10 C        4.2070     1.2210     1.5840 C.3   1 <1>   0.3430 
 11 C        3.7580     1.1040    -1.4920 C.3   1 <1>  -0.0800 
 12 O       -0.0020    -1.2740    -0.1190 O.3   1 <1>  -0.3630 
 13 N       -0.1490    -3.4710    -0.7290 N.ar  1 <1>  -0.6200 
 14 C        1.6850    -4.9360    -0.2890 C.ar  1 <1>  -0.1500 
 15 O        2.8940     2.9000    -0.1140 O.3   1 <1>  -0.5600 
 16 N        5.1510     0.5540     0.6250 N.4   1 <1>  -0.9590 
 17 C        3.0250     2.4540    -1.4220 C.3   1 <1>   0.1200 
 18 C        5.1240     1.1300    -0.7620 C.3   1 <1>   0.3430 
 19 C       -1.3330    -1.0470    -0.5330 C.3   1 <1>   0.1200 
 20 C        0.4160    -4.6630    -0.7620 C.ar  1 <1>   0.1600 
 21 C        6.5280     0.4790     1.1850 C.3   1 <1>   0.2630 
 22 C       -1.6430     0.4340    -0.3380 C.3   1 <1>  -0.2400 
 23 H        2.2270     0.6470     2.1570 H     1 <1>   0.0800 
 24 H        3.2250    -0.9730    -1.5760 H     1 <1>   0.0800 
 25 H        1.8550     0.0900    -1.6070 H     1 <1>   0.0800 
 26 H        3.4250    -4.1010     0.6320 H     1 <1>   0.1500 
 27 H        1.7650     2.8050     1.5230 H     1 <1>   0.0800 
 28 H        1.1250     1.9180     0.1640 H     1 <1>   0.0800 
 29 H        4.3950     0.8490     2.5770 H     1 <1>   0.0800 
 30 H        4.3690     2.2870     1.5960 H     1 <1>   0.0800 
 31 H        3.9890     0.9880    -2.5350 H     1 <1>   0.0800 
 32 H        2.0760    -5.9370    -0.3420 H     1 <1>   0.1500 
 33 H        4.7550    -0.4060     0.5780 H     1 <1>   0.4500 
 34 H        2.0470     2.4020    -1.8720 H     1 <1>   0.0800 
 35 H        3.5920     3.2040    -1.9490 H     1 <1>   0.0800 
 36 H        5.4740     2.1490    -0.7290 H     1 <1>   0.0800 
 37 H        5.8240     0.5730    -1.3640 H     1 <1>   0.0800 
 38 H       -1.4240    -1.3260    -1.5690 H     1 <1>   0.0800 
 39 H       -1.9840    -1.6610     0.0670 H     1 <1>   0.0800 
 40 H       -0.1630    -5.4680    -1.1860 H     1 <1>   0.1500 
 41 H        6.9390     1.4680     1.3030 H     1 <1>   0.0800 
 42 H        7.1670    -0.0880     0.5290 H     1 <1>   0.0800 
 43 H        6.5100    -0.0070     2.1480 H     1 <1>   0.0800 
 44 H       -0.9900     1.0340    -0.9450 H     1 <1>   0.0800 
 45 H       -1.5290     0.7030     0.6970 H     1 <1>   0.0800 
 46 H       -2.6580     0.6310    -0.6320 H     1 <1>   0.0800 
@<TRIPOS>BOND
  1   1   2  2   
  2   2   3  am  
  3   2   4  1   
  4   3   5  1   
  5   3   6  1   
  6   4   7  ar  
  7   4   8  ar  
  8   5   9  1   
  9   5  10  1   
 10   5  23  1   
 11   6  11  1   
 12   6  24  1   
 13   6  25  1   
 14   7  12  1   
 15   7  13  ar  
 16   8  14  ar  
 17   8  26  1   
 18   9  15  1   
 19   9  27  1   
 20   9  28  1   
 21  10  16  1   
 22  10  29  1   
 23  10  30  1   
 24  11  17  1   
 25  11  18  1   
 26  11  31  1   
 27  12  19  1   
 28  13  20  ar  
 29  14  20  ar  
 30  14  32  1   
 31  15  17  1   
 32  16  18  1   
 33  16  21  1   
 34  16  33  1   
 35  17  34  1   
 36  17  35  1   
 37  18  36  1   
 38  18  37  1   
 39  19  22  1   
 40  19  38  1   
 41  19  39  1   
 42  20  40  1   
 43  21  41  1   
 44  21  42  1   
 45  21  43  1   
 46  22  44  1   
 47  22  45  1   
 48  22  46  1   
@<TRIPOS>SUBSTRUCTURE
  1 ****   3 GROUP 4 **** **** 0

# MOE 2024.06 (io_trps.svl 2023.06)
