@<TRIPOS>MOLECULE
NONAME
52 54 1 0 0 
SMALL
USER_CHARGES


@<TRIPOS>ATOM
  1 O        0.5860    -0.9800    -0.6050 O.2   1 <1>  -0.5700 
  2 C       -0.2510    -0.1090    -0.6120 C.2   1 <1>   0.5690 
  3 N       -1.5820    -0.4140    -0.5130 N.am  1 <1>  -0.6600 
  4 C        0.2220     1.3280    -0.7660 C.3   1 <1>  -0.0990 
  5 C       -2.7380     0.5070    -0.6650 C.3   1 <1>   0.1400 
  6 C       -2.0500    -1.8030    -0.2890 C.3   1 <1>   0.1400 
  7 C        0.7490     1.9920     0.5290 C.3   1 <1>   0.1440 
  8 C       -3.9640    -0.4050    -0.7090 C.3   1 <1>   0.2000 
  9 C       -3.5430    -1.6790     0.0160 C.3   1 <1>  -0.0800 
 10 C        1.1560     3.4440     0.1830 C.ar  1 <1>  -0.1440 
 11 C        1.9790     1.2470     1.0800 C.3   1 <1>  -0.2400 
 12 C       -0.3320     1.9350     1.6270 C.3   1 <1>  -0.2400 
 13 O       -5.0520     0.1720    -0.0750 O.3   1 <1>  -0.6800 
 14 C       -4.3600    -2.9140    -0.3920 C.3   1 <1>   0.0210 
 15 C        2.2090     3.6640    -0.7010 C.ar  1 <1>  -0.1500 
 16 C        0.5130     4.5630     0.7080 C.ar  1 <1>  -0.1500 
 17 C       -3.8230    -4.1660     0.2740 C.2   1 <1>   0.1080 
 18 C        2.6060     4.9430    -1.0490 C.ar  1 <1>  -0.1500 
 19 C        0.9060     5.8450     0.3630 C.ar  1 <1>  -0.1500 
 20 N       -3.7310    -4.2930     1.5610 N.2   1 <1>  -0.7070 
 21 C       -3.3640    -5.2920    -0.4000 C.2   1 <1>  -0.1500 
 22 C        1.9540     6.0380    -0.5170 C.ar  1 <1>  -0.1500 
 23 N       -3.2050    -5.5190     1.7450 N.pl3 1 <1>   0.3000 
 24 C       -2.9730    -6.1440     0.5710 C.2   1 <1>  -0.3320 
 25 C       -2.3820    -7.5360     0.4480 C.3   1 <1>  -0.0600 
 26 H        1.0050     1.3170    -1.5010 H     1 <1>   0.0800 
 27 H       -0.5640     1.9340    -1.1710 H     1 <1>   0.0800 
 28 H       -2.7870     1.1630     0.1850 H     1 <1>   0.0800 
 29 H       -2.6580     1.0730    -1.5760 H     1 <1>   0.0800 
 30 H       -1.8830    -2.3760    -1.1850 H     1 <1>   0.0800 
 31 H       -1.5190    -2.2620     0.5290 H     1 <1>   0.0800 
 32 H       -4.2320    -0.6030    -1.7330 H     1 <1>   0.0800 
 33 H       -3.6320    -1.5360     1.0800 H     1 <1>   0.0800 
 34 H        1.7080     0.2730     1.4490 H     1 <1>   0.0800 
 35 H        2.4170     1.8030     1.8890 H     1 <1>   0.0800 
 36 H        2.7250     1.1090     0.3200 H     1 <1>   0.0800 
 37 H       -0.5680     0.9170     1.8840 H     1 <1>   0.0800 
 38 H       -1.2340     2.4170     1.3000 H     1 <1>   0.0800 
 39 H        0.0190     2.4230     2.5200 H     1 <1>   0.0800 
 40 H       -4.9150     0.1780     0.8930 H     1 <1>   0.4000 
 41 H       -4.3330    -3.0390    -1.4600 H     1 <1>   0.0800 
 42 H       -5.3850    -2.7800    -0.0960 H     1 <1>   0.0800 
 43 H        2.7390     2.8360    -1.1350 H     1 <1>   0.1500 
 44 H       -0.3060     4.4720     1.3950 H     1 <1>   0.1500 
 45 H        3.4230     5.0850    -1.7340 H     1 <1>   0.1500 
 46 H        0.3950     6.6940     0.7810 H     1 <1>   0.1500 
 47 H       -3.3360    -5.4290    -1.4670 H     1 <1>   0.1500 
 48 H        2.2600     7.0340    -0.7850 H     1 <1>   0.1500 
 49 H       -3.0160    -5.8970     2.6800 H     1 <1>   0.2700 
 50 H       -2.2960    -7.8110    -0.5880 H     1 <1>   0.0800 
 51 H       -3.0140    -8.2530     0.9410 H     1 <1>   0.0800 
 52 H       -1.4030    -7.5650     0.8920 H     1 <1>   0.0800 
@<TRIPOS>BOND
  1   1   2  2   
  2   2   3  am  
  3   2   4  1   
  4   3   5  1   
  5   3   6  1   
  6   4   7  1   
  7   4  26  1   
  8   4  27  1   
  9   5   8  1   
 10   5  28  1   
 11   5  29  1   
 12   6   9  1   
 13   6  30  1   
 14   6  31  1   
 15   7  10  1   
 16   7  11  1   
 17   7  12  1   
 18   8   9  1   
 19   8  13  1   
 20   8  32  1   
 21   9  14  1   
 22   9  33  1   
 23  10  15  ar  
 24  10  16  ar  
 25  11  34  1   
 26  11  35  1   
 27  11  36  1   
 28  12  37  1   
 29  12  38  1   
 30  12  39  1   
 31  13  40  1   
 32  14  17  1   
 33  14  41  1   
 34  14  42  1   
 35  15  18  ar  
 36  15  43  1   
 37  16  19  ar  
 38  16  44  1   
 39  17  20  2   
 40  17  21  1   
 41  18  22  ar  
 42  18  45  1   
 43  19  22  ar  
 44  19  46  1   
 45  20  23  1   
 46  21  24  2   
 47  21  47  1   
 48  22  48  1   
 49  23  24  1   
 50  23  49  1   
 51  24  25  1   
 52  25  50  1   
 53  25  51  1   
 54  25  52  1   
@<TRIPOS>SUBSTRUCTURE
  1 ****   3 GROUP 4 **** **** 0

# MOE 2024.06 (io_trps.svl 2023.06)
