@<TRIPOS>MOLECULE
NONAME
41 43 1 0 0 
SMALL
USER_CHARGES


@<TRIPOS>ATOM
  1 F       -0.3330     0.3430    -0.2870 F     1 <1>  -0.3400 
  2 C       -1.5810     0.7760    -0.4020 C.3   1 <1>   0.6800 
  3 F       -1.4700     1.9850    -0.9340 F     1 <1>  -0.3400 
  4 C       -2.3320    -0.1190    -1.3870 C.3   1 <1>  -0.1600 
  5 C       -2.1880     0.8930     0.9960 C.3   1 <1>  -0.1600 
  6 C       -3.0220    -1.2600    -0.6450 C.3   1 <1>   0.1400 
  7 C       -3.6920     0.6390     0.9420 C.3   1 <1>   0.1400 
  8 N       -3.9680    -0.7270     0.3880 N.am  1 <1>  -0.6600 
  9 C       -4.9900    -1.4890     0.9190 C.2   1 <1>   0.5690 
 10 O       -5.6760    -1.0520     1.8190 O.2   1 <1>  -0.5700 
 11 C       -5.2840    -2.9060     0.3860 C.3   1 <1>   0.2610 
 12 O       -4.2070    -3.7830     0.6890 O.3   1 <1>  -0.5600 
 13 C       -6.6400    -3.4610     0.9060 C.3   1 <1>   0.3640 
 14 C       -4.3260    -5.0830     0.1530 C.3   1 <1>   0.1810 
 15 N       -6.7310    -4.9350     0.7640 N.am  1 <1>  -0.7300 
 16 C       -7.8040    -2.8340     0.1410 C.ar  1 <1>  -0.1440 
 17 C       -5.6890    -5.7240     0.4250 C.2   1 <1>   0.5690 
 18 C       -8.1350    -3.2530    -1.1430 C.ar  1 <1>  -0.1500 
 19 C       -8.5450    -1.8160     0.7250 C.ar  1 <1>  -0.1500 
 20 O       -5.8310    -6.9130     0.3030 O.2   1 <1>  -0.5700 
 21 C       -9.1850    -2.6660    -1.8270 C.ar  1 <1>  -0.1500 
 22 C       -9.5950    -1.2280     0.0420 C.ar  1 <1>  -0.1500 
 23 C       -9.9160    -1.6520    -1.2350 C.ar  1 <1>  -0.1500 
 24 H       -3.0870     0.4550    -1.8930 H     1 <1>   0.0800 
 25 H       -1.6500    -0.5080    -2.1210 H     1 <1>   0.0800 
 26 H       -1.7530     0.1550     1.6450 H     1 <1>   0.0800 
 27 H       -1.9900     1.8670     1.4050 H     1 <1>   0.0800 
 28 H       -2.2850    -1.8780    -0.1570 H     1 <1>   0.0800 
 29 H       -3.5500    -1.8660    -1.3590 H     1 <1>   0.0800 
 30 H       -4.1710     1.3760     0.3190 H     1 <1>   0.0800 
 31 H       -4.0970     0.7310     1.9360 H     1 <1>   0.0800 
 32 H       -5.3500    -2.8410    -0.6830 H     1 <1>   0.0800 
 33 H       -6.7370    -3.2310     1.9540 H     1 <1>   0.0800 
 34 H       -4.1620    -5.0300    -0.9070 H     1 <1>   0.0800 
 35 H       -3.5560    -5.6900     0.5940 H     1 <1>   0.0800 
 36 H       -7.6440    -5.3620     0.9290 H     1 <1>   0.3700 
 37 H       -7.5810    -4.0440    -1.6190 H     1 <1>   0.1500 
 38 H       -8.3050    -1.4680     1.7160 H     1 <1>   0.1500 
 39 H       -9.4350    -2.9990    -2.8190 H     1 <1>   0.1500 
 40 H      -10.1620    -0.4390     0.5050 H     1 <1>   0.1500 
 41 H      -10.7330    -1.1950    -1.7650 H     1 <1>   0.1500 
@<TRIPOS>BOND
  1   1   2  1   
  2   2   3  1   
  3   2   4  1   
  4   2   5  1   
  5   4   6  1   
  6   4  24  1   
  7   4  25  1   
  8   5   7  1   
  9   5  26  1   
 10   5  27  1   
 11   6   8  1   
 12   6  28  1   
 13   6  29  1   
 14   7   8  1   
 15   7  30  1   
 16   7  31  1   
 17   8   9  am  
 18   9  10  2   
 19   9  11  1   
 20  11  12  1   
 21  11  13  1   
 22  11  32  1   
 23  12  14  1   
 24  13  15  1   
 25  13  16  1   
 26  13  33  1   
 27  14  17  1   
 28  14  34  1   
 29  14  35  1   
 30  15  17  am  
 31  15  36  1   
 32  16  18  ar  
 33  16  19  ar  
 34  17  20  2   
 35  18  21  ar  
 36  18  37  1   
 37  19  22  ar  
 38  19  38  1   
 39  21  23  ar  
 40  21  39  1   
 41  22  23  ar  
 42  22  40  1   
 43  23  41  1   
@<TRIPOS>SUBSTRUCTURE
  1 ****  11 GROUP 4 **** **** 0

# MOE 2024.06 (io_trps.svl 2023.06)
