@<TRIPOS>MOLECULE
NONAME
47 50 1 0 0 
SMALL
USER_CHARGES


@<TRIPOS>ATOM
  1 S        0.1060     0.0180     0.1050 S.3   1 <1>  -0.0800 
  2 C       -0.5140    -1.5390     0.6660 C.2   1 <1>   0.0410 
  3 C       -1.2050     0.8990     0.8670 C.2   1 <1>  -0.1100 
  4 C        0.1980    -2.7460     0.3250 C.2   1 <1>   0.2880 
  5 C       -1.6470    -1.3200     1.3810 C.2   1 <1>  -0.1500 
  6 C       -2.0370     0.0480     1.4940 C.2   1 <1>  -0.1500 
  7 N        1.3180    -2.7940    -0.3550 N.2   1 <1>  -0.7070 
  8 C       -0.2080    -4.0300     0.6700 C.2   1 <1>  -0.1500 
  9 N        1.6350    -4.0900    -0.4380 N.pl3 1 <1>   0.3140 
 10 C        0.7170    -4.8880     0.1640 C.2   1 <1>  -0.2370 
 11 C        2.8620    -4.5040    -1.1390 C.3   1 <1>   0.0160 
 12 C        0.8000    -6.3220     0.2090 C.2   1 <1>   0.7150 
 13 O        1.8840    -6.8730     0.2570 O.2   1 <1>  -0.5700 
 14 N       -0.3310    -7.1020     0.1850 N.am  1 <1>  -0.6600 
 15 C       -1.6520    -6.6650    -0.3320 C.3   1 <1>   0.1400 
 16 C       -0.2680    -8.5840     0.2590 C.3   1 <1>   0.1400 
 17 C       -2.3170    -7.9440    -0.8360 C.3   1 <1>   0.2000 
 18 C       -1.6930    -9.0660    -0.0120 C.3   1 <1>  -0.0800 
 19 O       -3.6890    -7.9150    -0.6500 O.3   1 <1>  -0.6800 
 20 C       -1.7570   -10.4390    -0.7010 C.3   1 <1>   0.0210 
 21 C       -0.9900   -11.4850     0.0870 C.2   1 <1>   0.1080 
 22 N       -1.1640   -11.6800     1.3570 N.2   1 <1>  -0.7070 
 23 C       -0.0230   -12.3290    -0.4470 C.2   1 <1>  -0.1500 
 24 N       -0.3030   -12.6670     1.6700 N.pl3 1 <1>   0.3000 
 25 C        0.4000   -13.0760     0.5940 C.2   1 <1>  -0.3320 
 26 C        1.4500   -14.1710     0.6280 C.3   1 <1>  -0.0600 
 27 H       -1.2100     1.9690     0.7620 H     1 <1>   0.1500 
 28 H       -2.2350    -2.0920     1.8430 H     1 <1>   0.1500 
 29 H       -2.9200     0.3320     2.0400 H     1 <1>   0.1500 
 30 H       -1.0880    -4.2680     1.2380 H     1 <1>   0.1500 
 31 H        2.6180    -5.2430    -1.8790 H     1 <1>   0.0800 
 32 H        3.5500    -4.9180    -0.4260 H     1 <1>   0.0800 
 33 H        3.3060    -3.6490    -1.6140 H     1 <1>   0.0800 
 34 H       -2.2210    -6.2380     0.4740 H     1 <1>   0.0800 
 35 H       -1.5370    -5.9520    -1.1310 H     1 <1>   0.0800 
 36 H        0.4130    -8.9480    -0.4930 H     1 <1>   0.0800 
 37 H        0.0750    -8.9050     1.2290 H     1 <1>   0.0800 
 38 H       -2.1180    -8.0660    -1.8880 H     1 <1>   0.0800 
 39 H       -2.1860    -9.1310     0.9420 H     1 <1>   0.0800 
 40 H       -3.9050    -8.0070     0.2980 H     1 <1>   0.4000 
 41 H       -1.3480   -10.3730    -1.6920 H     1 <1>   0.0800 
 42 H       -2.7830   -10.7520    -0.7810 H     1 <1>   0.0800 
 43 H        0.2990   -12.3600    -1.4730 H     1 <1>   0.1500 
 44 H       -0.2200   -13.0370     2.6250 H     1 <1>   0.2700 
 45 H        1.8670   -14.3130    -0.3540 H     1 <1>   0.0800 
 46 H        1.0110   -15.0980     0.9510 H     1 <1>   0.0800 
 47 H        2.2450   -13.9040     1.3010 H     1 <1>   0.0800 
@<TRIPOS>BOND
  1   1   2  1   
  2   1   3  1   
  3   2   4  1   
  4   2   5  2   
  5   3   6  2   
  6   3  27  1   
  7   4   7  2   
  8   4   8  1   
  9   5   6  1   
 10   5  28  1   
 11   6  29  1   
 12   7   9  1   
 13   8  10  2   
 14   8  30  1   
 15   9  10  1   
 16   9  11  1   
 17  10  12  1   
 18  11  31  1   
 19  11  32  1   
 20  11  33  1   
 21  12  13  2   
 22  12  14  am  
 23  14  15  1   
 24  14  16  1   
 25  15  17  1   
 26  15  34  1   
 27  15  35  1   
 28  16  18  1   
 29  16  36  1   
 30  16  37  1   
 31  17  18  1   
 32  17  19  1   
 33  17  38  1   
 34  18  20  1   
 35  18  39  1   
 36  19  40  1   
 37  20  21  1   
 38  20  41  1   
 39  20  42  1   
 40  21  22  2   
 41  21  23  1   
 42  22  24  1   
 43  23  25  2   
 44  23  43  1   
 45  24  25  1   
 46  24  44  1   
 47  25  26  1   
 48  26  45  1   
 49  26  46  1   
 50  26  47  1   
@<TRIPOS>SUBSTRUCTURE
  1 ****  14 GROUP 4 **** **** 0

# MOE 2024.06 (io_trps.svl 2023.06)
