@<TRIPOS>MOLECULE
NONAME
43 44 1 0 0 
SMALL
USER_CHARGES


@<TRIPOS>ATOM
  1 N        0.9050     0.3310    -0.0720 N.ar  1 <1>  -0.6200 
  2 C        1.5370    -0.7150    -0.5940 C.ar  1 <1>   0.4100 
  3 C       -0.2310     0.0000     0.5190 C.ar  1 <1>   0.1660 
  4 N        2.7330    -0.4390    -1.2440 N.pl3 1 <1>  -0.8690 
  5 C        1.0350    -2.0340    -0.5030 C.ar  1 <1>   0.1660 
  6 C       -0.7170    -1.3000     0.5920 C.ar  1 <1>   0.1600 
  7 C       -1.0190     1.1370     1.1390 C.3   1 <1>  -0.0960 
  8 C        3.1400     0.9410    -1.6220 C.3   1 <1>   0.2090 
  9 N       -0.1000    -2.3530     0.0840 N.ar  1 <1>  -0.6200 
 10 C        1.8040    -3.2000    -1.1010 C.3   1 <1>  -0.0970 
 11 C        3.6120     1.7280    -0.3660 C.3   1 <1>   0.4230 
 12 N        3.1960     3.1820    -0.3480 N.4   1 <1>  -0.9590 
 13 C        5.1400     1.6010    -0.2360 C.3   1 <1>  -0.1600 
 14 C        3.7110     3.8870     0.8660 C.3   1 <1>   0.3430 
 15 C        1.7090     3.3050    -0.3880 C.3   1 <1>   0.3430 
 16 C        5.6990     2.3490     0.9770 C.3   1 <1>  -0.1600 
 17 C        5.2330     3.8050     0.9440 C.3   1 <1>  -0.1600 
 18 C        1.3140     4.7150    -0.8110 C.3   1 <1>  -0.2400 
 19 H        3.0370    -1.1670    -1.8990 H     1 <1>   0.4000 
 20 H       -1.6520    -1.4870     1.0900 H     1 <1>   0.1500 
 21 H       -0.4250     1.6210     1.8920 H     1 <1>   0.0800 
 22 H       -1.9230     0.7770     1.5950 H     1 <1>   0.0800 
 23 H       -1.2800     1.8530     0.3810 H     1 <1>   0.0800 
 24 H        2.3060     1.4160    -2.1040 H     1 <1>   0.0800 
 25 H        3.9370     0.8830    -2.3430 H     1 <1>   0.0800 
 26 H        2.8390    -3.1520    -0.8160 H     1 <1>   0.0800 
 27 H        1.7210    -3.1810    -2.1710 H     1 <1>   0.0800 
 28 H        1.4040    -4.1330    -0.7450 H     1 <1>   0.0800 
 29 H        3.1620     1.2500     0.4890 H     1 <1>   0.0800 
 30 H        3.5920     3.6350    -1.1770 H     1 <1>   0.4500 
 31 H        5.6120     1.9700    -1.1300 H     1 <1>   0.0800 
 32 H        5.3930     0.5580    -0.1460 H     1 <1>   0.0800 
 33 H        3.2890     3.4360     1.7500 H     1 <1>   0.0800 
 34 H        3.4170     4.9240     0.8450 H     1 <1>   0.0800 
 35 H        1.2920     3.0690     0.5790 H     1 <1>   0.0800 
 36 H        1.2870     2.6090    -1.0940 H     1 <1>   0.0800 
 37 H        6.7760     2.3060     0.9700 H     1 <1>   0.0800 
 38 H        5.3570     1.8770     1.8830 H     1 <1>   0.0800 
 39 H        5.5660     4.3040     1.8380 H     1 <1>   0.0800 
 40 H        5.6690     4.3200     0.1050 H     1 <1>   0.0800 
 41 H        1.6070     5.4470    -0.0800 H     1 <1>   0.0800 
 42 H        0.2430     4.7630    -0.9060 H     1 <1>   0.0800 
 43 H        1.7400     4.9620    -1.7660 H     1 <1>   0.0800 
@<TRIPOS>BOND
  1   1   2  ar  
  2   1   3  ar  
  3   2   4  1   
  4   2   5  ar  
  5   3   6  ar  
  6   3   7  1   
  7   4   8  1   
  8   4  19  1   
  9   5   9  ar  
 10   5  10  1   
 11   6   9  ar  
 12   6  20  1   
 13   7  21  1   
 14   7  22  1   
 15   7  23  1   
 16   8  11  1   
 17   8  24  1   
 18   8  25  1   
 19  10  26  1   
 20  10  27  1   
 21  10  28  1   
 22  11  12  1   
 23  11  13  1   
 24  11  29  1   
 25  12  14  1   
 26  12  15  1   
 27  12  30  1   
 28  13  16  1   
 29  13  31  1   
 30  13  32  1   
 31  14  17  1   
 32  14  33  1   
 33  14  34  1   
 34  15  18  1   
 35  15  35  1   
 36  15  36  1   
 37  16  17  1   
 38  16  37  1   
 39  16  38  1   
 40  17  39  1   
 41  17  40  1   
 42  18  41  1   
 43  18  42  1   
 44  18  43  1   
@<TRIPOS>SUBSTRUCTURE
  1 ****   1 GROUP 4 **** **** 0

# MOE 2024.06 (io_trps.svl 2023.06)
