@<TRIPOS>MOLECULE
NONAME
51 53 1 0 0 
SMALL
USER_CHARGES


@<TRIPOS>ATOM
  1 O        0.8420     0.9140     0.4390 O.3   1 <1>  -0.5600 
  2 C        1.8300     0.9500    -0.5350 C.3   1 <1>   0.2000 
  3 C        0.1360    -0.2800     0.5410 C.3   1 <1>   0.1200 
  4 C        3.1220     0.3500     0.0370 C.3   1 <1>  -0.1600 
  5 C        2.0120     2.4210    -0.9090 C.3   1 <1>  -0.1600 
  6 C       -0.8990    -0.1040     1.6440 C.3   1 <1>  -0.2400 
  7 C        4.3190     0.6050    -0.8820 C.3   1 <1>   0.2090 
  8 C        3.2190     2.5990    -1.8240 C.3   1 <1>   0.2090 
  9 N        4.4380     2.0790    -1.1270 N.pl3 1 <1>  -0.8380 
 10 C        5.4870     2.8260    -0.7090 C.ar  1 <1>   0.4610 
 11 N        5.3250     4.1400    -0.5480 N.ar  1 <1>  -0.1790 
 12 C        6.7700     2.3060    -0.3990 C.ar  1 <1>  -0.1500 
 13 C        6.2990     5.0100    -0.0900 C.ar  1 <1>   0.3610 
 14 C        7.7840     3.0950     0.0560 C.ar  1 <1>  -0.1440 
 15 C        7.5680     4.4940     0.2280 C.ar  1 <1>   0.0000 
 16 C        6.0280     6.3720     0.0650 C.ar  1 <1>  -0.1500 
 17 C        9.1460     2.4870     0.3730 C.3   1 <1>  -0.0970 
 18 C        8.5380     5.3960     0.6920 C.ar  1 <1>  -0.1500 
 19 C        6.9950     7.2430     0.5290 C.ar  1 <1>   0.0820 
 20 C        8.2770     6.7360     0.8340 C.ar  1 <1>   0.0820 
 21 O        6.7420     8.5620     0.7150 O.3   1 <1>  -0.3620 
 22 O        9.3070     7.4940     1.2930 O.3   1 <1>  -0.3620 
 23 C        5.4610     9.1420     0.5960 C.3   1 <1>   0.0400 
 24 C        9.5930     8.7430     0.6990 C.3   1 <1>   0.0400 
 25 H        1.5010     0.3960    -1.3990 H     1 <1>   0.0800 
 26 H        0.8170    -1.0760     0.7900 H     1 <1>   0.0800 
 27 H       -0.3460    -0.4840    -0.4000 H     1 <1>   0.0800 
 28 H        3.0050    -0.7100     0.1660 H     1 <1>   0.0800 
 29 H        3.3240     0.7870     1.0000 H     1 <1>   0.0800 
 30 H        2.1460     3.0050    -0.0170 H     1 <1>   0.0800 
 31 H        1.1260     2.7650    -1.4120 H     1 <1>   0.0800 
 32 H       -0.4120     0.1120     2.5770 H     1 <1>   0.0800 
 33 H       -1.4720    -1.0070     1.7550 H     1 <1>   0.0800 
 34 H       -1.5700     0.6990     1.3960 H     1 <1>   0.0800 
 35 H        4.1800     0.0920    -1.8200 H     1 <1>   0.0800 
 36 H        5.1950     0.2010    -0.4100 H     1 <1>   0.0800 
 37 H        3.3270     3.6330    -2.1010 H     1 <1>   0.0800 
 38 H        3.0660     2.0410    -2.7340 H     1 <1>   0.0800 
 39 H        4.3920     4.4960    -0.7130 H     1 <1>   0.4570 
 40 H        6.9420     1.2590    -0.5490 H     1 <1>   0.1500 
 41 H        5.0500     6.7330    -0.1820 H     1 <1>   0.1500 
 42 H        9.1530     1.4270     0.1900 H     1 <1>   0.0800 
 43 H        9.3930     2.6470     1.4080 H     1 <1>   0.0800 
 44 H        9.9070     2.9360    -0.2400 H     1 <1>   0.0800 
 45 H        9.5220     5.0460     0.9470 H     1 <1>   0.1500 
 46 H        5.5410    10.1810     0.8620 H     1 <1>   0.0800 
 47 H        4.7860     8.6480     1.2720 H     1 <1>   0.0800 
 48 H        5.1290     9.0560    -0.4230 H     1 <1>   0.0800 
 49 H       10.6290     8.9690     0.8780 H     1 <1>   0.0800 
 50 H        8.9770     9.4960     1.1570 H     1 <1>   0.0800 
 51 H        9.4040     8.6860    -0.3580 H     1 <1>   0.0800 
@<TRIPOS>BOND
  1   1   2  1   
  2   1   3  1   
  3   2   4  1   
  4   2   5  1   
  5   2  25  1   
  6   3   6  1   
  7   3  26  1   
  8   3  27  1   
  9   4   7  1   
 10   4  28  1   
 11   4  29  1   
 12   5   8  1   
 13   5  30  1   
 14   5  31  1   
 15   6  32  1   
 16   6  33  1   
 17   6  34  1   
 18   7   9  1   
 19   7  35  1   
 20   7  36  1   
 21   8   9  1   
 22   8  37  1   
 23   8  38  1   
 24   9  10  1   
 25  10  11  ar  
 26  10  12  ar  
 27  11  13  ar  
 28  11  39  1   
 29  12  14  ar  
 30  12  40  1   
 31  13  15  ar  
 32  13  16  ar  
 33  14  15  ar  
 34  14  17  1   
 35  15  18  ar  
 36  16  19  ar  
 37  16  41  1   
 38  17  42  1   
 39  17  43  1   
 40  17  44  1   
 41  18  20  ar  
 42  18  45  1   
 43  19  20  ar  
 44  19  21  1   
 45  20  22  1   
 46  21  23  1   
 47  22  24  1   
 48  23  46  1   
 49  23  47  1   
 50  23  48  1   
 51  24  49  1   
 52  24  50  1   
 53  24  51  1   
@<TRIPOS>SUBSTRUCTURE
  1 ****  11 GROUP 4 **** **** 0

# MOE 2024.06 (io_trps.svl 2023.06)
