@<TRIPOS>MOLECULE
NONAME
56 57 1 0 0 
SMALL
USER_CHARGES


@<TRIPOS>ATOM
  1 O       -0.0200     0.4740    -2.9020 O.2   1 <1>  -0.5700 
  2 C        0.3750    -0.2630    -2.0320 C.2   1 <1>   0.5690 
  3 N        1.1180     0.1330    -0.9560 N.am  1 <1>  -0.5470 
  4 C        0.0200    -1.7510    -2.1100 C.3   1 <1>   0.1710 
  5 C        1.6130     1.3770    -0.5380 C.ar  1 <1>   0.1170 
  6 N        0.0620    -2.4690    -0.7980 N.3   1 <1>  -0.8100 
  7 C        1.6470     2.5020    -1.3540 C.ar  1 <1>  -0.1500 
  8 C        2.1000     1.4870     0.7570 C.ar  1 <1>  -0.1500 
  9 C        0.0840    -3.9400    -1.0030 C.3   1 <1>   0.1100 
 10 C       -1.0500    -2.0600     0.0810 C.3   1 <1>   0.1100 
 11 C        2.1500     3.7070    -0.8920 C.ar  1 <1>   0.0820 
 12 C        2.6040     2.6830     1.2360 C.ar  1 <1>   0.0820 
 13 C       -0.1050    -4.7750     0.3030 C.3   1 <1>   0.0000 
 14 C       -0.8700    -2.6390     1.4970 C.3   1 <1>  -0.1600 
 15 O        2.1400     4.7450    -1.7680 O.3   1 <1>  -0.3630 
 16 C        2.6310     3.8010     0.4100 C.ar  1 <1>  -0.1500 
 17 O        3.0520     2.6790     2.5180 O.3   1 <1>  -0.3620 
 18 C        0.0790    -3.8500     1.5470 C.3   1 <1>   0.2000 
 19 C       -1.5630    -5.3180     0.3620 C.3   1 <1>   0.1200 
 20 C        0.8390    -6.0230     0.3180 C.3   1 <1>  -0.1600 
 21 C        2.6030     6.0260    -1.4020 C.3   1 <1>   0.0400 
 22 C        3.5900     3.8380     3.1140 C.3   1 <1>   0.0400 
 23 O        1.3450    -3.3030     1.5520 O.3   1 <1>  -0.6800 
 24 O       -1.8480    -6.2070    -0.6700 O.3   1 <1>  -0.6800 
 25 C        2.3630    -5.8020     0.3830 C.3   1 <1>  -0.1600 
 26 C        3.1180    -7.1120     0.1370 C.3   1 <1>  -0.2400 
 27 H        1.2680    -0.6410    -0.3050 H     1 <1>   0.3700 
 28 H        0.7280    -2.2030    -2.7830 H     1 <1>   0.0800 
 29 H       -0.9570    -1.8480    -2.5490 H     1 <1>   0.0800 
 30 H        1.2850     2.4540    -2.3630 H     1 <1>   0.1500 
 31 H        2.0890     0.6360     1.4110 H     1 <1>   0.1500 
 32 H       -0.6730    -4.2070    -1.7190 H     1 <1>   0.0800 
 33 H        1.0290    -4.1920    -1.4520 H     1 <1>   0.0800 
 34 H       -1.1040    -0.9860     0.1510 H     1 <1>   0.0800 
 35 H       -1.9800    -2.4030    -0.3400 H     1 <1>   0.0800 
 36 H       -1.8350    -2.9200     1.8750 H     1 <1>   0.0800 
 37 H       -0.5050    -1.8710     2.1580 H     1 <1>   0.0800 
 38 H        3.0200     4.7290     0.7730 H     1 <1>   0.1500 
 39 H       -0.0400    -4.3970     2.4660 H     1 <1>   0.0800 
 40 H       -2.2900    -4.5290     0.3060 H     1 <1>   0.0800 
 41 H       -1.7170    -5.8500     1.2860 H     1 <1>   0.0800 
 42 H        0.5680    -6.6450     1.1540 H     1 <1>   0.0800 
 43 H        0.6420    -6.6010    -0.5690 H     1 <1>   0.0800 
 44 H        2.4870     6.6760    -2.2500 H     1 <1>   0.0800 
 45 H        3.6430     5.9580    -1.1340 H     1 <1>   0.0800 
 46 H        2.0130     6.3890    -0.5790 H     1 <1>   0.0800 
 47 H        3.8740     3.5930     4.1210 H     1 <1>   0.0800 
 48 H        2.8380     4.6070     3.1220 H     1 <1>   0.0800 
 49 H        4.4560     4.1470     2.5550 H     1 <1>   0.0800 
 50 H        1.4300    -2.8490     0.6850 H     1 <1>   0.4000 
 51 H       -1.8440    -5.7610    -1.5370 H     1 <1>   0.4000 
 52 H        2.6790    -5.0760    -0.3450 H     1 <1>   0.0800 
 53 H        2.6370    -5.4370     1.3570 H     1 <1>   0.0800 
 54 H        2.9020    -7.4960    -0.8440 H     1 <1>   0.0800 
 55 H        2.8370    -7.8500     0.8680 H     1 <1>   0.0800 
 56 H        4.1780    -6.9440     0.2120 H     1 <1>   0.0800 
@<TRIPOS>BOND
  1   1   2  2   
  2   2   3  am  
  3   2   4  1   
  4   3   5  1   
  5   3  27  1   
  6   4   6  1   
  7   4  28  1   
  8   4  29  1   
  9   5   7  ar  
 10   5   8  ar  
 11   6   9  1   
 12   6  10  1   
 13   7  11  ar  
 14   7  30  1   
 15   8  12  ar  
 16   8  31  1   
 17   9  13  1   
 18   9  32  1   
 19   9  33  1   
 20  10  14  1   
 21  10  34  1   
 22  10  35  1   
 23  11  15  1   
 24  11  16  ar  
 25  12  16  ar  
 26  12  17  1   
 27  13  18  1   
 28  13  19  1   
 29  13  20  1   
 30  14  18  1   
 31  14  36  1   
 32  14  37  1   
 33  15  21  1   
 34  16  38  1   
 35  17  22  1   
 36  18  23  1   
 37  18  39  1   
 38  19  24  1   
 39  19  40  1   
 40  19  41  1   
 41  20  25  1   
 42  20  42  1   
 43  20  43  1   
 44  21  44  1   
 45  21  45  1   
 46  21  46  1   
 47  22  47  1   
 48  22  48  1   
 49  22  49  1   
 50  23  50  1   
 51  24  51  1   
 52  25  26  1   
 53  25  52  1   
 54  25  53  1   
 55  26  54  1   
 56  26  55  1   
 57  26  56  1   
@<TRIPOS>SUBSTRUCTURE
  1 ****   3 GROUP 4 **** **** 0

# MOE 2024.06 (io_trps.svl 2023.06)
