@<TRIPOS>MOLECULE
NONAME
47 49 1 0 0 
SMALL
USER_CHARGES


@<TRIPOS>ATOM
  1 S       -0.1390     0.0730     0.1360 S.o2  1 <1>   1.3330 
  2 O       -0.7290     1.3880     0.0310 O.2   1 <1>  -0.6500 
  3 O       -0.2260    -0.6520     1.3840 O.2   1 <1>  -0.6500 
  4 N       -0.7950    -0.9090    -1.0840 N.am  1 <1>  -0.8490 
  5 C        1.5800     0.2070    -0.3580 C.3   1 <1>  -0.0550 
  6 C       -0.6310    -2.3440    -0.8290 C.3   1 <1>   0.1160 
  7 C       -2.2060    -0.6070    -1.3440 C.3   1 <1>   0.1160 
  8 C        2.3960     1.1840     0.5110 C.3   1 <1>  -0.0800 
  9 C        3.7880     1.3940    -0.0650 C.3   1 <1>   0.2200 
 10 C        2.6830     0.6240     1.9140 C.3   1 <1>   0.1200 
 11 N        4.2660     2.7420     0.3110 N.am  1 <1>  -0.7300 
 12 C        4.5970     0.3450     0.6840 C.3   1 <1>   0.1200 
 13 O        4.0430     0.3060     1.9600 O.3   1 <1>  -0.5600 
 14 C        4.3720     3.8030    -0.5410 C.2   1 <1>   0.6160 
 15 O        4.0630     3.6360    -1.7070 O.2   1 <1>  -0.5700 
 16 C        4.8310     5.1110    -0.0870 C.2   1 <1>   0.1140 
 17 N        4.8410     6.1550    -0.9990 N.pl3 1 <1>  -0.6000 
 18 C        5.2590     5.3970     1.1780 C.2   1 <1>  -0.1360 
 19 C        5.2510     7.4530    -0.7030 C.ar  1 <1>   0.1000 
 20 C        5.6940     6.6860     1.5680 C.2   1 <1>   0.4690 
 21 C        5.2470     8.4820    -1.6480 C.ar  1 <1>   0.1900 
 22 C        5.6900     7.7480     0.5960 C.ar  1 <1>   0.0860 
 23 O        6.0650     6.8750     2.7200 O.2   1 <1>  -0.5700 
 24 F        4.8400     8.2160    -2.8650 F     1 <1>  -0.1900 
 25 C        5.6510     9.7650    -1.3610 C.ar  1 <1>  -0.1500 
 26 C        6.1010     9.0570     0.8840 C.ar  1 <1>  -0.1500 
 27 C        6.0840    10.0530    -0.0730 C.ar  1 <1>  -0.1500 
 28 H        2.0350    -0.7630    -0.3400 H     1 <1>   0.0800 
 29 H        1.6020     0.5600    -1.3720 H     1 <1>   0.0800 
 30 H       -0.9800    -2.9120    -1.6750 H     1 <1>   0.0800 
 31 H       -1.1900    -2.6380     0.0450 H     1 <1>   0.0800 
 32 H        0.4070    -2.5770    -0.6690 H     1 <1>   0.0800 
 33 H       -2.5850    -1.2350    -2.1320 H     1 <1>   0.0800 
 34 H       -2.3130     0.4200    -1.6540 H     1 <1>   0.0800 
 35 H       -2.7930    -0.7600    -0.4530 H     1 <1>   0.0800 
 36 H        1.8600     2.1160     0.5700 H     1 <1>   0.0800 
 37 H        3.8380     1.2570    -1.1330 H     1 <1>   0.0800 
 38 H        2.1230    -0.2680     2.1360 H     1 <1>   0.0800 
 39 H        2.4910     1.3610     2.6750 H     1 <1>   0.0800 
 40 H        4.4810     2.8400     1.3050 H     1 <1>   0.3700 
 41 H        5.6420     0.5890     0.7470 H     1 <1>   0.0800 
 42 H        4.4730    -0.6270     0.2400 H     1 <1>   0.0800 
 43 H        4.5180     5.9370    -1.9560 H     1 <1>   0.4000 
 44 H        5.2880     4.6510     1.9470 H     1 <1>   0.1500 
 45 H        5.6310    10.5260    -2.1200 H     1 <1>   0.1500 
 46 H        6.4380     9.2820     1.8830 H     1 <1>   0.1500 
 47 H        6.4050    11.0510     0.1740 H     1 <1>   0.1500 
@<TRIPOS>BOND
  1   1   2  2   
  2   1   3  2   
  3   1   4  am  
  4   1   5  1   
  5   4   6  1   
  6   4   7  1   
  7   5   8  1   
  8   5  28  1   
  9   5  29  1   
 10   6  30  1   
 11   6  31  1   
 12   6  32  1   
 13   7  33  1   
 14   7  34  1   
 15   7  35  1   
 16   8   9  1   
 17   8  10  1   
 18   8  36  1   
 19   9  11  1   
 20   9  12  1   
 21   9  37  1   
 22  10  13  1   
 23  10  38  1   
 24  10  39  1   
 25  11  14  am  
 26  11  40  1   
 27  12  13  1   
 28  12  41  1   
 29  12  42  1   
 30  14  15  2   
 31  14  16  1   
 32  16  17  1   
 33  16  18  2   
 34  17  19  1   
 35  17  43  1   
 36  18  20  1   
 37  18  44  1   
 38  19  21  ar  
 39  19  22  ar  
 40  20  22  1   
 41  20  23  2   
 42  21  24  1   
 43  21  25  ar  
 44  22  26  ar  
 45  25  27  ar  
 46  25  45  1   
 47  26  27  ar  
 48  26  46  1   
 49  27  47  1   
@<TRIPOS>SUBSTRUCTURE
  1 ****  14 GROUP 4 **** **** 0

# MOE 2024.06 (io_trps.svl 2023.06)
