@<TRIPOS>MOLECULE
NONAME
48 49 1 0 0 
SMALL
USER_CHARGES


@<TRIPOS>ATOM
  1 O        0.1610    -1.0020     0.1420 O.2   1 <1>  -0.5700 
  2 C       -0.6480    -0.1090     0.0560 C.2   1 <1>   0.5690 
  3 N       -1.9550    -0.2950     0.4450 N.am  1 <1>  -0.6600 
  4 C       -0.1520     1.2090    -0.5280 C.3   1 <1>  -0.0990 
  5 C       -2.3600    -1.5810     1.0850 C.3   1 <1>   0.3200 
  6 C       -3.0410     0.7230     0.2930 C.3   1 <1>   0.1400 
  7 C        0.6270     2.1270     0.4450 C.3   1 <1>   0.1440 
  8 C       -3.4900    -2.2200     0.3040 C.2   1 <1>  -0.3320 
  9 C       -3.6530     0.6870    -1.1130 C.3   1 <1>   0.1200 
 10 C        0.9440     3.4420    -0.3080 C.ar  1 <1>  -0.1440 
 11 C        1.9070     1.4130     0.9280 C.3   1 <1>  -0.2400 
 12 C       -0.1870     2.4510     1.7130 C.3   1 <1>  -0.2400 
 13 N       -4.7920    -2.1580     0.6420 N.pl3 1 <1>   0.0330 
 14 C       -3.4300    -2.9390    -0.8380 C.2   1 <1>   0.0770 
 15 O       -4.5820     1.7130    -1.2120 O.3   1 <1>  -0.6800 
 16 C        2.2350     3.8080    -0.6840 C.ar  1 <1>  -0.1500 
 17 C       -0.0940     4.3050    -0.6530 C.ar  1 <1>  -0.1500 
 18 C       -5.4430    -2.8370    -0.3270 C.2   1 <1>   0.0060 
 19 N       -4.6600    -3.3190    -1.2340 N.2   1 <1>  -0.5650 
 20 C        2.4770     4.9890    -1.3640 C.ar  1 <1>  -0.1500 
 21 C        0.1440     5.4870    -1.3320 C.ar  1 <1>  -0.1500 
 22 C       -6.9460    -3.0100    -0.3390 C.3   1 <1>  -0.0600 
 23 C        1.4330     5.8330    -1.6880 C.ar  1 <1>  -0.1500 
 24 H       -0.9690     1.7490    -0.9590 H     1 <1>   0.0800 
 25 H        0.4990     0.9660    -1.3480 H     1 <1>   0.0800 
 26 H       -2.6630    -1.3940     2.1000 H     1 <1>   0.0800 
 27 H       -1.5340    -2.2710     1.1180 H     1 <1>   0.0800 
 28 H       -2.6500     1.7050     0.4770 H     1 <1>   0.0800 
 29 H       -3.8120     0.5380     1.0190 H     1 <1>   0.0800 
 30 H       -4.1620    -0.2430    -1.2970 H     1 <1>   0.0800 
 31 H       -2.9000     0.8420    -1.8660 H     1 <1>   0.0800 
 32 H        2.4880     1.0640     0.0930 H     1 <1>   0.0800 
 33 H        1.6680     0.5610     1.5380 H     1 <1>   0.0800 
 34 H        2.5090     2.0780     1.5210 H     1 <1>   0.0800 
 35 H       -1.1240     2.9180     1.4810 H     1 <1>   0.0800 
 36 H        0.3700     3.1250     2.3380 H     1 <1>   0.0800 
 37 H       -0.3890     1.5580     2.2780 H     1 <1>   0.0800 
 38 H       -5.2150    -1.6960     1.4520 H     1 <1>   0.2700 
 39 H       -2.5520    -3.1990    -1.4070 H     1 <1>   0.1500 
 40 H       -5.0140     1.6960    -2.0900 H     1 <1>   0.4000 
 41 H        3.0830     3.1890    -0.4620 H     1 <1>   0.1500 
 42 H       -1.1110     4.0690    -0.4000 H     1 <1>   0.1500 
 43 H        3.4830     5.2510    -1.6410 H     1 <1>   0.1500 
 44 H       -0.6750     6.1370    -1.5830 H     1 <1>   0.1500 
 45 H       -7.4290    -2.0510    -0.3770 H     1 <1>   0.0800 
 46 H       -7.2640    -3.5380     0.5410 H     1 <1>   0.0800 
 47 H       -7.2380    -3.5770    -1.2050 H     1 <1>   0.0800 
 48 H        1.6210     6.7510    -2.2160 H     1 <1>   0.1500 
@<TRIPOS>BOND
  1   1   2  2   
  2   2   3  am  
  3   2   4  1   
  4   3   5  1   
  5   3   6  1   
  6   4   7  1   
  7   4  24  1   
  8   4  25  1   
  9   5   8  1   
 10   5  26  1   
 11   5  27  1   
 12   6   9  1   
 13   6  28  1   
 14   6  29  1   
 15   7  10  1   
 16   7  11  1   
 17   7  12  1   
 18   8  13  1   
 19   8  14  2   
 20   9  15  1   
 21   9  30  1   
 22   9  31  1   
 23  10  16  ar  
 24  10  17  ar  
 25  11  32  1   
 26  11  33  1   
 27  11  34  1   
 28  12  35  1   
 29  12  36  1   
 30  12  37  1   
 31  13  18  1   
 32  13  38  1   
 33  14  19  1   
 34  14  39  1   
 35  15  40  1   
 36  16  20  ar  
 37  16  41  1   
 38  17  21  ar  
 39  17  42  1   
 40  18  19  2   
 41  18  22  1   
 42  20  23  ar  
 43  20  43  1   
 44  21  23  ar  
 45  21  44  1   
 46  22  45  1   
 47  22  46  1   
 48  22  47  1   
 49  23  48  1   
@<TRIPOS>SUBSTRUCTURE
  1 ****   2 GROUP 4 **** **** 0

# MOE 2024.06 (io_trps.svl 2023.06)
