@<TRIPOS>MOLECULE
NONAME
49 50 1 0 0 
SMALL
USER_CHARGES


@<TRIPOS>ATOM
  1 S        2.2410    -0.1140    -2.0130 S.o2  1 <1>   1.3330 
  2 O        3.2820     0.8340    -2.3430 O.2   1 <1>  -0.6500 
  3 O        1.8770    -1.1450    -2.9500 O.2   1 <1>  -0.6500 
  4 N        2.6900    -0.8570    -0.5130 N.am  1 <1>  -0.6930 
  5 C        0.7870     0.7960    -1.5380 C.3   1 <1>  -0.1350 
  6 C        1.8730    -1.7810     0.1360 C.ar  1 <1>   0.1990 
  7 C        3.9390    -0.3840     0.1610 C.3   1 <1>   0.2570 
  8 C        1.4850    -2.9610    -0.4890 C.ar  1 <1>  -0.1500 
  9 C        1.4240    -1.5410     1.4310 C.ar  1 <1>  -0.1500 
 10 C        3.8180     1.0000     0.8120 C.2   1 <1>   0.5690 
 11 C        0.6630    -3.8750     0.1470 C.ar  1 <1>  -0.1440 
 12 C        0.6060    -2.4500     2.0770 C.ar  1 <1>  -0.1500 
 13 O        3.6920     1.0830     2.0100 O.2   1 <1>  -0.5700 
 14 N        3.8600     2.1160     0.0360 N.am  1 <1>  -0.7300 
 15 C        0.2250    -3.6150     1.4350 C.ar  1 <1>  -0.1500 
 16 C        0.2470    -5.1550    -0.5540 C.3   1 <1>  -0.0970 
 17 C        3.6640     3.5010     0.5220 C.3   1 <1>   0.1400 
 18 C        4.9250     3.9970     1.2280 C.3   1 <1>   0.0960 
 19 N        4.7640     5.4230     1.5670 N.pl3 1 <1>   0.0480 
 20 C        5.0890     6.5190     0.8340 C.2   1 <1>   0.0070 
 21 C        4.1990     5.9070     2.6860 C.2   1 <1>  -0.3020 
 22 N        4.7690     7.6320     1.4130 N.2   1 <1>  -0.5650 
 23 C        5.7650     6.4220    -0.5320 C.3   1 <1>   0.0200 
 24 C        4.2120     7.2520     2.5760 C.2   1 <1>   0.0770 
 25 C        5.8930     7.7730    -1.2460 C.3   1 <1>  -0.2400 
 26 H        0.4050     1.3430    -2.3770 H     1 <1>   0.0800 
 27 H        1.0190     1.4840    -0.7500 H     1 <1>   0.0800 
 28 H        0.0270     0.1210    -1.1940 H     1 <1>   0.0800 
 29 H        4.7390    -0.3620    -0.5560 H     1 <1>   0.0800 
 30 H        4.2130    -1.0900     0.9250 H     1 <1>   0.0800 
 31 H        1.8380    -3.1640    -1.4840 H     1 <1>   0.1500 
 32 H        1.7090    -0.6380     1.9400 H     1 <1>   0.1500 
 33 H        0.2660    -2.2530     3.0790 H     1 <1>   0.1500 
 34 H        3.9040     1.9880    -0.9900 H     1 <1>   0.3700 
 35 H       -0.4120    -4.3190     1.9430 H     1 <1>   0.1500 
 36 H        0.3910    -5.0710    -1.6160 H     1 <1>   0.0800 
 37 H       -0.7920    -5.3590    -0.3680 H     1 <1>   0.0800 
 38 H        0.8350    -5.9780    -0.1890 H     1 <1>   0.0800 
 39 H        2.8370     3.5210     1.2120 H     1 <1>   0.0800 
 40 H        3.4330     4.1370    -0.3160 H     1 <1>   0.0800 
 41 H        5.7820     3.8820     0.5900 H     1 <1>   0.0800 
 42 H        5.0820     3.4400     2.1340 H     1 <1>   0.0800 
 43 H        3.8270     5.2880     3.4820 H     1 <1>   0.1500 
 44 H        5.1990     5.7580    -1.1580 H     1 <1>   0.0800 
 45 H        6.7480     6.0060    -0.4000 H     1 <1>   0.0800 
 46 H        3.8430     7.9780     3.2810 H     1 <1>   0.1500 
 47 H        4.9200     8.2080    -1.3900 H     1 <1>   0.0800 
 48 H        6.3660     7.6490    -2.2040 H     1 <1>   0.0800 
 49 H        6.4830     8.4480    -0.6520 H     1 <1>   0.0800 
@<TRIPOS>BOND
  1   1   2  2   
  2   1   3  2   
  3   1   4  am  
  4   1   5  1   
  5   4   6  1   
  6   4   7  1   
  7   5  26  1   
  8   5  27  1   
  9   5  28  1   
 10   6   8  ar  
 11   6   9  ar  
 12   7  10  1   
 13   7  29  1   
 14   7  30  1   
 15   8  11  ar  
 16   8  31  1   
 17   9  12  ar  
 18   9  32  1   
 19  10  13  2   
 20  10  14  am  
 21  11  15  ar  
 22  11  16  1   
 23  12  15  ar  
 24  12  33  1   
 25  14  17  1   
 26  14  34  1   
 27  15  35  1   
 28  16  36  1   
 29  16  37  1   
 30  16  38  1   
 31  17  18  1   
 32  17  39  1   
 33  17  40  1   
 34  18  19  1   
 35  18  41  1   
 36  18  42  1   
 37  19  20  1   
 38  19  21  1   
 39  20  22  2   
 40  20  23  1   
 41  21  24  2   
 42  21  43  1   
 43  22  24  1   
 44  23  25  1   
 45  23  44  1   
 46  23  45  1   
 47  24  46  1   
 48  25  47  1   
 49  25  48  1   
 50  25  49  1   
@<TRIPOS>SUBSTRUCTURE
  1 ****  10 GROUP 4 **** **** 0

# MOE 2024.06 (io_trps.svl 2023.06)
