@<TRIPOS>MOLECULE
NONAME
72 76 1 0 0 
SMALL
USER_CHARGES


@<TRIPOS>ATOM
  1 O       -0.0840    -1.4550    -2.5500 O.2   1 <1>  -0.5700 
  2 C       -0.6940    -0.8390    -1.7110 C.2   1 <1>   0.5690 
  3 N       -0.3050    -0.8380    -0.4070 N.am  1 <1>  -0.7300 
  4 C       -1.9240    -0.0510    -2.1330 C.3   1 <1>   0.0440 
  5 C        0.8570    -1.5750     0.1280 C.3   1 <1>   0.1400 
  6 C       -2.7440     0.4340    -0.9410 C.ar  1 <1>  -0.1430 
  7 C        0.4130    -2.5450     1.2330 C.3   1 <1>  -0.0800 
  8 C       -2.4230     1.6260    -0.3060 C.ar  1 <1>   0.1600 
  9 C       -3.7970    -0.3160    -0.4580 C.ar  1 <1>  -0.1500 
 10 C       -0.5700    -3.6060     0.7120 C.3   1 <1>   0.2000 
 11 C        1.5380    -3.4550     1.7870 C.3   1 <1>  -0.0800 
 12 N       -3.0430     2.1040     0.7590 N.ar  1 <1>  -0.6200 
 13 C       -4.4640     0.1780     0.6430 C.ar  1 <1>  -0.1500 
 14 O        0.3120    -4.5680     0.2790 O.3   1 <1>  -0.5600 
 15 C       -1.2640    -4.3470     1.8660 C.3   1 <1>  -0.1600 
 16 C        0.9920    -4.8400     1.4470 C.3   1 <1>   0.2800 
 17 C        2.9350    -3.4410     1.1300 C.3   1 <1>   0.3430 
 18 C       -4.0520     1.3740     1.2050 C.ar  1 <1>   0.1600 
 19 C       -0.1440    -5.2670     2.3730 C.3   1 <1>  -0.1600 
 20 C        2.2070    -5.7040     1.1430 C.3   1 <1>   0.3430 
 21 N        3.1000    -4.7500     0.4250 N.4   1 <1>  -0.9590 
 22 C        4.5000    -5.2400     0.2680 C.3   1 <1>   0.3430 
 23 C        5.3230    -4.3310    -0.6460 C.3   1 <1>  -0.0220 
 24 C        6.7080    -4.9550    -0.8300 C.2   1 <1>  -0.2760 
 25 C        6.8980    -6.0190    -1.6340 C.2   1 <1>  -0.2760 
 26 C        7.8520    -4.3020    -0.0130 C.3   1 <1>   0.1380 
 27 C        8.2420    -6.7260    -1.7860 C.3   1 <1>  -0.0220 
 28 C        5.8490    -6.7000    -2.5140 C.3   1 <1>  -0.1020 
 29 C        9.2250    -4.8830    -0.4220 C.3   1 <1>  -0.1600 
 30 C        7.9460    -2.7840    -0.2540 C.3   1 <1>  -0.2400 
 31 C        7.6200    -4.5540     1.4850 C.3   1 <1>  -0.2400 
 32 C        9.1940    -6.3950    -0.6390 C.3   1 <1>  -0.1600 
 33 H       -0.8670    -0.3030     0.2660 H     1 <1>   0.3700 
 34 H       -1.6030     0.7870    -2.7240 H     1 <1>   0.0800 
 35 H       -2.5290    -0.6770    -2.7620 H     1 <1>   0.0800 
 36 H        1.3260    -2.1220    -0.6740 H     1 <1>   0.0800 
 37 H        1.5650    -0.8640     0.5180 H     1 <1>   0.0800 
 38 H       -0.0400    -1.9770     2.0270 H     1 <1>   0.0800 
 39 H       -1.6060     2.2160    -0.6880 H     1 <1>   0.1500 
 40 H       -4.0910    -1.2460    -0.9140 H     1 <1>   0.1500 
 41 H       -1.2280    -3.2900    -0.0820 H     1 <1>   0.0800 
 42 H        1.6470    -3.3280     2.8500 H     1 <1>   0.0800 
 43 H       -5.2970    -0.3560     1.0640 H     1 <1>   0.1500 
 44 H       -1.6240    -3.6690     2.6200 H     1 <1>   0.0800 
 45 H       -2.0910    -4.9220     1.4870 H     1 <1>   0.0800 
 46 H        3.6830    -3.3490     1.9010 H     1 <1>   0.0800 
 47 H        3.0530    -2.6220     0.4410 H     1 <1>   0.0800 
 48 H       -4.5800     1.7500     2.0660 H     1 <1>   0.1500 
 49 H       -0.3960    -6.3010     2.2110 H     1 <1>   0.0800 
 50 H        0.0870    -5.1070     3.4110 H     1 <1>   0.0800 
 51 H        1.9390    -6.5520     0.5350 H     1 <1>   0.0800 
 52 H        2.6640    -6.0340     2.0610 H     1 <1>   0.0800 
 53 H        2.6600    -4.6400    -0.5050 H     1 <1>   0.4500 
 54 H        4.9800    -5.3050     1.2300 H     1 <1>   0.0800 
 55 H        4.4910    -6.2290    -0.1610 H     1 <1>   0.0800 
 56 H        4.8430    -4.2360    -1.6020 H     1 <1>   0.0800 
 57 H        5.3770    -3.3500    -0.2240 H     1 <1>   0.0800 
 58 H        8.1030    -7.7930    -1.8060 H     1 <1>   0.0800 
 59 H        8.6850    -6.4340    -2.7220 H     1 <1>   0.0800 
 60 H        6.1770    -6.6840    -3.5390 H     1 <1>   0.0800 
 61 H        4.8870    -6.2310    -2.4760 H     1 <1>   0.0800 
 62 H        5.7290    -7.7270    -2.2160 H     1 <1>   0.0800 
 63 H        9.5400    -4.4290    -1.3470 H     1 <1>   0.0800 
 64 H        9.9690    -4.6410     0.3170 H     1 <1>   0.0800 
 65 H        8.8640    -2.3970     0.1530 H     1 <1>   0.0800 
 66 H        7.1450    -2.2430     0.2120 H     1 <1>   0.0800 
 67 H        7.9340    -2.5780    -1.3100 H     1 <1>   0.0800 
 68 H        8.4520    -4.1880     2.0600 H     1 <1>   0.0800 
 69 H        7.5150    -5.6060     1.6760 H     1 <1>   0.0800 
 70 H        6.7370    -4.0510     1.8290 H     1 <1>   0.0800 
 71 H       10.1810    -6.7520    -0.8780 H     1 <1>   0.0800 
 72 H        8.8690    -6.8910     0.2570 H     1 <1>   0.0800 
@<TRIPOS>BOND
  1   1   2  2   
  2   2   3  am  
  3   2   4  1   
  4   3   5  1   
  5   3  33  1   
  6   4   6  1   
  7   4  34  1   
  8   4  35  1   
  9   5   7  1   
 10   5  36  1   
 11   5  37  1   
 12   6   8  ar  
 13   6   9  ar  
 14   7  10  1   
 15   7  11  1   
 16   7  38  1   
 17   8  12  ar  
 18   8  39  1   
 19   9  13  ar  
 20   9  40  1   
 21  10  14  1   
 22  10  15  1   
 23  10  41  1   
 24  11  16  1   
 25  11  17  1   
 26  11  42  1   
 27  12  18  ar  
 28  13  18  ar  
 29  13  43  1   
 30  14  16  1   
 31  15  19  1   
 32  15  44  1   
 33  15  45  1   
 34  16  19  1   
 35  16  20  1   
 36  17  21  1   
 37  17  46  1   
 38  17  47  1   
 39  18  48  1   
 40  19  49  1   
 41  19  50  1   
 42  20  21  1   
 43  20  51  1   
 44  20  52  1   
 45  21  22  1   
 46  21  53  1   
 47  22  23  1   
 48  22  54  1   
 49  22  55  1   
 50  23  24  1   
 51  23  56  1   
 52  23  57  1   
 53  24  25  2   
 54  24  26  1   
 55  25  27  1   
 56  25  28  1   
 57  26  29  1   
 58  26  30  1   
 59  26  31  1   
 60  27  32  1   
 61  27  58  1   
 62  27  59  1   
 63  28  60  1   
 64  28  61  1   
 65  28  62  1   
 66  29  32  1   
 67  29  63  1   
 68  29  64  1   
 69  30  65  1   
 70  30  66  1   
 71  30  67  1   
 72  31  68  1   
 73  31  69  1   
 74  31  70  1   
 75  32  71  1   
 76  32  72  1   
@<TRIPOS>SUBSTRUCTURE
  1 ****  17 GROUP 4 **** **** 0

# MOE 2024.06 (io_trps.svl 2023.06)
