@<TRIPOS>MOLECULE
NONAME
40 41 1 0 0 
SMALL
USER_CHARGES


@<TRIPOS>ATOM
  1 O       -1.2090     0.2680     1.7800 O.2   1 <1>  -0.5700 
  2 C       -1.4560     0.8450     0.7500 C.2   1 <1>   0.5690 
  3 N       -1.9200     0.1860    -0.3440 N.am  1 <1>  -0.7300 
  4 C       -1.2570     2.3570     0.6840 C.3   1 <1>  -0.0190 
  5 C       -2.0930    -1.2840    -0.4300 C.3   1 <1>   0.1400 
  6 C       -2.5700     3.1020     0.3720 C.3   1 <1>  -0.1600 
  7 C       -0.1330     2.7520    -0.3050 C.3   1 <1>  -0.1600 
  8 C       -3.4580    -1.6910     0.1300 C.3   1 <1>   0.0200 
  9 C       -2.4060     4.6330     0.4660 C.3   1 <1>   0.2000 
 10 C       -0.2380     4.2030    -0.8160 C.3   1 <1>  -0.1600 
 11 C       -3.7290    -3.1800    -0.0370 C.2   1 <1>  -0.3320 
 12 O       -3.2670     5.2170    -0.4810 O.3   1 <1>  -0.5600 
 13 C       -0.9520     5.1040     0.1940 C.3   1 <1>   0.2000 
 14 N       -4.8400    -3.7730     0.4420 N.pl3 1 <1>   0.0330 
 15 C       -3.0100    -4.1620    -0.6310 C.2   1 <1>   0.0770 
 16 C       -4.5870     5.3710    -0.0620 C.3   1 <1>   0.0400 
 17 O       -0.9780     6.3840    -0.3200 O.3   1 <1>  -0.6800 
 18 C       -4.7250    -5.0740     0.1020 C.2   1 <1>   0.0360 
 19 N       -3.6400    -5.3480    -0.5450 N.2   1 <1>  -0.5650 
 20 H       -2.1330     0.7150    -1.1910 H     1 <1>   0.3700 
 21 H       -0.9460     2.6660     1.6680 H     1 <1>   0.0800 
 22 H       -2.0080    -1.5910    -1.4580 H     1 <1>   0.0800 
 23 H       -1.3160    -1.7710     0.1370 H     1 <1>   0.0800 
 24 H       -3.3320     2.7860     1.0630 H     1 <1>   0.0800 
 25 H       -2.8860     2.8400    -0.6230 H     1 <1>   0.0800 
 26 H        0.8120     2.6160     0.1920 H     1 <1>   0.0800 
 27 H       -0.1360     2.0960    -1.1590 H     1 <1>   0.0800 
 28 H       -4.2270    -1.1380    -0.3780 H     1 <1>   0.0800 
 29 H       -3.4870    -1.4420     1.1770 H     1 <1>   0.0800 
 30 H       -2.6810     4.9770     1.4490 H     1 <1>   0.0800 
 31 H       -0.7980     4.2120    -1.7350 H     1 <1>   0.0800 
 32 H        0.7470     4.5870    -1.0170 H     1 <1>   0.0800 
 33 H       -0.3880     5.1280     1.1110 H     1 <1>   0.0800 
 34 H       -5.6100    -3.3390     0.9590 H     1 <1>   0.2700 
 35 H       -2.0570    -4.0850    -1.1270 H     1 <1>   0.1500 
 36 H       -5.1420     5.8210    -0.8660 H     1 <1>   0.0800 
 37 H       -4.6140     6.0160     0.8000 H     1 <1>   0.0800 
 38 H       -5.0070     4.4090     0.1710 H     1 <1>   0.0800 
 39 H       -1.8250     6.4560    -0.8160 H     1 <1>   0.4000 
 40 H       -5.4760    -5.8000     0.3570 H     1 <1>   0.1500 
@<TRIPOS>BOND
  1   1   2  2   
  2   2   3  am  
  3   2   4  1   
  4   3   5  1   
  5   3  20  1   
  6   4   6  1   
  7   4   7  1   
  8   4  21  1   
  9   5   8  1   
 10   5  22  1   
 11   5  23  1   
 12   6   9  1   
 13   6  24  1   
 14   6  25  1   
 15   7  10  1   
 16   7  26  1   
 17   7  27  1   
 18   8  11  1   
 19   8  28  1   
 20   8  29  1   
 21   9  12  1   
 22   9  13  1   
 23   9  30  1   
 24  10  13  1   
 25  10  31  1   
 26  10  32  1   
 27  11  14  1   
 28  11  15  2   
 29  12  16  1   
 30  13  17  1   
 31  13  33  1   
 32  14  18  1   
 33  14  34  1   
 34  15  19  1   
 35  15  35  1   
 36  16  36  1   
 37  16  37  1   
 38  16  38  1   
 39  17  39  1   
 40  18  19  2   
 41  18  40  1   
@<TRIPOS>SUBSTRUCTURE
  1 ****   3 GROUP 4 **** **** 0

# MOE 2024.06 (io_trps.svl 2023.06)
