@<TRIPOS>MOLECULE
NONAME
64 67 1 0 0 
SMALL
USER_CHARGES


@<TRIPOS>ATOM
  1 O        1.3520    -2.5080    -0.0700 O.3   1 <1>  -0.5600 
  2 C        0.9150    -3.6900    -0.6870 C.3   1 <1>   0.2800 
  3 C        1.3610    -2.3870     1.3370 C.3   1 <1>   0.1200 
  4 C       -0.4790    -4.1290    -0.1590 C.3   1 <1>  -0.1600 
  5 C        2.0060    -4.7600    -0.5030 C.3   1 <1>  -0.1600 
  6 C        0.8410    -3.3640    -2.1920 C.3   1 <1>  -0.1600 
  7 C        0.2040    -3.1140     2.0500 C.3   1 <1>   0.2000 
  8 C       -0.9760    -3.3770     1.0870 C.3   1 <1>   0.2800 
  9 C        3.3880    -4.2980    -0.9840 C.3   1 <1>   0.3430 
 10 C        2.2040    -3.2680    -2.8950 C.3   1 <1>   0.3430 
 11 O        0.6880    -4.3170     2.5760 O.3   1 <1>  -0.6800 
 12 O       -1.4890    -2.1620     0.6740 O.3   1 <1>  -0.6800 
 13 C       -2.1450    -4.1050     1.7580 C.3   1 <1>  -0.2400 
 14 N        3.2770    -3.1190    -1.8880 N.4   1 <1>  -0.9590 
 15 C        4.5920    -2.7100    -2.4370 C.3   1 <1>   0.4860 
 16 C        5.4510    -2.1910    -1.3020 C.ar  1 <1>  -0.1440 
 17 C        6.4670    -2.9820    -0.7780 C.ar  1 <1>   0.0820 
 18 C        5.2220    -0.9250    -0.7830 C.ar  1 <1>  -0.1500 
 19 O        6.6350    -4.2230    -1.3050 O.3   1 <1>  -0.3630 
 20 C        7.2660    -2.4830     0.2470 C.ar  1 <1>  -0.1500 
 21 C        6.0070    -0.4430     0.2490 C.ar  1 <1>  -0.1500 
 22 C        7.0650    -5.3210    -0.5140 C.3   1 <1>   0.2640 
 23 C        7.0300    -1.2210     0.7610 C.ar  1 <1>  -0.1500 
 24 C        5.8860    -5.8550     0.2910 C.ar  1 <1>  -0.1440 
 25 C        5.4960    -5.2420     1.4730 C.ar  1 <1>  -0.1500 
 26 C        5.1920    -6.9730    -0.1470 C.ar  1 <1>  -0.1500 
 27 C        4.4260    -5.7340     2.2000 C.ar  1 <1>  -0.1500 
 28 C        4.1240    -7.4670     0.5830 C.ar  1 <1>  -0.1500 
 29 C        3.7350    -6.8500     1.7600 C.ar  1 <1>  -0.1440 
 30 C        2.5770    -7.4080     2.5690 C.3   1 <1>  -0.0960 
 31 H        2.3120    -2.7240     1.7100 H     1 <1>   0.0800 
 32 H        1.2750    -1.3350     1.5430 H     1 <1>   0.0800 
 33 H       -1.2240    -4.0450    -0.9300 H     1 <1>   0.0800 
 34 H       -0.4310    -5.1770     0.0750 H     1 <1>   0.0800 
 35 H        2.0880    -5.0600     0.5210 H     1 <1>   0.0800 
 36 H        1.7360    -5.6410    -1.0560 H     1 <1>   0.0800 
 37 H        0.2770    -4.1250    -2.7010 H     1 <1>   0.0800 
 38 H        0.3020    -2.4410    -2.3230 H     1 <1>   0.0800 
 39 H       -0.1300    -2.5300     2.8890 H     1 <1>   0.0800 
 40 H        3.8920    -5.1100    -1.4810 H     1 <1>   0.0800 
 41 H        3.9790    -4.0210    -0.1260 H     1 <1>   0.0800 
 42 H        2.2000    -2.4240    -3.5660 H     1 <1>   0.0800 
 43 H        2.3780    -4.1620    -3.4720 H     1 <1>   0.0800 
 44 H        0.9520    -4.9170     1.8570 H     1 <1>   0.4000 
 45 H       -2.3490    -2.2940     0.2340 H     1 <1>   0.4000 
 46 H       -1.8300    -5.0680     2.1170 H     1 <1>   0.0800 
 47 H       -2.9550    -4.2550     1.0680 H     1 <1>   0.0800 
 48 H       -2.4970    -3.5400     2.6030 H     1 <1>   0.0800 
 49 H        2.9470    -2.3660    -1.2550 H     1 <1>   0.4500 
 50 H        5.0740    -3.5450    -2.9180 H     1 <1>   0.0800 
 51 H        4.4610    -1.9250    -3.1640 H     1 <1>   0.0800 
 52 H        4.4370    -0.2980    -1.1740 H     1 <1>   0.1500 
 53 H        8.0810    -3.0500     0.6540 H     1 <1>   0.1500 
 54 H        5.8280     0.5390     0.6530 H     1 <1>   0.1500 
 55 H        7.4230    -6.0780    -1.1900 H     1 <1>   0.0800 
 56 H        7.8810    -5.0340     0.1200 H     1 <1>   0.0800 
 57 H        7.6460    -0.8390     1.5570 H     1 <1>   0.1500 
 58 H        6.0240    -4.3780     1.8400 H     1 <1>   0.1500 
 59 H        5.4840    -7.4730    -1.0550 H     1 <1>   0.1500 
 60 H        4.1410    -5.2480     3.1180 H     1 <1>   0.1500 
 61 H        3.6040    -8.3440     0.2370 H     1 <1>   0.1500 
 62 H        2.2100    -6.6780     3.2690 H     1 <1>   0.0800 
 63 H        2.9050    -8.2710     3.1200 H     1 <1>   0.0800 
 64 H        1.7700    -7.6980     1.9220 H     1 <1>   0.0800 
@<TRIPOS>BOND
  1   1   2  1   
  2   1   3  1   
  3   2   4  1   
  4   2   5  1   
  5   2   6  1   
  6   3   7  1   
  7   3  31  1   
  8   3  32  1   
  9   4   8  1   
 10   4  33  1   
 11   4  34  1   
 12   5   9  1   
 13   5  35  1   
 14   5  36  1   
 15   6  10  1   
 16   6  37  1   
 17   6  38  1   
 18   7   8  1   
 19   7  11  1   
 20   7  39  1   
 21   8  12  1   
 22   8  13  1   
 23   9  14  1   
 24   9  40  1   
 25   9  41  1   
 26  10  14  1   
 27  10  42  1   
 28  10  43  1   
 29  11  44  1   
 30  12  45  1   
 31  13  46  1   
 32  13  47  1   
 33  13  48  1   
 34  14  15  1   
 35  14  49  1   
 36  15  16  1   
 37  15  50  1   
 38  15  51  1   
 39  16  17  ar  
 40  16  18  ar  
 41  17  19  1   
 42  17  20  ar  
 43  18  21  ar  
 44  18  52  1   
 45  19  22  1   
 46  20  23  ar  
 47  20  53  1   
 48  21  23  ar  
 49  21  54  1   
 50  22  24  1   
 51  22  55  1   
 52  22  56  1   
 53  23  57  1   
 54  24  25  ar  
 55  24  26  ar  
 56  25  27  ar  
 57  25  58  1   
 58  26  28  ar  
 59  26  59  1   
 60  27  29  ar  
 61  27  60  1   
 62  28  29  ar  
 63  28  61  1   
 64  29  30  1   
 65  30  62  1   
 66  30  63  1   
 67  30  64  1   
@<TRIPOS>SUBSTRUCTURE
  1 ****   9 GROUP 4 **** **** 0

# MOE 2024.06 (io_trps.svl 2023.06)
