@<TRIPOS>MOLECULE
NONAME
41 43 1 0 0 
SMALL
USER_CHARGES


@<TRIPOS>ATOM
  1 O        0.2330     0.8590    -1.1220 O.3   1 <1>  -0.3630 
  2 C       -0.8770     1.4720    -0.6200 C.ar  1 <1>   0.3920 
  3 C        0.1290    -0.2880    -1.9420 C.3   1 <1>   0.0400 
  4 N       -2.0540     0.9410    -0.9240 N.ar  1 <1>  -0.6200 
  5 C       -0.7100     2.6420     0.1830 C.ar  1 <1>   0.4100 
  6 C       -3.0600     1.6260    -0.4030 C.ar  1 <1>   0.1600 
  7 N       -1.7460     3.3130     0.6760 N.ar  1 <1>  -0.6200 
  8 N        0.5480     3.1660     0.5110 N.pl3 1 <1>  -0.8380 
  9 C       -2.9100     2.7680     0.3640 C.ar  1 <1>   0.1600 
 10 C        0.7460     4.6440     0.6390 C.3   1 <1>   0.2090 
 11 C        1.4520     2.3320     1.3420 C.3   1 <1>   0.2090 
 12 C        0.5610     5.3220    -0.7200 C.3   1 <1>   0.0200 
 13 C        1.0940     2.4840     2.8180 C.3   1 <1>  -0.2400 
 14 C        0.8570     6.8130    -0.6650 C.2   1 <1>   0.0060 
 15 N        1.5000     7.4090     0.2790 N.2   1 <1>  -0.5650 
 16 N        0.4520     7.6470    -1.6580 N.pl3 1 <1>   0.0330 
 17 C        1.5270     8.7180    -0.0990 C.ar  1 <1>   0.2270 
 18 C        0.8780     8.8850    -1.3070 C.ar  1 <1>  -0.1520 
 19 C        2.0920     9.8180     0.5440 C.ar  1 <1>  -0.1500 
 20 C        0.7730    10.1420    -1.9080 C.ar  1 <1>  -0.1500 
 21 C        1.9950    11.0630    -0.0400 C.ar  1 <1>  -0.1500 
 22 C        1.3350    11.2240    -1.2660 C.ar  1 <1>  -0.1500 
 23 H        1.1200    -0.5950    -2.2220 H     1 <1>   0.0800 
 24 H       -0.4430    -0.0380    -2.8190 H     1 <1>   0.0800 
 25 H       -0.3580    -1.0700    -1.3860 H     1 <1>   0.0800 
 26 H       -4.0520     1.2600    -0.5990 H     1 <1>   0.1500 
 27 H       -3.7900     3.2580     0.7410 H     1 <1>   0.1500 
 28 H        1.7410     4.8460     0.9970 H     1 <1>   0.0800 
 29 H        0.0480     5.0520     1.3510 H     1 <1>   0.0800 
 30 H        2.4720     2.6310     1.1710 H     1 <1>   0.0800 
 31 H        1.3590     1.2980     1.0590 H     1 <1>   0.0800 
 32 H       -0.4530     5.1770    -1.0430 H     1 <1>   0.0800 
 33 H        1.2240     4.8620    -1.4290 H     1 <1>   0.0800 
 34 H        1.2430     3.4970     3.1420 H     1 <1>   0.0800 
 35 H        1.7210     1.8420     3.4090 H     1 <1>   0.0800 
 36 H        0.0680     2.2060     2.9790 H     1 <1>   0.0800 
 37 H       -0.0700     7.3970    -2.5000 H     1 <1>   0.2700 
 38 H        2.5910     9.6640     1.4820 H     1 <1>   0.1500 
 39 H        0.2640    10.2560    -2.8490 H     1 <1>   0.1500 
 40 H        2.4260    11.9220     0.4420 H     1 <1>   0.1500 
 41 H        1.2730    12.2060    -1.7010 H     1 <1>   0.1500 
@<TRIPOS>BOND
  1   1   2  1   
  2   1   3  1   
  3   2   4  ar  
  4   2   5  ar  
  5   3  23  1   
  6   3  24  1   
  7   3  25  1   
  8   4   6  ar  
  9   5   7  ar  
 10   5   8  1   
 11   6   9  ar  
 12   6  26  1   
 13   7   9  ar  
 14   8  10  1   
 15   8  11  1   
 16   9  27  1   
 17  10  12  1   
 18  10  28  1   
 19  10  29  1   
 20  11  13  1   
 21  11  30  1   
 22  11  31  1   
 23  12  14  1   
 24  12  32  1   
 25  12  33  1   
 26  13  34  1   
 27  13  35  1   
 28  13  36  1   
 29  14  15  2   
 30  14  16  1   
 31  15  17  1   
 32  16  18  1   
 33  16  37  1   
 34  17  18  ar  
 35  17  19  ar  
 36  18  20  ar  
 37  19  21  ar  
 38  19  38  1   
 39  20  22  ar  
 40  20  39  1   
 41  21  22  ar  
 42  21  40  1   
 43  22  41  1   
@<TRIPOS>SUBSTRUCTURE
  1 ****  12 GROUP 4 **** **** 0

# MOE 2024.06 (io_trps.svl 2023.06)
