@<TRIPOS>MOLECULE
NONAME
36 37 1 0 0 
SMALL
USER_CHARGES


@<TRIPOS>ATOM
  1 S        0.4470     0.1070     0.7500 S.3   1 <1>  -0.0800 
  2 C       -0.9430     0.9120     0.0340 C.2   1 <1>  -0.1400 
  3 C       -0.5280    -1.2770     1.2020 C.2   1 <1>  -0.1100 
  4 C       -2.0460     0.1450     0.1560 C.2   1 <1>  -0.1810 
  5 C       -0.6880     2.2790    -0.5810 C.3   1 <1>   0.0200 
  6 C       -1.8050    -1.1000     0.8220 C.2   1 <1>  -0.1500 
  7 C       -3.4490     0.4710    -0.3250 C.3   1 <1>  -0.0590 
  8 C       -0.3700     3.3120     0.5000 C.3   1 <1>   0.2090 
  9 N       -0.3210     4.6730    -0.0920 N.pl3 1 <1>  -0.8690 
 10 C        0.8980     5.2480    -0.4310 C.ar  1 <1>   0.4100 
 11 N        1.8180     4.4420    -0.9270 N.ar  1 <1>  -0.6200 
 12 C        1.0990     6.6540    -0.2300 C.ar  1 <1>   0.4100 
 13 C        2.9440     5.0840    -1.2110 C.ar  1 <1>   0.1600 
 14 N        2.2350     7.2680    -0.5180 N.ar  1 <1>  -0.6200 
 15 N        0.0700     7.4610     0.2810 N.pl3 1 <1>  -0.8380 
 16 C        3.1450     6.4380    -1.0130 C.ar  1 <1>   0.1600 
 17 C       -0.9320     7.8970    -0.7260 C.3   1 <1>   0.1290 
 18 C        0.4580     8.5430     1.2280 C.3   1 <1>   0.1290 
 19 H       -0.0340    -2.0850     1.7110 H     1 <1>   0.1500 
 20 H       -1.5540     2.6020    -1.1270 H     1 <1>   0.0800 
 21 H        0.1370     2.2130    -1.2670 H     1 <1>   0.0800 
 22 H       -2.6010    -1.8050     0.9820 H     1 <1>   0.1500 
 23 H       -3.4870     1.4420    -0.7840 H     1 <1>   0.0800 
 24 H       -4.1310     0.4590     0.5050 H     1 <1>   0.0800 
 25 H       -3.7640    -0.2610    -1.0470 H     1 <1>   0.0800 
 26 H        0.5730     3.0760     0.9660 H     1 <1>   0.0800 
 27 H       -1.1350     3.2840     1.2560 H     1 <1>   0.0800 
 28 H       -0.8610     5.3650     0.4410 H     1 <1>   0.4000 
 29 H        3.7440     4.4940    -1.6200 H     1 <1>   0.1500 
 30 H        4.0960     6.8650    -1.2740 H     1 <1>   0.1500 
 31 H       -1.1530     7.0890    -1.4030 H     1 <1>   0.0800 
 32 H       -0.5430     8.7260    -1.2930 H     1 <1>   0.0800 
 33 H       -1.8410     8.1960    -0.2340 H     1 <1>   0.0800 
 34 H        1.2150     8.1810     1.9020 H     1 <1>   0.0800 
 35 H       -0.3980     8.8540     1.8010 H     1 <1>   0.0800 
 36 H        0.8520     9.3840     0.6840 H     1 <1>   0.0800 
@<TRIPOS>BOND
  1   1   2  1   
  2   1   3  1   
  3   2   4  2   
  4   2   5  1   
  5   3   6  2   
  6   3  19  1   
  7   4   6  1   
  8   4   7  1   
  9   5   8  1   
 10   5  20  1   
 11   5  21  1   
 12   6  22  1   
 13   7  23  1   
 14   7  24  1   
 15   7  25  1   
 16   8   9  1   
 17   8  26  1   
 18   8  27  1   
 19   9  10  1   
 20   9  28  1   
 21  10  11  ar  
 22  10  12  ar  
 23  11  13  ar  
 24  12  14  ar  
 25  12  15  1   
 26  13  16  ar  
 27  13  29  1   
 28  14  16  ar  
 29  15  17  1   
 30  15  18  1   
 31  16  30  1   
 32  17  31  1   
 33  17  32  1   
 34  17  33  1   
 35  18  34  1   
 36  18  35  1   
 37  18  36  1   
@<TRIPOS>SUBSTRUCTURE
  1 ****   8 GROUP 4 **** **** 0

# MOE 2024.06 (io_trps.svl 2023.06)
