@<TRIPOS>MOLECULE
NONAME
49 51 1 0 0 
SMALL
USER_CHARGES


@<TRIPOS>ATOM
  1 F       -1.3040     3.7270     0.7400 F     1 <1>  -0.1900 
  2 C       -0.1560     4.3480     0.7430 C.ar  1 <1>   0.1900 
  3 C        0.3100     4.9000    -0.4330 C.ar  1 <1>  -0.1500 
  4 C        0.5550     4.4340     1.9230 C.ar  1 <1>  -0.1500 
  5 C        1.5290     5.5560    -0.4190 C.ar  1 <1>  -0.1500 
  6 C        1.7720     5.0940     1.9180 C.ar  1 <1>  -0.1500 
  7 C        2.2900     5.6710     0.7510 C.ar  1 <1>   0.0540 
  8 C        3.5680     6.3660     0.7450 C.2   1 <1>   0.4620 
  9 N        4.3120     6.5260     1.8480 N.2   1 <1>  -0.2270 
 10 N        4.1140     6.8950    -0.3020 N.2   1 <1>  -0.7070 
 11 N        5.3520     7.1680     1.5000 N.2   1 <1>  -0.4180 
 12 N        5.2220     7.3830     0.2050 N.pl3 1 <1>   0.5800 
 13 C        6.2250     8.1100    -0.5960 C.3   1 <1>   0.0960 
 14 C        5.8680     9.6010    -0.7090 C.3   1 <1>  -0.1600 
 15 C        6.9360    10.3780    -1.4960 C.3   1 <1>  -0.0990 
 16 C        6.5680    11.8380    -1.6590 C.2   1 <1>   0.5690 
 17 O        6.2380    12.2440    -2.7450 O.2   1 <1>  -0.5700 
 18 N        6.6190    12.6420    -0.5740 N.am  1 <1>  -0.7300 
 19 C        6.3860    14.0870    -0.5990 C.3   1 <1>   0.4010 
 20 C        7.1770    14.6730     0.5550 C.2   1 <1>  -0.1810 
 21 C        4.8790    14.3630    -0.4900 C.3   1 <1>  -0.1600 
 22 C        6.8970    14.5330     1.9100 C.2   1 <1>   0.1390 
 23 C        8.3000    15.4240     0.5210 C.2   1 <1>  -0.3020 
 24 C        4.5430    15.8620    -0.4920 C.3   1 <1>  -0.2400 
 25 N        7.7680    15.1350     2.6580 N.2   1 <1>  -0.7070 
 26 N        8.6360    15.6920     1.7980 N.pl3 1 <1>   0.3140 
 27 C        9.7800    16.4800     2.2650 C.3   1 <1>   0.0160 
 28 H       -0.2690     4.8150    -1.3350 H     1 <1>   0.1500 
 29 H        0.1630     3.9930     2.8210 H     1 <1>   0.1500 
 30 H        1.9010     5.9900    -1.3320 H     1 <1>   0.1500 
 31 H        2.3290     5.1620     2.8370 H     1 <1>   0.1500 
 32 H        6.2610     7.6610    -1.5720 H     1 <1>   0.0800 
 33 H        7.1820     7.9890    -0.1230 H     1 <1>   0.0800 
 34 H        5.7740    10.0210     0.2790 H     1 <1>   0.0800 
 35 H        4.9190     9.7010    -1.2110 H     1 <1>   0.0800 
 36 H        7.0480     9.9480    -2.4760 H     1 <1>   0.0800 
 37 H        7.8860    10.3170    -0.9980 H     1 <1>   0.0800 
 38 H        6.9780    12.3020     0.3170 H     1 <1>   0.3700 
 39 H        6.7560    14.4890    -1.5290 H     1 <1>   0.0800 
 40 H        4.4930    13.9160     0.4090 H     1 <1>   0.0800 
 41 H        4.3880    13.9030    -1.3300 H     1 <1>   0.0800 
 42 H        6.0570    13.9890     2.3100 H     1 <1>   0.1500 
 43 H        8.8660    15.7740    -0.3220 H     1 <1>   0.1500 
 44 H        4.9790    16.3540     0.3610 H     1 <1>   0.0800 
 45 H        3.4760    16.0000    -0.4530 H     1 <1>   0.0800 
 46 H        4.9140    16.3290    -1.3870 H     1 <1>   0.0800 
 47 H       10.4970    16.5810     1.4720 H     1 <1>   0.0800 
 48 H       10.2300    15.9780     3.1010 H     1 <1>   0.0800 
 49 H        9.4330    17.4490     2.5720 H     1 <1>   0.0800 
@<TRIPOS>BOND
  1   1   2  1   
  2   2   3  ar  
  3   2   4  ar  
  4   3   5  ar  
  5   3  28  1   
  6   4   6  ar  
  7   4  29  1   
  8   5   7  ar  
  9   5  30  1   
 10   6   7  ar  
 11   6  31  1   
 12   7   8  1   
 13   8   9  1   
 14   8  10  2   
 15   9  11  2   
 16  10  12  1   
 17  11  12  1   
 18  12  13  1   
 19  13  14  1   
 20  13  32  1   
 21  13  33  1   
 22  14  15  1   
 23  14  34  1   
 24  14  35  1   
 25  15  16  1   
 26  15  36  1   
 27  15  37  1   
 28  16  17  2   
 29  16  18  am  
 30  18  19  1   
 31  18  38  1   
 32  19  20  1   
 33  19  21  1   
 34  19  39  1   
 35  20  22  1   
 36  20  23  2   
 37  21  24  1   
 38  21  40  1   
 39  21  41  1   
 40  22  25  2   
 41  22  42  1   
 42  23  26  1   
 43  23  43  1   
 44  24  44  1   
 45  24  45  1   
 46  24  46  1   
 47  25  26  1   
 48  26  27  1   
 49  27  47  1   
 50  27  48  1   
 51  27  49  1   
@<TRIPOS>SUBSTRUCTURE
  1 ****  14 GROUP 4 **** **** 0

# MOE 2024.06 (io_trps.svl 2023.06)
