@<TRIPOS>MOLECULE
NONAME
41 42 1 0 0 
SMALL
USER_CHARGES


@<TRIPOS>ATOM
  1 O        0.0150     0.6370    -0.6820 O.3   1 <1>  -0.3630 
  2 C       -1.1710     1.0740    -0.1670 C.ar  1 <1>   0.3920 
  3 C        0.3690    -0.7310    -0.6460 C.3   1 <1>   0.0400 
  4 N       -1.9960     0.1550     0.3200 N.ar  1 <1>  -0.6200 
  5 C       -1.4500     2.4750    -0.1790 C.ar  1 <1>   0.4100 
  6 C       -3.1080     0.6900     0.8000 C.ar  1 <1>   0.1600 
  7 N       -2.5790     2.9760     0.3130 N.ar  1 <1>  -0.6200 
  8 N       -0.5690     3.4210    -0.7220 N.pl3 1 <1>  -0.8380 
  9 C       -3.3860     2.0450     0.7960 C.ar  1 <1>   0.1600 
 10 C       -0.5120     4.7960    -0.1570 C.3   1 <1>   0.2090 
 11 C       -0.1950     3.2830    -2.1560 C.3   1 <1>   0.1290 
 12 C        0.9330     5.2980    -0.1320 C.3   1 <1>  -0.1600 
 13 C        1.0380     6.6500     0.5810 C.3   1 <1>   0.0210 
 14 C        2.4700     7.1540     0.5510 C.2   1 <1>  -0.1810 
 15 C        3.0410     7.9920    -0.4070 C.2   1 <1>   0.1080 
 16 C        3.4690     6.9010     1.4240 C.2   1 <1>  -0.3320 
 17 N        4.2860     8.2490    -0.1570 N.2   1 <1>  -0.7070 
 18 C        2.3360     8.5650    -1.6150 C.3   1 <1>  -0.0590 
 19 N        4.5500     7.5730     0.9750 N.pl3 1 <1>   0.3000 
 20 C        3.4850     6.0450     2.6790 C.3   1 <1>  -0.0600 
 21 H        1.3410    -0.8400    -1.0910 H     1 <1>   0.0800 
 22 H       -0.3600    -1.2940    -1.2030 H     1 <1>   0.0800 
 23 H        0.3920    -1.0570     0.3790 H     1 <1>   0.0800 
 24 H       -3.8330     0.0130     1.2160 H     1 <1>   0.1500 
 25 H       -4.3190     2.3830     1.2110 H     1 <1>   0.1500 
 26 H       -0.8940     4.7840     0.8500 H     1 <1>   0.0800 
 27 H       -1.1330     5.4510    -0.7440 H     1 <1>   0.0800 
 28 H       -0.6610     2.4130    -2.5850 H     1 <1>   0.0800 
 29 H        0.8730     3.1790    -2.2410 H     1 <1>   0.0800 
 30 H       -0.5140     4.1500    -2.7080 H     1 <1>   0.0800 
 31 H        1.3000     5.4030    -1.1360 H     1 <1>   0.0800 
 32 H        1.5460     4.5810     0.3840 H     1 <1>   0.0800 
 33 H        0.7190     6.5480     1.6030 H     1 <1>   0.0800 
 34 H        0.3940     7.3700     0.1080 H     1 <1>   0.0800 
 35 H        1.7670     7.8000    -2.1080 H     1 <1>   0.0800 
 36 H        3.0600     8.9590    -2.3040 H     1 <1>   0.0800 
 37 H        1.6820     9.3590    -1.3070 H     1 <1>   0.0800 
 38 H        5.4770     7.5890     1.4130 H     1 <1>   0.2700 
 39 H        2.5320     5.5710     2.8270 H     1 <1>   0.0800 
 40 H        3.7020     6.6530     3.5400 H     1 <1>   0.0800 
 41 H        4.2330     5.2770     2.5940 H     1 <1>   0.0800 
@<TRIPOS>BOND
  1   1   2  1   
  2   1   3  1   
  3   2   4  ar  
  4   2   5  ar  
  5   3  21  1   
  6   3  22  1   
  7   3  23  1   
  8   4   6  ar  
  9   5   7  ar  
 10   5   8  1   
 11   6   9  ar  
 12   6  24  1   
 13   7   9  ar  
 14   8  10  1   
 15   8  11  1   
 16   9  25  1   
 17  10  12  1   
 18  10  26  1   
 19  10  27  1   
 20  11  28  1   
 21  11  29  1   
 22  11  30  1   
 23  12  13  1   
 24  12  31  1   
 25  12  32  1   
 26  13  14  1   
 27  13  33  1   
 28  13  34  1   
 29  14  15  1   
 30  14  16  2   
 31  15  17  2   
 32  15  18  1   
 33  16  19  1   
 34  16  20  1   
 35  17  19  1   
 36  18  35  1   
 37  18  36  1   
 38  18  37  1   
 39  19  38  1   
 40  20  39  1   
 41  20  40  1   
 42  20  41  1   
@<TRIPOS>SUBSTRUCTURE
  1 ****  12 GROUP 4 **** **** 0

# MOE 2024.06 (io_trps.svl 2023.06)
