@<TRIPOS>MOLECULE
NONAME
50 53 1 0 0 
SMALL
USER_CHARGES


@<TRIPOS>ATOM
  1 O       -2.3360     0.9170    -2.6390 O.2   1 <1>  -0.5700 
  2 C       -2.4160     1.1850    -1.4630 C.2   1 <1>   0.5690 
  3 N       -2.7720     0.2330    -0.5440 N.am  1 <1>  -0.6600 
  4 C       -2.1170     2.6180    -1.0400 C.3   1 <1>   0.0820 
  5 C       -2.8110     0.3960     0.9320 C.3   1 <1>   0.1400 
  6 C       -3.0290    -1.1780    -0.9170 C.3   1 <1>   0.1400 
  7 C       -0.9170     2.7200    -0.1060 C.2   1 <1>  -0.1810 
  8 C       -3.2180    -0.9770     1.4660 C.3   1 <1>   0.2000 
  9 C       -2.8230    -1.9730     0.3750 C.3   1 <1>  -0.0800 
 10 C        0.3140     2.1990    -0.2370 C.2   1 <1>  -0.0400 
 11 C       -0.8540     3.3800     1.1230 C.2   1 <1>   0.1080 
 12 O       -2.5690    -1.2770     2.6520 O.3   1 <1>  -0.6800 
 13 C       -3.6420    -3.2750     0.4500 C.3   1 <1>  -0.0170 
 14 O        1.0020     2.5190     0.8260 O.3   1 <1>  -0.0190 
 15 C        0.9750     1.3720    -1.3210 C.3   1 <1>  -0.0600 
 16 N        0.3040     3.2330     1.6590 N.2   1 <1>  -0.4100 
 17 C       -1.9690     4.1720     1.7730 C.3   1 <1>  -0.0590 
 18 C       -3.3150    -4.3520    -0.5930 C.ar  1 <1>  -0.1440 
 19 C       -4.1970    -5.4470    -0.7800 C.ar  1 <1>   0.0000 
 20 C       -2.1880    -4.3290    -1.3670 C.ar  1 <1>  -0.1500 
 21 C       -3.8680    -6.4040    -1.7720 C.ar  1 <1>   0.3100 
 22 C       -5.3830    -5.6550    -0.0350 C.ar  1 <1>  -0.1500 
 23 C       -1.9540    -5.3330    -2.3140 C.ar  1 <1>   0.1600 
 24 N       -2.7460    -6.3320    -2.5290 N.ar  1 <1>  -0.6200 
 25 C       -4.7330    -7.4890    -1.9880 C.ar  1 <1>  -0.1500 
 26 C       -6.2030    -6.7260    -0.2680 C.ar  1 <1>  -0.1500 
 27 C       -5.8790    -7.6550    -1.2590 C.ar  1 <1>  -0.1500 
 28 H       -1.9210     3.2060    -1.9180 H     1 <1>   0.0800 
 29 H       -2.9950     3.0170    -0.5710 H     1 <1>   0.0800 
 30 H       -1.8320     0.6610     1.2910 H     1 <1>   0.0800 
 31 H       -3.5310     1.1430     1.2130 H     1 <1>   0.0800 
 32 H       -4.0440    -1.2670    -1.2660 H     1 <1>   0.0800 
 33 H       -2.3590    -1.4950    -1.6980 H     1 <1>   0.0800 
 34 H       -4.2790    -0.9960     1.6470 H     1 <1>   0.0800 
 35 H       -1.7730    -2.1900     0.4700 H     1 <1>   0.0800 
 36 H       -1.5990    -1.2500     2.5320 H     1 <1>   0.4000 
 37 H       -4.6790    -3.0070     0.3510 H     1 <1>   0.0800 
 38 H       -3.5100    -3.7080     1.4270 H     1 <1>   0.0800 
 39 H        0.3190     1.2460    -2.1620 H     1 <1>   0.0800 
 40 H        1.2350     0.4040    -0.9330 H     1 <1>   0.0800 
 41 H        1.8700     1.8650    -1.6550 H     1 <1>   0.0800 
 42 H       -2.3060     4.9440     1.1060 H     1 <1>   0.0800 
 43 H       -1.6120     4.6300     2.6770 H     1 <1>   0.0800 
 44 H       -2.7890     3.5230     2.0150 H     1 <1>   0.0800 
 45 H       -1.4430    -3.5620    -1.2880 H     1 <1>   0.1500 
 46 H       -5.6530    -4.9640     0.7390 H     1 <1>   0.1500 
 47 H       -1.0550    -5.2670    -2.9030 H     1 <1>   0.1500 
 48 H       -4.4600    -8.1920    -2.7530 H     1 <1>   0.1500 
 49 H       -7.1020    -6.8680     0.3060 H     1 <1>   0.1500 
 50 H       -6.5320    -8.4920    -1.4350 H     1 <1>   0.1500 
@<TRIPOS>BOND
  1   1   2  2   
  2   2   3  am  
  3   2   4  1   
  4   3   5  1   
  5   3   6  1   
  6   4   7  1   
  7   4  28  1   
  8   4  29  1   
  9   5   8  1   
 10   5  30  1   
 11   5  31  1   
 12   6   9  1   
 13   6  32  1   
 14   6  33  1   
 15   7  10  2   
 16   7  11  1   
 17   8   9  1   
 18   8  12  1   
 19   8  34  1   
 20   9  13  1   
 21   9  35  1   
 22  10  14  1   
 23  10  15  1   
 24  11  16  2   
 25  11  17  1   
 26  12  36  1   
 27  13  18  1   
 28  13  37  1   
 29  13  38  1   
 30  14  16  1   
 31  15  39  1   
 32  15  40  1   
 33  15  41  1   
 34  17  42  1   
 35  17  43  1   
 36  17  44  1   
 37  18  19  ar  
 38  18  20  ar  
 39  19  21  ar  
 40  19  22  ar  
 41  20  23  ar  
 42  20  45  1   
 43  21  24  ar  
 44  21  25  ar  
 45  22  26  ar  
 46  22  46  1   
 47  23  24  ar  
 48  23  47  1   
 49  25  27  ar  
 50  25  48  1   
 51  26  27  ar  
 52  26  49  1   
 53  27  50  1   
@<TRIPOS>SUBSTRUCTURE
  1 ****   6 GROUP 4 **** **** 0

# MOE 2024.06 (io_trps.svl 2023.06)
