@<TRIPOS>MOLECULE
NONAME
51 53 1 0 0 
SMALL
USER_CHARGES


@<TRIPOS>ATOM
  1 O        3.7970    -1.2910     0.7480 O.2   1 <1>  -0.5700 
  2 C        2.6330    -1.4720     0.4860 C.2   1 <1>   0.5690 
  3 N        1.7220    -0.4670     0.3260 N.am  1 <1>  -0.5470 
  4 C        2.1490    -2.9200     0.3160 C.3   1 <1>   0.1710 
  5 C        1.7940     0.9320     0.4050 C.ar  1 <1>   0.1170 
  6 N        0.6850    -3.1520     0.0920 N.3   1 <1>  -0.8100 
  7 C        0.6500     1.6670     0.1170 C.ar  1 <1>  -0.1500 
  8 C        2.9450     1.6230     0.7580 C.ar  1 <1>  -0.1500 
  9 C       -0.1920    -2.8160     1.2280 C.3   1 <1>   0.1100 
 10 C        0.1900    -2.7870    -1.2540 C.3   1 <1>   0.1100 
 11 C        0.6410     3.0520     0.1750 C.ar  1 <1>  -0.1440 
 12 C        2.9480     3.0040     0.8200 C.ar  1 <1>  -0.1500 
 13 C       -1.5620    -3.5020     1.0920 C.3   1 <1>  -0.1600 
 14 C       -1.3410    -2.8990    -1.3410 C.3   1 <1>  -0.1600 
 15 C        1.8020     3.7290     0.5310 C.ar  1 <1>  -0.1440 
 16 C       -0.6430     3.8020    -0.1520 C.3   1 <1>  -0.0970 
 17 C       -1.9210    -3.9120    -0.3450 C.3   1 <1>   0.4240 
 18 C        1.8500     5.2480     0.6100 C.3   1 <1>  -0.0970 
 19 O       -1.2520    -5.0930    -0.5780 O.3   1 <1>  -0.6800 
 20 C       -3.4390    -4.1050    -0.5230 C.ar  1 <1>  -0.1440 
 21 C       -4.0070    -5.3520    -0.7710 C.ar  1 <1>  -0.1500 
 22 C       -4.2910    -3.0080    -0.4340 C.ar  1 <1>  -0.1500 
 23 C       -5.3740    -5.4970    -0.9260 C.ar  1 <1>  -0.1500 
 24 C       -5.6590    -3.1490    -0.5880 C.ar  1 <1>  -0.1500 
 25 C       -6.2030    -4.3950    -0.8350 C.ar  1 <1>  -0.1500 
 26 H        0.7990    -0.8370     0.1070 H     1 <1>   0.3700 
 27 H        2.4460    -3.4600     1.1980 H     1 <1>   0.0800 
 28 H        2.6940    -3.3480    -0.5060 H     1 <1>   0.0800 
 29 H       -0.2460     1.1460    -0.1590 H     1 <1>   0.1500 
 30 H        3.8490     1.0930     0.9890 H     1 <1>   0.1500 
 31 H       -0.3380    -1.7510     1.2770 H     1 <1>   0.0800 
 32 H        0.2680    -3.1300     2.1510 H     1 <1>   0.0800 
 33 H        0.6270    -3.4670    -1.9660 H     1 <1>   0.0800 
 34 H        0.4930    -1.7920    -1.5310 H     1 <1>   0.0800 
 35 H        3.8550     3.5100     1.0960 H     1 <1>   0.1500 
 36 H       -2.3010    -2.8180     1.4660 H     1 <1>   0.0800 
 37 H       -1.6060    -4.3680     1.7280 H     1 <1>   0.0800 
 38 H       -1.6310    -3.1710    -2.3400 H     1 <1>   0.0800 
 39 H       -1.7640    -1.9320    -1.1460 H     1 <1>   0.0800 
 40 H       -1.4370     3.1230    -0.4010 H     1 <1>   0.0800 
 41 H       -0.4830     4.4560    -0.9910 H     1 <1>   0.0800 
 42 H       -0.9520     4.3880     0.6940 H     1 <1>   0.0800 
 43 H        1.1430     5.6010     1.3400 H     1 <1>   0.0800 
 44 H        1.6110     5.6750    -0.3470 H     1 <1>   0.0800 
 45 H        2.8280     5.5890     0.8970 H     1 <1>   0.0800 
 46 H       -0.3110    -4.8860    -0.3800 H     1 <1>   0.4000 
 47 H       -3.3860    -6.2290    -0.8460 H     1 <1>   0.1500 
 48 H       -3.8970    -2.0270    -0.2390 H     1 <1>   0.1500 
 49 H       -5.7900    -6.4700    -1.1180 H     1 <1>   0.1500 
 50 H       -6.3020    -2.2890    -0.5160 H     1 <1>   0.1500 
 51 H       -7.2660    -4.5080    -0.9560 H     1 <1>   0.1500 
@<TRIPOS>BOND
  1   1   2  2   
  2   2   3  am  
  3   2   4  1   
  4   3   5  1   
  5   3  26  1   
  6   4   6  1   
  7   4  27  1   
  8   4  28  1   
  9   5   7  ar  
 10   5   8  ar  
 11   6   9  1   
 12   6  10  1   
 13   7  11  ar  
 14   7  29  1   
 15   8  12  ar  
 16   8  30  1   
 17   9  13  1   
 18   9  31  1   
 19   9  32  1   
 20  10  14  1   
 21  10  33  1   
 22  10  34  1   
 23  11  15  ar  
 24  11  16  1   
 25  12  15  ar  
 26  12  35  1   
 27  13  17  1   
 28  13  36  1   
 29  13  37  1   
 30  14  17  1   
 31  14  38  1   
 32  14  39  1   
 33  15  18  1   
 34  16  40  1   
 35  16  41  1   
 36  16  42  1   
 37  17  19  1   
 38  17  20  1   
 39  18  43  1   
 40  18  44  1   
 41  18  45  1   
 42  19  46  1   
 43  20  21  ar  
 44  20  22  ar  
 45  21  23  ar  
 46  21  47  1   
 47  22  24  ar  
 48  22  48  1   
 49  23  25  ar  
 50  23  49  1   
 51  24  25  ar  
 52  24  50  1   
 53  25  51  1   
@<TRIPOS>SUBSTRUCTURE
  1 ****   9 GROUP 4 **** **** 0

# MOE 2024.06 (io_trps.svl 2023.06)
