@<TRIPOS>MOLECULE
NONAME
54 56 1 0 0 
SMALL
USER_CHARGES


@<TRIPOS>ATOM
  1 O       -0.1390    -0.3870    -1.1200 O.2   1 <1>  -0.5700 
  2 C       -0.1120     0.8150    -1.2560 C.2   1 <1>   0.5690 
  3 N       -1.2300     1.5780    -1.0060 N.am  1 <1>  -0.6600 
  4 C        1.1950     1.4340    -1.7460 C.3   1 <1>   0.0440 
  5 C       -1.4160     2.9810    -1.4840 C.3   1 <1>   0.1400 
  6 C       -2.3640     0.9790    -0.2410 C.3   1 <1>   0.1400 
  7 C        2.3490     1.2510    -0.7590 C.ar  1 <1>  -0.1440 
  8 C       -2.9020     3.3340    -1.5470 C.3   1 <1>  -0.1600 
  9 C       -3.0250     2.0400     0.6420 C.3   1 <1>  -0.1600 
 10 C        2.5150     2.0610     0.3620 C.ar  1 <1>  -0.1430 
 11 C        3.2630     0.2350    -1.0020 C.ar  1 <1>  -0.1500 
 12 C       -3.5550     3.2600    -0.1510 C.3   1 <1>   0.2800 
 13 C        3.5970     1.8470     1.2020 C.ar  1 <1>  -0.1500 
 14 C        1.5380     3.1750     0.7090 C.3   1 <1>  -0.0970 
 15 C        4.3410     0.0210    -0.1600 C.ar  1 <1>  -0.1430 
 16 O       -3.1430     4.3840     0.5910 O.3   1 <1>  -0.5600 
 17 C       -5.1000     3.2300    -0.2640 C.3   1 <1>  -0.1600 
 18 C        4.5060     0.8370     0.9440 C.ar  1 <1>  -0.1500 
 19 C        5.3240    -1.0980    -0.4510 C.3   1 <1>  -0.0970 
 20 C       -3.8150     5.5960     0.3880 C.3   1 <1>   0.1200 
 21 C       -5.7960     4.0350     0.8420 C.3   1 <1>   0.2800 
 22 C       -5.2910     5.4850     0.8050 C.3   1 <1>  -0.1600 
 23 O       -5.3890     3.5180     2.0510 O.3   1 <1>  -0.6800 
 24 C       -7.3350     3.9120     0.7910 C.3   1 <1>   0.1200 
 25 O       -7.8580     4.4140    -0.4020 O.3   1 <1>  -0.6800 
 26 H        1.0860     2.4770    -1.9580 H     1 <1>   0.0800 
 27 H        1.4420     0.9580    -2.6760 H     1 <1>   0.0800 
 28 H       -0.9900     3.0890    -2.4660 H     1 <1>   0.0800 
 29 H       -0.9170     3.6580    -0.8110 H     1 <1>   0.0800 
 30 H       -2.0020     0.1760     0.3800 H     1 <1>   0.0800 
 31 H       -3.0790     0.5680    -0.9330 H     1 <1>   0.0800 
 32 H       -3.3810     2.6390    -2.2120 H     1 <1>   0.0800 
 33 H       -3.0250     4.3100    -1.9760 H     1 <1>   0.0800 
 34 H       -2.2890     2.3580     1.3600 H     1 <1>   0.0800 
 35 H       -3.8170     1.5680     1.1930 H     1 <1>   0.0800 
 36 H        3.1320    -0.4060    -1.8560 H     1 <1>   0.1500 
 37 H        3.7410     2.4640     2.0700 H     1 <1>   0.1500 
 38 H        1.4800     3.8850    -0.0950 H     1 <1>   0.0800 
 39 H        1.8490     3.6980     1.5950 H     1 <1>   0.0800 
 40 H        0.5630     2.7610     0.8940 H     1 <1>   0.0800 
 41 H       -5.4630     2.2190    -0.2760 H     1 <1>   0.0800 
 42 H       -5.3910     3.6550    -1.2080 H     1 <1>   0.0800 
 43 H        5.3380     0.6890     1.6080 H     1 <1>   0.1500 
 44 H        4.8000    -1.9670    -0.8070 H     1 <1>   0.0800 
 45 H        5.8650    -1.3680     0.4380 H     1 <1>   0.0800 
 46 H        6.0240    -0.7800    -1.2020 H     1 <1>   0.0800 
 47 H       -3.7340     5.8660    -0.6500 H     1 <1>   0.0800 
 48 H       -3.3170     6.3490     0.9740 H     1 <1>   0.0800 
 49 H       -5.8600     6.0530     0.0940 H     1 <1>   0.0800 
 50 H       -5.4420     5.9520     1.7630 H     1 <1>   0.0800 
 51 H       -4.4160     3.6420     2.0930 H     1 <1>   0.4000 
 52 H       -7.7850     4.4480     1.6080 H     1 <1>   0.0800 
 53 H       -7.6150     2.8740     0.8520 H     1 <1>   0.0800 
 54 H       -7.8900     5.3900    -0.3800 H     1 <1>   0.4000 
@<TRIPOS>BOND
  1   1   2  2   
  2   2   3  am  
  3   2   4  1   
  4   3   5  1   
  5   3   6  1   
  6   4   7  1   
  7   4  26  1   
  8   4  27  1   
  9   5   8  1   
 10   5  28  1   
 11   5  29  1   
 12   6   9  1   
 13   6  30  1   
 14   6  31  1   
 15   7  10  ar  
 16   7  11  ar  
 17   8  12  1   
 18   8  32  1   
 19   8  33  1   
 20   9  12  1   
 21   9  34  1   
 22   9  35  1   
 23  10  13  ar  
 24  10  14  1   
 25  11  15  ar  
 26  11  36  1   
 27  12  16  1   
 28  12  17  1   
 29  13  18  ar  
 30  13  37  1   
 31  14  38  1   
 32  14  39  1   
 33  14  40  1   
 34  15  18  ar  
 35  15  19  1   
 36  16  20  1   
 37  17  21  1   
 38  17  41  1   
 39  17  42  1   
 40  18  43  1   
 41  19  44  1   
 42  19  45  1   
 43  19  46  1   
 44  20  22  1   
 45  20  47  1   
 46  20  48  1   
 47  21  22  1   
 48  21  23  1   
 49  21  24  1   
 50  22  49  1   
 51  22  50  1   
 52  23  51  1   
 53  24  25  1   
 54  24  52  1   
 55  24  53  1   
 56  25  54  1   
@<TRIPOS>SUBSTRUCTURE
  1 ****   3 GROUP 4 **** **** 0

# MOE 2024.06 (io_trps.svl 2023.06)
