@<TRIPOS>MOLECULE
F6608-0278
33 34 1 0 0 
SMALL
USER_CHARGES


@<TRIPOS>ATOM
  1 BR       0.3060     0.0520    -0.3030 Br    1 <1>  -0.1110 
  2 C        0.0870     1.9510    -0.0600 C.ar  1 <1>   0.1110 
  3 C        1.1310     2.7200     0.3910 C.ar  1 <1>   0.1600 
  4 C       -1.1160     2.5530    -0.3360 C.ar  1 <1>   0.1600 
  5 N        0.9920     4.0190     0.5610 N.ar  1 <1>  -0.6200 
  6 N       -1.2800     3.8510    -0.1740 N.ar  1 <1>  -0.6200 
  7 C       -0.2060     4.5130     0.2690 C.ar  1 <1>   0.7030 
  8 O       -0.3180     5.8380     0.4510 O.3   1 <1>  -0.3620 
  9 C       -1.5160     6.5270     0.1740 C.3   1 <1>   0.1200 
 10 C       -1.3050     8.0210     0.4560 C.3   1 <1>  -0.0800 
 11 C       -2.6360     8.7740     0.2620 C.3   1 <1>   0.3430 
 12 C       -0.1730     8.6170    -0.4040 C.3   1 <1>  -0.1600 
 13 N       -2.4420    10.1700    -0.2570 N.4   1 <1>  -0.9590 
 14 C        0.0180    10.1160    -0.1050 C.3   1 <1>  -0.1600 
 15 C       -1.2580    10.8280     0.3620 C.3   1 <1>   0.3430 
 16 C       -3.6790    10.9890    -0.0890 C.3   1 <1>   0.2630 
 17 H        2.0820     2.2670     0.6130 H     1 <1>   0.1500 
 18 H       -1.9440     1.9640    -0.6900 H     1 <1>   0.1500 
 19 H       -2.2860     6.1170     0.8070 H     1 <1>   0.0800 
 20 H       -1.7680     6.3580    -0.8590 H     1 <1>   0.0800 
 21 H       -1.0310     8.1110     1.4940 H     1 <1>   0.0800 
 22 H       -3.1550     8.8020     1.2070 H     1 <1>   0.0800 
 23 H       -3.2530     8.2290    -0.4340 H     1 <1>   0.0800 
 24 H       -0.4110     8.4850    -1.4460 H     1 <1>   0.0800 
 25 H        0.7550     8.0980    -0.2210 H     1 <1>   0.0800 
 26 H       -2.2280    10.0920    -1.2620 H     1 <1>   0.4500 
 27 H        0.4040    10.6070    -0.9810 H     1 <1>   0.0800 
 28 H        0.7600    10.2320     0.6670 H     1 <1>   0.0800 
 29 H       -1.3340    10.7630     1.4360 H     1 <1>   0.0800 
 30 H       -1.2120    11.8690     0.0870 H     1 <1>   0.0800 
 31 H       -3.9190    11.0950     0.9560 H     1 <1>   0.0800 
 32 H       -4.5100    10.5180    -0.5890 H     1 <1>   0.0800 
 33 H       -3.5380    11.9710    -0.5120 H     1 <1>   0.0800 
@<TRIPOS>BOND
  1   1   2  1   
  2   2   3  ar  
  3   2   4  ar  
  4   3   5  ar  
  5   3  17  1   
  6   4   6  ar  
  7   4  18  1   
  8   5   7  ar  
  9   6   7  ar  
 10   7   8  1   
 11   8   9  1   
 12   9  10  1   
 13   9  19  1   
 14   9  20  1   
 15  10  11  1   
 16  10  12  1   
 17  10  21  1   
 18  11  13  1   
 19  11  22  1   
 20  11  23  1   
 21  12  14  1   
 22  12  24  1   
 23  12  25  1   
 24  13  15  1   
 25  13  16  1   
 26  13  26  1   
 27  14  15  1   
 28  14  27  1   
 29  14  28  1   
 30  15  29  1   
 31  15  30  1   
 32  16  31  1   
 33  16  32  1   
 34  16  33  1   
@<TRIPOS>SUBSTRUCTURE
  1 ****   8 GROUP 4 **** **** 0

# MOE 2024.06 (io_trps.svl 2023.06)
