@<TRIPOS>MOLECULE
NONAME
50 51 1 0 0 
SMALL
USER_CHARGES


@<TRIPOS>ATOM
  1 N       -0.0970     0.4570    -1.1310 N.ar  1 <1>  -0.1790 
  2 C       -0.0760     1.7830    -0.9620 C.ar  1 <1>   0.4610 
  3 C       -1.0920    -0.3760    -0.6480 C.ar  1 <1>   0.3610 
  4 N        0.9460     2.5020    -1.4690 N.pl3 1 <1>  -0.8690 
  5 C       -1.1540     2.3560    -0.2410 C.ar  1 <1>  -0.1500 
  6 C       -2.1620     0.1860     0.0710 C.ar  1 <1>   0.0000 
  7 C       -1.0390    -1.7560    -0.8680 C.ar  1 <1>  -0.1500 
  8 C        1.1150     3.9980    -1.4860 C.3   1 <1>   0.2090 
  9 C       -2.1690     1.6020     0.2650 C.ar  1 <1>  -0.1430 
 10 C       -3.1550    -0.6850     0.5500 C.ar  1 <1>  -0.1500 
 11 C       -2.0270    -2.5780    -0.3850 C.ar  1 <1>  -0.1500 
 12 C        1.9780     4.5380    -0.3060 C.3   1 <1>   0.4230 
 13 C       -3.3100     2.2600     1.0320 C.3   1 <1>  -0.0970 
 14 C       -3.0940    -2.0410     0.3300 C.ar  1 <1>  -0.1430 
 15 N        1.8990     6.0490    -0.2020 N.4   1 <1>  -0.9590 
 16 C        3.4370     4.0250    -0.3800 C.3   1 <1>  -0.1600 
 17 C       -4.1740    -2.9720     0.8530 C.3   1 <1>  -0.0970 
 18 C        2.4190     6.7900    -1.4030 C.3   1 <1>   0.2630 
 19 C        2.5680     6.5800     1.0300 C.3   1 <1>   0.2630 
 20 C        4.0080     3.6250     0.9920 C.3   1 <1>  -0.1600 
 21 C        5.4230     3.0600     0.8470 C.3   1 <1>  -0.2400 
 22 H        0.6520     0.0150    -1.6550 H     1 <1>   0.4570 
 23 H        1.7120     2.0360    -1.9750 H     1 <1>   0.4000 
 24 H       -1.1620     3.4180    -0.0930 H     1 <1>   0.1500 
 25 H       -0.2230    -2.1900    -1.4180 H     1 <1>   0.1500 
 26 H        0.1460     4.4650    -1.4590 H     1 <1>   0.0800 
 27 H        1.5780     4.2730    -2.4190 H     1 <1>   0.0800 
 28 H       -3.9870    -0.2860     1.1040 H     1 <1>   0.1500 
 29 H       -1.9880    -3.6430    -0.5540 H     1 <1>   0.1500 
 30 H        1.5410     4.1280     0.5900 H     1 <1>   0.0800 
 31 H       -3.1810     3.3260     1.0930 H     1 <1>   0.0800 
 32 H       -3.3570     1.8720     2.0350 H     1 <1>   0.0800 
 33 H       -4.2480     2.0670     0.5420 H     1 <1>   0.0800 
 34 H        0.9020     6.2970    -0.1060 H     1 <1>   0.4500 
 35 H        4.0830     4.7420    -0.8510 H     1 <1>   0.0800 
 36 H        3.4710     3.1410    -0.9920 H     1 <1>   0.0800 
 37 H       -4.9330    -2.4270     1.3850 H     1 <1>   0.0800 
 38 H       -3.7430    -3.6950     1.5230 H     1 <1>   0.0800 
 39 H       -4.6390    -3.4930     0.0350 H     1 <1>   0.0800 
 40 H        3.4750     6.6140    -1.5300 H     1 <1>   0.0800 
 41 H        2.2680     7.8510    -1.2800 H     1 <1>   0.0800 
 42 H        1.9060     6.4780    -2.2980 H     1 <1>   0.0800 
 43 H        3.6350     6.4380     0.9700 H     1 <1>   0.0800 
 44 H        2.2000     6.0740     1.9080 H     1 <1>   0.0800 
 45 H        2.3730     7.6360     1.1380 H     1 <1>   0.0800 
 46 H        3.3830     2.8730     1.4450 H     1 <1>   0.0800 
 47 H        4.0500     4.4640     1.6620 H     1 <1>   0.0800 
 48 H        5.4270     2.1850     0.2200 H     1 <1>   0.0800 
 49 H        5.8090     2.7810     1.8130 H     1 <1>   0.0800 
 50 H        6.0870     3.7930     0.4210 H     1 <1>   0.0800 
@<TRIPOS>BOND
  1   1   2  ar  
  2   1   3  ar  
  3   1  22  1   
  4   2   4  1   
  5   2   5  ar  
  6   3   6  ar  
  7   3   7  ar  
  8   4   8  1   
  9   4  23  1   
 10   5   9  ar  
 11   5  24  1   
 12   6   9  ar  
 13   6  10  ar  
 14   7  11  ar  
 15   7  25  1   
 16   8  12  1   
 17   8  26  1   
 18   8  27  1   
 19   9  13  1   
 20  10  14  ar  
 21  10  28  1   
 22  11  14  ar  
 23  11  29  1   
 24  12  15  1   
 25  12  16  1   
 26  12  30  1   
 27  13  31  1   
 28  13  32  1   
 29  13  33  1   
 30  14  17  1   
 31  15  18  1   
 32  15  19  1   
 33  15  34  1   
 34  16  20  1   
 35  16  35  1   
 36  16  36  1   
 37  17  37  1   
 38  17  38  1   
 39  17  39  1   
 40  18  40  1   
 41  18  41  1   
 42  18  42  1   
 43  19  43  1   
 44  19  44  1   
 45  19  45  1   
 46  20  21  1   
 47  20  46  1   
 48  20  47  1   
 49  21  48  1   
 50  21  49  1   
 51  21  50  1   
@<TRIPOS>SUBSTRUCTURE
  1 ****   2 GROUP 4 **** **** 0

# MOE 2024.06 (io_trps.svl 2023.06)
