@<TRIPOS>MOLECULE
NONAME
61 65 1 0 0 
SMALL
USER_CHARGES


@<TRIPOS>ATOM
  1 O       -0.6750     0.6750    -0.7840 O.2   1 <1>  -0.5700 
  2 C       -1.8700     0.4830    -0.9430 C.2   1 <1>   0.7160 
  3 N       -2.4190    -0.6130    -0.3150 N.am  1 <1>  -0.6600 
  4 C       -2.6350     1.4050    -1.7810 C.2   1 <1>   0.1410 
  5 C       -1.7360    -1.6620     0.4390 C.3   1 <1>   0.2200 
  6 C       -3.7950    -1.0270    -0.1110 C.3   1 <1>   0.2200 
  7 N       -3.8710     1.1640    -2.3230 N.2   1 <1>  -0.5650 
  8 C       -2.2370     2.6490    -2.1810 C.2   1 <1>  -0.3020 
  9 C       -2.2630    -2.9150    -0.3090 C.3   1 <1>   0.0610 
 10 C       -2.4180    -1.4470     1.8050 C.3   1 <1>  -0.1600 
 11 C       -3.7310    -2.4750    -0.6160 C.3   1 <1>  -0.1600 
 12 C       -3.8500    -1.0380     1.4190 C.3   1 <1>  -0.1600 
 13 C       -4.1590     2.2250    -2.9970 C.2   1 <1>   0.0360 
 14 N       -3.2000     3.1700    -2.9480 N.pl3 1 <1>   0.0330 
 15 C       -2.1860    -4.2140     0.5100 C.2   1 <1>   0.5690 
 16 C       -1.5000    -3.1190    -1.6470 C.3   1 <1>  -0.0160 
 17 O       -1.4130    -4.3210     1.4320 O.2   1 <1>  -0.5700 
 18 N       -2.9910    -5.2540     0.1550 N.am  1 <1>  -0.7300 
 19 C       -0.0160    -3.4300    -1.4860 C.ar  1 <1>  -0.1430 
 20 C       -3.0320    -6.5600     0.8280 C.3   1 <1>   0.2200 
 21 C        0.4160    -4.7310    -1.2790 C.ar  1 <1>  -0.1500 
 22 C        0.9220    -2.4120    -1.5580 C.ar  1 <1>  -0.1500 
 23 C       -2.7210    -7.6570    -0.1970 C.3   1 <1>  -0.1600 
 24 C       -4.4200    -6.7500     1.4510 C.3   1 <1>  -0.1600 
 25 C        1.7650    -5.0110    -1.1410 C.ar  1 <1>  -0.1500 
 26 C        2.2710    -2.6880    -1.4200 C.ar  1 <1>  -0.1500 
 27 C       -2.8560    -9.0550     0.4290 C.3   1 <1>  -0.1600 
 28 C       -4.5590    -8.1450     2.0820 C.3   1 <1>  -0.1600 
 29 C        2.6940    -3.9890    -1.2110 C.ar  1 <1>  -0.1500 
 30 C       -4.2400    -9.2400     1.0600 C.3   1 <1>   0.2000 
 31 O       -4.2620   -10.4540     1.7050 O.3   1 <1>  -0.6800 
 32 H       -0.6640    -1.5650     0.4690 H     1 <1>   0.0800 
 33 H       -4.5480    -0.4150    -0.5740 H     1 <1>   0.0800 
 34 H       -1.3160     3.1520    -1.9460 H     1 <1>   0.1500 
 35 H       -2.3960    -2.3110     2.4410 H     1 <1>   0.0800 
 36 H       -1.9240    -0.6400     2.3180 H     1 <1>   0.0800 
 37 H       -4.4680    -3.0740    -0.1130 H     1 <1>   0.0800 
 38 H       -3.9430    -2.4900    -1.6700 H     1 <1>   0.0800 
 39 H       -4.0730    -0.0500     1.7840 H     1 <1>   0.0800 
 40 H       -4.5880    -1.7260     1.7930 H     1 <1>   0.0800 
 41 H       -5.0700     2.3660    -3.5520 H     1 <1>   0.1500 
 42 H       -3.2120     4.0860    -3.4080 H     1 <1>   0.2700 
 43 H       -1.9560    -3.9240    -2.1940 H     1 <1>   0.0800 
 44 H       -1.5970    -2.2400    -2.2610 H     1 <1>   0.0800 
 45 H       -3.6270    -5.1520    -0.6350 H     1 <1>   0.3700 
 46 H       -2.2890    -6.5900     1.6100 H     1 <1>   0.0800 
 47 H       -0.2950    -5.5350    -1.2170 H     1 <1>   0.1500 
 48 H        0.6090    -1.3940    -1.7190 H     1 <1>   0.1500 
 49 H       -3.4000    -7.5790    -1.0280 H     1 <1>   0.0800 
 50 H       -1.7170    -7.5290    -0.5610 H     1 <1>   0.0800 
 51 H       -4.5720    -6.0010     2.2090 H     1 <1>   0.0800 
 52 H       -5.1760    -6.6300     0.6950 H     1 <1>   0.0800 
 53 H        2.0890    -6.0230    -0.9740 H     1 <1>   0.1500 
 54 H        2.9880    -1.8880    -1.4730 H     1 <1>   0.1500 
 55 H       -2.0950    -9.1720     1.1820 H     1 <1>   0.0800 
 56 H       -2.7060    -9.8020    -0.3300 H     1 <1>   0.0800 
 57 H       -5.5640    -8.2760     2.4430 H     1 <1>   0.0800 
 58 H       -3.8820    -8.2180     2.9150 H     1 <1>   0.0800 
 59 H        3.7420    -4.2040    -1.1010 H     1 <1>   0.1500 
 60 H       -4.9970    -9.2650     0.2930 H     1 <1>   0.0800 
 61 H       -3.5910   -10.4690     2.4120 H     1 <1>   0.4000 
@<TRIPOS>BOND
  1   1   2  2   
  2   2   3  am  
  3   2   4  1   
  4   3   5  1   
  5   3   6  1   
  6   4   7  1   
  7   4   8  2   
  8   5   9  1   
  9   5  10  1   
 10   5  32  1   
 11   6  11  1   
 12   6  12  1   
 13   6  33  1   
 14   7  13  2   
 15   8  14  1   
 16   8  34  1   
 17   9  11  1   
 18   9  15  1   
 19   9  16  1   
 20  10  12  1   
 21  10  35  1   
 22  10  36  1   
 23  11  37  1   
 24  11  38  1   
 25  12  39  1   
 26  12  40  1   
 27  13  14  1   
 28  13  41  1   
 29  14  42  1   
 30  15  17  2   
 31  15  18  am  
 32  16  19  1   
 33  16  43  1   
 34  16  44  1   
 35  18  20  1   
 36  18  45  1   
 37  19  21  ar  
 38  19  22  ar  
 39  20  23  1   
 40  20  24  1   
 41  20  46  1   
 42  21  25  ar  
 43  21  47  1   
 44  22  26  ar  
 45  22  48  1   
 46  23  27  1   
 47  23  49  1   
 48  23  50  1   
 49  24  28  1   
 50  24  51  1   
 51  24  52  1   
 52  25  29  ar  
 53  25  53  1   
 54  26  29  ar  
 55  26  54  1   
 56  27  30  1   
 57  27  55  1   
 58  27  56  1   
 59  28  30  1   
 60  28  57  1   
 61  28  58  1   
 62  29  59  1   
 63  30  31  1   
 64  30  60  1   
 65  31  61  1   
@<TRIPOS>SUBSTRUCTURE
  1 ****   9 GROUP 4 **** **** 0

# MOE 2024.06 (io_trps.svl 2023.06)
