@<TRIPOS>MOLECULE
NONAME
53 56 1 0 0 
SMALL
USER_CHARGES


@<TRIPOS>ATOM
  1 O        0.0750    -0.8130     1.0310 O.3   1 <1>  -0.3630 
  2 C       -0.3210    -1.8890     0.3030 C.ar  1 <1>   0.0820 
  3 C       -0.0370     0.4590     0.4290 C.3   1 <1>   0.1200 
  4 C       -1.4230    -1.8770    -0.5620 C.ar  1 <1>   0.0820 
  5 C        0.4430    -3.0360     0.4240 C.ar  1 <1>  -0.1500 
  6 C       -1.4490     1.0130     0.6320 C.3   1 <1>  -0.1600 
  7 O       -2.2780    -0.8270    -0.6940 O.3   1 <1>  -0.3630 
  8 C       -1.7040    -2.9960    -1.3250 C.ar  1 <1>  -0.1500 
  9 C        0.1420    -4.1670    -0.3290 C.ar  1 <1>   0.0820 
 10 C       -2.5430    -0.0410     0.4490 C.3   1 <1>   0.1200 
 11 C       -0.9370    -4.1470    -1.2060 C.ar  1 <1>  -0.1430 
 12 O        0.8670    -5.3170    -0.2570 O.3   1 <1>  -0.3630 
 13 C       -1.2650    -5.3740    -2.0400 C.3   1 <1>   0.4860 
 14 C        2.1190    -5.3400     0.3990 C.3   1 <1>   0.0400 
 15 N       -2.2570    -6.2450    -1.3440 N.4   1 <1>  -0.9590 
 16 C       -3.5760    -5.5880    -1.0680 C.3   1 <1>   0.3430 
 17 C       -1.7130    -6.8470    -0.0830 C.3   1 <1>   0.3430 
 18 C       -4.5760    -6.5830    -0.4260 C.3   1 <1>   0.1100 
 19 C       -2.7280    -7.8280     0.5530 C.3   1 <1>   0.1100 
 20 N       -3.9880    -7.9300    -0.2320 N.3   1 <1>  -0.8100 
 21 C       -4.9530    -8.8480     0.4170 C.3   1 <1>   0.2900 
 22 C       -4.4870   -10.2940     0.3590 C.2   1 <1>  -0.0400 
 23 O       -4.9650   -11.1360     1.2550 O.3   1 <1>  -0.2800 
 24 C       -3.6380   -10.9320    -0.4780 C.2   1 <1>  -0.1500 
 25 C       -4.4350   -12.3190     1.0170 C.2   1 <1>  -0.0100 
 26 C       -3.6020   -12.2630    -0.0440 C.2   1 <1>  -0.1500 
 27 H        0.1950     0.3610    -0.6180 H     1 <1>   0.0800 
 28 H        0.6910     1.1060     0.8850 H     1 <1>   0.0800 
 29 H        1.2690    -3.0110     1.1080 H     1 <1>   0.1500 
 30 H       -1.6100     1.8190    -0.0620 H     1 <1>   0.0800 
 31 H       -1.5270     1.4270     1.6210 H     1 <1>   0.0800 
 32 H       -2.5340    -2.9440    -2.0070 H     1 <1>   0.1500 
 33 H       -3.4990     0.4320     0.3100 H     1 <1>   0.0800 
 34 H       -2.5990    -0.6920     1.3050 H     1 <1>   0.0800 
 35 H       -0.3590    -5.9290    -2.2230 H     1 <1>   0.0800 
 36 H       -1.6590    -5.0600    -2.9920 H     1 <1>   0.0800 
 37 H        2.5630    -6.3080     0.2480 H     1 <1>   0.0800 
 38 H        1.9710    -5.1700     1.4510 H     1 <1>   0.0800 
 39 H        2.7530    -4.5810    -0.0250 H     1 <1>   0.0800 
 40 H       -2.4910    -7.0600    -1.9280 H     1 <1>   0.4500 
 41 H       -3.9980    -5.2090    -1.9840 H     1 <1>   0.0800 
 42 H       -3.4360    -4.7520    -0.4010 H     1 <1>   0.0800 
 43 H       -1.4820    -6.0690     0.6260 H     1 <1>   0.0800 
 44 H       -0.7960    -7.3740    -0.2920 H     1 <1>   0.0800 
 45 H       -5.4420    -6.6600    -1.0620 H     1 <1>   0.0800 
 46 H       -4.9040    -6.1850     0.5200 H     1 <1>   0.0800 
 47 H       -2.9450    -7.5030     1.5560 H     1 <1>   0.0800 
 48 H       -2.2660    -8.7980     0.6270 H     1 <1>   0.0800 
 49 H       -5.9080    -8.7880    -0.0780 H     1 <1>   0.0800 
 50 H       -5.0920    -8.5640     1.4460 H     1 <1>   0.0800 
 51 H       -3.0950   -10.5320    -1.3140 H     1 <1>   0.1500 
 52 H       -4.7050   -13.1460     1.6500 H     1 <1>   0.1500 
 53 H       -3.0230   -13.0530    -0.4870 H     1 <1>   0.1500 
@<TRIPOS>BOND
  1   1   2  1   
  2   1   3  1   
  3   2   4  ar  
  4   2   5  ar  
  5   3   6  1   
  6   3  27  1   
  7   3  28  1   
  8   4   7  1   
  9   4   8  ar  
 10   5   9  ar  
 11   5  29  1   
 12   6  10  1   
 13   6  30  1   
 14   6  31  1   
 15   7  10  1   
 16   8  11  ar  
 17   8  32  1   
 18   9  11  ar  
 19   9  12  1   
 20  10  33  1   
 21  10  34  1   
 22  11  13  1   
 23  12  14  1   
 24  13  15  1   
 25  13  35  1   
 26  13  36  1   
 27  14  37  1   
 28  14  38  1   
 29  14  39  1   
 30  15  16  1   
 31  15  17  1   
 32  15  40  1   
 33  16  18  1   
 34  16  41  1   
 35  16  42  1   
 36  17  19  1   
 37  17  43  1   
 38  17  44  1   
 39  18  20  1   
 40  18  45  1   
 41  18  46  1   
 42  19  20  1   
 43  19  47  1   
 44  19  48  1   
 45  20  21  1   
 46  21  22  1   
 47  21  49  1   
 48  21  50  1   
 49  22  23  1   
 50  22  24  2   
 51  23  25  1   
 52  24  26  1   
 53  24  51  1   
 54  25  26  2   
 55  25  52  1   
 56  26  53  1   
@<TRIPOS>SUBSTRUCTURE
  1 ****  17 GROUP 4 **** **** 0

# MOE 2024.06 (io_trps.svl 2023.06)
