@<TRIPOS>MOLECULE
NONAME
50 52 1 0 0 
SMALL
USER_CHARGES


@<TRIPOS>ATOM
  1 F        1.8320     1.4940     2.3850 F     1 <1>  -0.1900 
  2 C        1.9460     2.3420     1.3960 C.ar  1 <1>   0.1900 
  3 C        1.9230     3.6890     1.6670 C.ar  1 <1>  -0.1500 
  4 C        2.0850     1.8250     0.1040 C.ar  1 <1>  -0.1500 
  5 C        2.0470     4.5630     0.5890 C.ar  1 <1>   0.2270 
  6 C        2.2070     2.6920    -0.9590 C.ar  1 <1>  -0.1500 
  7 N        2.0560     5.9260     0.5730 N.2   1 <1>  -0.5650 
  8 C        2.1860     4.0660    -0.6970 C.ar  1 <1>  -0.1520 
  9 C        2.1940     6.2340    -0.6690 C.2   1 <1>   0.0060 
 10 N        2.2790     5.1580    -1.4960 N.pl3 1 <1>   0.0330 
 11 C        2.2590     7.6640    -1.1700 C.3   1 <1>   0.0200 
 12 C        2.0330     8.6230     0.0040 C.3   1 <1>   0.3430 
 13 N        2.1820    10.0590    -0.4020 N.4   1 <1>  -0.9590 
 14 C        3.4310    10.7490     0.1160 C.3   1 <1>   0.4840 
 15 C        0.9550    10.8300    -0.0200 C.3   1 <1>   0.2630 
 16 C        3.5860    12.1810    -0.4590 C.2   1 <1>   0.5690 
 17 C        4.6780     9.9270    -0.2330 C.3   1 <1>  -0.2400 
 18 O        3.1200    12.3950    -1.5550 O.2   1 <1>  -0.5700 
 19 N        4.2080    13.1550     0.2600 N.am  1 <1>  -0.7300 
 20 C        4.4250    14.5380    -0.2050 C.3   1 <1>   0.2200 
 21 C        5.9220    14.8180    -0.2160 C.3   1 <1>  -0.1600 
 22 C        3.8990    15.4970     0.8550 C.3   1 <1>  -0.1600 
 23 C        6.2970    15.1470     1.2340 C.3   1 <1>  -0.1600 
 24 C        4.9970    15.5850     1.9220 C.3   1 <1>  -0.1600 
 25 H        1.8160     4.0680     2.6640 H     1 <1>   0.1500 
 26 H        2.0950     0.7580    -0.0350 H     1 <1>   0.1500 
 27 H        2.3160     2.3270    -1.9660 H     1 <1>   0.1500 
 28 H        2.3920     5.1460    -2.5140 H     1 <1>   0.2700 
 29 H        1.4960     7.8120    -1.9120 H     1 <1>   0.0800 
 30 H        3.2260     7.8290    -1.6090 H     1 <1>   0.0800 
 31 H        2.7270     8.3840     0.7950 H     1 <1>   0.0800 
 32 H        1.0430     8.4470     0.3920 H     1 <1>   0.0800 
 33 H        2.2580    10.1350    -1.4300 H     1 <1>   0.4500 
 34 H        3.3640    10.8320     1.1870 H     1 <1>   0.0800 
 35 H        0.8470    10.8600     1.0520 H     1 <1>   0.0800 
 36 H        0.0770    10.3680    -0.4430 H     1 <1>   0.0800 
 37 H        1.0140    11.8410    -0.3920 H     1 <1>   0.0800 
 38 H        4.7540     9.7860    -1.2970 H     1 <1>   0.0800 
 39 H        4.6860     8.9760     0.2660 H     1 <1>   0.0800 
 40 H        5.5560    10.4600     0.0880 H     1 <1>   0.0800 
 41 H        4.6370    12.9840     1.1710 H     1 <1>   0.3700 
 42 H        3.9710    14.7030    -1.1700 H     1 <1>   0.0800 
 43 H        6.0990    15.6880    -0.8250 H     1 <1>   0.0800 
 44 H        6.4920    14.0000    -0.6210 H     1 <1>   0.0800 
 45 H        2.9490    15.1890     1.2560 H     1 <1>   0.0800 
 46 H        3.7780    16.4660     0.4030 H     1 <1>   0.0800 
 47 H        7.0390    15.9270     1.2680 H     1 <1>   0.0800 
 48 H        6.6930    14.2740     1.7230 H     1 <1>   0.0800 
 49 H        4.7750    14.9220     2.7400 H     1 <1>   0.0800 
 50 H        5.0760    16.5890     2.3050 H     1 <1>   0.0800 
@<TRIPOS>BOND
  1   1   2  1   
  2   2   3  ar  
  3   2   4  ar  
  4   3   5  ar  
  5   3  25  1   
  6   4   6  ar  
  7   4  26  1   
  8   5   7  1   
  9   5   8  ar  
 10   6   8  ar  
 11   6  27  1   
 12   7   9  2   
 13   8  10  1   
 14   9  10  1   
 15   9  11  1   
 16  10  28  1   
 17  11  12  1   
 18  11  29  1   
 19  11  30  1   
 20  12  13  1   
 21  12  31  1   
 22  12  32  1   
 23  13  14  1   
 24  13  15  1   
 25  13  33  1   
 26  14  16  1   
 27  14  17  1   
 28  14  34  1   
 29  15  35  1   
 30  15  36  1   
 31  15  37  1   
 32  16  18  2   
 33  16  19  am  
 34  17  38  1   
 35  17  39  1   
 36  17  40  1   
 37  19  20  1   
 38  19  41  1   
 39  20  21  1   
 40  20  22  1   
 41  20  42  1   
 42  21  23  1   
 43  21  43  1   
 44  21  44  1   
 45  22  24  1   
 46  22  45  1   
 47  22  46  1   
 48  23  24  1   
 49  23  47  1   
 50  23  48  1   
 51  24  49  1   
 52  24  50  1   
@<TRIPOS>SUBSTRUCTURE
  1 ****  12 GROUP 4 **** **** 0

# MOE 2024.06 (io_trps.svl 2023.06)
