@<TRIPOS>MOLECULE
NONAME
46 48 1 0 0 
SMALL
USER_CHARGES


@<TRIPOS>ATOM
  1 S       -0.5080     0.4050    -0.3950 S.o2  1 <1>   1.5760 
  2 O       -0.7020     1.8360    -0.4070 O.2   1 <1>  -0.6500 
  3 O       -0.7340    -0.3700    -1.5930 O.2   1 <1>  -0.6500 
  4 N       -1.4390    -0.2560     0.8500 N.am  1 <1>  -0.8490 
  5 N        1.0450     0.0840     0.1890 N.am  1 <1>  -0.8490 
  6 C       -1.3430    -1.7310     0.9460 C.3   1 <1>   0.1960 
  7 C       -2.8540     0.1490     0.7760 C.3   1 <1>   0.1960 
  8 C        2.0430     0.3050    -0.8570 C.3   1 <1>   0.1960 
  9 C        1.3400     0.8750     1.3940 C.3   1 <1>   0.1160 
 10 C       -2.2440    -2.5070    -0.0500 C.3   1 <1>   0.3440 
 11 C       -3.6630    -0.6520    -0.2700 C.3   1 <1>   0.2950 
 12 C        3.3830    -0.3240    -0.4760 C.3   1 <1>  -0.2400 
 13 O       -3.5580    -2.0190    -0.0010 O.3   1 <1>  -0.5600 
 14 C       -2.2420    -3.9940     0.2910 C.ar  1 <1>  -0.1430 
 15 C       -5.1500    -0.2900    -0.2260 C.3   1 <1>  -0.1950 
 16 C       -3.1170    -4.5240     1.2300 C.ar  1 <1>  -0.1500 
 17 C       -1.3370    -4.8390    -0.3370 C.ar  1 <1>  -0.1500 
 18 C       -6.0390    -0.5320    -1.4050 C.3   1 <1>  -0.2000 
 19 C       -5.6830     0.8720    -1.0050 C.3   1 <1>  -0.2000 
 20 C       -3.0860    -5.8730     1.5390 C.ar  1 <1>  -0.1500 
 21 C       -1.3050    -6.1880    -0.0290 C.ar  1 <1>  -0.1500 
 22 C       -2.1790    -6.7060     0.9100 C.ar  1 <1>  -0.1500 
 23 H       -0.3220    -2.0450     0.8140 H     1 <1>   0.0800 
 24 H       -1.6310    -2.0230     1.9410 H     1 <1>   0.0800 
 25 H       -3.3070    -0.0050     1.7400 H     1 <1>   0.0800 
 26 H       -2.9280     1.2010     0.5580 H     1 <1>   0.0800 
 27 H        1.7140    -0.1630    -1.7710 H     1 <1>   0.0800 
 28 H        2.1580     1.3600    -1.0500 H     1 <1>   0.0800 
 29 H        2.2720     0.5660     1.8310 H     1 <1>   0.0800 
 30 H        0.5710     0.7290     2.1320 H     1 <1>   0.0800 
 31 H        1.3910     1.9240     1.1550 H     1 <1>   0.0800 
 32 H       -1.8890    -2.3900    -1.0570 H     1 <1>   0.0800 
 33 H       -3.2830    -0.4710    -1.2610 H     1 <1>   0.0800 
 34 H        3.2420    -1.3530    -0.1990 H     1 <1>   0.0800 
 35 H        3.8500     0.2080     0.3310 H     1 <1>   0.0800 
 36 H        4.0460    -0.2880    -1.3220 H     1 <1>   0.0800 
 37 H       -5.5770    -0.4610     0.7470 H     1 <1>   0.1000 
 38 H       -3.8300    -3.8840     1.7210 H     1 <1>   0.1500 
 39 H       -0.6520    -4.4500    -1.0700 H     1 <1>   0.1500 
 40 H       -5.6070    -0.9500    -2.2980 H     1 <1>   0.1000 
 41 H       -7.0370    -0.8930    -1.2250 H     1 <1>   0.1000 
 42 H       -6.4460     1.4890    -0.5620 H     1 <1>   0.1000 
 43 H       -5.0230     1.4310    -1.6460 H     1 <1>   0.1000 
 44 H       -3.7700    -6.2720     2.2670 H     1 <1>   0.1500 
 45 H       -0.6000    -6.8350    -0.5220 H     1 <1>   0.1500 
 46 H       -2.1550    -7.7550     1.1480 H     1 <1>   0.1500 
@<TRIPOS>BOND
  1   1   2  2   
  2   1   3  2   
  3   1   4  am  
  4   1   5  am  
  5   4   6  1   
  6   4   7  1   
  7   5   8  1   
  8   5   9  1   
  9   6  10  1   
 10   6  23  1   
 11   6  24  1   
 12   7  11  1   
 13   7  25  1   
 14   7  26  1   
 15   8  12  1   
 16   8  27  1   
 17   8  28  1   
 18   9  29  1   
 19   9  30  1   
 20   9  31  1   
 21  10  13  1   
 22  10  14  1   
 23  10  32  1   
 24  11  13  1   
 25  11  15  1   
 26  11  33  1   
 27  12  34  1   
 28  12  35  1   
 29  12  36  1   
 30  14  16  ar  
 31  14  17  ar  
 32  15  18  1   
 33  15  19  1   
 34  15  37  1   
 35  16  20  ar  
 36  16  38  1   
 37  17  21  ar  
 38  17  39  1   
 39  18  19  1   
 40  18  40  1   
 41  18  41  1   
 42  19  42  1   
 43  19  43  1   
 44  20  22  ar  
 45  20  44  1   
 46  21  22  ar  
 47  21  45  1   
 48  22  46  1   
@<TRIPOS>SUBSTRUCTURE
  1 ****  10 GROUP 4 **** **** 0

# MOE 2024.06 (io_trps.svl 2023.06)
