@<TRIPOS>MOLECULE
NONAME
51 53 1 0 0 
SMALL
USER_CHARGES


@<TRIPOS>ATOM
  1 O       -3.0330     0.3070    -1.7430 O.2   1 <1>  -0.5700 
  2 C       -2.5430     0.9340    -0.8230 C.2   1 <1>   0.5440 
  3 N       -2.7490     0.4110     0.4270 N.am  1 <1>  -0.6600 
  4 C       -1.9320     2.2300    -1.0520 C.ar  1 <1>   0.0860 
  5 C       -2.4340    -1.0270     0.6930 C.3   1 <1>   0.3210 
  6 C       -3.4540     1.1870     1.4970 C.3   1 <1>   0.1400 
  7 C       -0.9840     2.7920    -0.1650 C.ar  1 <1>   0.0000 
  8 C       -2.2770     2.9900    -2.1630 C.ar  1 <1>  -0.1500 
  9 C       -3.6690    -1.9280     0.7230 C.2   1 <1>   0.0460 
 10 C       -4.9860     1.0110     1.4230 C.3   1 <1>   0.3430 
 11 C       -0.4830     4.0760    -0.3840 C.ar  1 <1>  -0.1520 
 12 C       -0.3420     2.3300     1.0060 C.2   1 <1>  -0.1500 
 13 C       -1.7610     4.2670    -2.3850 C.ar  1 <1>  -0.1500 
 14 N       -4.4490    -2.0170     1.8230 N.2   1 <1>  -0.5650 
 15 C       -4.1150    -2.7640    -0.2450 C.2   1 <1>  -0.3320 
 16 N       -5.4580     0.8690     0.0080 N.4   1 <1>  -0.9590 
 17 N        0.3980     4.3880     0.6240 N.pl3 1 <1>   0.0480 
 18 C       -0.8710     4.8210    -1.4970 C.ar  1 <1>  -0.1500 
 19 C        0.4730     3.3120     1.4560 C.2   1 <1>  -0.3020 
 20 C       -5.3160    -2.9280     1.5190 C.2   1 <1>   0.0360 
 21 N       -5.1710    -3.4180     0.2710 N.pl3 1 <1>   0.0330 
 22 C       -3.5970    -3.0290    -1.6500 C.3   1 <1>  -0.0600 
 23 C       -5.6280     2.1730    -0.6920 C.3   1 <1>   0.2630 
 24 C       -6.6710     0.0140    -0.0750 C.3   1 <1>   0.2630 
 25 C        1.1650     5.6380     0.7550 C.3   1 <1>   0.0160 
 26 H       -1.9200    -1.1110     1.6340 H     1 <1>   0.0800 
 27 H       -1.7640    -1.3830    -0.0690 H     1 <1>   0.0800 
 28 H       -3.2230     2.2330     1.3940 H     1 <1>   0.0800 
 29 H       -3.1040     0.8750     2.4660 H     1 <1>   0.0800 
 30 H       -2.9640     2.5870    -2.8870 H     1 <1>   0.1500 
 31 H       -5.4770     1.8390     1.9070 H     1 <1>   0.0800 
 32 H       -5.2430     0.1240     1.9740 H     1 <1>   0.0800 
 33 H       -0.4800     1.3580     1.4430 H     1 <1>   0.1500 
 34 H       -2.0640     4.8160    -3.2610 H     1 <1>   0.1500 
 35 H       -4.6830     0.3470    -0.4660 H     1 <1>   0.4500 
 36 H       -0.4700     5.8060    -1.6590 H     1 <1>   0.1500 
 37 H        1.1120     3.3030     2.3210 H     1 <1>   0.1500 
 38 H       -6.0850    -3.2820     2.1850 H     1 <1>   0.1500 
 39 H       -5.7240    -4.1600    -0.1720 H     1 <1>   0.2700 
 40 H       -2.7520    -2.4030    -1.8740 H     1 <1>   0.0800 
 41 H       -4.3640    -2.8230    -2.3760 H     1 <1>   0.0800 
 42 H       -3.2920    -4.0560    -1.7480 H     1 <1>   0.0800 
 43 H       -6.4210     2.7440    -0.2380 H     1 <1>   0.0800 
 44 H       -5.8680     2.0060    -1.7300 H     1 <1>   0.0800 
 45 H       -4.7150     2.7440    -0.6430 H     1 <1>   0.0800 
 46 H       -7.5000     0.4870     0.4240 H     1 <1>   0.0800 
 47 H       -6.4790    -0.9370     0.3930 H     1 <1>   0.0800 
 48 H       -6.9330    -0.1580    -1.1060 H     1 <1>   0.0800 
 49 H        0.4840     6.4680     0.8080 H     1 <1>   0.0800 
 50 H        1.8070     5.7510    -0.1000 H     1 <1>   0.0800 
 51 H        1.7610     5.6050     1.6480 H     1 <1>   0.0800 
@<TRIPOS>BOND
  1   1   2  2   
  2   2   3  am  
  3   2   4  1   
  4   3   5  1   
  5   3   6  1   
  6   4   7  ar  
  7   4   8  ar  
  8   5   9  1   
  9   5  26  1   
 10   5  27  1   
 11   6  10  1   
 12   6  28  1   
 13   6  29  1   
 14   7  11  ar  
 15   7  12  1   
 16   8  13  ar  
 17   8  30  1   
 18   9  14  1   
 19   9  15  2   
 20  10  16  1   
 21  10  31  1   
 22  10  32  1   
 23  11  17  1   
 24  11  18  ar  
 25  12  19  2   
 26  12  33  1   
 27  13  18  ar  
 28  13  34  1   
 29  14  20  2   
 30  15  21  1   
 31  15  22  1   
 32  16  23  1   
 33  16  24  1   
 34  16  35  1   
 35  17  19  1   
 36  17  25  1   
 37  18  36  1   
 38  19  37  1   
 39  20  21  1   
 40  20  38  1   
 41  21  39  1   
 42  22  40  1   
 43  22  41  1   
 44  22  42  1   
 45  23  43  1   
 46  23  44  1   
 47  23  45  1   
 48  24  46  1   
 49  24  47  1   
 50  24  48  1   
 51  25  49  1   
 52  25  50  1   
 53  25  51  1   
@<TRIPOS>SUBSTRUCTURE
  1 ****   3 GROUP 4 **** **** 0

# MOE 2024.06 (io_trps.svl 2023.06)
