@<TRIPOS>MOLECULE
NONAME
37 40 1 0 0 
SMALL
USER_CHARGES


@<TRIPOS>ATOM
  1 CL      -0.3640    -0.7630    -1.6770 Cl    1 <1>  -0.1770 
  2 C        0.9940    -0.9980    -0.6010 C.ar  1 <1>   0.1770 
  3 C        1.4350    -2.2790    -0.2580 C.ar  1 <1>   0.0540 
  4 C        1.5920     0.1440    -0.0990 C.ar  1 <1>  -0.1500 
  5 C        0.8430    -3.4920    -0.7820 C.2   1 <1>   0.4620 
  6 C        2.5050    -2.3540     0.6370 C.ar  1 <1>  -0.1500 
  7 C        2.6560     0.0360     0.7790 C.ar  1 <1>  -0.1500 
  8 N        0.5070    -3.7170    -2.0010 N.2   1 <1>  -0.4100 
  9 N        0.6260    -4.5540    -0.0020 N.2   1 <1>  -0.5650 
 10 C        3.1090    -1.2180     1.1480 C.ar  1 <1>  -0.1500 
 11 O        0.0260    -4.9200    -2.0640 O.3   1 <1>  -0.0190 
 12 C        0.1240    -5.3700    -0.8390 C.2   1 <1>   0.2980 
 13 C       -0.3220    -6.8010    -0.5460 C.3   1 <1>   0.2900 
 14 N       -1.7140    -7.0750    -0.9360 N.3   1 <1>  -0.8100 
 15 C       -2.6770    -6.3440    -0.0770 C.3   1 <1>   0.2050 
 16 C       -2.0320    -8.5120    -0.7830 C.3   1 <1>   0.2050 
 17 C       -3.9100    -7.2240     0.0280 C.3   1 <1>  -0.2420 
 18 C       -3.5040    -8.5970    -0.4290 C.3   1 <1>  -0.2420 
 19 C       -4.7970    -6.7940     1.2030 C.2   1 <1>   0.9470 
 20 C       -4.5410    -7.8220    -1.2040 C.3   1 <1>  -0.2000 
 21 C       -3.8560    -9.9890     0.1120 C.2   1 <1>   0.9470 
 22 O       -5.9760    -6.4730     0.9970 O.co2 1 <1>  -0.9000 
 23 O       -4.2750    -6.6230     2.3150 O.co2 1 <1>  -0.9000 
 24 O       -4.8000   -10.6240    -0.3790 O.co2 1 <1>  -0.9000 
 25 O       -3.0820   -10.5290     0.9180 O.co2 1 <1>  -0.9000 
 26 H        1.2230     1.1100    -0.3930 H     1 <1>   0.1500 
 27 H        2.8680    -3.3230     0.9350 H     1 <1>   0.1500 
 28 H        3.1260     0.9210     1.1740 H     1 <1>   0.1500 
 29 H        3.9340    -1.3100     1.8340 H     1 <1>   0.1500 
 30 H       -0.1960    -7.0020     0.5040 H     1 <1>   0.0800 
 31 H        0.3240    -7.4640    -1.0920 H     1 <1>   0.0800 
 32 H       -2.2690    -6.1990     0.9110 H     1 <1>   0.0800 
 33 H       -2.9230    -5.3880    -0.5030 H     1 <1>   0.0800 
 34 H       -1.8280    -9.0500    -1.6920 H     1 <1>   0.0800 
 35 H       -1.4580    -8.9400     0.0230 H     1 <1>   0.0800 
 36 H       -4.2910    -7.4260    -2.1700 H     1 <1>   0.1000 
 37 H       -5.5670    -8.1430    -1.1360 H     1 <1>   0.1000 
@<TRIPOS>BOND
  1   1   2  1   
  2   2   3  ar  
  3   2   4  ar  
  4   3   5  1   
  5   3   6  ar  
  6   4   7  ar  
  7   4  26  1   
  8   5   8  2   
  9   5   9  1   
 10   6  10  ar  
 11   6  27  1   
 12   7  10  ar  
 13   7  28  1   
 14   8  11  1   
 15   9  12  2   
 16  10  29  1   
 17  11  12  1   
 18  12  13  1   
 19  13  14  1   
 20  13  30  1   
 21  13  31  1   
 22  14  15  1   
 23  14  16  1   
 24  15  17  1   
 25  15  32  1   
 26  15  33  1   
 27  16  18  1   
 28  16  34  1   
 29  16  35  1   
 30  17  18  1   
 31  17  19  1   
 32  17  20  1   
 33  18  20  1   
 34  18  21  1   
 35  19  22  ar  
 36  19  23  ar  
 37  20  36  1   
 38  20  37  1   
 39  21  24  ar  
 40  21  25  ar  
@<TRIPOS>SUBSTRUCTURE
  1 ****  12 GROUP 4 **** **** 0

# MOE 2024.06 (io_trps.svl 2023.06)
