@<TRIPOS>MOLECULE
NONAME
46 47 1 0 0 
SMALL
USER_CHARGES


@<TRIPOS>ATOM
  1 F       -1.5640    -1.5420     1.6080 F     1 <1>  -0.3400 
  2 C       -1.7290    -2.0870     0.4070 C.3   1 <1>   1.1640 
  3 F       -1.0550    -1.3200    -0.4420 F     1 <1>  -0.3400 
  4 F       -3.0190    -1.9320     0.1150 F     1 <1>  -0.3400 
  5 C       -1.3160    -3.5890     0.3500 C.ar  1 <1>   0.1660 
  6 N       -1.3000    -4.2140    -0.8370 N.ar  1 <1>  -0.6200 
  7 C       -0.9930    -4.2600     1.5290 C.ar  1 <1>  -0.1500 
  8 C       -0.9290    -5.4830    -0.8440 C.ar  1 <1>   0.1600 
  9 C       -0.6650    -5.5980     1.5030 C.ar  1 <1>  -0.1500 
 10 C       -0.6540    -6.2490     0.2810 C.ar  1 <1>   0.0860 
 11 C       -0.4090    -7.6690     0.1840 C.2   1 <1>   0.5440 
 12 O        0.7010    -8.0960     0.4130 O.2   1 <1>  -0.5700 
 13 N       -1.4230    -8.5510    -0.1230 N.am  1 <1>  -0.6600 
 14 C       -1.2090   -10.0150     0.1550 C.3   1 <1>   0.3210 
 15 C       -2.7430    -8.1460    -0.7010 C.3   1 <1>   0.1400 
 16 C       -2.4880   -10.7760     0.5210 C.2   1 <1>   0.0460 
 17 C       -3.6640    -7.5520     0.3820 C.3   1 <1>   0.3430 
 18 N       -3.2650   -10.3940     1.5610 N.2   1 <1>  -0.5650 
 19 C       -2.9980   -11.8840    -0.0710 C.2   1 <1>  -0.3320 
 20 N       -4.8070    -6.7560    -0.1850 N.4   1 <1>  -0.9590 
 21 C       -4.2020   -11.2840     1.5950 C.2   1 <1>   0.0360 
 22 N       -4.1010   -12.2150     0.6270 N.pl3 1 <1>   0.0330 
 23 C       -2.5180   -12.7070    -1.2560 C.3   1 <1>  -0.0600 
 24 C       -4.3610    -5.4560    -0.7870 C.3   1 <1>   0.2630 
 25 C       -5.8160    -6.5060     0.8890 C.3   1 <1>   0.2630 
 26 H       -0.9960    -3.7480     2.4770 H     1 <1>   0.1500 
 27 H       -0.8500    -5.9620    -1.8070 H     1 <1>   0.1500 
 28 H       -0.4180    -6.1350     2.4060 H     1 <1>   0.1500 
 29 H       -0.5230   -10.1260     0.9770 H     1 <1>   0.0800 
 30 H       -0.7520   -10.4640    -0.7070 H     1 <1>   0.0800 
 31 H       -3.2220    -8.9980    -1.1520 H     1 <1>   0.0800 
 32 H       -2.5700    -7.4300    -1.4810 H     1 <1>   0.0800 
 33 H       -3.0820    -6.9210     1.0320 H     1 <1>   0.0800 
 34 H       -4.0580    -8.3570     0.9760 H     1 <1>   0.0800 
 35 H       -5.2620    -7.3270    -0.9140 H     1 <1>   0.4500 
 36 H       -4.9960   -11.3050     2.3220 H     1 <1>   0.1500 
 37 H       -4.7180   -13.0200     0.4760 H     1 <1>   0.2700 
 38 H       -1.6240   -12.2890    -1.6820 H     1 <1>   0.0800 
 39 H       -3.2750   -12.7370    -2.0200 H     1 <1>   0.0800 
 40 H       -2.3020   -13.7130    -0.9430 H     1 <1>   0.0800 
 41 H       -3.8630    -4.8500    -0.0480 H     1 <1>   0.0800 
 42 H       -5.2090    -4.9070    -1.1650 H     1 <1>   0.0800 
 43 H       -3.6770    -5.6270    -1.6020 H     1 <1>   0.0800 
 44 H       -5.3840    -5.9160     1.6810 H     1 <1>   0.0800 
 45 H       -6.1580    -7.4400     1.3060 H     1 <1>   0.0800 
 46 H       -6.6670    -5.9770     0.4900 H     1 <1>   0.0800 
@<TRIPOS>BOND
  1   1   2  1   
  2   2   3  1   
  3   2   4  1   
  4   2   5  1   
  5   5   6  ar  
  6   5   7  ar  
  7   6   8  ar  
  8   7   9  ar  
  9   7  26  1   
 10   8  10  ar  
 11   8  27  1   
 12   9  10  ar  
 13   9  28  1   
 14  10  11  1   
 15  11  12  2   
 16  11  13  am  
 17  13  14  1   
 18  13  15  1   
 19  14  16  1   
 20  14  29  1   
 21  14  30  1   
 22  15  17  1   
 23  15  31  1   
 24  15  32  1   
 25  16  18  1   
 26  16  19  2   
 27  17  20  1   
 28  17  33  1   
 29  17  34  1   
 30  18  21  2   
 31  19  22  1   
 32  19  23  1   
 33  20  24  1   
 34  20  25  1   
 35  20  35  1   
 36  21  22  1   
 37  21  36  1   
 38  22  37  1   
 39  23  38  1   
 40  23  39  1   
 41  23  40  1   
 42  24  41  1   
 43  24  42  1   
 44  24  43  1   
 45  25  44  1   
 46  25  45  1   
 47  25  46  1   
@<TRIPOS>SUBSTRUCTURE
  1 ****  17 GROUP 4 **** **** 0

# MOE 2024.06 (io_trps.svl 2023.06)
