@<TRIPOS>MOLECULE
NONAME
46 47 1 0 0 
SMALL
USER_CHARGES


@<TRIPOS>ATOM
  1 O        0.1150    -0.0440    -0.5980 O.2   1 <1>  -0.5700 
  2 C        1.1810    -0.5590    -0.3140 C.2   1 <1>   0.5440 
  3 N        2.3340     0.1940    -0.3160 N.am  1 <1>  -0.4940 
  4 C        1.2580    -1.9690     0.0000 C.ar  1 <1>   0.0860 
  5 C        2.5150     1.5910    -0.4690 C.2   1 <1>  -0.0880 
  6 C        2.1910    -2.4750     0.9100 C.ar  1 <1>  -0.1500 
  7 C        0.3990    -2.8890    -0.6040 C.ar  1 <1>  -0.1500 
  8 N        3.7200     2.2250    -0.5660 N.pl3 1 <1>   0.3140 
  9 C        1.5740     2.5620    -0.5420 C.2   1 <1>  -0.1500 
 10 C        2.2720    -3.8270     1.1810 C.ar  1 <1>  -0.1500 
 11 C        0.4790    -4.2400    -0.3330 C.ar  1 <1>  -0.1500 
 12 N        3.5620     3.5650    -0.6930 N.2   1 <1>  -0.7070 
 13 C        5.0880     1.6290    -0.5730 C.3   1 <1>   0.1760 
 14 C        2.2780     3.7490    -0.6790 C.2   1 <1>   0.1390 
 15 C        1.4210    -4.7360     0.5630 C.ar  1 <1>   0.1000 
 16 C        5.3030     0.8450    -1.8870 C.3   1 <1>  -0.1600 
 17 C        5.3360     0.7990     0.7110 C.3   1 <1>  -0.1600 
 18 N        1.5170    -6.0910     0.8460 N.pl3 1 <1>  -0.8380 
 19 C        6.7310     0.3190    -2.0810 C.3   1 <1>  -0.2400 
 20 C        6.7370     1.0190     1.3000 C.3   1 <1>  -0.2400 
 21 C        0.3050    -6.9400     0.9830 C.3   1 <1>   0.1290 
 22 C        2.8050    -6.8100     0.6650 C.3   1 <1>   0.1290 
 23 H        3.1860    -0.3540    -0.2140 H     1 <1>   0.3700 
 24 H        2.8540    -1.8050     1.4260 H     1 <1>   0.1500 
 25 H       -0.3400    -2.5280    -1.2990 H     1 <1>   0.1500 
 26 H        0.5050     2.4560    -0.5050 H     1 <1>   0.1500 
 27 H        2.9880    -4.1980     1.8900 H     1 <1>   0.1500 
 28 H       -0.1880    -4.9240    -0.8220 H     1 <1>   0.1500 
 29 H        5.7700     2.4620    -0.5700 H     1 <1>   0.0800 
 30 H        1.8180     4.7190    -0.7640 H     1 <1>   0.1500 
 31 H        5.0780     1.5060    -2.7080 H     1 <1>   0.0800 
 32 H        4.6190     0.0170    -1.9410 H     1 <1>   0.0800 
 33 H        5.1970    -0.2480     0.5100 H     1 <1>   0.0800 
 34 H        4.6250     1.0900     1.4670 H     1 <1>   0.0800 
 35 H        7.4440     1.1210    -1.9910 H     1 <1>   0.0800 
 36 H        6.8310    -0.1110    -3.0620 H     1 <1>   0.0800 
 37 H        6.9640    -0.4420    -1.3590 H     1 <1>   0.0800 
 38 H        7.5060     0.7340     0.6050 H     1 <1>   0.0800 
 39 H        6.8560     0.4320     2.1930 H     1 <1>   0.0800 
 40 H        6.8750     2.0550     1.5570 H     1 <1>   0.0800 
 41 H       -0.5510    -6.3270     1.2070 H     1 <1>   0.0800 
 42 H        0.4420    -7.6430     1.7860 H     1 <1>   0.0800 
 43 H        0.1270    -7.4750     0.0670 H     1 <1>   0.0800 
 44 H        3.5740    -6.1260     0.3520 H     1 <1>   0.0800 
 45 H        2.6960    -7.5720    -0.0870 H     1 <1>   0.0800 
 46 H        3.0980    -7.2670     1.5940 H     1 <1>   0.0800 
@<TRIPOS>BOND
  1   1   2  2   
  2   2   3  am  
  3   2   4  1   
  4   3   5  1   
  5   3  23  1   
  6   4   6  ar  
  7   4   7  ar  
  8   5   8  1   
  9   5   9  2   
 10   6  10  ar  
 11   6  24  1   
 12   7  11  ar  
 13   7  25  1   
 14   8  12  1   
 15   8  13  1   
 16   9  14  1   
 17   9  26  1   
 18  10  15  ar  
 19  10  27  1   
 20  11  15  ar  
 21  11  28  1   
 22  12  14  2   
 23  13  16  1   
 24  13  17  1   
 25  13  29  1   
 26  14  30  1   
 27  15  18  1   
 28  16  19  1   
 29  16  31  1   
 30  16  32  1   
 31  17  20  1   
 32  17  33  1   
 33  17  34  1   
 34  18  21  1   
 35  18  22  1   
 36  19  35  1   
 37  19  36  1   
 38  19  37  1   
 39  20  38  1   
 40  20  39  1   
 41  20  40  1   
 42  21  41  1   
 43  21  42  1   
 44  21  43  1   
 45  22  44  1   
 46  22  45  1   
 47  22  46  1   
@<TRIPOS>SUBSTRUCTURE
  1 ****   3 GROUP 4 **** **** 0

# MOE 2024.06 (io_trps.svl 2023.06)
