@<TRIPOS>MOLECULE
NONAME
65 69 1 0 0 
SMALL
USER_CHARGES


@<TRIPOS>ATOM
  1 O       -0.0180     0.5260     0.1500 O.2   1 <1>  -0.5700 
  2 C       -0.6320     1.5570    -0.0190 C.2   1 <1>   0.5690 
  3 N       -2.0050     1.5710     0.0440 N.am  1 <1>  -0.6600 
  4 C        0.1470     2.8630    -0.3040 C.3   1 <1>   0.1710 
  5 C       -2.8740     2.7730    -0.1600 C.3   1 <1>   0.1400 
  6 C       -2.7450     0.2850     0.2530 C.3   1 <1>   0.1400 
  7 N        1.6360     2.7610    -0.3770 N.3   1 <1>  -0.8100 
  8 C       -3.8220     2.9990     1.0410 C.3   1 <1>   0.1430 
  9 C       -4.2230     0.5080     0.6160 C.3   1 <1>  -0.1600 
 10 C        2.2860     3.9420    -0.9850 C.3   1 <1>   0.1100 
 11 C        2.2630     2.4330     0.9290 C.3   1 <1>   0.1100 
 12 C       -4.9280     3.9270     0.5660 C.ar  1 <1>   0.1670 
 13 C       -4.3730     1.6650     1.6130 C.3   1 <1>  -0.1600 
 14 C       -3.1450     3.8450     2.1530 C.3   1 <1>  -0.1600 
 15 C        3.8250     3.7700    -1.0810 C.3   1 <1>   0.3430 
 16 C        3.7770     2.1500     0.7810 C.3   1 <1>   0.3430 
 17 N       -5.9130     3.5860    -0.2290 N.ar  1 <1>  -0.6200 
 18 C       -4.7700     5.1890     1.0480 C.ar  1 <1>  -0.1440 
 19 C       -3.5450     5.3120     1.9170 C.3   1 <1>  -0.0170 
 20 N        4.2450     2.4010    -0.6230 N.4   1 <1>  -0.9590 
 21 C       -6.7830     4.5580    -0.5350 C.ar  1 <1>   0.6200 
 22 C       -5.6990     6.1300     0.6880 C.ar  1 <1>   0.1600 
 23 C        5.6770     2.0740    -0.8210 C.3   1 <1>   0.3430 
 24 N       -6.7060     5.8240    -0.0990 N.ar  1 <1>  -0.6200 
 25 C       -7.8950     4.2110    -1.4100 C.ar  1 <1>   0.0000 
 26 C        5.9810     1.9670    -2.3110 C.3   1 <1>  -0.2400 
 27 C       -9.1110     4.8990    -1.3590 C.ar  1 <1>  -0.1500 
 28 C       -7.7990     3.1730    -2.3430 C.ar  1 <1>  -0.1500 
 29 C      -10.1700     4.5720    -2.1870 C.ar  1 <1>  -0.1500 
 30 C       -8.8530     2.8400    -3.1740 C.ar  1 <1>  -0.1500 
 31 C      -10.0430     3.5400    -3.0980 C.ar  1 <1>  -0.1500 
 32 H       -0.1180     3.5830     0.4480 H     1 <1>   0.0800 
 33 H       -0.2090     3.2270    -1.2510 H     1 <1>   0.0800 
 34 H       -3.4670     2.6020    -1.0440 H     1 <1>   0.0800 
 35 H       -2.2970     3.6610    -0.3370 H     1 <1>   0.0800 
 36 H       -2.2680    -0.2560     1.0540 H     1 <1>   0.0800 
 37 H       -2.6730    -0.3160    -0.6370 H     1 <1>   0.0800 
 38 H       -4.6220    -0.3970     1.0400 H     1 <1>   0.0800 
 39 H       -4.7880     0.7190    -0.2760 H     1 <1>   0.0800 
 40 H        2.0620     4.8250    -0.4100 H     1 <1>   0.0800 
 41 H        1.8940     4.0910    -1.9770 H     1 <1>   0.0800 
 42 H        1.8000     1.5630     1.3600 H     1 <1>   0.0800 
 43 H        2.1170     3.2470     1.6190 H     1 <1>   0.0800 
 44 H       -5.4060     1.7800     1.8910 H     1 <1>   0.0800 
 45 H       -3.8270     1.3950     2.5000 H     1 <1>   0.0800 
 46 H       -2.0780     3.7120     2.1750 H     1 <1>   0.0800 
 47 H       -3.5380     3.5560     3.1130 H     1 <1>   0.0800 
 48 H        4.3060     4.5210    -0.4780 H     1 <1>   0.0800 
 49 H        4.1260     3.9270    -2.1030 H     1 <1>   0.0800 
 50 H        3.9590     1.1210     1.0450 H     1 <1>   0.0800 
 51 H        4.3230     2.7680     1.4740 H     1 <1>   0.0800 
 52 H       -2.7730     5.8410     1.3840 H     1 <1>   0.0800 
 53 H       -3.7630     5.8170     2.8430 H     1 <1>   0.0800 
 54 H        3.6550     1.7610    -1.1810 H     1 <1>   0.4500 
 55 H       -5.6190     7.1420     1.0460 H     1 <1>   0.1500 
 56 H        5.8980     1.1280    -0.3530 H     1 <1>   0.0800 
 57 H        6.2980     2.8290    -0.3680 H     1 <1>   0.0800 
 58 H        5.3430     1.2370    -2.7780 H     1 <1>   0.0800 
 59 H        7.0000     1.6470    -2.4400 H     1 <1>   0.0800 
 60 H        5.8710     2.9150    -2.8040 H     1 <1>   0.0800 
 61 H       -9.2290     5.7050    -0.6560 H     1 <1>   0.1500 
 62 H       -6.8820     2.6160    -2.4180 H     1 <1>   0.1500 
 63 H      -11.0920     5.1220    -2.1220 H     1 <1>   0.1500 
 64 H       -8.7480     2.0360    -3.8810 H     1 <1>   0.1500 
 65 H      -10.8650     3.2840    -3.7440 H     1 <1>   0.1500 
@<TRIPOS>BOND
  1   1   2  2   
  2   2   3  am  
  3   2   4  1   
  4   3   5  1   
  5   3   6  1   
  6   4   7  1   
  7   4  32  1   
  8   4  33  1   
  9   5   8  1   
 10   5  34  1   
 11   5  35  1   
 12   6   9  1   
 13   6  36  1   
 14   6  37  1   
 15   7  10  1   
 16   7  11  1   
 17   8  12  1   
 18   8  13  1   
 19   8  14  1   
 20   9  13  1   
 21   9  38  1   
 22   9  39  1   
 23  10  15  1   
 24  10  40  1   
 25  10  41  1   
 26  11  16  1   
 27  11  42  1   
 28  11  43  1   
 29  12  17  ar  
 30  12  18  ar  
 31  13  44  1   
 32  13  45  1   
 33  14  19  1   
 34  14  46  1   
 35  14  47  1   
 36  15  20  1   
 37  15  48  1   
 38  15  49  1   
 39  16  20  1   
 40  16  50  1   
 41  16  51  1   
 42  17  21  ar  
 43  18  19  1   
 44  18  22  ar  
 45  19  52  1   
 46  19  53  1   
 47  20  23  1   
 48  20  54  1   
 49  21  24  ar  
 50  21  25  1   
 51  22  24  ar  
 52  22  55  1   
 53  23  26  1   
 54  23  56  1   
 55  23  57  1   
 56  25  27  ar  
 57  25  28  ar  
 58  26  58  1   
 59  26  59  1   
 60  26  60  1   
 61  27  29  ar  
 62  27  61  1   
 63  28  30  ar  
 64  28  62  1   
 65  29  31  ar  
 66  29  63  1   
 67  30  31  ar  
 68  30  64  1   
 69  31  65  1   
@<TRIPOS>SUBSTRUCTURE
  1 ****   5 GROUP 4 **** **** 0

# MOE 2024.06 (io_trps.svl 2023.06)
