@<TRIPOS>MOLECULE
NONAME
32 33 1 0 0 
SMALL
USER_CHARGES


@<TRIPOS>ATOM
  1 F        1.4740     1.6950     0.7750 F     1 <1>  -0.3400 
  2 C        0.6520     1.6860    -0.2720 C.3   1 <1>   0.7810 
  3 F        1.4560     1.8130    -1.3250 F     1 <1>  -0.3400 
  4 C       -0.3150     2.8760    -0.1970 C.2   1 <1>   0.1080 
  5 N       -1.6160     2.7650    -0.1880 N.2   1 <1>  -0.7070 
  6 C        0.0780     4.2020    -0.1300 C.2   1 <1>  -0.1500 
  7 N       -2.0770     4.0240    -0.1160 N.pl3 1 <1>   0.3140 
  8 C       -1.0690     4.9390    -0.0770 C.2   1 <1>  -0.2370 
  9 C       -3.5320     4.2640    -0.0860 C.3   1 <1>   0.0160 
 10 C       -1.2430     6.3640     0.0020 C.2   1 <1>   0.7150 
 11 O       -2.3520     6.8660     0.0190 O.2   1 <1>  -0.5700 
 12 N       -0.1270     7.1490     0.0600 N.am  1 <1>  -0.4930 
 13 C        0.0010     8.5600     0.1400 C.2   1 <1>   0.0630 
 14 C        1.1920     9.2880     0.2070 C.2   1 <1>   0.1080 
 15 C       -0.9640     9.5020     0.1670 C.2   1 <1>  -0.3020 
 16 N        0.9870    10.5670     0.2700 N.2   1 <1>  -0.7070 
 17 C        2.5850     8.6990     0.2080 C.3   1 <1>  -0.0590 
 18 N       -0.3500    10.6990     0.2470 N.pl3 1 <1>   0.3140 
 19 C       -1.0010    12.0120     0.2980 C.3   1 <1>   0.0160 
 20 H        0.1650     0.7300    -0.3220 H     1 <1>   0.0800 
 21 H        1.1010     4.5330    -0.1240 H     1 <1>   0.1500 
 22 H       -4.0500     3.3240    -0.1240 H     1 <1>   0.0800 
 23 H       -3.8090     4.8620    -0.9330 H     1 <1>   0.0800 
 24 H       -3.7870     4.7790     0.8210 H     1 <1>   0.0800 
 25 H        0.7500     6.6390     0.0470 H     1 <1>   0.3700 
 26 H       -2.0300     9.3830     0.1350 H     1 <1>   0.1500 
 27 H        2.7050     8.0460     1.0520 H     1 <1>   0.0800 
 28 H        3.3120     9.4880     0.2750 H     1 <1>   0.0800 
 29 H        2.7510     8.1520    -0.7010 H     1 <1>   0.0800 
 30 H       -1.8400    11.9660     0.9660 H     1 <1>   0.0800 
 31 H       -1.3310    12.2780    -0.6890 H     1 <1>   0.0800 
 32 H       -0.2950    12.7400     0.6510 H     1 <1>   0.0800 
@<TRIPOS>BOND
  1   1   2  1   
  2   2   3  1   
  3   2   4  1   
  4   2  20  1   
  5   4   5  2   
  6   4   6  1   
  7   5   7  1   
  8   6   8  2   
  9   6  21  1   
 10   7   8  1   
 11   7   9  1   
 12   8  10  1   
 13   9  22  1   
 14   9  23  1   
 15   9  24  1   
 16  10  11  2   
 17  10  12  am  
 18  12  13  1   
 19  12  25  1   
 20  13  14  1   
 21  13  15  2   
 22  14  16  2   
 23  14  17  1   
 24  15  18  1   
 25  15  26  1   
 26  16  18  1   
 27  17  27  1   
 28  17  28  1   
 29  17  29  1   
 30  18  19  1   
 31  19  30  1   
 32  19  31  1   
 33  19  32  1   
@<TRIPOS>SUBSTRUCTURE
  1 ****  10 GROUP 4 **** **** 0

# MOE 2024.06 (io_trps.svl 2023.06)
