@<TRIPOS>MOLECULE
NONAME
49 51 1 0 0 
SMALL
USER_CHARGES


@<TRIPOS>ATOM
  1 F       -1.3560    -1.3860    -1.6760 F     1 <1>  -0.1900 
  2 C       -0.3870    -2.1050    -1.1730 C.ar  1 <1>   0.1900 
  3 C       -0.5330    -2.6730     0.0840 C.ar  1 <1>  -0.1440 
  4 C        0.7520    -2.2700    -1.9390 C.ar  1 <1>  -0.1500 
  5 C        0.5200    -3.4380     0.5710 C.ar  1 <1>  -0.1500 
  6 C       -1.8070    -2.4710     0.9010 C.3   1 <1>   0.4040 
  7 C        1.7900    -3.0350    -1.4360 C.ar  1 <1>  -0.1500 
  8 C        1.6700    -3.6160    -0.1830 C.ar  1 <1>  -0.1500 
  9 O       -1.4680    -1.7660     2.0570 O.3   1 <1>  -0.6800 
 10 C       -2.4810    -3.8160     1.2640 C.2   1 <1>   0.5690 
 11 O       -2.1900    -4.3170     2.3330 O.2   1 <1>  -0.5700 
 12 N       -3.3840    -4.4240     0.4230 N.am  1 <1>  -0.6600 
 13 C       -4.0400    -5.7220     0.7870 C.3   1 <1>   0.1400 
 14 C       -3.8160    -3.8900    -0.9000 C.3   1 <1>   0.1400 
 15 C       -5.4900    -5.5290     1.2620 C.3   1 <1>   0.1400 
 16 C       -4.9890    -2.9080    -0.7630 C.3   1 <1>  -0.1600 
 17 N       -6.3090    -4.7460     0.2830 N.am  1 <1>  -0.6600 
 18 C       -6.0390    -3.2840     0.2920 C.3   1 <1>   0.1400 
 19 C       -7.1680    -5.3210    -0.6420 C.2   1 <1>   0.5440 
 20 O       -7.7700    -4.5730    -1.3960 O.2   1 <1>  -0.5700 
 21 C       -7.3810    -6.7710    -0.7330 C.ar  1 <1>   0.3960 
 22 N       -6.3200    -7.5580    -0.9970 N.ar  1 <1>  -0.6200 
 23 C       -8.6640    -7.3110    -0.5410 C.ar  1 <1>  -0.1430 
 24 C       -6.5360    -8.8550    -1.0890 C.ar  1 <1>   0.1600 
 25 C       -8.8620    -8.6730    -0.6380 C.ar  1 <1>  -0.1500 
 26 C       -9.8680    -6.4270    -0.2240 C.3   1 <1>  -0.0970 
 27 C       -7.7680    -9.4570    -0.9200 C.ar  1 <1>  -0.1500 
 28 H        0.8220    -1.8090    -2.9080 H     1 <1>   0.1500 
 29 H        0.4500    -3.8980     1.5420 H     1 <1>   0.1500 
 30 H       -2.5070    -1.8550     0.3710 H     1 <1>   0.0800 
 31 H        2.6870    -3.1770    -2.0130 H     1 <1>   0.1500 
 32 H        2.4780    -4.2110     0.2100 H     1 <1>   0.1500 
 33 H       -1.2780    -2.4340     2.7490 H     1 <1>   0.4000 
 34 H       -3.4830    -6.2110     1.5670 H     1 <1>   0.0800 
 35 H       -4.0300    -6.3800    -0.0650 H     1 <1>   0.0800 
 36 H       -4.1300    -4.7120    -1.5220 H     1 <1>   0.0800 
 37 H       -2.9920    -3.4160    -1.4030 H     1 <1>   0.0800 
 38 H       -5.4800    -5.0180     2.2080 H     1 <1>   0.0800 
 39 H       -5.9330    -6.4940     1.4300 H     1 <1>   0.0800 
 40 H       -5.4790    -2.8390    -1.7180 H     1 <1>   0.0800 
 41 H       -4.6160    -1.9260    -0.5400 H     1 <1>   0.0800 
 42 H       -6.9520    -2.7440     0.1010 H     1 <1>   0.0800 
 43 H       -5.6880    -2.9930     1.2670 H     1 <1>   0.0800 
 44 H       -5.6870    -9.4780    -1.3110 H     1 <1>   0.1500 
 45 H       -9.8330    -9.1170    -0.5010 H     1 <1>   0.1500 
 46 H       -9.6400    -5.7570     0.5860 H     1 <1>   0.0800 
 47 H      -10.7210    -7.0160     0.0580 H     1 <1>   0.0800 
 48 H      -10.1300    -5.8430    -1.0890 H     1 <1>   0.0800 
 49 H       -7.8660   -10.5230    -1.0110 H     1 <1>   0.1500 
@<TRIPOS>BOND
  1   1   2  1   
  2   2   3  ar  
  3   2   4  ar  
  4   3   5  ar  
  5   3   6  1   
  6   4   7  ar  
  7   4  28  1   
  8   5   8  ar  
  9   5  29  1   
 10   6   9  1   
 11   6  10  1   
 12   6  30  1   
 13   7   8  ar  
 14   7  31  1   
 15   8  32  1   
 16   9  33  1   
 17  10  11  2   
 18  10  12  am  
 19  12  13  1   
 20  12  14  1   
 21  13  15  1   
 22  13  34  1   
 23  13  35  1   
 24  14  16  1   
 25  14  36  1   
 26  14  37  1   
 27  15  17  1   
 28  15  38  1   
 29  15  39  1   
 30  16  18  1   
 31  16  40  1   
 32  16  41  1   
 33  17  18  1   
 34  17  19  am  
 35  18  42  1   
 36  18  43  1   
 37  19  20  2   
 38  19  21  1   
 39  21  22  ar  
 40  21  23  ar  
 41  22  24  ar  
 42  23  25  ar  
 43  23  26  1   
 44  24  27  ar  
 45  24  44  1   
 46  25  27  ar  
 47  25  45  1   
 48  26  46  1   
 49  26  47  1   
 50  26  48  1   
 51  27  49  1   
@<TRIPOS>SUBSTRUCTURE
  1 ****  12 GROUP 4 **** **** 0

# MOE 2024.06 (io_trps.svl 2023.06)
