@<TRIPOS>MOLECULE
NONAME
48 49 1 0 0 
SMALL
USER_CHARGES


@<TRIPOS>ATOM
  1 N        0.2310     4.1690    -2.7120 N.1   1 <1>  -0.5570 
  2 C       -0.6970     3.7930    -2.1650 C.1   1 <1>   0.4840 
  3 C       -1.8620     3.3820    -1.4540 C.ar  1 <1>   0.0730 
  4 C       -2.0790     3.8190    -0.1410 C.ar  1 <1>   0.4100 
  5 C       -2.7980     2.5580    -2.0470 C.ar  1 <1>  -0.1500 
  6 N       -3.1500     3.4710     0.5630 N.ar  1 <1>  -0.6200 
  7 N       -1.1600     4.6290     0.5310 N.pl3 1 <1>  -0.8380 
  8 C       -3.9110     2.1980    -1.3150 C.ar  1 <1>  -0.1430 
  9 C       -4.0340     2.6800    -0.0160 C.ar  1 <1>   0.1670 
 10 C       -1.7710     5.6590     1.4360 C.3   1 <1>   0.2090 
 11 C       -0.1110     3.8260     1.2320 C.3   1 <1>   0.1290 
 12 C       -4.9580     1.2940    -1.9550 C.3   1 <1>  -0.0970 
 13 C       -5.2310     2.3180     0.8450 C.3   1 <1>  -0.0970 
 14 C       -0.9000     6.9090     1.6010 C.3   1 <1>  -0.1600 
 15 C       -0.6520     7.6520     0.2850 C.3   1 <1>   0.4230 
 16 N        0.2950     6.8830    -0.5550 N.4   1 <1>  -0.9590 
 17 C       -0.1390     9.0720     0.5410 C.3   1 <1>  -0.2400 
 18 C        1.7090     6.8200    -0.1040 C.3   1 <1>   0.3430 
 19 C        0.2840     7.2680    -1.9950 C.3   1 <1>   0.3430 
 20 C        2.4840     6.4500    -1.3530 C.3   1 <1>  -0.1600 
 21 C        1.7260     7.1460    -2.4790 C.3   1 <1>  -0.1600 
 22 H       -2.6600     2.2060    -3.0560 H     1 <1>   0.1500 
 23 H       -1.9560     5.2160     2.4020 H     1 <1>   0.0800 
 24 H       -2.7280     5.9580     1.0390 H     1 <1>   0.0800 
 25 H        0.3740     3.1600     0.5380 H     1 <1>   0.0800 
 26 H       -0.5660     3.2330     2.0090 H     1 <1>   0.0800 
 27 H        0.6330     4.4650     1.6730 H     1 <1>   0.0800 
 28 H       -4.7610     1.1540    -3.0030 H     1 <1>   0.0800 
 29 H       -5.9370     1.7270    -1.8560 H     1 <1>   0.0800 
 30 H       -4.9510     0.3300    -1.4790 H     1 <1>   0.0800 
 31 H       -5.0260     2.5340     1.8790 H     1 <1>   0.0800 
 32 H       -5.4570     1.2720     0.7630 H     1 <1>   0.0800 
 33 H       -6.0840     2.8930     0.5390 H     1 <1>   0.0800 
 34 H        0.0200     6.6710     2.0990 H     1 <1>   0.0800 
 35 H       -1.4400     7.5680     2.2570 H     1 <1>   0.0800 
 36 H       -1.5930     7.7230    -0.2370 H     1 <1>   0.0800 
 37 H       -0.0660     5.9070    -0.5000 H     1 <1>   0.4500 
 38 H        0.7210     9.0730     1.1860 H     1 <1>   0.0800 
 39 H       -0.9090     9.6440     1.0280 H     1 <1>   0.0800 
 40 H        0.1010     9.5720    -0.3800 H     1 <1>   0.0800 
 41 H        1.8450     6.0950     0.6810 H     1 <1>   0.0800 
 42 H        2.0350     7.7880     0.2350 H     1 <1>   0.0800 
 43 H       -0.0610     8.2800    -2.1240 H     1 <1>   0.0800 
 44 H       -0.3570     6.6040    -2.5520 H     1 <1>   0.0800 
 45 H        2.4530     5.3820    -1.4880 H     1 <1>   0.0800 
 46 H        3.5110     6.7640    -1.2950 H     1 <1>   0.0800 
 47 H        2.1250     8.1310    -2.6450 H     1 <1>   0.0800 
 48 H        1.7820     6.5920    -3.4000 H     1 <1>   0.0800 
@<TRIPOS>BOND
  1   1   2  3   
  2   2   3  1   
  3   3   4  ar  
  4   3   5  ar  
  5   4   6  ar  
  6   4   7  1   
  7   5   8  ar  
  8   5  22  1   
  9   6   9  ar  
 10   7  10  1   
 11   7  11  1   
 12   8   9  ar  
 13   8  12  1   
 14   9  13  1   
 15  10  14  1   
 16  10  23  1   
 17  10  24  1   
 18  11  25  1   
 19  11  26  1   
 20  11  27  1   
 21  12  28  1   
 22  12  29  1   
 23  12  30  1   
 24  13  31  1   
 25  13  32  1   
 26  13  33  1   
 27  14  15  1   
 28  14  34  1   
 29  14  35  1   
 30  15  16  1   
 31  15  17  1   
 32  15  36  1   
 33  16  18  1   
 34  16  19  1   
 35  16  37  1   
 36  17  38  1   
 37  17  39  1   
 38  17  40  1   
 39  18  20  1   
 40  18  41  1   
 41  18  42  1   
 42  19  21  1   
 43  19  43  1   
 44  19  44  1   
 45  20  21  1   
 46  20  45  1   
 47  20  46  1   
 48  21  47  1   
 49  21  48  1   
@<TRIPOS>SUBSTRUCTURE
  1 ****   7 GROUP 4 **** **** 0

# MOE 2024.06 (io_trps.svl 2023.06)
