@<TRIPOS>MOLECULE
NONAME
49 51 1 0 0 
SMALL
USER_CHARGES


@<TRIPOS>ATOM
  1 O       -0.6680    -0.0050    -1.8110 O.2   1 <1>  -0.5700 
  2 C       -1.4650     0.6900    -1.2210 C.2   1 <1>   0.5690 
  3 N       -2.3210     0.1480    -0.2890 N.am  1 <1>  -0.6600 
  4 C       -1.4680     2.1950    -1.5530 C.3   1 <1>   0.1710 
  5 C       -2.1400    -1.2750     0.1490 C.3   1 <1>   0.3210 
  6 C       -3.4770     0.8540     0.3500 C.3   1 <1>   0.1400 
  7 N       -0.4420     3.0330    -0.8580 N.3   1 <1>  -0.8100 
  8 C       -3.3830    -2.1180    -0.1120 C.2   1 <1>   0.0460 
  9 C       -4.7520     0.8140    -0.5140 C.3   1 <1>   0.1200 
 10 C       -0.5240     4.4250    -1.3340 C.3   1 <1>   0.2540 
 11 C       -0.5570     2.9420     0.6120 C.3   1 <1>   0.1100 
 12 N       -4.3270    -2.2910     0.8410 N.2   1 <1>  -0.5650 
 13 C       -3.7220    -2.7710    -1.2490 C.2   1 <1>  -0.3320 
 14 O       -4.6960     1.7470    -1.5460 O.3   1 <1>  -0.6800 
 15 C        0.7770     5.1870    -1.1270 C.ar  1 <1>  -0.1440 
 16 C        0.6260     3.5680     1.3610 C.3   1 <1>   0.1200 
 17 C       -5.2080    -3.0440     0.2680 C.2   1 <1>   0.0360 
 18 N       -4.9000    -3.3720    -1.0040 N.pl3 1 <1>   0.0330 
 19 C       -3.0030    -2.8550    -2.5850 C.3   1 <1>  -0.0600 
 20 C        1.2550     5.4600     0.1490 C.ar  1 <1>   0.0820 
 21 C        1.4860     5.6610    -2.2220 C.ar  1 <1>  -0.1500 
 22 O        0.6330     4.9750     1.2410 O.3   1 <1>  -0.3620 
 23 C        2.3950     6.2260     0.3290 C.ar  1 <1>  -0.1500 
 24 C        2.6360     6.4140    -2.0450 C.ar  1 <1>  -0.1500 
 25 C        3.0880     6.7030    -0.7690 C.ar  1 <1>  -0.1500 
 26 H       -2.4370     2.6080    -1.3650 H     1 <1>   0.0800 
 27 H       -1.2990     2.2660    -2.6130 H     1 <1>   0.0800 
 28 H       -1.9210    -1.2960     1.2010 H     1 <1>   0.0800 
 29 H       -1.3080    -1.7290    -0.3580 H     1 <1>   0.0800 
 30 H       -3.2220     1.8710     0.5790 H     1 <1>   0.0800 
 31 H       -3.6950     0.3660     1.2850 H     1 <1>   0.0800 
 32 H       -5.6170     1.0370     0.0860 H     1 <1>   0.0800 
 33 H       -4.8840    -0.1590    -0.9520 H     1 <1>   0.0800 
 34 H       -1.3230     4.9400    -0.8290 H     1 <1>   0.0800 
 35 H       -0.7480     4.4280    -2.3860 H     1 <1>   0.0800 
 36 H       -0.5810     1.9050     0.8940 H     1 <1>   0.0800 
 37 H       -1.4720     3.3990     0.9480 H     1 <1>   0.0800 
 38 H       -4.9690     2.6290    -1.2300 H     1 <1>   0.4000 
 39 H        1.5580     3.1760     0.9910 H     1 <1>   0.0800 
 40 H        0.5480     3.3430     2.4090 H     1 <1>   0.0800 
 41 H       -6.1100    -3.3890     0.7430 H     1 <1>   0.1500 
 42 H       -5.4480    -3.9510    -1.6450 H     1 <1>   0.2700 
 43 H       -2.1010    -2.2690    -2.5660 H     1 <1>   0.0800 
 44 H       -3.6330    -2.4740    -3.3680 H     1 <1>   0.0800 
 45 H       -2.7430    -3.8740    -2.8060 H     1 <1>   0.0800 
 46 H        1.1450     5.4500    -3.2200 H     1 <1>   0.1500 
 47 H        2.7350     6.4370     1.3260 H     1 <1>   0.1500 
 48 H        3.1770     6.7760    -2.9010 H     1 <1>   0.1500 
 49 H        3.9770     7.2940    -0.6310 H     1 <1>   0.1500 
@<TRIPOS>BOND
  1   1   2  2   
  2   2   3  am  
  3   2   4  1   
  4   3   5  1   
  5   3   6  1   
  6   4   7  1   
  7   4  26  1   
  8   4  27  1   
  9   5   8  1   
 10   5  28  1   
 11   5  29  1   
 12   6   9  1   
 13   6  30  1   
 14   6  31  1   
 15   7  10  1   
 16   7  11  1   
 17   8  12  1   
 18   8  13  2   
 19   9  14  1   
 20   9  32  1   
 21   9  33  1   
 22  10  15  1   
 23  10  34  1   
 24  10  35  1   
 25  11  16  1   
 26  11  36  1   
 27  11  37  1   
 28  12  17  2   
 29  13  18  1   
 30  13  19  1   
 31  14  38  1   
 32  15  20  ar  
 33  15  21  ar  
 34  16  22  1   
 35  16  39  1   
 36  16  40  1   
 37  17  18  1   
 38  17  41  1   
 39  18  42  1   
 40  19  43  1   
 41  19  44  1   
 42  19  45  1   
 43  20  22  1   
 44  20  23  ar  
 45  21  24  ar  
 46  21  46  1   
 47  23  25  ar  
 48  23  47  1   
 49  24  25  ar  
 50  24  48  1   
 51  25  49  1   
@<TRIPOS>SUBSTRUCTURE
  1 ****   4 GROUP 4 **** **** 0

# MOE 2024.06 (io_trps.svl 2023.06)
