@<TRIPOS>MOLECULE
NONAME
45 46 1 0 0 
SMALL
USER_CHARGES


@<TRIPOS>ATOM
  1 O       -0.8710     0.3230     1.8030 O.2   1 <1>  -0.5700 
  2 C       -1.5350     0.6670     0.8550 C.2   1 <1>   0.5690 
  3 N       -2.0930    -0.2500    -0.0020 N.am  1 <1>  -0.6600 
  4 C       -1.7090     2.1660     0.6660 C.3   1 <1>  -0.0990 
  5 C       -1.8950    -1.7070     0.2460 C.3   1 <1>   0.3200 
  6 C       -2.8830     0.0840    -1.2240 C.3   1 <1>   0.1400 
  7 C       -0.4110     2.8460     0.2030 C.3   1 <1>   0.0630 
  8 C       -3.1780    -2.3140     0.7770 C.2   1 <1>  -0.3320 
  9 C       -4.3620     0.3230    -0.8950 C.3   1 <1>   0.1200 
 10 C       -0.5870     4.3630     0.2060 C.ar  1 <1>  -0.1440 
 11 C        0.0590     2.3590    -1.1750 C.3   1 <1>  -0.2400 
 12 N       -4.0890    -3.0160     0.0690 N.pl3 1 <1>   0.0480 
 13 C       -3.6370    -2.2620     2.0460 C.2   1 <1>   0.0770 
 14 O       -5.0770     0.4040    -2.0830 O.3   1 <1>  -0.6800 
 15 C       -1.4550     4.9940    -0.6760 C.ar  1 <1>  -0.1500 
 16 C        0.1270     5.1360     1.1110 C.ar  1 <1>  -0.1500 
 17 C       -5.0450    -3.3370     0.9700 C.2   1 <1>   0.0360 
 18 C       -4.0970    -3.3540    -1.3660 C.3   1 <1>   0.0160 
 19 N       -4.8120    -2.9060     2.1660 N.2   1 <1>  -0.5650 
 20 C       -1.6040     6.3700    -0.6540 C.ar  1 <1>  -0.1500 
 21 C       -0.0210     6.5120     1.1350 C.ar  1 <1>  -0.1500 
 22 C       -0.8870     7.1300     0.2510 C.ar  1 <1>  -0.1500 
 23 H       -1.9810     2.5760     1.6220 H     1 <1>   0.0800 
 24 H       -2.5070     2.3940    -0.0070 H     1 <1>   0.0800 
 25 H       -1.1150    -1.8620     0.9710 H     1 <1>   0.0800 
 26 H       -1.5830    -2.1940    -0.6600 H     1 <1>   0.0800 
 27 H       -2.8060    -0.7300    -1.9240 H     1 <1>   0.0800 
 28 H       -2.4710     0.9570    -1.6960 H     1 <1>   0.0800 
 29 H        0.3600     2.5920     0.9130 H     1 <1>   0.0800 
 30 H       -4.5060     1.2350    -0.3430 H     1 <1>   0.0800 
 31 H       -4.7690    -0.4950    -0.3290 H     1 <1>   0.0800 
 32 H       -0.6880     2.5350    -1.9260 H     1 <1>   0.0800 
 33 H        0.2850     1.3080    -1.1470 H     1 <1>   0.0800 
 34 H        0.9540     2.8860    -1.4570 H     1 <1>   0.0800 
 35 H       -3.1720    -1.7800     2.8920 H     1 <1>   0.1500 
 36 H       -4.9960     1.2920    -2.4830 H     1 <1>   0.4000 
 37 H       -2.0200     4.4200    -1.3870 H     1 <1>   0.1500 
 38 H        0.8040     4.6710     1.8060 H     1 <1>   0.1500 
 39 H       -5.9180    -3.9020     0.6970 H     1 <1>   0.1500 
 40 H       -3.1090    -3.6370    -1.6780 H     1 <1>   0.0800 
 41 H       -4.4290    -2.5010    -1.9300 H     1 <1>   0.0800 
 42 H       -4.7700    -4.1740    -1.5370 H     1 <1>   0.0800 
 43 H       -2.2780     6.8500    -1.3420 H     1 <1>   0.1500 
 44 H        0.5380     7.1000     1.8410 H     1 <1>   0.1500 
 45 H       -1.0020     8.2000     0.2690 H     1 <1>   0.1500 
@<TRIPOS>BOND
  1   1   2  2   
  2   2   3  am  
  3   2   4  1   
  4   3   5  1   
  5   3   6  1   
  6   4   7  1   
  7   4  23  1   
  8   4  24  1   
  9   5   8  1   
 10   5  25  1   
 11   5  26  1   
 12   6   9  1   
 13   6  27  1   
 14   6  28  1   
 15   7  10  1   
 16   7  11  1   
 17   7  29  1   
 18   8  12  1   
 19   8  13  2   
 20   9  14  1   
 21   9  30  1   
 22   9  31  1   
 23  10  15  ar  
 24  10  16  ar  
 25  11  32  1   
 26  11  33  1   
 27  11  34  1   
 28  12  17  1   
 29  12  18  1   
 30  13  19  1   
 31  13  35  1   
 32  14  36  1   
 33  15  20  ar  
 34  15  37  1   
 35  16  21  ar  
 36  16  38  1   
 37  17  19  2   
 38  17  39  1   
 39  18  40  1   
 40  18  41  1   
 41  18  42  1   
 42  20  22  ar  
 43  20  43  1   
 44  21  22  ar  
 45  21  44  1   
 46  22  45  1   
@<TRIPOS>SUBSTRUCTURE
  1 ****   2 GROUP 4 **** **** 0

# MOE 2024.06 (io_trps.svl 2023.06)
