@<TRIPOS>MOLECULE
NONAME
53 56 1 0 0 
SMALL
USER_CHARGES


@<TRIPOS>ATOM
  1 O        1.7830    -0.1890     2.9260 O.2   1 <1>  -0.5700 
  2 C        1.8460    -0.8660     1.9250 C.2   1 <1>   0.5690 
  3 N        2.4670    -0.4190     0.7700 N.am  1 <1>  -0.4770 
  4 C        1.2040    -2.2650     1.9720 C.3   1 <1>   0.1710 
  5 C        2.3740     0.9140     0.2870 C.ar  1 <1>   0.1170 
  6 C        3.3550    -1.3500     0.0230 C.3   1 <1>   0.1400 
  7 N       -0.1720    -2.3540     1.4080 N.3   1 <1>  -0.8100 
  8 C        3.2960     1.4200    -0.6360 C.ar  1 <1>  -0.1430 
  9 C        1.3390     1.7540     0.6960 C.ar  1 <1>  -0.1500 
 10 C        4.6800    -0.6590    -0.2920 C.3   1 <1>  -0.1600 
 11 C       -0.3040    -1.8500     0.0340 C.3   1 <1>   0.1100 
 12 C       -0.7080    -3.7250     1.4240 C.3   1 <1>   0.1100 
 13 C        3.1790     2.7180    -1.1070 C.ar  1 <1>  -0.1500 
 14 C        4.4410     0.5700    -1.1670 C.3   1 <1>  -0.0170 
 15 C        1.2270     3.0470     0.2230 C.ar  1 <1>  -0.1500 
 16 C       -1.5680    -2.5220    -0.4880 C.3   1 <1>   0.2000 
 17 C       -1.4710    -3.9270     0.1000 C.3   1 <1>  -0.0800 
 18 C        2.1500     3.5400    -0.6820 C.ar  1 <1>  -0.1430 
 19 O       -2.6480    -1.8930     0.0960 O.3   1 <1>  -0.6800 
 20 C       -0.7300    -4.8710    -0.8680 C.3   1 <1>  -0.0170 
 21 C        2.0330     4.9600    -1.2040 C.3   1 <1>  -0.0970 
 22 C       -0.5610    -6.2710    -0.2990 C.ar  1 <1>   0.1670 
 23 N        0.6400    -6.5850     0.1620 N.ar  1 <1>  -0.6200 
 24 C       -1.6440    -7.1490    -0.2860 C.ar  1 <1>   0.1600 
 25 C        0.6830    -7.8210     0.6300 C.ar  1 <1>   0.1600 
 26 N       -1.6030    -8.3830     0.1860 N.ar  1 <1>  -0.6200 
 27 C       -0.4010    -8.6910     0.6420 C.ar  1 <1>   0.1600 
 28 H        1.1590    -2.5580     3.0060 H     1 <1>   0.0800 
 29 H        1.8340    -2.9750     1.4720 H     1 <1>   0.0800 
 30 H        3.5660    -2.2250     0.6100 H     1 <1>   0.0800 
 31 H        2.8670    -1.6500    -0.8880 H     1 <1>   0.0800 
 32 H        0.6050     1.4010     1.3960 H     1 <1>   0.1500 
 33 H        5.1480    -0.3620     0.6310 H     1 <1>   0.0800 
 34 H        5.3400    -1.3410    -0.7970 H     1 <1>   0.0800 
 35 H       -0.3800    -0.7760     0.0100 H     1 <1>   0.0800 
 36 H        0.5380    -2.1620    -0.5570 H     1 <1>   0.0800 
 37 H        0.0820    -4.4470     1.5390 H     1 <1>   0.0800 
 38 H       -1.3810    -3.8240     2.2590 H     1 <1>   0.0800 
 39 H        3.8940     3.0950    -1.8150 H     1 <1>   0.1500 
 40 H        4.1950     0.2570    -2.1660 H     1 <1>   0.0800 
 41 H        5.3420     1.1560    -1.2130 H     1 <1>   0.0800 
 42 H        0.4170     3.6670     0.5650 H     1 <1>   0.1500 
 43 H       -1.6780    -2.4860    -1.5580 H     1 <1>   0.0800 
 44 H       -2.4520    -4.3280     0.2890 H     1 <1>   0.0800 
 45 H       -2.3920    -1.7150     1.0280 H     1 <1>   0.4000 
 46 H        0.2410    -4.4720    -1.1040 H     1 <1>   0.0800 
 47 H       -1.2820    -4.9390    -1.7890 H     1 <1>   0.0800 
 48 H        1.5380     5.5860    -0.4840 H     1 <1>   0.0800 
 49 H        1.4650     4.9650    -2.1170 H     1 <1>   0.0800 
 50 H        3.0070     5.3700    -1.3970 H     1 <1>   0.0800 
 51 H       -2.5870    -6.8140    -0.6820 H     1 <1>   0.1500 
 52 H        1.6230    -8.1660     1.0250 H     1 <1>   0.1500 
 53 H       -0.2670    -9.6790     1.0450 H     1 <1>   0.1500 
@<TRIPOS>BOND
  1   1   2  2   
  2   2   3  am  
  3   2   4  1   
  4   3   5  1   
  5   3   6  1   
  6   4   7  1   
  7   4  28  1   
  8   4  29  1   
  9   5   8  ar  
 10   5   9  ar  
 11   6  10  1   
 12   6  30  1   
 13   6  31  1   
 14   7  11  1   
 15   7  12  1   
 16   8  13  ar  
 17   8  14  1   
 18   9  15  ar  
 19   9  32  1   
 20  10  14  1   
 21  10  33  1   
 22  10  34  1   
 23  11  16  1   
 24  11  35  1   
 25  11  36  1   
 26  12  17  1   
 27  12  37  1   
 28  12  38  1   
 29  13  18  ar  
 30  13  39  1   
 31  14  40  1   
 32  14  41  1   
 33  15  18  ar  
 34  15  42  1   
 35  16  17  1   
 36  16  19  1   
 37  16  43  1   
 38  17  20  1   
 39  17  44  1   
 40  18  21  1   
 41  19  45  1   
 42  20  22  1   
 43  20  46  1   
 44  20  47  1   
 45  21  48  1   
 46  21  49  1   
 47  21  50  1   
 48  22  23  ar  
 49  22  24  ar  
 50  23  25  ar  
 51  24  26  ar  
 52  24  51  1   
 53  25  27  ar  
 54  25  52  1   
 55  26  27  ar  
 56  27  53  1   
@<TRIPOS>SUBSTRUCTURE
  1 ****  11 GROUP 4 **** **** 0

# MOE 2024.06 (io_trps.svl 2023.06)
