@<TRIPOS>MOLECULE
NONAME
46 48 1 0 0 
SMALL
USER_CHARGES


@<TRIPOS>ATOM
  1 O       -1.9110     0.7840    -2.0470 O.2   1 <1>  -0.5700 
  2 C       -1.9970    -0.1850    -1.3260 C.2   1 <1>   0.5690 
  3 N       -2.0730    -0.0750     0.0370 N.am  1 <1>  -0.6600 
  4 C       -1.9630    -1.5570    -1.9790 C.3   1 <1>  -0.0190 
  5 C       -2.1890    -1.2880     0.9040 C.3   1 <1>   0.2200 
  6 C       -2.1920     1.2410     0.7190 C.3   1 <1>   0.0600 
  7 C       -0.7120    -2.3340    -1.5430 C.3   1 <1>   0.1200 
  8 C       -3.2690    -2.3610    -1.8160 C.3   1 <1>   0.1100 
  9 C       -0.9160    -2.1550     0.8110 C.3   1 <1>   0.1200 
 10 C       -3.4850    -2.1040     0.6460 C.3   1 <1>   0.1100 
 11 O       -0.8890    -2.9770    -0.3200 O.3   1 <1>  -0.5600 
 12 N       -4.1140    -1.9230    -0.6870 N.3   1 <1>  -0.8100 
 13 C       -5.4870    -2.4490    -0.7550 C.3   1 <1>   0.2530 
 14 C       -5.5520    -3.9530    -0.5480 C.ar  1 <1>  -0.1440 
 15 C       -5.4340    -4.8350    -1.5970 C.ar  1 <1>   0.1600 
 16 C       -5.7470    -4.5010     0.6970 C.ar  1 <1>   0.1600 
 17 N       -5.4920    -6.1370    -1.4320 N.ar  1 <1>  -0.6200 
 18 N       -5.8090    -5.7980     0.8960 N.ar  1 <1>  -0.6200 
 19 C       -5.6740    -6.5540    -0.1870 C.ar  1 <1>   0.4770 
 20 C       -5.7340    -8.0750     0.0110 C.3   1 <1>   0.0630 
 21 C       -7.0890    -8.5270     0.5820 C.3   1 <1>  -0.2400 
 22 C       -4.5880    -8.5810     0.9030 C.3   1 <1>  -0.2400 
 23 H       -1.8380    -1.3850    -3.0320 H     1 <1>   0.0800 
 24 H       -2.2320    -0.9530     1.9250 H     1 <1>   0.0800 
 25 H       -1.4130     1.3450     1.4530 H     1 <1>   0.0800 
 26 H       -3.1510     1.3120     1.2010 H     1 <1>   0.0800 
 27 H       -2.1060     2.0470     0.0100 H     1 <1>   0.0800 
 28 H        0.1470    -1.6860    -1.4820 H     1 <1>   0.0800 
 29 H       -0.5040    -3.1030    -2.2660 H     1 <1>   0.0800 
 30 H       -3.0410    -3.4090    -1.7160 H     1 <1>   0.0800 
 31 H       -3.8360    -2.2350    -2.7220 H     1 <1>   0.0800 
 32 H       -0.8810    -2.8120     1.6610 H     1 <1>   0.0800 
 33 H       -0.0320    -1.5410     0.8240 H     1 <1>   0.0800 
 34 H       -4.1970    -1.8010     1.3940 H     1 <1>   0.0800 
 35 H       -3.2810    -3.1490     0.8100 H     1 <1>   0.0800 
 36 H       -6.0860    -1.9570    -0.0070 H     1 <1>   0.0800 
 37 H       -5.9130    -2.1960    -1.7120 H     1 <1>   0.0800 
 38 H       -5.2860    -4.4650    -2.5970 H     1 <1>   0.1500 
 39 H       -5.8560    -3.8610     1.5560 H     1 <1>   0.1500 
 40 H       -5.6200    -8.5360    -0.9550 H     1 <1>   0.0800 
 41 H       -7.2380    -8.1130     1.5640 H     1 <1>   0.0800 
 42 H       -7.1320    -9.5990     0.6450 H     1 <1>   0.0800 
 43 H       -7.8840    -8.1860    -0.0570 H     1 <1>   0.0800 
 44 H       -4.6730    -8.1660     1.8920 H     1 <1>   0.0800 
 45 H       -3.6430    -8.2800     0.4870 H     1 <1>   0.0800 
 46 H       -4.6090    -9.6530     0.9720 H     1 <1>   0.0800 
@<TRIPOS>BOND
  1   1   2  2   
  2   2   3  am  
  3   2   4  1   
  4   3   5  1   
  5   3   6  1   
  6   4   7  1   
  7   4   8  1   
  8   4  23  1   
  9   5   9  1   
 10   5  10  1   
 11   5  24  1   
 12   6  25  1   
 13   6  26  1   
 14   6  27  1   
 15   7  11  1   
 16   7  28  1   
 17   7  29  1   
 18   8  12  1   
 19   8  30  1   
 20   8  31  1   
 21   9  11  1   
 22   9  32  1   
 23   9  33  1   
 24  10  12  1   
 25  10  34  1   
 26  10  35  1   
 27  12  13  1   
 28  13  14  1   
 29  13  36  1   
 30  13  37  1   
 31  14  15  ar  
 32  14  16  ar  
 33  15  17  ar  
 34  15  38  1   
 35  16  18  ar  
 36  16  39  1   
 37  17  19  ar  
 38  18  19  ar  
 39  19  20  1   
 40  20  21  1   
 41  20  22  1   
 42  20  40  1   
 43  21  41  1   
 44  21  42  1   
 45  21  43  1   
 46  22  44  1   
 47  22  45  1   
 48  22  46  1   
@<TRIPOS>SUBSTRUCTURE
  1 ****  12 GROUP 4 **** **** 0

# MOE 2024.06 (io_trps.svl 2023.06)
