@<TRIPOS>MOLECULE
NONAME
53 55 1 0 0 
SMALL
USER_CHARGES


@<TRIPOS>ATOM
  1 S        0.1260     0.2270    -1.3150 S.o2  1 <1>   1.5760 
  2 O        0.8450    -0.8250    -1.9980 O.2   1 <1>  -0.6500 
  3 O       -0.5650     1.2510    -2.0660 O.2   1 <1>  -0.6500 
  4 N        1.1700     0.9910    -0.2310 N.am  1 <1>  -0.8490 
  5 N       -0.9580    -0.4870    -0.2400 N.am  1 <1>  -0.8490 
  6 C        2.4260     1.3480    -0.9170 C.3   1 <1>   0.1960 
  7 C        0.5090     2.1300     0.4170 C.3   1 <1>   0.1960 
  8 C       -2.0850    -1.1030    -0.9120 C.3   1 <1>   0.1960 
  9 C       -0.3720    -1.5360     0.5740 C.3   1 <1>   0.1960 
 10 C        3.4970     1.9930    -0.0240 C.3   1 <1>   0.2090 
 11 C        1.2330     2.5220     1.7070 C.3   1 <1>  -0.1600 
 12 C       -2.7030    -2.0160     0.1420 C.3   1 <1>  -0.1600 
 13 C       -1.5730    -2.2880     1.1360 C.3   1 <1>  -0.1600 
 14 N        3.1540     3.4110     0.3200 N.pl3 1 <1>  -0.8380 
 15 C        2.3120     3.5950     1.5300 C.3   1 <1>   0.2090 
 16 C        4.1630     4.3520     0.1740 C.ar  1 <1>   0.4100 
 17 N        5.2840     4.0240     0.8130 N.ar  1 <1>  -0.6200 
 18 C        4.0010     5.5530    -0.5520 C.ar  1 <1>   0.0860 
 19 C        6.2850     4.8770     0.7710 C.ar  1 <1>   0.1670 
 20 C        2.7930     5.9070    -1.2720 C.2   1 <1>   0.5440 
 21 C        5.0800     6.4280    -0.5670 C.ar  1 <1>  -0.1500 
 22 C        6.2390     6.0920     0.0980 C.ar  1 <1>  -0.1440 
 23 C        7.5330     4.4480     1.5200 C.3   1 <1>  -0.0970 
 24 O        2.5750     7.0460    -1.6330 O.2   1 <1>  -0.5700 
 25 N        1.8460     5.0030    -1.6000 N.am  1 <1>  -0.8000 
 26 C        7.4180     7.0560     0.0710 C.3   1 <1>  -0.0970 
 27 H        2.2210     2.0000    -1.7490 H     1 <1>   0.0800 
 28 H        2.8580     0.4460    -1.3170 H     1 <1>   0.0800 
 29 H       -0.4930     1.8420     0.6890 H     1 <1>   0.0800 
 30 H        0.4290     2.9650    -0.2600 H     1 <1>   0.0800 
 31 H       -1.7400    -1.6910    -1.7470 H     1 <1>   0.0800 
 32 H       -2.7810    -0.3570    -1.2610 H     1 <1>   0.0800 
 33 H        0.2480    -1.1220     1.3510 H     1 <1>   0.0800 
 34 H        0.2160    -2.2030    -0.0370 H     1 <1>   0.0800 
 35 H        4.4270     1.9820    -0.5670 H     1 <1>   0.0800 
 36 H        3.6410     1.4100     0.8680 H     1 <1>   0.0800 
 37 H        1.6490     1.6470     2.1730 H     1 <1>   0.0800 
 38 H        0.5060     2.9180     2.3920 H     1 <1>   0.0800 
 39 H       -3.0730    -2.9200    -0.3080 H     1 <1>   0.0800 
 40 H       -3.5150    -1.5070     0.6300 H     1 <1>   0.0800 
 41 H       -1.8240    -1.8910     2.1040 H     1 <1>   0.0800 
 42 H       -1.3570    -3.3380     1.2300 H     1 <1>   0.0800 
 43 H        2.9460     3.6090     2.4020 H     1 <1>   0.0800 
 44 H        1.8350     4.5580     1.4610 H     1 <1>   0.0800 
 45 H        5.0020     7.3590    -1.1010 H     1 <1>   0.1500 
 46 H        7.3480     3.5450     2.0740 H     1 <1>   0.0800 
 47 H        7.8310     5.2120     2.2140 H     1 <1>   0.0800 
 48 H        8.3300     4.2640     0.8250 H     1 <1>   0.0800 
 49 H        0.9890     5.2890    -2.0720 H     1 <1>   0.3700 
 50 H        1.8920     4.0670    -1.1810 H     1 <1>   0.3700 
 51 H        8.2930     6.5630    -0.3140 H     1 <1>   0.0800 
 52 H        7.6250     7.4140     1.0630 H     1 <1>   0.0800 
 53 H        7.2090     7.9040    -0.5560 H     1 <1>   0.0800 
@<TRIPOS>BOND
  1   1   2  2   
  2   1   3  2   
  3   1   4  am  
  4   1   5  am  
  5   4   6  1   
  6   4   7  1   
  7   5   8  1   
  8   5   9  1   
  9   6  10  1   
 10   6  27  1   
 11   6  28  1   
 12   7  11  1   
 13   7  29  1   
 14   7  30  1   
 15   8  12  1   
 16   8  31  1   
 17   8  32  1   
 18   9  13  1   
 19   9  33  1   
 20   9  34  1   
 21  10  14  1   
 22  10  35  1   
 23  10  36  1   
 24  11  15  1   
 25  11  37  1   
 26  11  38  1   
 27  12  13  1   
 28  12  39  1   
 29  12  40  1   
 30  13  41  1   
 31  13  42  1   
 32  14  15  1   
 33  14  16  1   
 34  15  43  1   
 35  15  44  1   
 36  16  17  ar  
 37  16  18  ar  
 38  17  19  ar  
 39  18  20  1   
 40  18  21  ar  
 41  19  22  ar  
 42  19  23  1   
 43  20  24  2   
 44  20  25  am  
 45  21  22  ar  
 46  21  45  1   
 47  22  26  1   
 48  23  46  1   
 49  23  47  1   
 50  23  48  1   
 51  25  49  1   
 52  25  50  1   
 53  26  51  1   
 54  26  52  1   
 55  26  53  1   
@<TRIPOS>SUBSTRUCTURE
  1 ****  14 GROUP 4 **** **** 0

# MOE 2024.06 (io_trps.svl 2023.06)
