@<TRIPOS>MOLECULE
NONAME
62 66 1 0 0 
SMALL
USER_CHARGES


@<TRIPOS>ATOM
  1 S        0.5920     2.4160     1.8500 S.3   1 <1>  -0.0800 
  2 C        1.0240     1.4410     0.4610 C.2   1 <1>  -0.1400 
  3 C        2.1670     2.1320     2.5700 C.2   1 <1>  -0.1100 
  4 C        2.2750     0.9640     0.5630 C.2   1 <1>  -0.1810 
  5 C        0.0230     1.2170    -0.6510 C.3   1 <1>   0.0200 
  6 C        2.9390     1.3660     1.7740 C.2   1 <1>  -0.1810 
  7 C        2.8580     0.0610    -0.5150 C.3   1 <1>   0.0210 
  8 C        0.5200     0.0770    -1.5590 C.3   1 <1>  -0.1600 
  9 C        4.3730     0.9940     2.0980 C.3   1 <1>   0.3210 
 10 C        2.0380     0.1600    -1.8180 C.3   1 <1>  -0.1600 
 11 N        5.2120     1.8390     1.2310 N.am  1 <1>  -0.7300 
 12 C        5.5600     3.1010     1.5780 C.2   1 <1>   0.5690 
 13 O        5.6830     3.4280     2.7330 O.2   1 <1>  -0.5700 
 14 C        5.8020     4.1640     0.5050 C.3   1 <1>   0.0610 
 15 C        5.1880     5.5190     0.9450 C.3   1 <1>   0.4230 
 16 C        5.0340     3.9320    -0.8360 C.3   1 <1>  -0.1600 
 17 C        7.3440     4.2390     0.3170 C.3   1 <1>   0.0210 
 18 N        5.0290     6.1890    -0.3630 N.4   1 <1>  -0.9590 
 19 C        3.7100     5.3770     1.3720 C.3   1 <1>  -0.1600 
 20 C        4.1540     5.1820    -0.9690 C.3   1 <1>   0.4230 
 21 C        7.9140     5.4830    -0.3570 C.2   1 <1>   0.0460 
 22 C        4.5500     7.6110    -0.3330 C.3   1 <1>   0.3430 
 23 C        3.0030     5.0880     0.0400 C.3   1 <1>  -0.1600 
 24 N        7.5790     5.7390    -1.6810 N.2   1 <1>  -0.5650 
 25 C        8.7510     6.3580     0.2210 C.2   1 <1>  -0.1100 
 26 C        4.5190     8.2290    -1.7330 C.3   1 <1>   0.1200 
 27 C        8.1840     6.7740    -2.1190 C.2   1 <1>   0.2280 
 28 S        9.1810     7.5830    -0.9350 S.3   1 <1>  -0.0800 
 29 O        4.1050     9.5470    -1.5970 O.3   1 <1>  -0.5600 
 30 C        4.0350    10.2580    -2.7940 C.3   1 <1>   0.0400 
 31 H        2.3570     2.5870     3.5270 H     1 <1>   0.1500 
 32 H       -0.9370     0.9620    -0.2370 H     1 <1>   0.0800 
 33 H       -0.0790     2.1260    -1.2170 H     1 <1>   0.0800 
 34 H        3.8780     0.3230    -0.7240 H     1 <1>   0.0800 
 35 H        2.8390    -0.9540    -0.1560 H     1 <1>   0.0800 
 36 H        0.3030    -0.8630    -1.0810 H     1 <1>   0.0800 
 37 H       -0.0170     0.1020    -2.4910 H     1 <1>   0.0800 
 38 H        4.5550    -0.0490     1.9020 H     1 <1>   0.0800 
 39 H        4.5880     1.1950     3.1350 H     1 <1>   0.0800 
 40 H        2.2560     1.0970    -2.3010 H     1 <1>   0.0800 
 41 H        2.3340    -0.6310    -2.4860 H     1 <1>   0.0800 
 42 H        5.1410     1.5840     0.2490 H     1 <1>   0.3700 
 43 H        5.7980     6.0570     1.6530 H     1 <1>   0.0800 
 44 H        4.4140     3.0550    -0.8460 H     1 <1>   0.0800 
 45 H        5.7030     3.8670    -1.6760 H     1 <1>   0.0800 
 46 H        7.6740     3.3750    -0.2330 H     1 <1>   0.0800 
 47 H        7.8090     4.1730     1.2870 H     1 <1>   0.0800 
 48 H        5.9450     6.1500    -0.8510 H     1 <1>   0.4500 
 49 H        3.5340     4.6030     2.0970 H     1 <1>   0.0800 
 50 H        3.3590     6.2980     1.8020 H     1 <1>   0.0800 
 51 H        3.8480     5.3990    -1.9810 H     1 <1>   0.0800 
 52 H        3.5620     7.6630     0.0910 H     1 <1>   0.0800 
 53 H        5.2150     8.1960     0.2800 H     1 <1>   0.0800 
 54 H        2.2480     5.8260    -0.1690 H     1 <1>   0.0800 
 55 H        2.5400     4.1160     0.0300 H     1 <1>   0.0800 
 56 H        9.1870     6.4230     1.2030 H     1 <1>   0.1500 
 57 H        3.8160     7.7170    -2.3650 H     1 <1>   0.0800 
 58 H        5.5020     8.2250    -2.1720 H     1 <1>   0.0800 
 59 H        8.1540     7.2060    -3.1060 H     1 <1>   0.1500 
 60 H        3.7060    11.2580    -2.5700 H     1 <1>   0.0800 
 61 H        3.3260     9.7850    -3.4520 H     1 <1>   0.0800 
 62 H        5.0110    10.2940    -3.2480 H     1 <1>   0.0800 
@<TRIPOS>BOND
  1   1   2  1   
  2   1   3  1   
  3   2   4  2   
  4   2   5  1   
  5   3   6  2   
  6   3  31  1   
  7   4   6  1   
  8   4   7  1   
  9   5   8  1   
 10   5  32  1   
 11   5  33  1   
 12   6   9  1   
 13   7  10  1   
 14   7  34  1   
 15   7  35  1   
 16   8  10  1   
 17   8  36  1   
 18   8  37  1   
 19   9  11  1   
 20   9  38  1   
 21   9  39  1   
 22  10  40  1   
 23  10  41  1   
 24  11  12  am  
 25  11  42  1   
 26  12  13  2   
 27  12  14  1   
 28  14  15  1   
 29  14  16  1   
 30  14  17  1   
 31  15  18  1   
 32  15  19  1   
 33  15  43  1   
 34  16  20  1   
 35  16  44  1   
 36  16  45  1   
 37  17  21  1   
 38  17  46  1   
 39  17  47  1   
 40  18  20  1   
 41  18  22  1   
 42  18  48  1   
 43  19  23  1   
 44  19  49  1   
 45  19  50  1   
 46  20  23  1   
 47  20  51  1   
 48  21  24  1   
 49  21  25  2   
 50  22  26  1   
 51  22  52  1   
 52  22  53  1   
 53  23  54  1   
 54  23  55  1   
 55  24  27  2   
 56  25  28  1   
 57  25  56  1   
 58  26  29  1   
 59  26  57  1   
 60  26  58  1   
 61  27  28  1   
 62  27  59  1   
 63  29  30  1   
 64  30  60  1   
 65  30  61  1   
 66  30  62  1   
@<TRIPOS>SUBSTRUCTURE
  1 ****  16 GROUP 4 **** **** 0

# MOE 2024.06 (io_trps.svl 2023.06)
