@<TRIPOS>MOLECULE
NONAME
41 43 1 0 0 
SMALL
USER_CHARGES


@<TRIPOS>ATOM
  1 O       -0.1190     1.1200    -1.2190 O.co2 1 <1>  -0.9000 
  2 C       -0.9320     0.2980    -0.7630 C.2   1 <1>   0.9060 
  3 O       -0.8040    -0.9220    -0.8420 O.co2 1 <1>  -0.9000 
  4 C       -2.1510     0.9100    -0.0470 C.3   1 <1>   0.3170 
  5 N       -2.0050     2.4100     0.0520 N.4   1 <1>  -0.9590 
  6 C       -3.4770     0.6780    -0.7790 C.3   1 <1>  -0.1600 
  7 C       -3.2440     3.0370    -0.4830 C.3   1 <1>   0.3430 
  8 C       -1.6210     2.8330     1.4060 C.3   1 <1>   0.5240 
  9 C       -4.2940     1.9230    -0.4800 C.3   1 <1>   0.2000 
 10 C       -1.2950     4.3090     1.3610 C.2   1 <1>  -0.1810 
 11 O       -4.8120     1.7990     0.8050 O.3   1 <1>  -0.6800 
 12 C       -1.9430     5.3090     2.0720 C.2   1 <1>   0.1390 
 13 C       -0.3530     4.9600     0.6430 C.2   1 <1>  -0.3020 
 14 N       -1.4560     6.4790     1.8170 N.2   1 <1>  -0.7070 
 15 N       -0.4450     6.2850     0.9270 N.pl3 1 <1>   0.5930 
 16 C        0.3490     7.3420     0.3870 C.ar  1 <1>  -0.0230 
 17 C       -0.1520     8.6390     0.3120 C.ar  1 <1>  -0.1500 
 18 C        1.6410     7.1110    -0.0800 C.ar  1 <1>  -0.1500 
 19 C        0.6060     9.6670    -0.2190 C.ar  1 <1>  -0.1500 
 20 C        2.3990     8.1390    -0.6120 C.ar  1 <1>  -0.1500 
 21 C        1.8850     9.4220    -0.6870 C.ar  1 <1>  -0.1440 
 22 C        2.7170    10.5510    -1.2680 C.3   1 <1>  -0.0970 
 23 H       -2.2130     0.4800     0.9360 H     1 <1>   0.0800 
 24 H       -1.1820     2.5720    -0.5730 H     1 <1>   0.4500 
 25 H       -3.9510    -0.2350    -0.4680 H     1 <1>   0.0800 
 26 H       -3.2840     0.6150    -1.8370 H     1 <1>   0.0800 
 27 H       -3.5640     3.8800     0.1070 H     1 <1>   0.0800 
 28 H       -3.0670     3.3560    -1.4960 H     1 <1>   0.0800 
 29 H       -2.4310     2.6470     2.0930 H     1 <1>   0.0800 
 30 H       -0.7520     2.2820     1.7280 H     1 <1>   0.0800 
 31 H       -5.1000     2.1000    -1.1720 H     1 <1>   0.0800 
 32 H       -5.4930     1.0950     0.8340 H     1 <1>   0.4000 
 33 H       -2.7610     5.1510     2.7580 H     1 <1>   0.1500 
 34 H        0.3690     4.5690    -0.0500 H     1 <1>   0.1500 
 35 H       -1.1450     8.8490     0.6750 H     1 <1>   0.1500 
 36 H        2.0710     6.1260    -0.0290 H     1 <1>   0.1500 
 37 H        0.1940    10.6600    -0.2640 H     1 <1>   0.1500 
 38 H        3.3950     7.9370    -0.9670 H     1 <1>   0.1500 
 39 H        2.0830    11.2780    -1.7440 H     1 <1>   0.0800 
 40 H        3.4070    10.1730    -2.0010 H     1 <1>   0.0800 
 41 H        3.2720    11.0340    -0.4840 H     1 <1>   0.0800 
@<TRIPOS>BOND
  1   1   2  ar  
  2   2   3  ar  
  3   2   4  1   
  4   4   5  1   
  5   4   6  1   
  6   4  23  1   
  7   5   7  1   
  8   5   8  1   
  9   5  24  1   
 10   6   9  1   
 11   6  25  1   
 12   6  26  1   
 13   7   9  1   
 14   7  27  1   
 15   7  28  1   
 16   8  10  1   
 17   8  29  1   
 18   8  30  1   
 19   9  11  1   
 20   9  31  1   
 21  10  12  1   
 22  10  13  2   
 23  11  32  1   
 24  12  14  2   
 25  12  33  1   
 26  13  15  1   
 27  13  34  1   
 28  14  15  1   
 29  15  16  1   
 30  16  17  ar  
 31  16  18  ar  
 32  17  19  ar  
 33  17  35  1   
 34  18  20  ar  
 35  18  36  1   
 36  19  21  ar  
 37  19  37  1   
 38  20  21  ar  
 39  20  38  1   
 40  21  22  1   
 41  22  39  1   
 42  22  40  1   
 43  22  41  1   
@<TRIPOS>SUBSTRUCTURE
  1 ****  13 GROUP 4 **** **** 0

# MOE 2024.06 (io_trps.svl 2023.06)
