@<TRIPOS>MOLECULE
NONAME
51 53 1 0 0 
SMALL
USER_CHARGES


@<TRIPOS>ATOM
  1 O       -4.2350     3.0900     0.2360 O.2   1 <1>  -0.5700 
  2 C       -3.0750     2.8130     0.0480 C.2   1 <1>   0.5690 
  3 N       -2.7050     1.7360    -0.6870 N.am  1 <1>  -0.7300 
  4 C       -1.9920     3.6840     0.6630 C.3   1 <1>   0.0440 
  5 C       -3.6060     0.7200    -1.2660 C.3   1 <1>   0.2200 
  6 C       -0.6260     2.9780     0.6660 C.ar  1 <1>  -0.1440 
  7 C       -3.3930    -0.5930    -0.5340 C.3   1 <1>  -0.0800 
  8 C       -3.1570     0.3780    -2.6870 C.3   1 <1>   0.1200 
  9 C       -0.2930     2.1060     1.7030 C.ar  1 <1>  -0.1440 
 10 C        0.2740     3.1690    -0.3820 C.ar  1 <1>  -0.1440 
 11 C       -2.1760    -1.1540    -1.2710 C.3   1 <1>   0.1200 
 12 C       -4.6220    -1.5130    -0.6530 C.3   1 <1>  -0.0160 
 13 O       -2.2730    -0.7030    -2.5890 O.3   1 <1>  -0.5600 
 14 C        0.9280     1.4520     1.6880 C.ar  1 <1>  -0.1500 
 15 C       -1.2350     1.8290     2.8700 C.3   1 <1>  -0.0970 
 16 C        1.4880     2.5020    -0.3760 C.ar  1 <1>  -0.1500 
 17 C       -0.0260     4.0870    -1.5620 C.3   1 <1>  -0.0970 
 18 C       -4.4130    -2.8220     0.0930 C.ar  1 <1>  -0.1440 
 19 C        1.8220     1.6430     0.6520 C.ar  1 <1>  -0.1440 
 20 C       -4.1200    -4.0010    -0.5620 C.ar  1 <1>  -0.1500 
 21 C       -4.5060    -2.8960     1.4680 C.ar  1 <1>  -0.1500 
 22 C        3.1580     0.9220     0.6450 C.3   1 <1>  -0.0970 
 23 C       -3.9350    -5.1630     0.1690 C.ar  1 <1>   0.1600 
 24 C       -4.3030    -4.1100     2.1040 C.ar  1 <1>   0.1600 
 25 N       -4.0180    -5.2450     1.4870 N.ar  1 <1>  -0.6200 
 26 H       -1.7010     1.5350    -0.7620 H     1 <1>   0.3700 
 27 H       -1.9540     4.6080     0.1220 H     1 <1>   0.0800 
 28 H       -2.2860     3.9390     1.6630 H     1 <1>   0.0800 
 29 H       -4.6260     1.0670    -1.2340 H     1 <1>   0.0800 
 30 H       -3.1760    -0.4320     0.5070 H     1 <1>   0.0800 
 31 H       -2.6630     1.2030    -3.1700 H     1 <1>   0.0800 
 32 H       -3.9940     0.0570    -3.2810 H     1 <1>   0.0800 
 33 H       -2.1270    -2.2280    -1.2650 H     1 <1>   0.0800 
 34 H       -1.2650    -0.7530    -0.8570 H     1 <1>   0.0800 
 35 H       -4.8340    -1.7200    -1.6880 H     1 <1>   0.0800 
 36 H       -5.4820    -1.0150    -0.2400 H     1 <1>   0.0800 
 37 H        1.1900     0.7850     2.4890 H     1 <1>   0.1500 
 38 H       -0.8570     1.0370     3.4910 H     1 <1>   0.0800 
 39 H       -2.2030     1.5320     2.5100 H     1 <1>   0.0800 
 40 H       -1.3370     2.7100     3.4770 H     1 <1>   0.0800 
 41 H        2.1870     2.6510    -1.1800 H     1 <1>   0.1500 
 42 H        0.7270     3.9950    -2.3240 H     1 <1>   0.0800 
 43 H       -0.0460     5.1100    -1.2340 H     1 <1>   0.0800 
 44 H       -0.9730     3.8360    -2.0040 H     1 <1>   0.0800 
 45 H       -4.0310    -4.0270    -1.6330 H     1 <1>   0.1500 
 46 H       -4.7340    -2.0220     2.0510 H     1 <1>   0.1500 
 47 H        3.0940     0.0010     1.1950 H     1 <1>   0.0800 
 48 H        3.9090     1.5450     1.0960 H     1 <1>   0.0800 
 49 H        3.4550     0.6940    -0.3630 H     1 <1>   0.0800 
 50 H       -3.7060    -6.0720    -0.3600 H     1 <1>   0.1500 
 51 H       -4.3800    -4.1490     3.1770 H     1 <1>   0.1500 
@<TRIPOS>BOND
  1   1   2  2   
  2   2   3  am  
  3   2   4  1   
  4   3   5  1   
  5   3  26  1   
  6   4   6  1   
  7   4  27  1   
  8   4  28  1   
  9   5   7  1   
 10   5   8  1   
 11   5  29  1   
 12   6   9  ar  
 13   6  10  ar  
 14   7  11  1   
 15   7  12  1   
 16   7  30  1   
 17   8  13  1   
 18   8  31  1   
 19   8  32  1   
 20   9  14  ar  
 21   9  15  1   
 22  10  16  ar  
 23  10  17  1   
 24  11  13  1   
 25  11  33  1   
 26  11  34  1   
 27  12  18  1   
 28  12  35  1   
 29  12  36  1   
 30  14  19  ar  
 31  14  37  1   
 32  15  38  1   
 33  15  39  1   
 34  15  40  1   
 35  16  19  ar  
 36  16  41  1   
 37  17  42  1   
 38  17  43  1   
 39  17  44  1   
 40  18  20  ar  
 41  18  21  ar  
 42  19  22  1   
 43  20  23  ar  
 44  20  45  1   
 45  21  24  ar  
 46  21  46  1   
 47  22  47  1   
 48  22  48  1   
 49  22  49  1   
 50  23  25  ar  
 51  23  50  1   
 52  24  25  ar  
 53  24  51  1   
@<TRIPOS>SUBSTRUCTURE
  1 ****   7 GROUP 4 **** **** 0

# MOE 2024.06 (io_trps.svl 2023.06)
