@<TRIPOS>MOLECULE
NONAME
54 57 1 0 0 
SMALL
USER_CHARGES


@<TRIPOS>ATOM
  1 O       -1.2670    -0.4200     1.5360 O.2   1 <1>  -0.5700 
  2 C       -1.5940     0.1250     0.5060 C.2   1 <1>   0.5690 
  3 N       -1.7890    -0.6030    -0.6490 N.am  1 <1>  -0.5090 
  4 C       -1.7590     1.6530     0.5930 C.3   1 <1>  -0.0190 
  5 C       -1.4280    -2.0400    -0.7130 C.3   1 <1>   0.0490 
  6 C       -2.6340    -0.1620    -1.7890 C.3   1 <1>   0.3210 
  7 C       -3.2150     2.1540     0.4930 C.3   1 <1>  -0.1600 
  8 C       -0.8010     2.4320    -0.3410 C.3   1 <1>  -0.1600 
  9 C       -0.0290    -2.4620    -0.3890 C.3   1 <1>  -0.2000 
 10 C       -0.5100    -2.5020    -1.8030 C.3   1 <1>  -0.2000 
 11 C       -4.1090    -0.3470    -1.4620 C.2   1 <1>  -0.1810 
 12 C       -3.3490     3.6490     0.8460 C.3   1 <1>   0.2000 
 13 C       -1.2730     3.8700    -0.6350 C.3   1 <1>  -0.1600 
 14 C       -5.1670     0.0530    -2.2680 C.2   1 <1>   0.1390 
 15 C       -4.7050    -0.8750    -0.3710 C.2   1 <1>  -0.3020 
 16 O       -4.4100     4.1830     0.0900 O.3   1 <1>  -0.5600 
 17 C       -2.0560     4.4550     0.5450 C.3   1 <1>   0.2000 
 18 N       -6.3160    -0.1960    -1.7270 N.2   1 <1>  -0.7070 
 19 N       -6.0480    -0.7870    -0.5330 N.pl3 1 <1>   0.5930 
 20 C       -5.6910     3.8220     0.5120 C.3   1 <1>   0.0400 
 21 O       -2.3940     5.7540     0.2280 O.3   1 <1>  -0.6800 
 22 C       -7.0530    -1.1770     0.4030 C.ar  1 <1>  -0.0230 
 23 C       -6.8170    -2.1800     1.3430 C.ar  1 <1>  -0.1500 
 24 C       -8.3010    -0.5550     0.4040 C.ar  1 <1>  -0.1500 
 25 C       -7.7910    -2.5400     2.2570 C.ar  1 <1>  -0.1500 
 26 C       -9.2760    -0.9160     1.3170 C.ar  1 <1>  -0.1500 
 27 C       -9.0210    -1.9080     2.2460 C.ar  1 <1>  -0.1500 
 28 H       -1.4500     1.9040     1.5940 H     1 <1>   0.0800 
 29 H       -2.2330    -2.6840    -0.4000 H     1 <1>   0.1000 
 30 H       -2.4400     0.8680    -2.0200 H     1 <1>   0.0800 
 31 H       -2.3920    -0.7390    -2.6640 H     1 <1>   0.0800 
 32 H       -3.8370     1.5760     1.1530 H     1 <1>   0.0800 
 33 H       -3.5690     2.0260    -0.5090 H     1 <1>   0.0800 
 34 H        0.1650     2.4710     0.1340 H     1 <1>   0.0800 
 35 H       -0.6620     1.9180    -1.2750 H     1 <1>   0.0800 
 36 H        0.6730    -1.7050    -0.0870 H     1 <1>   0.1000 
 37 H        0.1140    -3.3900     0.1360 H     1 <1>   0.1000 
 38 H       -0.6750    -3.4660    -2.2500 H     1 <1>   0.1000 
 39 H       -0.0940    -1.7880    -2.4920 H     1 <1>   0.1000 
 40 H       -3.5770     3.7670     1.8920 H     1 <1>   0.0800 
 41 H       -1.9150     3.8620    -1.5000 H     1 <1>   0.0800 
 42 H       -0.4210     4.4910    -0.8530 H     1 <1>   0.0800 
 43 H       -5.0610     0.5230    -3.2320 H     1 <1>   0.1500 
 44 H       -4.2550    -1.2930     0.5100 H     1 <1>   0.1500 
 45 H       -1.4210     4.4820     1.4150 H     1 <1>   0.0800 
 46 H       -6.4040     4.3500    -0.0960 H     1 <1>   0.0800 
 47 H       -5.8200     4.1010     1.5440 H     1 <1>   0.0800 
 48 H       -5.8300     2.7630     0.3840 H     1 <1>   0.0800 
 49 H       -3.3050     5.7060    -0.1450 H     1 <1>   0.4000 
 50 H       -5.8700    -2.6910     1.3650 H     1 <1>   0.1500 
 51 H       -8.5100     0.2160    -0.3190 H     1 <1>   0.1500 
 52 H       -7.5930    -3.3160     2.9770 H     1 <1>   0.1500 
 53 H      -10.2340    -0.4250     1.3020 H     1 <1>   0.1500 
 54 H       -9.7790    -2.1890     2.9570 H     1 <1>   0.1500 
@<TRIPOS>BOND
  1   1   2  2   
  2   2   3  am  
  3   2   4  1   
  4   3   5  1   
  5   3   6  1   
  6   4   7  1   
  7   4   8  1   
  8   4  28  1   
  9   5   9  1   
 10   5  10  1   
 11   5  29  1   
 12   6  11  1   
 13   6  30  1   
 14   6  31  1   
 15   7  12  1   
 16   7  32  1   
 17   7  33  1   
 18   8  13  1   
 19   8  34  1   
 20   8  35  1   
 21   9  10  1   
 22   9  36  1   
 23   9  37  1   
 24  10  38  1   
 25  10  39  1   
 26  11  14  1   
 27  11  15  2   
 28  12  16  1   
 29  12  17  1   
 30  12  40  1   
 31  13  17  1   
 32  13  41  1   
 33  13  42  1   
 34  14  18  2   
 35  14  43  1   
 36  15  19  1   
 37  15  44  1   
 38  16  20  1   
 39  17  21  1   
 40  17  45  1   
 41  18  19  1   
 42  19  22  1   
 43  20  46  1   
 44  20  47  1   
 45  20  48  1   
 46  21  49  1   
 47  22  23  ar  
 48  22  24  ar  
 49  23  25  ar  
 50  23  50  1   
 51  24  26  ar  
 52  24  51  1   
 53  25  27  ar  
 54  25  52  1   
 55  26  27  ar  
 56  26  53  1   
 57  27  54  1   
@<TRIPOS>SUBSTRUCTURE
  1 ****  15 GROUP 4 **** **** 0

# MOE 2024.06 (io_trps.svl 2023.06)
