@<TRIPOS>MOLECULE
NONAME
52 54 1 0 0 
SMALL
USER_CHARGES


@<TRIPOS>ATOM
  1 O       -0.8380     0.1360    -1.0870 O.2   1 <1>  -0.5700 
  2 C       -1.6490     0.9710    -0.7710 C.2   1 <1>   0.5690 
  3 N       -1.3450     2.2880    -0.7490 N.am  1 <1>  -0.7300 
  4 C       -3.0550     0.5170    -0.3860 C.3   1 <1>  -0.0190 
  5 C       -0.0170     2.8330    -1.0700 C.3   1 <1>   0.2840 
  6 C       -3.0100    -0.3910     0.8580 C.3   1 <1>  -0.1600 
  7 C       -3.7300    -0.2160    -1.5620 C.3   1 <1>  -0.1600 
  8 C       -0.0030     4.2860    -0.6340 C.ar  1 <1>  -0.1440 
  9 C       -4.3760    -0.9920     1.1830 C.3   1 <1>   0.3430 
 10 C       -5.0740    -0.8230    -1.1700 C.3   1 <1>   0.3430 
 11 C        0.4180     4.6310     0.6410 C.ar  1 <1>  -0.1500 
 12 C       -0.4250     5.2800    -1.5040 C.ar  1 <1>  -0.1500 
 13 N       -4.8860    -1.7350    -0.0040 N.4   1 <1>  -0.9590 
 14 C        0.4200     5.9550     1.0460 C.ar  1 <1>  -0.1500 
 15 C       -0.4250     6.6030    -1.1010 C.ar  1 <1>  -0.1500 
 16 C       -6.1490    -2.4530     0.3630 C.3   1 <1>   0.3430 
 17 C       -0.0040     6.9520     0.1720 C.ar  1 <1>   0.0820 
 18 C       -6.5580    -3.5210    -0.6610 C.3   1 <1>   0.0200 
 19 O       -0.0360     8.2710     0.4860 O.3   1 <1>  -0.3630 
 20 C       -7.8340    -4.1890    -0.1870 C.2   1 <1>   0.0060 
 21 C        0.3920     8.7350     1.7470 C.3   1 <1>   0.0400 
 22 N       -8.4860    -3.7970     0.8590 N.2   1 <1>  -0.5650 
 23 N       -8.4030    -5.2450    -0.8130 N.pl3 1 <1>   0.0330 
 24 C       -9.5360    -4.6400     0.9230 C.2   1 <1>   0.0770 
 25 C       -9.5000    -5.5300    -0.0900 C.2   1 <1>  -0.3020 
 26 H       -2.0150     3.0050    -0.4640 H     1 <1>   0.3700 
 27 H       -3.6390     1.3890    -0.1490 H     1 <1>   0.0800 
 28 H        0.1610     2.7540    -2.1300 H     1 <1>   0.0800 
 29 H        0.7440     2.2720    -0.5540 H     1 <1>   0.0800 
 30 H       -2.6660     0.1810     1.7030 H     1 <1>   0.0800 
 31 H       -2.3030    -1.1890     0.7060 H     1 <1>   0.0800 
 32 H       -3.0860    -0.9980    -1.9260 H     1 <1>   0.0800 
 33 H       -3.8780     0.4760    -2.3730 H     1 <1>   0.0800 
 34 H       -5.0660    -0.2070     1.4490 H     1 <1>   0.0800 
 35 H       -4.2810    -1.6600     2.0250 H     1 <1>   0.0800 
 36 H       -5.4760    -1.3660    -2.0100 H     1 <1>   0.0800 
 37 H       -5.7670    -0.0370    -0.9120 H     1 <1>   0.0800 
 38 H        0.7470     3.8680     1.3260 H     1 <1>   0.1500 
 39 H       -0.7560     5.0300    -2.4970 H     1 <1>   0.1500 
 40 H       -4.1680    -2.4290    -0.2530 H     1 <1>   0.4500 
 41 H        0.7530     6.1900     2.0380 H     1 <1>   0.1500 
 42 H       -0.7500     7.3770    -1.7720 H     1 <1>   0.1500 
 43 H       -6.9570    -1.7470     0.4720 H     1 <1>   0.0800 
 44 H       -6.0230    -2.9430     1.3150 H     1 <1>   0.0800 
 45 H       -5.7850    -4.2630    -0.7450 H     1 <1>   0.0800 
 46 H       -6.7440    -3.0770    -1.6200 H     1 <1>   0.0800 
 47 H        0.2820     9.8040     1.7630 H     1 <1>   0.0800 
 48 H        1.4250     8.4710     1.8850 H     1 <1>   0.0800 
 49 H       -0.2260     8.2930     2.5090 H     1 <1>   0.0800 
 50 H       -8.0810    -5.7330    -1.6550 H     1 <1>   0.2700 
 51 H      -10.2730    -4.5610     1.7060 H     1 <1>   0.1500 
 52 H      -10.1810    -6.3290    -0.3270 H     1 <1>   0.1500 
@<TRIPOS>BOND
  1   1   2  2   
  2   2   3  am  
  3   2   4  1   
  4   3   5  1   
  5   3  26  1   
  6   4   6  1   
  7   4   7  1   
  8   4  27  1   
  9   5   8  1   
 10   5  28  1   
 11   5  29  1   
 12   6   9  1   
 13   6  30  1   
 14   6  31  1   
 15   7  10  1   
 16   7  32  1   
 17   7  33  1   
 18   8  11  ar  
 19   8  12  ar  
 20   9  13  1   
 21   9  34  1   
 22   9  35  1   
 23  10  13  1   
 24  10  36  1   
 25  10  37  1   
 26  11  14  ar  
 27  11  38  1   
 28  12  15  ar  
 29  12  39  1   
 30  13  16  1   
 31  13  40  1   
 32  14  17  ar  
 33  14  41  1   
 34  15  17  ar  
 35  15  42  1   
 36  16  18  1   
 37  16  43  1   
 38  16  44  1   
 39  17  19  1   
 40  18  20  1   
 41  18  45  1   
 42  18  46  1   
 43  19  21  1   
 44  20  22  2   
 45  20  23  1   
 46  21  47  1   
 47  21  48  1   
 48  21  49  1   
 49  22  24  1   
 50  23  25  1   
 51  23  50  1   
 52  24  25  2   
 53  24  51  1   
 54  25  52  1   
@<TRIPOS>SUBSTRUCTURE
  1 ****   4 GROUP 4 **** **** 0

# MOE 2024.06 (io_trps.svl 2023.06)
