@<TRIPOS>MOLECULE
NONAME
51 52 1 0 0 
SMALL
USER_CHARGES


@<TRIPOS>ATOM
  1 O       -0.8700    -0.2270    -1.0210 O.2   1 <1>  -0.5700 
  2 C       -1.8700     0.4490    -0.9560 C.2   1 <1>   0.5690 
  3 N       -3.1160    -0.1080    -1.0840 N.am  1 <1>  -0.6600 
  4 C       -1.7190     1.9500    -0.7130 C.3   1 <1>  -0.0990 
  5 C       -3.2660    -1.5560    -1.4040 C.3   1 <1>   0.3200 
  6 C       -4.3980     0.6590    -1.0060 C.3   1 <1>   0.1400 
  7 C       -0.2950     2.3980    -0.3370 C.3   1 <1>  -0.1600 
  8 C       -3.8560    -2.2870    -0.2150 C.2   1 <1>  -0.3320 
  9 C       -4.9210     0.7270     0.4350 C.3   1 <1>   0.1200 
 10 C       -0.2310     3.9130    -0.0880 C.3   1 <1>  -0.1600 
 11 N       -3.2100    -2.5080     0.9480 N.pl3 1 <1>   0.0480 
 12 C       -5.0820    -2.8420    -0.0850 C.2   1 <1>   0.0770 
 13 O       -5.8860     1.7220     0.5230 O.3   1 <1>  -0.6800 
 14 C        1.1400     4.3930     0.4250 C.3   1 <1>  -0.0800 
 15 C       -4.1020    -3.1810     1.7100 C.2   1 <1>   0.0360 
 16 C       -1.8350    -2.1280     1.3200 C.3   1 <1>   0.0160 
 17 N       -5.2360    -3.4000     1.1280 N.2   1 <1>  -0.5650 
 18 C        1.0530     5.8780     0.8200 C.3   1 <1>  -0.1600 
 19 C        2.2590     4.1820    -0.6140 C.3   1 <1>  -0.1600 
 20 C        2.4000     6.4150     1.3210 C.3   1 <1>  -0.1600 
 21 C        3.6060     4.7260    -0.1180 C.3   1 <1>  -0.1600 
 22 C        3.5020     6.2030     0.2760 C.3   1 <1>  -0.1600 
 23 H       -2.3830     2.2370     0.0800 H     1 <1>   0.0800 
 24 H       -2.0190     2.4620    -1.6090 H     1 <1>   0.0800 
 25 H       -2.3190    -1.9970    -1.6640 H     1 <1>   0.0800 
 26 H       -3.9150    -1.6630    -2.2560 H     1 <1>   0.0800 
 27 H       -5.1410     0.1880    -1.6250 H     1 <1>   0.0800 
 28 H       -4.2420     1.6550    -1.3810 H     1 <1>   0.0800 
 29 H        0.3730     2.1270    -1.1370 H     1 <1>   0.0800 
 30 H        0.0190     1.8720     0.5490 H     1 <1>   0.0800 
 31 H       -4.1340     0.9610     1.1300 H     1 <1>   0.0800 
 32 H       -5.3810    -0.2040     0.7160 H     1 <1>   0.0800 
 33 H       -0.9760     4.1700     0.6470 H     1 <1>   0.0800 
 34 H       -0.4760     4.4370    -0.9960 H     1 <1>   0.0800 
 35 H       -5.8790    -2.8690    -0.8100 H     1 <1>   0.1500 
 36 H       -5.4830     2.6110     0.5130 H     1 <1>   0.4000 
 37 H        1.3890     3.8290     1.3090 H     1 <1>   0.0800 
 38 H       -3.8690    -3.5000     2.7100 H     1 <1>   0.1500 
 39 H       -1.1630    -2.3900     0.5230 H     1 <1>   0.0800 
 40 H       -1.5450    -2.6430     2.2160 H     1 <1>   0.0800 
 41 H       -1.7930    -1.0670     1.4850 H     1 <1>   0.0800 
 42 H        0.3160     6.0070     1.5930 H     1 <1>   0.0800 
 43 H        0.7410     6.4580    -0.0330 H     1 <1>   0.0800 
 44 H        1.9940     4.6800    -1.5320 H     1 <1>   0.0800 
 45 H        2.3760     3.1350    -0.8280 H     1 <1>   0.0800 
 46 H        2.6700     5.9070     2.2310 H     1 <1>   0.0800 
 47 H        2.3110     7.4640     1.5430 H     1 <1>   0.0800 
 48 H        4.3470     4.6100    -0.8900 H     1 <1>   0.0800 
 49 H        3.9270     4.1520     0.7350 H     1 <1>   0.0800 
 50 H        4.4450     6.5390     0.6720 H     1 <1>   0.0800 
 51 H        3.2810     6.7910    -0.5980 H     1 <1>   0.0800 
@<TRIPOS>BOND
  1   1   2  2   
  2   2   3  am  
  3   2   4  1   
  4   3   5  1   
  5   3   6  1   
  6   4   7  1   
  7   4  23  1   
  8   4  24  1   
  9   5   8  1   
 10   5  25  1   
 11   5  26  1   
 12   6   9  1   
 13   6  27  1   
 14   6  28  1   
 15   7  10  1   
 16   7  29  1   
 17   7  30  1   
 18   8  11  1   
 19   8  12  2   
 20   9  13  1   
 21   9  31  1   
 22   9  32  1   
 23  10  14  1   
 24  10  33  1   
 25  10  34  1   
 26  11  15  1   
 27  11  16  1   
 28  12  17  1   
 29  12  35  1   
 30  13  36  1   
 31  14  18  1   
 32  14  19  1   
 33  14  37  1   
 34  15  17  2   
 35  15  38  1   
 36  16  39  1   
 37  16  40  1   
 38  16  41  1   
 39  18  20  1   
 40  18  42  1   
 41  18  43  1   
 42  19  21  1   
 43  19  44  1   
 44  19  45  1   
 45  20  22  1   
 46  20  46  1   
 47  20  47  1   
 48  21  22  1   
 49  21  48  1   
 50  21  49  1   
 51  22  50  1   
 52  22  51  1   
@<TRIPOS>SUBSTRUCTURE
  1 ****   4 GROUP 4 **** **** 0

# MOE 2024.06 (io_trps.svl 2023.06)
