@<TRIPOS>MOLECULE
NONAME
58 62 1 0 0 
SMALL
USER_CHARGES


@<TRIPOS>ATOM
  1 O        0.1470     0.1480     0.7800 O.3   1 <1>  -0.2800 
  2 C        0.3890    -1.0360     0.2460 C.2   1 <1>   0.4250 
  3 C       -0.9100     0.0220     1.5250 C.2   1 <1>  -0.0400 
  4 N       -0.4830    -1.9300     0.6120 N.2   1 <1>  -0.5650 
  5 C        1.5190    -1.2160    -0.6430 C.ar  1 <1>   0.0530 
  6 C       -1.3120    -1.2530     1.4320 C.2   1 <1>   0.0460 
  7 C       -1.4140     1.2400     2.2750 C.3   1 <1>  -0.0600 
  8 C        1.8660    -2.4780    -1.1260 C.ar  1 <1>  -0.1500 
  9 C        2.3070    -0.1390    -1.0540 C.ar  1 <1>  -0.1500 
 10 C       -2.5000    -1.9540     2.0700 C.3   1 <1>   0.5240 
 11 C        2.9390    -2.6570    -1.9790 C.ar  1 <1>  -0.1500 
 12 C        3.3820    -0.3140    -1.9070 C.ar  1 <1>  -0.1500 
 13 N       -3.1280    -2.8460     1.0510 N.4   1 <1>  -0.9590 
 14 C        3.7040    -1.5750    -2.3770 C.ar  1 <1>  -0.1430 
 15 C       -3.6880    -2.0920    -0.1270 C.3   1 <1>   0.3430 
 16 C       -4.1050    -3.8140     1.6440 C.3   1 <1>   0.3430 
 17 C        4.8840    -1.7680    -3.3120 C.3   1 <1>  -0.0970 
 18 C       -4.9320    -1.2410     0.2190 C.3   1 <1>   0.1440 
 19 C       -5.5670    -3.3560     1.4910 C.3   1 <1>  -0.1600 
 20 C       -5.8110    -1.1920    -1.0140 C.ar  1 <1>   0.1670 
 21 C       -5.7320    -1.8280     1.4100 C.3   1 <1>  -0.1600 
 22 C       -4.6020     0.2610     0.4410 C.3   1 <1>  -0.1600 
 23 N       -6.1470    -2.2360    -1.7360 N.ar  1 <1>  -0.6200 
 24 C       -6.2180     0.0760    -1.2990 C.ar  1 <1>  -0.1430 
 25 C       -5.6780     1.0730    -0.3060 C.3   1 <1>  -0.0170 
 26 C       -6.9300    -1.9530    -2.7700 C.ar  1 <1>   0.4770 
 27 C       -7.0220     0.2560    -2.3970 C.ar  1 <1>   0.1600 
 28 N       -7.3840    -0.7650    -3.1450 N.ar  1 <1>  -0.6200 
 29 C       -7.3500    -3.1190    -3.6320 C.3   1 <1>  -0.0970 
 30 H       -0.6400     1.6060     2.9260 H     1 <1>   0.0800 
 31 H       -2.2790     1.0020     2.8650 H     1 <1>   0.0800 
 32 H       -1.6680     2.0180     1.5770 H     1 <1>   0.0800 
 33 H        1.2880    -3.3340    -0.8280 H     1 <1>   0.1500 
 34 H        2.0790     0.8520    -0.7040 H     1 <1>   0.1500 
 35 H       -3.2070    -1.2320     2.4380 H     1 <1>   0.0800 
 36 H       -2.1440    -2.5450     2.8970 H     1 <1>   0.0800 
 37 H        3.1810    -3.6450    -2.3320 H     1 <1>   0.1500 
 38 H        3.9690     0.5380    -2.2040 H     1 <1>   0.1500 
 39 H       -2.3140    -3.3660     0.6810 H     1 <1>   0.4500 
 40 H       -3.9780    -2.8120    -0.8750 H     1 <1>   0.0800 
 41 H       -2.9290    -1.4680    -0.5700 H     1 <1>   0.0800 
 42 H       -3.8830    -3.9510     2.6900 H     1 <1>   0.0800 
 43 H       -4.0000    -4.7730     1.1630 H     1 <1>   0.0800 
 44 H        4.7190    -2.6110    -3.9580 H     1 <1>   0.0800 
 45 H        5.7780    -1.9400    -2.7390 H     1 <1>   0.0800 
 46 H        5.0260    -0.8950    -3.9240 H     1 <1>   0.0800 
 47 H       -6.1430    -3.7440     2.3130 H     1 <1>   0.0800 
 48 H       -5.9720    -3.8000     0.5970 H     1 <1>   0.0800 
 49 H       -6.7760    -1.5820     1.3070 H     1 <1>   0.0800 
 50 H       -5.3970    -1.4020     2.3390 H     1 <1>   0.0800 
 51 H       -3.6500     0.4910    -0.0090 H     1 <1>   0.0800 
 52 H       -4.5610     0.5400     1.4790 H     1 <1>   0.0800 
 53 H       -5.2600     1.9370    -0.7950 H     1 <1>   0.0800 
 54 H       -6.4650     1.3770     0.3620 H     1 <1>   0.0800 
 55 H       -7.3730     1.2380    -2.6680 H     1 <1>   0.1500 
 56 H       -7.2830    -4.0380    -3.0800 H     1 <1>   0.0800 
 57 H       -6.7110    -3.1740    -4.4920 H     1 <1>   0.0800 
 58 H       -8.3650    -2.9830    -3.9580 H     1 <1>   0.0800 
@<TRIPOS>BOND
  1   1   2  1   
  2   1   3  1   
  3   2   4  2   
  4   2   5  1   
  5   3   6  2   
  6   3   7  1   
  7   4   6  1   
  8   5   8  ar  
  9   5   9  ar  
 10   6  10  1   
 11   7  30  1   
 12   7  31  1   
 13   7  32  1   
 14   8  11  ar  
 15   8  33  1   
 16   9  12  ar  
 17   9  34  1   
 18  10  13  1   
 19  10  35  1   
 20  10  36  1   
 21  11  14  ar  
 22  11  37  1   
 23  12  14  ar  
 24  12  38  1   
 25  13  15  1   
 26  13  16  1   
 27  13  39  1   
 28  14  17  1   
 29  15  18  1   
 30  15  40  1   
 31  15  41  1   
 32  16  19  1   
 33  16  42  1   
 34  16  43  1   
 35  17  44  1   
 36  17  45  1   
 37  17  46  1   
 38  18  20  1   
 39  18  21  1   
 40  18  22  1   
 41  19  21  1   
 42  19  47  1   
 43  19  48  1   
 44  20  23  ar  
 45  20  24  ar  
 46  21  49  1   
 47  21  50  1   
 48  22  25  1   
 49  22  51  1   
 50  22  52  1   
 51  23  26  ar  
 52  24  25  1   
 53  24  27  ar  
 54  25  53  1   
 55  25  54  1   
 56  26  28  ar  
 57  26  29  1   
 58  27  28  ar  
 59  27  55  1   
 60  29  56  1   
 61  29  57  1   
 62  29  58  1   
@<TRIPOS>SUBSTRUCTURE
  1 ****  15 GROUP 4 **** **** 0

# MOE 2024.06 (io_trps.svl 2023.06)
