@<TRIPOS>MOLECULE
NONAME
45 47 1 0 0 
SMALL
USER_CHARGES


@<TRIPOS>ATOM
  1 CL      -2.2390    -3.2580     2.0590 Cl    1 <1>  -0.1770 
  2 C       -2.2820    -1.7400     1.1940 C.ar  1 <1>   0.1770 
  3 C       -3.4940    -1.0960     0.9840 C.ar  1 <1>  -0.1440 
  4 C       -1.0890    -1.2160     0.7380 C.ar  1 <1>  -0.1500 
  5 C       -3.4990     0.1250     0.3120 C.ar  1 <1>  -0.1440 
  6 C       -4.7530    -1.7620     1.5070 C.3   1 <1>   0.4870 
  7 C       -1.1000    -0.0150     0.0560 C.ar  1 <1>  -0.1500 
  8 C       -2.2980     0.6470    -0.1520 C.ar  1 <1>  -0.1500 
  9 C       -4.7670     0.9340     0.0640 C.3   1 <1>  -0.0970 
 10 N       -5.1670    -2.8140     0.5480 N.4   1 <1>  -0.9590 
 11 C       -5.7060    -2.3280    -0.7530 C.3   1 <1>   0.3430 
 12 C       -6.0900    -3.8510     1.0560 C.3   1 <1>   0.3430 
 13 C       -6.6700    -3.4160    -1.2460 C.3   1 <1>   0.2000 
 14 C       -6.6300    -4.5380    -0.2000 C.3   1 <1>  -0.0800 
 15 O       -7.9580    -2.8950    -1.3000 O.3   1 <1>  -0.6800 
 16 C       -5.7600    -5.7370    -0.6450 C.3   1 <1>   0.0210 
 17 C       -4.2520    -5.5140    -0.6320 C.2   1 <1>   0.1080 
 18 N       -3.6550    -4.5080    -1.1960 N.2   1 <1>  -0.7070 
 19 C       -3.3500    -6.3790    -0.0230 C.2   1 <1>  -0.1500 
 20 N       -2.3370    -4.7300    -0.9920 N.pl3 1 <1>   0.3000 
 21 C       -2.1340    -5.8470    -0.2670 C.2   1 <1>  -0.3320 
 22 C       -0.7650    -6.3550     0.1470 C.3   1 <1>  -0.0600 
 23 H       -0.1650    -1.7370     0.9190 H     1 <1>   0.1500 
 24 H       -5.5420    -1.0420     1.6350 H     1 <1>   0.0800 
 25 H       -4.5420    -2.2050     2.4670 H     1 <1>   0.0800 
 26 H       -0.1800     0.4100    -0.3090 H     1 <1>   0.1500 
 27 H       -2.2830     1.5860    -0.6800 H     1 <1>   0.1500 
 28 H       -4.5220     1.9680    -0.1040 H     1 <1>   0.0800 
 29 H       -5.4280     0.8990     0.9090 H     1 <1>   0.0800 
 30 H       -5.2790     0.5720    -0.8090 H     1 <1>   0.0800 
 31 H       -4.3100    -3.3370     0.2610 H     1 <1>   0.4500 
 32 H       -6.2380    -1.4000    -0.6330 H     1 <1>   0.0800 
 33 H       -4.9000    -2.1980    -1.4560 H     1 <1>   0.0800 
 34 H       -5.5810    -4.5480     1.7030 H     1 <1>   0.0800 
 35 H       -6.9010    -3.3860     1.5920 H     1 <1>   0.0800 
 36 H       -6.4070    -3.7510    -2.2360 H     1 <1>   0.0800 
 37 H       -7.6200    -4.9170    -0.0160 H     1 <1>   0.0800 
 38 H       -8.3560    -2.7610    -0.4190 H     1 <1>   0.4000 
 39 H       -6.0470    -6.0380    -1.6370 H     1 <1>   0.0800 
 40 H       -5.9740    -6.5700     0.0020 H     1 <1>   0.0800 
 41 H       -3.5860    -7.2810     0.5150 H     1 <1>   0.1500 
 42 H       -1.6000    -4.1130    -1.3610 H     1 <1>   0.2700 
 43 H       -0.8620    -7.2670     0.7100 H     1 <1>   0.0800 
 44 H       -0.2650    -5.6270     0.7610 H     1 <1>   0.0800 
 45 H       -0.1620    -6.5550    -0.7220 H     1 <1>   0.0800 
@<TRIPOS>BOND
  1   1   2  1   
  2   2   3  ar  
  3   2   4  ar  
  4   3   5  ar  
  5   3   6  1   
  6   4   7  ar  
  7   4  23  1   
  8   5   8  ar  
  9   5   9  1   
 10   6  10  1   
 11   6  24  1   
 12   6  25  1   
 13   7   8  ar  
 14   7  26  1   
 15   8  27  1   
 16   9  28  1   
 17   9  29  1   
 18   9  30  1   
 19  10  11  1   
 20  10  12  1   
 21  10  31  1   
 22  11  13  1   
 23  11  32  1   
 24  11  33  1   
 25  12  14  1   
 26  12  34  1   
 27  12  35  1   
 28  13  14  1   
 29  13  15  1   
 30  13  36  1   
 31  14  16  1   
 32  14  37  1   
 33  15  38  1   
 34  16  17  1   
 35  16  39  1   
 36  16  40  1   
 37  17  18  2   
 38  17  19  1   
 39  18  20  1   
 40  19  21  2   
 41  19  41  1   
 42  20  21  1   
 43  20  42  1   
 44  21  22  1   
 45  22  43  1   
 46  22  44  1   
 47  22  45  1   
@<TRIPOS>SUBSTRUCTURE
  1 ****  10 GROUP 4 **** **** 0

# MOE 2024.06 (io_trps.svl 2023.06)
