@<TRIPOS>MOLECULE
NONAME
61 65 1 0 0 
SMALL
USER_CHARGES


@<TRIPOS>ATOM
  1 O       -0.6340    -0.7710     1.4760 O.3   1 <1>  -0.5600 
  2 C       -1.7300    -1.6100     1.2460 C.3   1 <1>   0.1200 
  3 C        0.5420    -1.4480     1.8040 C.3   1 <1>   0.1200 
  4 C       -1.4440    -2.5630     0.0730 C.3   1 <1>   0.2090 
  5 C        0.9610    -2.3880     0.6570 C.3   1 <1>   0.2090 
  6 N       -0.1570    -3.3270     0.2870 N.pl3 1 <1>  -0.8380 
  7 C       -0.1010    -4.6820     0.1680 C.ar  1 <1>   0.7710 
  8 N       -1.2210    -5.3670    -0.0110 N.ar  1 <1>  -0.6200 
  9 N        1.0940    -5.2970     0.2280 N.ar  1 <1>  -0.1790 
 10 C       -1.1500    -6.6800    -0.1200 C.ar  1 <1>   0.4100 
 11 C        1.2210    -6.6400     0.1150 C.ar  1 <1>   0.2180 
 12 N       -2.3130    -7.3560    -0.2940 N.pl3 1 <1>  -0.8380 
 13 C        0.0840    -7.3530    -0.0620 C.ar  1 <1>  -0.1500 
 14 C        2.6080    -7.2660     0.1870 C.3   1 <1>  -0.0170 
 15 C       -3.6400    -6.6940    -0.4630 C.3   1 <1>   0.2090 
 16 C       -2.4800    -8.8320    -0.3560 C.3   1 <1>   0.2090 
 17 C        3.5020    -6.8230    -0.9790 C.3   1 <1>  -0.2400 
 18 C       -4.6400    -7.8290    -0.6940 C.3   1 <1>   0.2000 
 19 C       -3.9710    -9.0800    -0.1330 C.3   1 <1>  -0.0800 
 20 O       -5.8440    -7.6040    -0.0410 O.3   1 <1>  -0.6800 
 21 C       -4.4770   -10.3810    -0.7780 C.3   1 <1>  -0.0170 
 22 C       -3.7350   -11.5880    -0.2290 C.ar  1 <1>   0.1670 
 23 N       -2.6100   -11.9080    -0.7930 N.ar  1 <1>  -0.6200 
 24 C       -4.2850   -12.2850     0.8590 C.ar  1 <1>  -0.1500 
 25 C       -1.9420   -12.9860    -0.3050 C.ar  1 <1>   0.3100 
 26 C       -3.6300   -13.3600     1.3770 C.ar  1 <1>  -0.1500 
 27 C       -2.4110   -13.7410     0.7920 C.ar  1 <1>   0.0000 
 28 C       -0.7330   -13.3670    -0.9100 C.ar  1 <1>  -0.1500 
 29 C       -1.6470   -14.8320     1.2490 C.ar  1 <1>  -0.1500 
 30 C       -0.0060   -14.4340    -0.4530 C.ar  1 <1>  -0.1500 
 31 C       -0.4680   -15.1730     0.6410 C.ar  1 <1>  -0.1500 
 32 H       -1.9400    -2.1630     2.1450 H     1 <1>   0.0800 
 33 H       -2.5770    -0.9870     1.0190 H     1 <1>   0.0800 
 34 H        1.3030    -0.7080     1.9780 H     1 <1>   0.0800 
 35 H        0.3790    -1.9970     2.7150 H     1 <1>   0.0800 
 36 H       -1.3640    -1.9820    -0.8300 H     1 <1>   0.0800 
 37 H       -2.2900    -3.2170    -0.0440 H     1 <1>   0.0800 
 38 H        1.8420    -2.9190     0.9650 H     1 <1>   0.0800 
 39 H        1.2170    -1.7850    -0.1990 H     1 <1>   0.0800 
 40 H        1.8980    -4.6950     0.3260 H     1 <1>   0.4570 
 41 H        0.1040    -8.4210    -0.1660 H     1 <1>   0.1500 
 42 H        3.0750    -7.0100     1.1220 H     1 <1>   0.0800 
 43 H        2.5160    -8.3390     0.1610 H     1 <1>   0.0800 
 44 H       -3.8790    -6.1450     0.4310 H     1 <1>   0.0800 
 45 H       -3.6190    -6.0280    -1.3090 H     1 <1>   0.0800 
 46 H       -2.1810    -9.1820    -1.3310 H     1 <1>   0.0800 
 47 H       -1.8970    -9.3310     0.4000 H     1 <1>   0.0800 
 48 H        3.6890    -5.7650    -0.9570 H     1 <1>   0.0800 
 49 H        3.0450    -7.0760    -1.9210 H     1 <1>   0.0800 
 50 H        4.4500    -7.3310    -0.9230 H     1 <1>   0.0800 
 51 H       -4.8380    -7.9290    -1.7480 H     1 <1>   0.0800 
 52 H       -4.1270    -9.1250     0.9300 H     1 <1>   0.0800 
 53 H       -5.6990    -7.5120     0.9200 H     1 <1>   0.4000 
 54 H       -4.3370   -10.3410    -1.8440 H     1 <1>   0.0800 
 55 H       -5.5320   -10.4860    -0.5950 H     1 <1>   0.0800 
 56 H       -5.2220   -11.9600     1.2730 H     1 <1>   0.1500 
 57 H       -4.0190   -13.9170     2.2100 H     1 <1>   0.1500 
 58 H       -0.3970   -12.7910    -1.7520 H     1 <1>   0.1500 
 59 H       -2.0080   -15.3980     2.0890 H     1 <1>   0.1500 
 60 H        0.9190   -14.7170    -0.9250 H     1 <1>   0.1500 
 61 H        0.1130   -16.0080     0.9920 H     1 <1>   0.1500 
@<TRIPOS>BOND
  1   1   2  1   
  2   1   3  1   
  3   2   4  1   
  4   2  32  1   
  5   2  33  1   
  6   3   5  1   
  7   3  34  1   
  8   3  35  1   
  9   4   6  1   
 10   4  36  1   
 11   4  37  1   
 12   5   6  1   
 13   5  38  1   
 14   5  39  1   
 15   6   7  1   
 16   7   8  ar  
 17   7   9  ar  
 18   8  10  ar  
 19   9  11  ar  
 20   9  40  1   
 21  10  12  1   
 22  10  13  ar  
 23  11  13  ar  
 24  11  14  1   
 25  12  15  1   
 26  12  16  1   
 27  13  41  1   
 28  14  17  1   
 29  14  42  1   
 30  14  43  1   
 31  15  18  1   
 32  15  44  1   
 33  15  45  1   
 34  16  19  1   
 35  16  46  1   
 36  16  47  1   
 37  17  48  1   
 38  17  49  1   
 39  17  50  1   
 40  18  19  1   
 41  18  20  1   
 42  18  51  1   
 43  19  21  1   
 44  19  52  1   
 45  20  53  1   
 46  21  22  1   
 47  21  54  1   
 48  21  55  1   
 49  22  23  ar  
 50  22  24  ar  
 51  23  25  ar  
 52  24  26  ar  
 53  24  56  1   
 54  25  27  ar  
 55  25  28  ar  
 56  26  27  ar  
 57  26  57  1   
 58  27  29  ar  
 59  28  30  ar  
 60  28  58  1   
 61  29  31  ar  
 62  29  59  1   
 63  30  31  ar  
 64  30  60  1   
 65  31  61  1   
@<TRIPOS>SUBSTRUCTURE
  1 ****  12 GROUP 4 **** **** 0

# MOE 2024.06 (io_trps.svl 2023.06)
