@<TRIPOS>MOLECULE
NONAME
56 59 1 0 0 
SMALL
USER_CHARGES


@<TRIPOS>ATOM
  1 O       -1.2650    -1.1130     0.9550 O.2   1 <1>  -0.5700 
  2 C       -0.8750     0.0300     1.0400 C.2   1 <1>   0.5690 
  3 N       -1.5430     1.0630     0.4200 N.am  1 <1>  -0.6600 
  4 C        0.3930     0.2690     1.8810 C.3   1 <1>   0.1710 
  5 C       -1.0930     2.4830     0.4260 C.3   1 <1>   0.1400 
  6 C       -2.7340     0.8170    -0.4410 C.3   1 <1>   0.1400 
  7 N        1.5610     0.8470     1.1550 N.3   1 <1>  -0.8100 
  8 C       -2.2410     3.3770     0.9000 C.3   1 <1>  -0.1600 
  9 C       -3.8930     1.7040     0.0190 C.3   1 <1>  -0.1600 
 10 C        1.9690    -0.0250     0.0280 C.3   1 <1>   0.1100 
 11 C        2.7060     1.0370     2.0700 C.3   1 <1>   0.1100 
 12 C       -3.4990     3.1830     0.0430 C.3   1 <1>   0.4180 
 13 C        3.1740     0.5400    -0.7470 C.3   1 <1>   0.2090 
 14 C        3.9260     1.6520     1.3580 C.3   1 <1>   0.2090 
 15 O       -3.2180     3.5380    -1.2900 O.3   1 <1>  -0.5600 
 16 C       -4.6600     4.0160     0.5810 C.2   1 <1>  -0.2880 
 17 N        4.3230     0.8390     0.1660 N.pl3 1 <1>  -0.8380 
 18 C       -3.2440     4.9000    -1.6150 C.3   1 <1>   0.1200 
 19 C       -5.2060     5.0490    -0.0660 C.2   1 <1>  -0.2760 
 20 C        5.6360     0.5620    -0.1570 C.ar  1 <1>   0.7200 
 21 C       -4.6520     5.4770    -1.4120 C.3   1 <1>  -0.0220 
 22 C       -6.3850     5.8580     0.4420 C.3   1 <1>  -0.1020 
 23 N        6.5680     0.8950     0.7380 N.ar  1 <1>  -0.6200 
 24 N        5.8670    -0.0130    -1.3370 N.ar  1 <1>  -0.6200 
 25 C        7.8100     0.6280     0.4180 C.ar  1 <1>   0.1600 
 26 C        7.1170    -0.2690    -1.6310 C.ar  1 <1>   0.1600 
 27 C        8.1450     0.0360    -0.7750 C.ar  1 <1>  -0.1500 
 28 H        0.6800    -0.6730     2.3130 H     1 <1>   0.0800 
 29 H        0.1240     0.9250     2.6880 H     1 <1>   0.0800 
 30 H       -0.7990     2.7600    -0.5720 H     1 <1>   0.0800 
 31 H       -0.2470     2.6260     1.0720 H     1 <1>   0.0800 
 32 H       -3.0330    -0.2170    -0.3940 H     1 <1>   0.0800 
 33 H       -2.4810     1.0450    -1.4620 H     1 <1>   0.0800 
 34 H       -1.9380     4.4060     0.8870 H     1 <1>   0.0800 
 35 H       -2.4690     3.1270     1.9200 H     1 <1>   0.0800 
 36 H       -4.1920     1.3920     1.0020 H     1 <1>   0.0800 
 37 H       -4.7340     1.5730    -0.6360 H     1 <1>   0.0800 
 38 H        1.1490    -0.1360    -0.6590 H     1 <1>   0.0800 
 39 H        2.2260    -1.0040     0.3970 H     1 <1>   0.0800 
 40 H        3.0000     0.0910     2.4920 H     1 <1>   0.0800 
 41 H        2.4150     1.6890     2.8750 H     1 <1>   0.0800 
 42 H        2.8780     1.4460    -1.2450 H     1 <1>   0.0800 
 43 H        3.4530    -0.1740    -1.5010 H     1 <1>   0.0800 
 44 H        4.7310     1.7260     2.0660 H     1 <1>   0.0800 
 45 H        3.6790     2.6480     1.0340 H     1 <1>   0.0800 
 46 H       -5.0040     3.6780     1.5420 H     1 <1>   0.1500 
 47 H       -2.9450     4.9990    -2.6430 H     1 <1>   0.0800 
 48 H       -2.5330     5.4160    -0.9960 H     1 <1>   0.0800 
 49 H       -5.3010     5.1350    -2.1990 H     1 <1>   0.0800 
 50 H       -4.5930     6.5490    -1.4680 H     1 <1>   0.0800 
 51 H       -7.2010     5.8010    -0.2570 H     1 <1>   0.0800 
 52 H       -6.1040     6.8880     0.5680 H     1 <1>   0.0800 
 53 H       -6.7220     5.4770     1.3900 H     1 <1>   0.0800 
 54 H        8.5800     0.8870     1.1240 H     1 <1>   0.1500 
 55 H        7.3280    -0.7330    -2.5800 H     1 <1>   0.1500 
 56 H        9.1660    -0.1780    -1.0260 H     1 <1>   0.1500 
@<TRIPOS>BOND
  1   1   2  2   
  2   2   3  am  
  3   2   4  1   
  4   3   5  1   
  5   3   6  1   
  6   4   7  1   
  7   4  28  1   
  8   4  29  1   
  9   5   8  1   
 10   5  30  1   
 11   5  31  1   
 12   6   9  1   
 13   6  32  1   
 14   6  33  1   
 15   7  10  1   
 16   7  11  1   
 17   8  12  1   
 18   8  34  1   
 19   8  35  1   
 20   9  12  1   
 21   9  36  1   
 22   9  37  1   
 23  10  13  1   
 24  10  38  1   
 25  10  39  1   
 26  11  14  1   
 27  11  40  1   
 28  11  41  1   
 29  12  15  1   
 30  12  16  1   
 31  13  17  1   
 32  13  42  1   
 33  13  43  1   
 34  14  17  1   
 35  14  44  1   
 36  14  45  1   
 37  15  18  1   
 38  16  19  2   
 39  16  46  1   
 40  17  20  1   
 41  18  21  1   
 42  18  47  1   
 43  18  48  1   
 44  19  21  1   
 45  19  22  1   
 46  20  23  ar  
 47  20  24  ar  
 48  21  49  1   
 49  21  50  1   
 50  22  51  1   
 51  22  52  1   
 52  22  53  1   
 53  23  25  ar  
 54  24  26  ar  
 55  25  27  ar  
 56  25  54  1   
 57  26  27  ar  
 58  26  55  1   
 59  27  56  1   
@<TRIPOS>SUBSTRUCTURE
  1 ****   7 GROUP 4 **** **** 0

# MOE 2024.06 (io_trps.svl 2023.06)
