@<TRIPOS>MOLECULE
NONAME
48 50 1 0 0 
SMALL
USER_CHARGES


@<TRIPOS>ATOM
  1 O        0.8840    -0.3010    -2.4130 O.2   1 <1>  -0.5700 
  2 C        1.1860    -0.7880    -1.3480 C.2   1 <1>   0.5690 
  3 N        1.6500    -0.0240    -0.3200 N.am  1 <1>  -0.7300 
  4 C        1.0480    -2.3070    -1.1600 C.3   1 <1>   0.2610 
  5 C        1.8650     1.4350    -0.3540 C.3   1 <1>   0.1400 
  6 O        1.0650    -2.6300     0.2290 O.3   1 <1>  -0.3620 
  7 C        2.1940    -3.0670    -1.8460 C.3   1 <1>  -0.2400 
  8 C        3.2510     1.7450     0.2080 C.3   1 <1>  -0.1600 
  9 C        0.5720    -3.7970     0.7220 C.ar  1 <1>   0.0820 
 10 C        3.5460     3.2470     0.1610 C.3   1 <1>   0.0210 
 11 C       -0.1000    -4.7470    -0.0510 C.ar  1 <1>  -0.1500 
 12 C        0.7690    -4.0180     2.0850 C.ar  1 <1>  -0.1500 
 13 C        4.9200     3.5290     0.7440 C.2   1 <1>  -0.1810 
 14 C       -0.5480    -5.8900     0.5810 C.ar  1 <1>   0.0820 
 15 C        0.3090    -5.1760     2.7000 C.ar  1 <1>  -0.1500 
 16 C        5.2190     3.8280     2.0730 C.2   1 <1>   0.1080 
 17 C        6.1140     3.5460     0.1120 C.2   1 <1>  -0.3320 
 18 O       -1.2060    -6.9240     0.0460 O.3   1 <1>  -0.3620 
 19 C       -0.3500    -6.1000     1.9150 C.ar  1 <1>   0.0820 
 20 N        6.4850     4.0200     2.2610 N.2   1 <1>  -0.7070 
 21 C        4.2210     3.9340     3.2040 C.3   1 <1>  -0.0590 
 22 N        7.0380     3.8460     1.0480 N.pl3 1 <1>   0.3000 
 23 C        6.4620     3.2900    -1.3450 C.3   1 <1>  -0.0600 
 24 C       -1.4450    -7.8490     1.1050 C.3   1 <1>   0.4000 
 25 O       -0.8760    -7.2750     2.2810 O.3   1 <1>  -0.3620 
 26 H        1.8390    -0.4970     0.5670 H     1 <1>   0.3700 
 27 H        0.0960    -2.5910    -1.5680 H     1 <1>   0.0800 
 28 H        1.1040     1.9180     0.2350 H     1 <1>   0.0800 
 29 H        1.7890     1.7900    -1.3690 H     1 <1>   0.0800 
 30 H        3.1370    -2.7650    -1.4290 H     1 <1>   0.0800 
 31 H        2.1980    -2.8360    -2.8960 H     1 <1>   0.0800 
 32 H        2.0760    -4.1280    -1.7330 H     1 <1>   0.0800 
 33 H        3.9950     1.2280    -0.3720 H     1 <1>   0.0800 
 34 H        3.3130     1.4060     1.2260 H     1 <1>   0.0800 
 35 H        2.8030     3.7920     0.7160 H     1 <1>   0.0800 
 36 H        3.5140     3.5940    -0.8560 H     1 <1>   0.0800 
 37 H       -0.2830    -4.6360    -1.1000 H     1 <1>   0.1500 
 38 H        1.2880    -3.2760     2.6640 H     1 <1>   0.1500 
 39 H        0.4550    -5.3580     3.7490 H     1 <1>   0.1500 
 40 H        3.5410     3.1040     3.1770 H     1 <1>   0.0800 
 41 H        3.6730     4.8530     3.1160 H     1 <1>   0.0800 
 42 H        4.7390     3.9260     4.1460 H     1 <1>   0.0800 
 43 H        8.0490     3.9380     0.8940 H     1 <1>   0.2700 
 44 H        5.5830     3.0280    -1.9050 H     1 <1>   0.0800 
 45 H        7.1650     2.4790    -1.4200 H     1 <1>   0.0800 
 46 H        6.8950     4.1720    -1.7820 H     1 <1>   0.0800 
 47 H       -0.9580    -8.7820     0.8870 H     1 <1>   0.0800 
 48 H       -2.5050    -7.9750     1.2420 H     1 <1>   0.0800 
@<TRIPOS>BOND
  1   1   2  2   
  2   2   3  am  
  3   2   4  1   
  4   3   5  1   
  5   3  26  1   
  6   4   6  1   
  7   4   7  1   
  8   4  27  1   
  9   5   8  1   
 10   5  28  1   
 11   5  29  1   
 12   6   9  1   
 13   7  30  1   
 14   7  31  1   
 15   7  32  1   
 16   8  10  1   
 17   8  33  1   
 18   8  34  1   
 19   9  11  ar  
 20   9  12  ar  
 21  10  13  1   
 22  10  35  1   
 23  10  36  1   
 24  11  14  ar  
 25  11  37  1   
 26  12  15  ar  
 27  12  38  1   
 28  13  16  1   
 29  13  17  2   
 30  14  18  1   
 31  14  19  ar  
 32  15  19  ar  
 33  15  39  1   
 34  16  20  2   
 35  16  21  1   
 36  17  22  1   
 37  17  23  1   
 38  18  24  1   
 39  19  25  1   
 40  20  22  1   
 41  21  40  1   
 42  21  41  1   
 43  21  42  1   
 44  22  43  1   
 45  23  44  1   
 46  23  45  1   
 47  23  46  1   
 48  24  25  1   
 49  24  47  1   
 50  24  48  1   
@<TRIPOS>SUBSTRUCTURE
  1 ****   3 GROUP 4 **** **** 0

# MOE 2024.06 (io_trps.svl 2023.06)
