@<TRIPOS>MOLECULE
NONAME
53 56 1 0 0 
SMALL
USER_CHARGES


@<TRIPOS>ATOM
  1 CL      -1.8590     0.2650     3.8430 Cl    1 <1>  -0.1770 
  2 C       -2.4750     1.0800     2.4290 C.ar  1 <1>   0.1770 
  3 C       -2.3520     2.4490     2.3280 C.ar  1 <1>  -0.1500 
  4 C       -3.0760     0.3370     1.4300 C.ar  1 <1>  -0.1500 
  5 C       -2.8340     3.1220     1.2070 C.ar  1 <1>   0.0860 
  6 C       -3.5660     0.9850     0.3120 C.ar  1 <1>  -0.1500 
  7 C       -2.7040     4.5600     1.1290 C.2   1 <1>   0.5440 
  8 C       -3.4590     2.3700     0.2010 C.ar  1 <1>   0.0820 
  9 O       -3.3810     5.2380     1.8820 O.2   1 <1>  -0.5700 
 10 N       -1.8320     5.1780     0.2530 N.am  1 <1>  -0.6600 
 11 O       -3.9350     3.0240    -0.8860 O.3   1 <1>  -0.3630 
 12 C       -1.8690     6.6680     0.0950 C.3   1 <1>   0.2200 
 13 C       -1.0090     4.3740    -0.7060 C.3   1 <1>   0.1400 
 14 C       -5.1860     2.7120    -1.4700 C.3   1 <1>   0.1200 
 15 C       -2.9230     7.0150    -0.9730 C.3   1 <1>   0.1400 
 16 C       -0.4770     7.2870    -0.1780 C.3   1 <1>  -0.1600 
 17 C        0.0580     5.1970    -1.4350 C.3   1 <1>  -0.1600 
 18 C       -6.3250     3.2990    -0.6320 C.3   1 <1>   0.0960 
 19 N       -3.2250     8.4730    -1.0260 N.am  1 <1>  -0.7300 
 20 C        0.6280     6.2810    -0.5240 C.3   1 <1>  -0.1600 
 21 N       -6.3020     4.7710    -0.6550 N.pl3 1 <1>   0.3140 
 22 C       -4.1310     9.1760    -0.3070 C.2   1 <1>   0.5690 
 23 N       -6.4530     5.4790    -1.7800 N.2   1 <1>  -0.4180 
 24 C       -6.2230     5.6030     0.3820 C.2   1 <1>  -0.3020 
 25 O       -4.3550    10.3220    -0.6060 O.2   1 <1>  -0.5700 
 26 C       -4.8530     8.5980     0.8960 C.3   1 <1>  -0.0990 
 27 N       -6.4600     6.7310    -1.4760 N.2   1 <1>  -0.2270 
 28 C       -6.3230     6.8290    -0.1500 C.2   1 <1>   0.0460 
 29 C       -6.2870     8.1580     0.5760 C.3   1 <1>   0.0210 
 30 H       -1.8840     3.0040     3.1210 H     1 <1>   0.1500 
 31 H       -3.1510    -0.7320     1.5330 H     1 <1>   0.1500 
 32 H       -4.0120     0.3980    -0.4690 H     1 <1>   0.1500 
 33 H       -2.2100     7.0930     1.0220 H     1 <1>   0.0800 
 34 H       -1.6510     3.9120    -1.4350 H     1 <1>   0.0800 
 35 H       -0.5160     3.5930    -0.1530 H     1 <1>   0.0800 
 36 H       -5.2890     1.6490    -1.5660 H     1 <1>   0.0800 
 37 H       -5.1990     3.1400    -2.4580 H     1 <1>   0.0800 
 38 H       -3.8250     6.4770    -0.7520 H     1 <1>   0.0800 
 39 H       -2.5800     6.6940    -1.9400 H     1 <1>   0.0800 
 40 H       -0.1750     7.8450     0.6910 H     1 <1>   0.0800 
 41 H       -0.5580     8.0010    -0.9790 H     1 <1>   0.0800 
 42 H       -0.3730     5.6470    -2.3120 H     1 <1>   0.0800 
 43 H        0.8440     4.5410    -1.7640 H     1 <1>   0.0800 
 44 H       -6.2580     2.9570     0.3840 H     1 <1>   0.0800 
 45 H       -7.2670     2.9830    -1.0390 H     1 <1>   0.0800 
 46 H       -2.8320     8.9770    -1.8220 H     1 <1>   0.3700 
 47 H        0.9990     5.8280     0.3800 H     1 <1>   0.0800 
 48 H        1.4460     6.7870    -1.0060 H     1 <1>   0.0800 
 49 H       -6.0940     5.2880     1.4010 H     1 <1>   0.1500 
 50 H       -4.8920     9.3690     1.6430 H     1 <1>   0.0800 
 51 H       -4.3070     7.7760     1.3160 H     1 <1>   0.0800 
 52 H       -6.7880     8.9110    -0.0090 H     1 <1>   0.0800 
 53 H       -6.8260     8.0460     1.4990 H     1 <1>   0.0800 
@<TRIPOS>BOND
  1   1   2  1   
  2   2   3  ar  
  3   2   4  ar  
  4   3   5  ar  
  5   3  30  1   
  6   4   6  ar  
  7   4  31  1   
  8   5   7  1   
  9   5   8  ar  
 10   6   8  ar  
 11   6  32  1   
 12   7   9  2   
 13   7  10  am  
 14   8  11  1   
 15  10  12  1   
 16  10  13  1   
 17  11  14  1   
 18  12  15  1   
 19  12  16  1   
 20  12  33  1   
 21  13  17  1   
 22  13  34  1   
 23  13  35  1   
 24  14  18  1   
 25  14  36  1   
 26  14  37  1   
 27  15  19  1   
 28  15  38  1   
 29  15  39  1   
 30  16  20  1   
 31  16  40  1   
 32  16  41  1   
 33  17  20  1   
 34  17  42  1   
 35  17  43  1   
 36  18  21  1   
 37  18  44  1   
 38  18  45  1   
 39  19  22  am  
 40  19  46  1   
 41  20  47  1   
 42  20  48  1   
 43  21  23  1   
 44  21  24  1   
 45  22  25  2   
 46  22  26  1   
 47  23  27  2   
 48  24  28  2   
 49  24  49  1   
 50  26  29  1   
 51  26  50  1   
 52  26  51  1   
 53  27  28  1   
 54  28  29  1   
 55  29  52  1   
 56  29  53  1   
@<TRIPOS>SUBSTRUCTURE
  1 ****   7 GROUP 4 **** **** 0

# MOE 2024.06 (io_trps.svl 2023.06)
