@<TRIPOS>MOLECULE
NONAME
45 47 1 0 0 
SMALL
USER_CHARGES


@<TRIPOS>ATOM
  1 O        1.0930     1.4780     0.0520 O.co2 1 <1>  -0.9000 
  2 C        0.3880     0.7960     0.8140 C.2   1 <1>   0.9060 
  3 O        0.8170    -0.1530     1.4700 O.co2 1 <1>  -0.9000 
  4 C       -1.0890     1.2210     0.9370 C.3   1 <1>   0.3170 
  5 N       -1.3210     2.5890     0.3390 N.4   1 <1>  -0.9590 
  6 C       -2.0500     0.2830     0.1960 C.3   1 <1>  -0.1600 
  7 C       -2.3980     2.4780    -0.6760 C.3   1 <1>   0.3430 
  8 C       -1.5520     3.6170     1.3710 C.3   1 <1>   0.4860 
  9 C       -3.1500     1.1920    -0.3250 C.3   1 <1>   0.2000 
 10 C       -1.5120     4.9870     0.7190 C.ar  1 <1>  -0.1430 
 11 O       -4.0290     1.4520     0.7210 O.3   1 <1>  -0.6800 
 12 C       -0.3090     5.4740     0.2200 C.ar  1 <1>   0.0830 
 13 C       -2.6630     5.7540     0.6220 C.ar  1 <1>  -0.1500 
 14 O        0.7770     4.6700     0.3360 O.3   1 <1>  -0.3630 
 15 C       -0.2670     6.7340    -0.3710 C.ar  1 <1>  -0.1500 
 16 C       -2.6160     7.0040     0.0300 C.ar  1 <1>  -0.1500 
 17 C        2.0520     5.0470    -0.1400 C.3   1 <1>   0.1200 
 18 C       -1.4200     7.4930    -0.4650 C.ar  1 <1>  -0.1500 
 19 C        3.0180     3.8780     0.0550 C.3   1 <1>   0.0960 
 20 N        4.3910     4.3280    -0.2360 N.pl3 1 <1>   0.0480 
 21 C        5.1130     4.1070    -1.3580 C.2   1 <1>   0.0360 
 22 C        5.1830     5.0980     0.5320 C.2   1 <1>  -0.3020 
 23 N        6.2760     4.6750    -1.3570 N.2   1 <1>  -0.5650 
 24 C        6.3230     5.2970    -0.1640 C.2   1 <1>   0.0770 
 25 H       -1.3440     1.2320     1.9810 H     1 <1>   0.0800 
 26 H       -0.3960     2.8040    -0.1010 H     1 <1>   0.4500 
 27 H       -2.4070    -0.5060     0.8320 H     1 <1>   0.0800 
 28 H       -1.5270    -0.1630    -0.6330 H     1 <1>   0.0800 
 29 H       -3.0540     3.3320    -0.6710 H     1 <1>   0.0800 
 30 H       -1.9520     2.3740    -1.6500 H     1 <1>   0.0800 
 31 H       -2.5050     3.4530     1.8450 H     1 <1>   0.0800 
 32 H       -0.7760     3.5610     2.1170 H     1 <1>   0.0800 
 33 H       -3.6990     0.7850    -1.1570 H     1 <1>   0.0800 
 34 H       -4.5150     0.6390     0.9700 H     1 <1>   0.4000 
 35 H       -3.6010     5.3890     1.0060 H     1 <1>   0.1500 
 36 H        0.6470     7.1400    -0.7620 H     1 <1>   0.1500 
 37 H       -3.5100     7.6000    -0.0440 H     1 <1>   0.1500 
 38 H        1.9700     5.2870    -1.1850 H     1 <1>   0.0800 
 39 H        2.3740     5.9040     0.4240 H     1 <1>   0.0800 
 40 H       -1.3870     8.4670    -0.9220 H     1 <1>   0.1500 
 41 H        2.7700     3.0760    -0.6160 H     1 <1>   0.0800 
 42 H        2.9770     3.5160     1.0670 H     1 <1>   0.0800 
 43 H        4.7330     3.5090    -2.1680 H     1 <1>   0.1500 
 44 H        4.9030     5.4520     1.5070 H     1 <1>   0.1500 
 45 H        7.1900     5.8630     0.1340 H     1 <1>   0.1500 
@<TRIPOS>BOND
  1   1   2  ar  
  2   2   3  ar  
  3   2   4  1   
  4   4   5  1   
  5   4   6  1   
  6   4  25  1   
  7   5   7  1   
  8   5   8  1   
  9   5  26  1   
 10   6   9  1   
 11   6  27  1   
 12   6  28  1   
 13   7   9  1   
 14   7  29  1   
 15   7  30  1   
 16   8  10  1   
 17   8  31  1   
 18   8  32  1   
 19   9  11  1   
 20   9  33  1   
 21  10  12  ar  
 22  10  13  ar  
 23  11  34  1   
 24  12  14  1   
 25  12  15  ar  
 26  13  16  ar  
 27  13  35  1   
 28  14  17  1   
 29  15  18  ar  
 30  15  36  1   
 31  16  18  ar  
 32  16  37  1   
 33  17  19  1   
 34  17  38  1   
 35  17  39  1   
 36  18  40  1   
 37  19  20  1   
 38  19  41  1   
 39  19  42  1   
 40  20  21  1   
 41  20  22  1   
 42  21  23  2   
 43  21  43  1   
 44  22  24  2   
 45  22  44  1   
 46  23  24  1   
 47  24  45  1   
@<TRIPOS>SUBSTRUCTURE
  1 ****  14 GROUP 4 **** **** 0

# MOE 2024.06 (io_trps.svl 2023.06)
