@<TRIPOS>MOLECULE
NONAME
45 48 1 0 0 
SMALL
USER_CHARGES


@<TRIPOS>ATOM
  1 O        1.7560    -0.3430    -3.8920 O.2   1 <1>  -0.5700 
  2 C        1.7290    -0.9170    -2.8310 C.2   1 <1>   0.5690 
  3 N        2.1000    -0.3510    -1.6450 N.am  1 <1>  -0.4940 
  4 C        1.2280    -2.3610    -2.7670 C.3   1 <1>   0.1610 
  5 C        2.4770     0.9550    -1.3300 C.2   1 <1>   0.2040 
  6 C        0.4440    -2.6080    -1.4770 C.2   1 <1>  -0.3320 
  7 C        2.4210    -3.3460    -2.8490 C.3   1 <1>  -0.1600 
  8 O        2.6700     1.8790    -2.2400 O.3   1 <1>  -0.0190 
  9 C        2.6860     1.5140    -0.1240 C.2   1 <1>  -0.1810 
 10 N       -0.5700    -1.8160    -1.0080 N.pl3 1 <1>   0.0330 
 11 C        0.6510    -3.6300    -0.6200 C.2   1 <1>  -0.1810 
 12 C        2.0820    -4.7570    -2.3260 C.3   1 <1>  -0.1600 
 13 N        2.9930     3.0290    -1.7010 N.2   1 <1>  -0.4100 
 14 C        3.0080     2.8350    -0.4310 C.2   1 <1>   0.1080 
 15 C        2.5880     0.8700     1.2490 C.3   1 <1>   0.0210 
 16 C       -0.9790    -2.3270     0.1970 C.ar  1 <1>  -0.1520 
 17 C       -0.2330    -3.4710     0.4690 C.ar  1 <1>   0.0000 
 18 C        1.6650    -4.7330    -0.8430 C.3   1 <1>   0.0210 
 19 C        3.3340     3.9200     0.5720 C.3   1 <1>  -0.0590 
 20 C        1.1500     0.9310     1.7690 C.3   1 <1>  -0.2400 
 21 C       -1.9540    -1.8770     1.0910 C.ar  1 <1>  -0.1500 
 22 C       -0.4640    -4.1810     1.6520 C.ar  1 <1>  -0.1500 
 23 C       -2.1690    -2.5840     2.2510 C.ar  1 <1>  -0.1500 
 24 C       -1.4240    -3.7360     2.5310 C.ar  1 <1>  -0.1500 
 25 H        1.9640    -0.9690    -0.8430 H     1 <1>   0.3700 
 26 H        0.5710    -2.5340    -3.6010 H     1 <1>   0.0800 
 27 H        3.2390    -2.9610    -2.2650 H     1 <1>   0.0800 
 28 H        2.7550    -3.4050    -3.8700 H     1 <1>   0.0800 
 29 H       -0.9650    -0.9840    -1.4620 H     1 <1>   0.2700 
 30 H        2.9300    -5.4070    -2.4480 H     1 <1>   0.0800 
 31 H        1.2700    -5.1590    -2.9090 H     1 <1>   0.0800 
 32 H        3.2480     1.3690     1.9360 H     1 <1>   0.0800 
 33 H        2.9000    -0.1580     1.1870 H     1 <1>   0.0800 
 34 H        1.2370    -5.6820    -0.5720 H     1 <1>   0.0800 
 35 H        2.5220    -4.5540    -0.2190 H     1 <1>   0.0800 
 36 H        2.5490     3.9960     1.3000 H     1 <1>   0.0800 
 37 H        3.4340     4.8650     0.0690 H     1 <1>   0.0800 
 38 H        4.2600     3.6920     1.0670 H     1 <1>   0.0800 
 39 H        0.8220     1.9530     1.8420 H     1 <1>   0.0800 
 40 H        1.0880     0.4760     2.7420 H     1 <1>   0.0800 
 41 H        0.4900     0.4030     1.1040 H     1 <1>   0.0800 
 42 H       -2.5240    -0.9930     0.8670 H     1 <1>   0.1500 
 43 H        0.1130    -5.0640     1.8550 H     1 <1>   0.1500 
 44 H       -2.9150    -2.2600     2.9560 H     1 <1>   0.1500 
 45 H       -1.6130    -4.2720     3.4450 H     1 <1>   0.1500 
@<TRIPOS>BOND
  1   1   2  2   
  2   2   3  am  
  3   2   4  1   
  4   3   5  1   
  5   3  25  1   
  6   4   6  1   
  7   4   7  1   
  8   4  26  1   
  9   5   8  1   
 10   5   9  2   
 11   6  10  1   
 12   6  11  2   
 13   7  12  1   
 14   7  27  1   
 15   7  28  1   
 16   8  13  1   
 17   9  14  1   
 18   9  15  1   
 19  10  16  1   
 20  10  29  1   
 21  11  17  1   
 22  11  18  1   
 23  12  18  1   
 24  12  30  1   
 25  12  31  1   
 26  13  14  2   
 27  14  19  1   
 28  15  20  1   
 29  15  32  1   
 30  15  33  1   
 31  16  17  ar  
 32  16  21  ar  
 33  17  22  ar  
 34  18  34  1   
 35  18  35  1   
 36  19  36  1   
 37  19  37  1   
 38  19  38  1   
 39  20  39  1   
 40  20  40  1   
 41  20  41  1   
 42  21  23  ar  
 43  21  42  1   
 44  22  24  ar  
 45  22  43  1   
 46  23  24  ar  
 47  23  44  1   
 48  24  45  1   
@<TRIPOS>SUBSTRUCTURE
  1 ****   3 GROUP 4 **** **** 0

# MOE 2024.06 (io_trps.svl 2023.06)
