@<TRIPOS>MOLECULE
NONAME
44 45 1 0 0 
SMALL
USER_CHARGES


@<TRIPOS>ATOM
  1 S       -0.2250     0.6010    -0.5050 S.o2  1 <1>   1.3330 
  2 O       -1.1290    -0.4600    -0.8660 O.2   1 <1>  -0.6500 
  3 O        0.0910     1.6590    -1.4380 O.2   1 <1>  -0.6500 
  4 N        1.2440    -0.0920    -0.0120 N.am  1 <1>  -0.8490 
  5 C       -0.8140     1.4020     0.9960 C.3   1 <1>  -0.0550 
  6 C        2.1230    -0.3570    -1.1610 C.3   1 <1>   0.1160 
  7 C        1.0610    -1.3580     0.7200 C.3   1 <1>   0.1160 
  8 C       -0.2080     2.7920     1.3160 C.3   1 <1>  -0.0800 
  9 C       -0.6960     3.8990     0.3630 C.3   1 <1>   0.2000 
 10 C        1.3320     2.8510     1.2600 C.3   1 <1>   0.3430 
 11 O       -1.1970     4.9410     1.1380 O.3   1 <1>  -0.6800 
 12 C        0.5680     4.3900    -0.3520 C.3   1 <1>   0.3430 
 13 N        1.6900     4.1420     0.6080 N.4   1 <1>  -0.9590 
 14 C        1.8210     5.2500     1.6050 C.3   1 <1>   0.4860 
 15 C        2.1320     6.5480     0.8970 C.ar  1 <1>  -0.1440 
 16 C        1.1570     7.4990     0.7010 C.ar  1 <1>   0.1600 
 17 C        3.3890     6.8350     0.4190 C.ar  1 <1>   0.1600 
 18 N        1.4000     8.6230     0.0690 N.ar  1 <1>  -0.6200 
 19 N        3.6540     7.9510    -0.2150 N.ar  1 <1>  -0.6200 
 20 C        2.6410     8.7910    -0.3540 C.ar  1 <1>   0.4770 
 21 C        2.9310    10.0820    -1.0810 C.3   1 <1>  -0.0970 
 22 H       -1.8790     1.5170     0.9170 H     1 <1>   0.0800 
 23 H       -0.6420     0.7460     1.8270 H     1 <1>   0.0800 
 24 H        3.0510    -0.7920    -0.8320 H     1 <1>   0.0800 
 25 H        2.3470     0.5590    -1.6820 H     1 <1>   0.0800 
 26 H        1.6450    -1.0340    -1.8520 H     1 <1>   0.0800 
 27 H        2.0120    -1.7320     1.0600 H     1 <1>   0.0800 
 28 H        0.6060    -2.1010     0.0840 H     1 <1>   0.0800 
 29 H        0.4300    -1.2140     1.5800 H     1 <1>   0.0800 
 30 H       -0.5060     3.0330     2.3220 H     1 <1>   0.0800 
 31 H       -1.4540     3.5920    -0.3390 H     1 <1>   0.0800 
 32 H        1.7140     2.0480     0.6550 H     1 <1>   0.0800 
 33 H        1.7650     2.7700     2.2440 H     1 <1>   0.0800 
 34 H       -2.1490     4.8070     1.3390 H     1 <1>   0.4000 
 35 H        0.4810     5.4250    -0.6390 H     1 <1>   0.0800 
 36 H        0.7230     3.8010    -1.2410 H     1 <1>   0.0800 
 37 H        2.5670     4.0560     0.0780 H     1 <1>   0.4500 
 38 H        0.9040     5.3570     2.1620 H     1 <1>   0.0800 
 39 H        2.6130     5.0270     2.3020 H     1 <1>   0.0800 
 40 H        0.1520     7.3420     1.0610 H     1 <1>   0.1500 
 41 H        4.2040     6.1430     0.5510 H     1 <1>   0.1500 
 42 H        2.3390    10.8780    -0.6690 H     1 <1>   0.0800 
 43 H        2.6910     9.9660    -2.1200 H     1 <1>   0.0800 
 44 H        3.9710    10.3370    -0.9860 H     1 <1>   0.0800 
@<TRIPOS>BOND
  1   1   2  2   
  2   1   3  2   
  3   1   4  am  
  4   1   5  1   
  5   4   6  1   
  6   4   7  1   
  7   5   8  1   
  8   5  22  1   
  9   5  23  1   
 10   6  24  1   
 11   6  25  1   
 12   6  26  1   
 13   7  27  1   
 14   7  28  1   
 15   7  29  1   
 16   8   9  1   
 17   8  10  1   
 18   8  30  1   
 19   9  11  1   
 20   9  12  1   
 21   9  31  1   
 22  10  13  1   
 23  10  32  1   
 24  10  33  1   
 25  11  34  1   
 26  12  13  1   
 27  12  35  1   
 28  12  36  1   
 29  13  14  1   
 30  13  37  1   
 31  14  15  1   
 32  14  38  1   
 33  14  39  1   
 34  15  16  ar  
 35  15  17  ar  
 36  16  18  ar  
 37  16  40  1   
 38  17  19  ar  
 39  17  41  1   
 40  18  20  ar  
 41  19  20  ar  
 42  20  21  1   
 43  21  42  1   
 44  21  43  1   
 45  21  44  1   
@<TRIPOS>SUBSTRUCTURE
  1 ****  13 GROUP 4 **** **** 0

# MOE 2024.06 (io_trps.svl 2023.06)
