@<TRIPOS>MOLECULE
NONAME
35 36 1 0 0 
SMALL
USER_CHARGES


@<TRIPOS>ATOM
  1 O        0.0080     1.0270    -1.4700 O.3   1 <1>  -0.3620 
  2 C       -0.0830     2.1370    -0.7410 C.ar  1 <1>   0.3930 
  3 C       -1.0190     0.0550    -1.5400 C.3   1 <1>   0.0400 
  4 N       -1.1900     2.3590    -0.0350 N.ar  1 <1>  -0.6200 
  5 C        0.9880     3.0050    -0.7580 C.ar  1 <1>  -0.1500 
  6 C       -1.2160     3.4680     0.6590 C.ar  1 <1>   0.7710 
  7 C        0.9270     4.1610    -0.0160 C.ar  1 <1>   0.4610 
  8 N       -0.2030     4.3580     0.6840 N.ar  1 <1>  -0.1790 
  9 N       -2.3210     3.6990     1.3690 N.pl3 1 <1>  -0.9000 
 10 N        1.9380     5.0610     0.0190 N.pl3 1 <1>  -0.8690 
 11 C        2.1340     6.3110     0.7850 C.3   1 <1>   0.3900 
 12 C        3.5510     6.7620     0.5190 C.2   1 <1>  -0.1810 
 13 C        3.9750     7.5370    -0.5590 C.2   1 <1>   0.1080 
 14 C        4.6740     6.5200     1.2340 C.2   1 <1>  -0.3320 
 15 N        5.2470     7.7650    -0.5240 N.2   1 <1>  -0.7070 
 16 C        3.1100     8.0840    -1.6740 C.3   1 <1>  -0.0590 
 17 N        5.6820     7.1420     0.5840 N.pl3 1 <1>   0.3000 
 18 C        4.8900     5.7300     2.5140 C.3   1 <1>  -0.0600 
 19 H       -0.6940    -0.7350    -2.1930 H     1 <1>   0.0800 
 20 H       -1.9100     0.5140    -1.9320 H     1 <1>   0.0800 
 21 H       -1.2000    -0.3340    -0.5530 H     1 <1>   0.0800 
 22 H        1.8540     2.7700    -1.3480 H     1 <1>   0.1500 
 23 H       -0.3140     5.1890     1.2400 H     1 <1>   0.4570 
 24 H       -2.5460     4.4910     1.9740 H     1 <1>   0.4000 
 25 H       -3.0660     2.9950     1.3220 H     1 <1>   0.4000 
 26 H        2.8000     4.8660    -0.5150 H     1 <1>   0.4000 
 27 H        2.0010     6.1320     1.8380 H     1 <1>   0.0800 
 28 H        1.4410     7.0690     0.4590 H     1 <1>   0.0800 
 29 H        2.3480     7.3790    -1.9460 H     1 <1>   0.0800 
 30 H        3.7190     8.2800    -2.5380 H     1 <1>   0.0800 
 31 H        2.6550     9.0050    -1.3600 H     1 <1>   0.0800 
 32 H        6.6700     7.1630     0.8650 H     1 <1>   0.2700 
 33 H        3.9750     5.2750     2.8450 H     1 <1>   0.0800 
 34 H        5.2500     6.3800     3.2930 H     1 <1>   0.0800 
 35 H        5.6150     4.9520     2.3510 H     1 <1>   0.0800 
@<TRIPOS>BOND
  1   1   2  1   
  2   1   3  1   
  3   2   4  ar  
  4   2   5  ar  
  5   3  19  1   
  6   3  20  1   
  7   3  21  1   
  8   4   6  ar  
  9   5   7  ar  
 10   5  22  1   
 11   6   8  ar  
 12   6   9  1   
 13   7   8  ar  
 14   7  10  1   
 15   8  23  1   
 16   9  24  1   
 17   9  25  1   
 18  10  11  1   
 19  10  26  1   
 20  11  12  1   
 21  11  27  1   
 22  11  28  1   
 23  12  13  1   
 24  12  14  2   
 25  13  15  2   
 26  13  16  1   
 27  14  17  1   
 28  14  18  1   
 29  15  17  1   
 30  16  29  1   
 31  16  30  1   
 32  16  31  1   
 33  17  32  1   
 34  18  33  1   
 35  18  34  1   
 36  18  35  1   
@<TRIPOS>SUBSTRUCTURE
  1 ****  10 GROUP 4 **** **** 0

# MOE 2024.06 (io_trps.svl 2023.06)
