@<TRIPOS>MOLECULE
NONAME
45 47 1 0 0 
SMALL
USER_CHARGES


@<TRIPOS>ATOM
  1 CL      -2.3800    -0.7380     2.1690 Cl    1 <1>  -0.1770 
  2 C       -2.8660     0.5280     1.0740 C.ar  1 <1>   0.1770 
  3 C       -3.2740     0.2360    -0.2250 C.ar  1 <1>   0.0860 
  4 C       -2.8270     1.8240     1.5520 C.ar  1 <1>  -0.1500 
  5 C       -3.3200    -1.1040    -0.7680 C.2   1 <1>   0.5440 
  6 C       -3.6330     1.3160    -1.0330 C.ar  1 <1>  -0.1500 
  7 C       -3.1960     2.8730     0.7290 C.ar  1 <1>  -0.1500 
  8 O       -2.5550    -1.3640    -1.6770 O.2   1 <1>  -0.5700 
  9 N       -4.2460    -2.0450    -0.3590 N.am  1 <1>  -0.6600 
 10 C       -3.6060     2.6310    -0.5790 C.ar  1 <1>  -0.1430 
 11 C       -4.3820    -3.3680    -1.0710 C.3   1 <1>   0.1400 
 12 C       -5.3570    -1.7390     0.5840 C.3   1 <1>   0.1400 
 13 C       -4.0050     3.7960    -1.5040 C.3   1 <1>   1.1640 
 14 C       -4.6230    -4.5730    -0.1280 C.3   1 <1>  -0.1060 
 15 C       -5.5070    -2.8560     1.6120 C.3   1 <1>  -0.1600 
 16 F       -4.8870     3.4390    -2.4280 F     1 <1>  -0.3400 
 17 F       -2.9620     4.2960    -2.1510 F     1 <1>  -0.3400 
 18 F       -4.5540     4.8070    -0.8410 F     1 <1>  -0.3400 
 19 C       -5.2320    -5.7240    -0.9360 C.2   1 <1>   0.9060 
 20 C       -5.7150    -4.1870     0.8990 C.3   1 <1>   0.2000 
 21 C       -3.2900    -5.1350     0.4620 C.3   1 <1>  -0.0650 
 22 O       -5.3010    -5.6640    -2.1680 O.co2 1 <1>  -0.9000 
 23 O       -5.6630    -6.7120    -0.3190 O.co2 1 <1>  -0.9000 
 24 O       -5.8660    -5.1780     1.8490 O.3   1 <1>  -0.6800 
 25 C       -2.2610    -4.1560     1.0490 C.3   1 <1>  -0.1950 
 26 C       -1.1720    -3.5740     0.2050 C.3   1 <1>  -0.2000 
 27 C       -0.8480    -4.6110     1.2390 C.3   1 <1>  -0.2000 
 28 H       -2.5060     2.0090     2.5620 H     1 <1>   0.1500 
 29 H       -3.9330     1.0970    -2.0460 H     1 <1>   0.1500 
 30 H       -3.1560     3.8810     1.1150 H     1 <1>   0.1500 
 31 H       -5.2140    -3.2790    -1.7480 H     1 <1>   0.0800 
 32 H       -3.5130    -3.5680    -1.6750 H     1 <1>   0.0800 
 33 H       -5.1880    -0.8110     1.0980 H     1 <1>   0.0800 
 34 H       -6.2690    -1.6470     0.0200 H     1 <1>   0.0800 
 35 H       -6.3640    -2.6520     2.2260 H     1 <1>   0.0800 
 36 H       -4.6450    -2.8910     2.2470 H     1 <1>   0.0800 
 37 H       -6.6550    -4.1330     0.3720 H     1 <1>   0.0800 
 38 H       -3.5190    -5.8660     1.2160 H     1 <1>   0.0800 
 39 H       -2.7960    -5.6760    -0.3280 H     1 <1>   0.0800 
 40 H       -5.8910    -6.0300     1.3270 H     1 <1>   0.4000 
 41 H       -2.6570    -3.5620     1.8470 H     1 <1>   0.1000 
 42 H       -1.1450    -3.8330    -0.8390 H     1 <1>   0.1000 
 43 H       -0.8900    -2.5500     0.3760 H     1 <1>   0.1000 
 44 H       -0.3280    -4.3080     2.1300 H     1 <1>   0.1000 
 45 H       -0.5680    -5.5960     0.9080 H     1 <1>   0.1000 
@<TRIPOS>BOND
  1   1   2  1   
  2   2   3  ar  
  3   2   4  ar  
  4   3   5  1   
  5   3   6  ar  
  6   4   7  ar  
  7   4  28  1   
  8   5   8  2   
  9   5   9  am  
 10   6  10  ar  
 11   6  29  1   
 12   7  10  ar  
 13   7  30  1   
 14   9  11  1   
 15   9  12  1   
 16  10  13  1   
 17  11  14  1   
 18  11  31  1   
 19  11  32  1   
 20  12  15  1   
 21  12  33  1   
 22  12  34  1   
 23  13  16  1   
 24  13  17  1   
 25  13  18  1   
 26  14  19  1   
 27  14  20  1   
 28  14  21  1   
 29  15  20  1   
 30  15  35  1   
 31  15  36  1   
 32  19  22  ar  
 33  19  23  ar  
 34  20  24  1   
 35  20  37  1   
 36  21  25  1   
 37  21  38  1   
 38  21  39  1   
 39  24  40  1   
 40  25  26  1   
 41  25  27  1   
 42  25  41  1   
 43  26  27  1   
 44  26  42  1   
 45  26  43  1   
 46  27  44  1   
 47  27  45  1   
@<TRIPOS>SUBSTRUCTURE
  1 ****   9 GROUP 4 **** **** 0

# MOE 2024.06 (io_trps.svl 2023.06)
