@<TRIPOS>MOLECULE
NONAME
39 42 1 0 0 
SMALL
USER_CHARGES


@<TRIPOS>ATOM
  1 S       -0.1660     0.0920     1.4700 S.3   1 <1>  -0.0800 
  2 C       -1.3260     0.9880     0.5000 C.2   1 <1>  -0.1400 
  3 C       -1.3350    -1.1950     1.7370 C.2   1 <1>  -0.1100 
  4 C       -2.4880     0.3270     0.4230 C.2   1 <1>  -0.1810 
  5 C       -0.9940     2.3280    -0.1520 C.3   1 <1>   0.4600 
  6 C       -2.5020    -0.9210     1.1220 C.2   1 <1>  -0.1500 
  7 C       -3.6340     0.9250    -0.3610 C.3   1 <1>   0.0210 
  8 O       -2.0850     2.7130    -0.9680 O.3   1 <1>  -0.5600 
  9 C        0.2020     2.1840    -1.1110 C.3   1 <1>  -0.1600 
 10 C       -0.7750     3.4200     0.9080 C.3   1 <1>  -0.1600 
 11 C       -3.3940     2.4380    -0.5220 C.3   1 <1>   0.1200 
 12 C        1.5000     2.7060    -0.4990 C.3   1 <1>   0.2090 
 13 C       -0.0020     4.5970     0.3220 C.3   1 <1>   0.2090 
 14 N        1.3480     4.1440    -0.1230 N.pl3 1 <1>  -0.8380 
 15 C        2.4720     4.8800     0.2110 C.ar  1 <1>   0.4100 
 16 N        3.5470     4.2170     0.6060 N.ar  1 <1>  -0.6200 
 17 C        2.4860     6.2530     0.1370 C.ar  1 <1>  -0.1500 
 18 C        4.5880     4.9570     0.9290 C.ar  1 <1>   0.4700 
 19 C        3.6350     6.9090     0.4980 C.ar  1 <1>   0.4100 
 20 N        4.7070     6.2710     0.9020 N.ar  1 <1>  -0.6200 
 21 N        3.7570     8.2590     0.4530 N.pl3 1 <1>  -0.9000 
 22 H       -1.0190    -2.0310     2.3340 H     1 <1>   0.1500 
 23 H       -3.3760    -1.5480     1.1290 H     1 <1>   0.1500 
 24 H       -4.5620     0.7640     0.1570 H     1 <1>   0.0800 
 25 H       -3.6950     0.4590    -1.3280 H     1 <1>   0.0800 
 26 H        0.0210     2.7420    -2.0120 H     1 <1>   0.0800 
 27 H        0.3290     1.1540    -1.3850 H     1 <1>   0.0800 
 28 H       -0.2010     3.0250     1.7260 H     1 <1>   0.0800 
 29 H       -1.7110     3.7530     1.3100 H     1 <1>   0.0800 
 30 H       -3.5490     2.9390     0.4160 H     1 <1>   0.0800 
 31 H       -4.0780     2.8450    -1.2450 H     1 <1>   0.0800 
 32 H        2.3030     2.6080    -1.2100 H     1 <1>   0.0800 
 33 H        1.7560     2.1350     0.3770 H     1 <1>   0.0800 
 34 H        0.0960     5.3650     1.0700 H     1 <1>   0.0800 
 35 H       -0.5360     5.0030    -0.5210 H     1 <1>   0.0800 
 36 H        1.6280     6.7960    -0.1960 H     1 <1>   0.1500 
 37 H        5.4600     4.4170     1.2580 H     1 <1>   0.1500 
 38 H        4.7100     8.5860     0.6230 H     1 <1>   0.4000 
 39 H        3.2790     8.7610    -0.2940 H     1 <1>   0.4000 
@<TRIPOS>BOND
  1   1   2  1   
  2   1   3  1   
  3   2   4  2   
  4   2   5  1   
  5   3   6  2   
  6   3  22  1   
  7   4   6  1   
  8   4   7  1   
  9   5   8  1   
 10   5   9  1   
 11   5  10  1   
 12   6  23  1   
 13   7  11  1   
 14   7  24  1   
 15   7  25  1   
 16   8  11  1   
 17   9  12  1   
 18   9  26  1   
 19   9  27  1   
 20  10  13  1   
 21  10  28  1   
 22  10  29  1   
 23  11  30  1   
 24  11  31  1   
 25  12  14  1   
 26  12  32  1   
 27  12  33  1   
 28  13  14  1   
 29  13  34  1   
 30  13  35  1   
 31  14  15  1   
 32  15  16  ar  
 33  15  17  ar  
 34  16  18  ar  
 35  17  19  ar  
 36  17  36  1   
 37  18  20  ar  
 38  18  37  1   
 39  19  20  ar  
 40  19  21  1   
 41  21  38  1   
 42  21  39  1   
@<TRIPOS>SUBSTRUCTURE
  1 ****  10 GROUP 4 **** **** 0

# MOE 2024.06 (io_trps.svl 2023.06)
