@<TRIPOS>MOLECULE
NONAME
41 42 1 0 0 
SMALL
USER_CHARGES


@<TRIPOS>ATOM
  1 O       -0.4890    -3.1030     1.7790 O.2   1 <1>  -0.5700 
  2 C        0.5120    -2.5890     1.3240 C.2   1 <1>   0.6900 
  3 N        0.6130    -2.2730    -0.0010 N.am  1 <1>  -0.6600 
  4 N        1.5230    -2.3290     2.1590 N.am  1 <1>  -0.8000 
  5 C       -0.6020    -2.3410    -0.8850 C.3   1 <1>   0.2010 
  6 C        1.9080    -2.1200    -0.7210 C.3   1 <1>   0.0600 
  7 C       -0.9070    -3.7530    -1.3880 C.2   1 <1>   0.5690 
  8 O       -0.9700    -3.9600    -2.5770 O.2   1 <1>  -0.5700 
  9 N       -1.0970    -4.7390    -0.4780 N.am  1 <1>  -0.7300 
 10 C       -1.3470    -6.1650    -0.7700 C.3   1 <1>   0.2200 
 11 C       -2.5600    -6.6300     0.0190 C.3   1 <1>  -0.0800 
 12 C       -0.2170    -7.0250    -0.1950 C.3   1 <1>   0.1200 
 13 C       -1.9170    -7.0190     1.3490 C.3   1 <1>   0.1200 
 14 C       -3.2480    -7.8250    -0.6670 C.3   1 <1>  -0.0170 
 15 O       -0.6700    -7.5490     1.0210 O.3   1 <1>  -0.5600 
 16 C       -4.4570    -8.3070     0.1200 C.ar  1 <1>  -0.1430 
 17 C       -4.4200    -9.4510     0.8910 C.ar  1 <1>  -0.1500 
 18 C       -5.6560    -7.6240     0.1010 C.ar  1 <1>  -0.1500 
 19 C       -5.5510    -9.8450     1.5870 C.ar  1 <1>   0.1600 
 20 C       -6.7290    -8.1040     0.8340 C.ar  1 <1>   0.1600 
 21 N       -6.7050    -9.1990     1.5770 N.ar  1 <1>  -0.6200 
 22 H        1.3660    -2.4810     3.1530 H     1 <1>   0.3700 
 23 H        2.2520    -1.6710     1.9020 H     1 <1>   0.3700 
 24 H       -1.4570    -1.9890    -0.3370 H     1 <1>   0.0800 
 25 H       -0.4670    -1.6920    -1.7310 H     1 <1>   0.0800 
 26 H        1.8980    -2.7150    -1.6190 H     1 <1>   0.0800 
 27 H        2.7290    -2.4510    -0.1100 H     1 <1>   0.0800 
 28 H        2.0560    -1.0880    -0.9860 H     1 <1>   0.0800 
 29 H       -0.9560    -4.4930     0.5160 H     1 <1>   0.3700 
 30 H       -1.4560    -6.3080    -1.8320 H     1 <1>   0.0800 
 31 H       -3.2760    -5.8370     0.1500 H     1 <1>   0.0800 
 32 H        0.6790    -6.4540    -0.0240 H     1 <1>   0.0800 
 33 H       -0.0030    -7.8550    -0.8440 H     1 <1>   0.0800 
 34 H       -2.4800    -7.7470     1.9040 H     1 <1>   0.0800 
 35 H       -1.7510    -6.1490     1.9620 H     1 <1>   0.0800 
 36 H       -2.5490    -8.6360    -0.7840 H     1 <1>   0.0800 
 37 H       -3.5710    -7.5330    -1.6510 H     1 <1>   0.0800 
 38 H       -3.5220   -10.0390     0.9580 H     1 <1>   0.1500 
 39 H       -5.7660    -6.7240    -0.4760 H     1 <1>   0.1500 
 40 H       -5.5020   -10.7400     2.1830 H     1 <1>   0.1500 
 41 H       -7.6560    -7.5570     0.8070 H     1 <1>   0.1500 
@<TRIPOS>BOND
  1   1   2  2   
  2   2   3  am  
  3   2   4  am  
  4   3   5  1   
  5   3   6  1   
  6   4  22  1   
  7   4  23  1   
  8   5   7  1   
  9   5  24  1   
 10   5  25  1   
 11   6  26  1   
 12   6  27  1   
 13   6  28  1   
 14   7   8  2   
 15   7   9  am  
 16   9  10  1   
 17   9  29  1   
 18  10  11  1   
 19  10  12  1   
 20  10  30  1   
 21  11  13  1   
 22  11  14  1   
 23  11  31  1   
 24  12  15  1   
 25  12  32  1   
 26  12  33  1   
 27  13  15  1   
 28  13  34  1   
 29  13  35  1   
 30  14  16  1   
 31  14  36  1   
 32  14  37  1   
 33  16  17  ar  
 34  16  18  ar  
 35  17  19  ar  
 36  17  38  1   
 37  18  20  ar  
 38  18  39  1   
 39  19  21  ar  
 40  19  40  1   
 41  20  21  ar  
 42  20  41  1   
@<TRIPOS>SUBSTRUCTURE
  1 ****  11 GROUP 4 **** **** 0

# MOE 2024.06 (io_trps.svl 2023.06)
