@<TRIPOS>MOLECULE
NONAME
49 51 1 0 0 
SMALL
USER_CHARGES


@<TRIPOS>ATOM
  1 O       -2.1820    -2.8430    -2.1550 O.2   1 <1>  -0.5700 
  2 C       -2.4140    -2.5130    -1.0150 C.2   1 <1>   0.5690 
  3 N       -2.4430    -1.1970    -0.6280 N.am  1 <1>  -0.6600 
  4 C       -2.6710    -3.6170    -0.0030 C.3   1 <1>  -0.0190 
  5 C       -2.7640    -0.7950     0.7820 C.3   1 <1>   0.2200 
  6 C       -2.4010    -0.0880    -1.6200 C.3   1 <1>   0.0600 
  7 C       -1.6000    -3.6040     1.0970 C.3   1 <1>   0.1200 
  8 C       -4.1120    -3.6160     0.5470 C.3   1 <1>   0.1400 
  9 C       -1.6950    -1.3280     1.7570 C.3   1 <1>   0.1200 
 10 C       -4.2010    -1.1860     1.2170 C.3   1 <1>   0.1400 
 11 O       -1.8840    -2.6720     2.0940 O.3   1 <1>  -0.5600 
 12 N       -4.7960    -2.2930     0.4010 N.am  1 <1>  -0.6600 
 13 C       -5.7480    -2.0130    -0.5530 C.2   1 <1>   0.5690 
 14 O       -6.2810    -0.9260    -0.6110 O.2   1 <1>  -0.5700 
 15 C       -6.1580    -3.0380    -1.6030 C.3   1 <1>   0.0440 
 16 C       -7.0630    -4.1400    -1.0430 C.ar  1 <1>  -0.1430 
 17 C       -6.7650    -5.4930    -1.1980 C.ar  1 <1>   0.0830 
 18 C       -8.2160    -3.7700    -0.3680 C.ar  1 <1>  -0.1500 
 19 O       -5.6280    -5.8270    -1.8650 O.3   1 <1>  -0.3630 
 20 C       -7.6240    -6.4510    -0.6680 C.ar  1 <1>  -0.1500 
 21 C       -9.0670    -4.7250     0.1580 C.ar  1 <1>  -0.1500 
 22 C       -5.3370    -7.1620    -2.2120 C.3   1 <1>   0.0400 
 23 C       -8.7710    -6.0760     0.0090 C.ar  1 <1>   0.0830 
 24 O       -9.5480    -7.0760     0.4940 O.3   1 <1>  -0.3630 
 25 C      -10.7400    -6.8010     1.1970 C.3   1 <1>   0.0400 
 26 H       -2.5410    -4.5470    -0.5260 H     1 <1>   0.0800 
 27 H       -2.7010     0.2770     0.8380 H     1 <1>   0.0800 
 28 H       -1.6410     0.6210    -1.3460 H     1 <1>   0.0800 
 29 H       -3.3580     0.4040    -1.6500 H     1 <1>   0.0800 
 30 H       -2.1800    -0.4640    -2.6040 H     1 <1>   0.0800 
 31 H       -0.6240    -3.4030     0.6900 H     1 <1>   0.0800 
 32 H       -1.5740    -4.5670     1.5760 H     1 <1>   0.0800 
 33 H       -4.1090    -3.8920     1.5880 H     1 <1>   0.0800 
 34 H       -4.6710    -4.3750     0.0370 H     1 <1>   0.0800 
 35 H       -1.7570    -0.7740     2.6760 H     1 <1>   0.0800 
 36 H       -0.7060    -1.1970     1.3530 H     1 <1>   0.0800 
 37 H       -4.8200    -0.3100     1.1440 H     1 <1>   0.0800 
 38 H       -4.2060    -1.4730     2.2540 H     1 <1>   0.0800 
 39 H       -6.6930    -2.5290    -2.3830 H     1 <1>   0.0800 
 40 H       -5.2670    -3.4330    -2.0520 H     1 <1>   0.0800 
 41 H       -8.4560    -2.7260    -0.2470 H     1 <1>   0.1500 
 42 H       -7.4280    -7.5000    -0.7620 H     1 <1>   0.1500 
 43 H       -9.9480    -4.3970     0.6760 H     1 <1>   0.1500 
 44 H       -4.4310    -7.1660    -2.7920 H     1 <1>   0.0800 
 45 H       -6.1490    -7.5550    -2.7990 H     1 <1>   0.0800 
 46 H       -5.1980    -7.7360    -1.3130 H     1 <1>   0.0800 
 47 H      -11.1830    -7.7380     1.4830 H     1 <1>   0.0800 
 48 H      -11.4090    -6.2620     0.5510 H     1 <1>   0.0800 
 49 H      -10.5020    -6.2270     2.0750 H     1 <1>   0.0800 
@<TRIPOS>BOND
  1   1   2  2   
  2   2   3  am  
  3   2   4  1   
  4   3   5  1   
  5   3   6  1   
  6   4   7  1   
  7   4   8  1   
  8   4  26  1   
  9   5   9  1   
 10   5  10  1   
 11   5  27  1   
 12   6  28  1   
 13   6  29  1   
 14   6  30  1   
 15   7  11  1   
 16   7  31  1   
 17   7  32  1   
 18   8  12  1   
 19   8  33  1   
 20   8  34  1   
 21   9  11  1   
 22   9  35  1   
 23   9  36  1   
 24  10  12  1   
 25  10  37  1   
 26  10  38  1   
 27  12  13  am  
 28  13  14  2   
 29  13  15  1   
 30  15  16  1   
 31  15  39  1   
 32  15  40  1   
 33  16  17  ar  
 34  16  18  ar  
 35  17  19  1   
 36  17  20  ar  
 37  18  21  ar  
 38  18  41  1   
 39  19  22  1   
 40  20  23  ar  
 41  20  42  1   
 42  21  23  ar  
 43  21  43  1   
 44  22  44  1   
 45  22  45  1   
 46  22  46  1   
 47  23  24  1   
 48  24  25  1   
 49  25  47  1   
 50  25  48  1   
 51  25  49  1   
@<TRIPOS>SUBSTRUCTURE
  1 ****   8 GROUP 4 **** **** 0

# MOE 2024.06 (io_trps.svl 2023.06)
