@<TRIPOS>MOLECULE
NONAME
45 47 1 0 0 
SMALL
USER_CHARGES


@<TRIPOS>ATOM
  1 S        2.1170    -0.1390     2.2360 S.3   1 <1>  -0.0800 
  2 C        1.2760    -0.2650     0.7090 C.2   1 <1>   0.1980 
  3 C        1.8460    -1.8300     2.4950 C.2   1 <1>  -0.1100 
  4 N        0.8530    -1.4380     0.4500 N.2   1 <1>  -0.5650 
  5 C        1.1500     1.0130    -0.1170 C.3   1 <1>   0.1000 
  6 C        1.1620    -2.3700     1.4610 C.2   1 <1>   0.1410 
  7 C       -0.0110     0.9290    -1.1180 C.3   1 <1>  -0.2400 
  8 C        2.4610     1.3040    -0.8600 C.3   1 <1>  -0.2400 
  9 C        0.7880    -3.7850     1.3880 C.2   1 <1>   0.7160 
 10 O        1.2570    -4.5560     2.2090 O.2   1 <1>  -0.5700 
 11 N       -0.0770    -4.3190     0.4520 N.am  1 <1>  -0.6600 
 12 C       -0.9440    -3.5710    -0.4950 C.3   1 <1>   0.1400 
 13 C       -0.2990    -5.7810     0.2980 C.3   1 <1>   0.1400 
 14 C       -2.0270    -4.5710    -0.8930 C.3   1 <1>   0.2000 
 15 C       -1.3000    -5.9170    -0.8540 C.3   1 <1>  -0.0800 
 16 O       -3.0130    -4.5470     0.0840 O.3   1 <1>  -0.6800 
 17 C       -2.2030    -7.1590    -0.7480 C.3   1 <1>   0.0210 
 18 C       -1.3750    -8.4280    -0.7070 C.2   1 <1>   0.1080 
 19 N       -0.6150    -8.8060    -1.6880 N.2   1 <1>  -0.7070 
 20 C       -1.3240    -9.3110     0.3670 C.2   1 <1>  -0.1500 
 21 N       -0.0540    -9.9530    -1.2620 N.pl3 1 <1>   0.3000 
 22 C       -0.4670   -10.2790    -0.0190 C.2   1 <1>  -0.3320 
 23 C       -0.0100   -11.5150     0.7340 C.3   1 <1>  -0.0600 
 24 H        2.2230    -2.2770     3.3970 H     1 <1>   0.1500 
 25 H        0.9500     1.8260     0.5590 H     1 <1>   0.0800 
 26 H        0.1580     0.1340    -1.8220 H     1 <1>   0.0800 
 27 H       -0.1120     1.8550    -1.6560 H     1 <1>   0.0800 
 28 H       -0.9310     0.7330    -0.5960 H     1 <1>   0.0800 
 29 H        2.6940     0.4960    -1.5320 H     1 <1>   0.0800 
 30 H        3.2700     1.4100    -0.1600 H     1 <1>   0.0800 
 31 H        2.3780     2.2140    -1.4270 H     1 <1>   0.0800 
 32 H       -1.3690    -2.6890    -0.0470 H     1 <1>   0.0800 
 33 H       -0.3610    -3.2930    -1.3560 H     1 <1>   0.0800 
 34 H        0.6250    -6.2880     0.0740 H     1 <1>   0.0800 
 35 H       -0.7060    -6.1750     1.2130 H     1 <1>   0.0800 
 36 H       -2.4800    -4.3540    -1.8460 H     1 <1>   0.0800 
 37 H       -0.7260    -6.0040    -1.7610 H     1 <1>   0.0800 
 38 H       -2.5780    -4.5700     0.9610 H     1 <1>   0.4000 
 39 H       -2.8560    -7.2020    -1.6010 H     1 <1>   0.0800 
 40 H       -2.8130    -7.1110     0.1350 H     1 <1>   0.0800 
 41 H       -1.8610    -9.2150     1.2930 H     1 <1>   0.1500 
 42 H        0.6030   -10.4880    -1.8420 H     1 <1>   0.2700 
 43 H       -0.4790   -11.5520     1.7020 H     1 <1>   0.0800 
 44 H        1.0560   -11.4950     0.8710 H     1 <1>   0.0800 
 45 H       -0.2790   -12.4030     0.1900 H     1 <1>   0.0800 
@<TRIPOS>BOND
  1   1   2  1   
  2   1   3  1   
  3   2   4  2   
  4   2   5  1   
  5   3   6  2   
  6   3  24  1   
  7   4   6  1   
  8   5   7  1   
  9   5   8  1   
 10   5  25  1   
 11   6   9  1   
 12   7  26  1   
 13   7  27  1   
 14   7  28  1   
 15   8  29  1   
 16   8  30  1   
 17   8  31  1   
 18   9  10  2   
 19   9  11  am  
 20  11  12  1   
 21  11  13  1   
 22  12  14  1   
 23  12  32  1   
 24  12  33  1   
 25  13  15  1   
 26  13  34  1   
 27  13  35  1   
 28  14  15  1   
 29  14  16  1   
 30  14  36  1   
 31  15  17  1   
 32  15  37  1   
 33  16  38  1   
 34  17  18  1   
 35  17  39  1   
 36  17  40  1   
 37  18  19  2   
 38  18  20  1   
 39  19  21  1   
 40  20  22  2   
 41  20  41  1   
 42  21  22  1   
 43  21  42  1   
 44  22  23  1   
 45  23  43  1   
 46  23  44  1   
 47  23  45  1   
@<TRIPOS>SUBSTRUCTURE
  1 ****  11 GROUP 4 **** **** 0

# MOE 2024.06 (io_trps.svl 2023.06)
