@<TRIPOS>MOLECULE
NONAME
44 45 1 0 0 
SMALL
USER_CHARGES


@<TRIPOS>ATOM
  1 S       -0.0490    -0.0230    -1.3650 S.3   1 <1>  -0.0800 
  2 C        0.8450     1.0210    -0.2820 C.2   1 <1>   0.1980 
  3 C       -1.5340     0.5670    -0.6730 C.2   1 <1>  -0.1400 
  4 N        0.1090     1.7130     0.4930 N.2   1 <1>  -0.5650 
  5 C        2.3610     0.9790    -0.3950 C.3   1 <1>   0.0200 
  6 C       -1.2350     1.4630     0.2810 C.2   1 <1>   0.0460 
  7 C       -2.8300     0.0110    -1.2220 C.3   1 <1>   0.3200 
  8 C        3.0640     1.9140     0.5990 C.3   1 <1>  -0.2400 
  9 C       -2.2010     2.2300     1.1590 C.3   1 <1>  -0.0590 
 10 N       -2.9590    -1.3860    -0.7770 N.am  1 <1>  -0.7300 
 11 C       -4.1230    -1.9650    -0.4050 C.2   1 <1>   0.5690 
 12 O       -5.1750    -1.3810    -0.4810 O.2   1 <1>  -0.5700 
 13 C       -4.0930    -3.3820     0.1220 C.3   1 <1>  -0.0990 
 14 C       -5.2330    -4.2120    -0.4680 C.3   1 <1>   0.0700 
 15 S       -5.0580    -5.9060     0.1460 S.3   1 <1>  -0.4600 
 16 C       -6.5230    -6.7420    -0.5210 C.3   1 <1>   0.2130 
 17 C       -6.4700    -8.2060    -0.1200 C.ar  1 <1>  -0.1440 
 18 C       -6.1180    -9.1770    -1.0460 C.ar  1 <1>  -0.1500 
 19 C       -6.7770    -8.5850     1.1780 C.ar  1 <1>  -0.1500 
 20 C       -6.0820   -10.5120    -0.6800 C.ar  1 <1>  -0.1500 
 21 C       -6.7410    -9.9190     1.5460 C.ar  1 <1>  -0.1500 
 22 C       -6.3940   -10.8840     0.6160 C.ar  1 <1>  -0.1500 
 23 H        2.6370     1.2550    -1.3960 H     1 <1>   0.0800 
 24 H        2.6890    -0.0300    -0.2230 H     1 <1>   0.0800 
 25 H       -2.8200     0.0490    -2.2980 H     1 <1>   0.0800 
 26 H       -3.6660     0.5880    -0.8670 H     1 <1>   0.0800 
 27 H        2.7560     2.9310     0.4290 H     1 <1>   0.0800 
 28 H        4.1310     1.8490     0.4830 H     1 <1>   0.0800 
 29 H        2.8040     1.6430     1.6070 H     1 <1>   0.0800 
 30 H       -3.2170     1.9570     0.9480 H     1 <1>   0.0800 
 31 H       -2.0780     3.2840     0.9930 H     1 <1>   0.0800 
 32 H       -1.9920     2.0160     2.1920 H     1 <1>   0.0800 
 33 H       -2.0690    -1.8720    -0.6590 H     1 <1>   0.3700 
 34 H       -4.1900    -3.3510     1.1910 H     1 <1>   0.0800 
 35 H       -3.1540    -3.8420    -0.1260 H     1 <1>   0.0800 
 36 H       -5.1830    -4.2470    -1.5420 H     1 <1>   0.0800 
 37 H       -6.1930    -3.8420    -0.1510 H     1 <1>   0.0800 
 38 H       -6.5050    -6.6220    -1.5890 H     1 <1>   0.0800 
 39 H       -7.3890    -6.2550    -0.1090 H     1 <1>   0.0800 
 40 H       -5.8690    -8.8990    -2.0540 H     1 <1>   0.1500 
 41 H       -7.0410    -7.8390     1.9080 H     1 <1>   0.1500 
 42 H       -5.8080   -11.2600    -1.4020 H     1 <1>   0.1500 
 43 H       -6.9800   -10.2050     2.5550 H     1 <1>   0.1500 
 44 H       -6.3650   -11.9210     0.9010 H     1 <1>   0.1500 
@<TRIPOS>BOND
  1   1   2  1   
  2   1   3  1   
  3   2   4  2   
  4   2   5  1   
  5   3   6  2   
  6   3   7  1   
  7   4   6  1   
  8   5   8  1   
  9   5  23  1   
 10   5  24  1   
 11   6   9  1   
 12   7  10  1   
 13   7  25  1   
 14   7  26  1   
 15   8  27  1   
 16   8  28  1   
 17   8  29  1   
 18   9  30  1   
 19   9  31  1   
 20   9  32  1   
 21  10  11  am  
 22  10  33  1   
 23  11  12  2   
 24  11  13  1   
 25  13  14  1   
 26  13  34  1   
 27  13  35  1   
 28  14  15  1   
 29  14  36  1   
 30  14  37  1   
 31  15  16  1   
 32  16  17  1   
 33  16  38  1   
 34  16  39  1   
 35  17  18  ar  
 36  17  19  ar  
 37  18  20  ar  
 38  18  40  1   
 39  19  21  ar  
 40  19  41  1   
 41  20  22  ar  
 42  20  42  1   
 43  21  22  ar  
 44  21  43  1   
 45  22  44  1   
@<TRIPOS>SUBSTRUCTURE
  1 ****  13 GROUP 4 **** **** 0

# MOE 2024.06 (io_trps.svl 2023.06)
