@<TRIPOS>MOLECULE
NONAME
53 56 1 0 0 
SMALL
USER_CHARGES


@<TRIPOS>ATOM
  1 O       -0.5900     0.7490     1.3750 O.3   1 <1>  -0.5600 
  2 C       -0.0640     1.1190     0.1460 C.3   1 <1>   0.1200 
  3 C       -1.9840     0.7130     1.2700 C.3   1 <1>   0.1200 
  4 C       -0.9810     2.2700    -0.2550 C.3   1 <1>   0.4230 
  5 C       -2.3390     1.6770     0.1200 C.3   1 <1>  -0.0800 
  6 N       -0.7170     3.4160     0.6670 N.4   1 <1>  -0.9060 
  7 C       -3.0010     0.9400    -1.0660 C.3   1 <1>  -0.0170 
  8 C        0.5400     4.1710     0.4510 C.3   1 <1>   0.4230 
  9 C       -4.3590     0.3770    -0.6610 C.ar  1 <1>  -0.1440 
 10 C        0.8190     5.0200     1.6910 C.3   1 <1>  -0.1600 
 11 C        0.4280     5.0600    -0.7910 C.3   1 <1>  -0.1600 
 12 C       -5.5100     1.1900    -0.5220 C.ar  1 <1>   0.0000 
 13 C       -4.4970    -0.9570    -0.4060 C.ar  1 <1>  -0.1500 
 14 C        2.0730     5.8770     1.5010 C.3   1 <1>   0.3430 
 15 C        1.6810     5.9240    -0.9630 C.3   1 <1>   0.3430 
 16 C       -6.7030     0.5690    -0.0760 C.ar  1 <1>   0.3100 
 17 C       -5.5550     2.5770    -0.8030 C.ar  1 <1>  -0.1500 
 18 C       -5.7300    -1.4740     0.0090 C.ar  1 <1>   0.1600 
 19 N        1.9330     6.7170     0.2760 N.4   1 <1>  -0.9590 
 20 N       -6.7940    -0.7580     0.1830 N.ar  1 <1>  -0.6200 
 21 C       -7.8530     1.3540     0.1070 C.ar  1 <1>  -0.1500 
 22 C       -6.6940     3.3120    -0.6210 C.ar  1 <1>  -0.1500 
 23 C        3.1540     7.5730     0.0990 C.3   1 <1>   0.2630 
 24 C       -7.8570     2.6970    -0.1540 C.ar  1 <1>  -0.1500 
 25 H        0.9690     1.3920     0.2600 H     1 <1>   0.0800 
 26 H       -0.1460     0.2820    -0.5280 H     1 <1>   0.0800 
 27 H       -2.2790    -0.3040     1.0680 H     1 <1>   0.0800 
 28 H       -2.4090     1.0220     2.2110 H     1 <1>   0.0800 
 29 H       -0.9070     2.5470    -1.2940 H     1 <1>   0.0800 
 30 H       -3.0200     2.4320     0.4700 H     1 <1>   0.0800 
 31 H       -1.5320     4.0370     0.6970 H     1 <1>   0.4500 
 32 H       -0.6700     2.9510     1.5910 H     1 <1>   0.4500 
 33 H       -2.3710     0.1340    -1.4010 H     1 <1>   0.0800 
 34 H       -3.1300     1.6020    -1.9040 H     1 <1>   0.0800 
 35 H        1.3580     3.4790     0.3190 H     1 <1>   0.0800 
 36 H       -0.0130     5.6670     1.9100 H     1 <1>   0.0800 
 37 H        0.9790     4.3790     2.5410 H     1 <1>   0.0800 
 38 H        0.3220     4.4520    -1.6720 H     1 <1>   0.0800 
 39 H       -0.4300     5.7050    -0.7220 H     1 <1>   0.0800 
 40 H       -3.6790    -1.6470    -0.5070 H     1 <1>   0.1500 
 41 H        2.9400     5.2410     1.4090 H     1 <1>   0.0800 
 42 H        2.2140     6.5080     2.3660 H     1 <1>   0.0800 
 43 H        1.5500     6.5880    -1.8040 H     1 <1>   0.0800 
 44 H        2.5330     5.2940    -1.1680 H     1 <1>   0.0800 
 45 H       -4.6820     3.0710    -1.1790 H     1 <1>   0.1500 
 46 H       -5.7970    -2.5320     0.2000 H     1 <1>   0.1500 
 47 H        1.1430     7.3690     0.4150 H     1 <1>   0.4500 
 48 H       -8.7380     0.8580     0.4600 H     1 <1>   0.1500 
 49 H       -6.7200     4.3670    -0.8370 H     1 <1>   0.1500 
 50 H        4.0290     6.9590    -0.0520 H     1 <1>   0.0800 
 51 H        3.3130     8.1870     0.9710 H     1 <1>   0.0800 
 52 H        3.0400     8.2220    -0.7550 H     1 <1>   0.0800 
 53 H       -8.7480     3.2850    -0.0100 H     1 <1>   0.1500 
@<TRIPOS>BOND
  1   1   2  1   
  2   1   3  1   
  3   2   4  1   
  4   2  25  1   
  5   2  26  1   
  6   3   5  1   
  7   3  27  1   
  8   3  28  1   
  9   4   5  1   
 10   4   6  1   
 11   4  29  1   
 12   5   7  1   
 13   5  30  1   
 14   6   8  1   
 15   6  31  1   
 16   6  32  1   
 17   7   9  1   
 18   7  33  1   
 19   7  34  1   
 20   8  10  1   
 21   8  11  1   
 22   8  35  1   
 23   9  12  ar  
 24   9  13  ar  
 25  10  14  1   
 26  10  36  1   
 27  10  37  1   
 28  11  15  1   
 29  11  38  1   
 30  11  39  1   
 31  12  16  ar  
 32  12  17  ar  
 33  13  18  ar  
 34  13  40  1   
 35  14  19  1   
 36  14  41  1   
 37  14  42  1   
 38  15  19  1   
 39  15  43  1   
 40  15  44  1   
 41  16  20  ar  
 42  16  21  ar  
 43  17  22  ar  
 44  17  45  1   
 45  18  20  ar  
 46  18  46  1   
 47  19  23  1   
 48  19  47  1   
 49  21  24  ar  
 50  21  48  1   
 51  22  24  ar  
 52  22  49  1   
 53  23  50  1   
 54  23  51  1   
 55  23  52  1   
 56  24  53  1   
@<TRIPOS>SUBSTRUCTURE
  1 ****   5 GROUP 4 **** **** 0

# MOE 2024.06 (io_trps.svl 2023.06)
