@<TRIPOS>MOLECULE
NONAME
40 42 1 0 0 
SMALL
USER_CHARGES


@<TRIPOS>ATOM
  1 O       -1.8940     0.4760    -1.5560 O.2   1 <1>  -0.5700 
  2 C       -1.6730     0.3270    -0.3690 C.2   1 <1>   0.7030 
  3 N       -1.7020    -0.9470     0.1260 N.am  1 <1>  -0.7300 
  4 C       -1.4000     1.4770     0.4910 C.2   1 <1>   0.2770 
  5 C       -1.8760    -2.1820    -0.6810 C.3   1 <1>   0.2200 
  6 N       -1.5430     2.8350     0.1800 N.pl3 1 <1>  -0.7640 
  7 C       -0.9470     1.4500     1.7720 C.2   1 <1>   0.2000 
  8 C       -3.2820    -2.7540    -0.5170 C.3   1 <1>  -0.0800 
  9 C       -1.0620    -3.2840    -0.0200 C.3   1 <1>   0.1200 
 10 C       -1.1870     3.5460     1.2410 C.cat 1 <1>   0.6500 
 11 C       -2.0040     3.3610    -1.1390 C.3   1 <1>   0.2740 
 12 N       -0.8240     2.7350     2.2220 N.pl3 1 <1>  -0.7000 
 13 C       -3.1750    -3.5820     0.7720 C.3   1 <1>   0.1200 
 14 C       -4.4350    -1.7330    -0.5240 C.3   1 <1>  -0.0170 
 15 O       -1.8150    -3.6230     1.1010 O.3   1 <1>  -0.5600 
 16 C       -5.7810    -2.4350    -0.4630 C.ar  1 <1>  -0.1440 
 17 C       -6.4920    -2.5650     0.7140 C.ar  1 <1>  -0.1500 
 18 C       -6.3640    -2.9810    -1.5890 C.ar  1 <1>  -0.1500 
 19 C       -7.7120    -3.2200     0.7080 C.ar  1 <1>   0.1600 
 20 C       -7.5900    -3.6160    -1.4870 C.ar  1 <1>   0.1600 
 21 N       -8.2770    -3.7510    -0.3640 N.ar  1 <1>  -0.6200 
 22 H       -1.6480    -1.1620     1.1250 H     1 <1>   0.3700 
 23 H       -1.6010    -2.0240    -1.7110 H     1 <1>   0.0800 
 24 H       -0.7060     0.5910     2.3780 H     1 <1>   0.1500 
 25 H       -3.4480    -3.4460    -1.3250 H     1 <1>   0.0800 
 26 H       -0.0790    -2.9640     0.2810 H     1 <1>   0.0800 
 27 H       -0.9900    -4.1510    -0.6540 H     1 <1>   0.0800 
 28 H       -1.1910     4.6270     1.2980 H     1 <1>   0.1500 
 29 H       -2.9780     2.9650    -1.3730 H     1 <1>   0.0800 
 30 H       -1.3160     3.0620    -1.9140 H     1 <1>   0.0800 
 31 H       -2.0600     4.4360    -1.1220 H     1 <1>   0.0800 
 32 H       -0.5010     3.0240     3.1530 H     1 <1>   0.4500 
 33 H       -3.5270    -4.5890     0.6250 H     1 <1>   0.0800 
 34 H       -3.7010    -3.1310     1.5940 H     1 <1>   0.0800 
 35 H       -4.3850    -1.1450    -1.4250 H     1 <1>   0.0800 
 36 H       -4.3500    -1.0600     0.3100 H     1 <1>   0.0800 
 37 H       -6.1140    -2.1660     1.6360 H     1 <1>   0.1500 
 38 H       -5.8780    -2.9180    -2.5460 H     1 <1>   0.1500 
 39 H       -8.2530    -3.3130     1.6340 H     1 <1>   0.1500 
 40 H       -8.0300    -4.0360    -2.3760 H     1 <1>   0.1500 
@<TRIPOS>BOND
  1   1   2  2   
  2   2   3  am  
  3   2   4  1   
  4   3   5  1   
  5   3  22  1   
  6   4   6  1   
  7   4   7  2   
  8   5   8  1   
  9   5   9  1   
 10   5  23  1   
 11   6  10  ar  
 12   6  11  1   
 13   7  12  1   
 14   7  24  1   
 15   8  13  1   
 16   8  14  1   
 17   8  25  1   
 18   9  15  1   
 19   9  26  1   
 20   9  27  1   
 21  10  12  ar  
 22  10  28  1   
 23  11  29  1   
 24  11  30  1   
 25  11  31  1   
 26  12  32  1   
 27  13  15  1   
 28  13  33  1   
 29  13  34  1   
 30  14  16  1   
 31  14  35  1   
 32  14  36  1   
 33  16  17  ar  
 34  16  18  ar  
 35  17  19  ar  
 36  17  37  1   
 37  18  20  ar  
 38  18  38  1   
 39  19  21  ar  
 40  19  39  1   
 41  20  21  ar  
 42  20  40  1   
@<TRIPOS>SUBSTRUCTURE
  1 ****  14 GROUP 4 **** **** 0

# MOE 2024.06 (io_trps.svl 2023.06)
