@<TRIPOS>MOLECULE
NONAME
45 47 1 0 0 
SMALL
USER_CHARGES


@<TRIPOS>ATOM
  1 O       -0.8610     1.5690    -1.8470 O.3   1 <1>  -0.6800 
  2 C       -0.6010     2.7300    -1.1240 C.3   1 <1>   0.2000 
  3 C       -1.6170     2.8780     0.0460 C.3   1 <1>   0.0000 
  4 C        0.8630     2.7150    -0.6520 C.3   1 <1>   0.2090 
  5 C       -1.2130     4.1410     0.8540 C.3   1 <1>  -0.1600 
  6 C       -1.5490     1.6110     0.9460 C.3   1 <1>   0.1200 
  7 C       -3.0780     3.0210    -0.4780 C.3   1 <1>  -0.1600 
  8 N        1.1520     3.9110     0.2000 N.pl3 1 <1>  -0.8380 
  9 C        0.2370     4.1000     1.3520 C.3   1 <1>   0.2090 
 10 O       -2.3950     1.7160     2.0450 O.3   1 <1>  -0.6800 
 11 C       -3.3370     4.1180    -1.5300 C.3   1 <1>  -0.1600 
 12 C        2.4380     4.3900     0.2800 C.ar  1 <1>   0.4100 
 13 C       -4.8180     4.1590    -1.9140 C.3   1 <1>  -0.2400 
 14 N        3.3880     3.5030     0.3620 N.ar  1 <1>  -0.6200 
 15 C        2.7070     5.7820     0.2970 C.ar  1 <1>   0.0000 
 16 C        4.6290     3.9740     0.5170 C.ar  1 <1>   0.4700 
 17 C        4.0450     6.1450     0.4830 C.ar  1 <1>   0.3100 
 18 C        1.7510     6.8050     0.1270 C.ar  1 <1>  -0.1500 
 19 N        5.0090     5.2100     0.5940 N.ar  1 <1>  -0.6200 
 20 C        4.3860     7.5040     0.5430 C.ar  1 <1>  -0.1500 
 21 C        2.1050     8.1280     0.1820 C.ar  1 <1>  -0.1500 
 22 C        3.4380     8.4840     0.3980 C.ar  1 <1>  -0.1500 
 23 H       -1.7730     1.5990    -2.1970 H     1 <1>   0.4000 
 24 H       -0.6980     3.5560    -1.8040 H     1 <1>   0.0800 
 25 H        1.5100     2.7300    -1.5120 H     1 <1>   0.0800 
 26 H        1.0710     1.8220    -0.0900 H     1 <1>   0.0800 
 27 H       -1.8700     4.2750     1.6940 H     1 <1>   0.0800 
 28 H       -1.3110     5.0170     0.2400 H     1 <1>   0.0800 
 29 H       -0.5560     1.4310     1.3160 H     1 <1>   0.0800 
 30 H       -1.8560     0.7400     0.3920 H     1 <1>   0.0800 
 31 H       -3.3900     2.0780    -0.8940 H     1 <1>   0.0800 
 32 H       -3.7250     3.2080     0.3620 H     1 <1>   0.0800 
 33 H        0.3800     3.2940     2.0510 H     1 <1>   0.0800 
 34 H        0.4750     5.0190     1.8610 H     1 <1>   0.0800 
 35 H       -2.1240     2.4570     2.6190 H     1 <1>   0.4000 
 36 H       -3.0590     5.0830    -1.1450 H     1 <1>   0.0800 
 37 H       -2.7630     3.9330    -2.4200 H     1 <1>   0.0800 
 38 H       -5.4260     4.3730    -1.0520 H     1 <1>   0.0800 
 39 H       -5.1280     3.2150    -2.3290 H     1 <1>   0.0800 
 40 H       -4.9880     4.9260    -2.6490 H     1 <1>   0.0800 
 41 H        5.3950     3.2200     0.5900 H     1 <1>   0.1500 
 42 H        0.7280     6.5280    -0.0550 H     1 <1>   0.1500 
 43 H        5.4190     7.7530     0.7020 H     1 <1>   0.1500 
 44 H        1.3680     8.9030     0.0560 H     1 <1>   0.1500 
 45 H        3.7090     9.5250     0.4450 H     1 <1>   0.1500 
@<TRIPOS>BOND
  1   1   2  1   
  2   1  23  1   
  3   2   3  1   
  4   2   4  1   
  5   2  24  1   
  6   3   5  1   
  7   3   6  1   
  8   3   7  1   
  9   4   8  1   
 10   4  25  1   
 11   4  26  1   
 12   5   9  1   
 13   5  27  1   
 14   5  28  1   
 15   6  10  1   
 16   6  29  1   
 17   6  30  1   
 18   7  11  1   
 19   7  31  1   
 20   7  32  1   
 21   8   9  1   
 22   8  12  1   
 23   9  33  1   
 24   9  34  1   
 25  10  35  1   
 26  11  13  1   
 27  11  36  1   
 28  11  37  1   
 29  12  14  ar  
 30  12  15  ar  
 31  13  38  1   
 32  13  39  1   
 33  13  40  1   
 34  14  16  ar  
 35  15  17  ar  
 36  15  18  ar  
 37  16  19  ar  
 38  16  41  1   
 39  17  19  ar  
 40  17  20  ar  
 41  18  21  ar  
 42  18  42  1   
 43  20  22  ar  
 44  20  43  1   
 45  21  22  ar  
 46  21  44  1   
 47  22  45  1   
@<TRIPOS>SUBSTRUCTURE
  1 ****   8 GROUP 4 **** **** 0

# MOE 2024.06 (io_trps.svl 2023.06)
