@<TRIPOS>MOLECULE
NONAME
58 60 1 0 0 
SMALL
USER_CHARGES


@<TRIPOS>ATOM
  1 O        1.0740     0.0780     0.8790 O.2   1 <1>  -0.5700 
  2 C        1.9580    -0.7370     0.9970 C.2   1 <1>   0.5690 
  3 N        3.2230    -0.3640     1.3700 N.am  1 <1>  -0.6600 
  4 C        1.6430    -2.1980     0.7210 C.3   1 <1>  -0.0990 
  5 C        4.3760    -1.2910     1.6080 C.3   1 <1>   0.1400 
  6 C        3.5510     1.0680     1.6080 C.3   1 <1>   0.1400 
  7 C        0.3120    -2.4290    -0.0150 C.3   1 <1>   0.1760 
  8 C        5.3920    -1.2590     0.4540 C.3   1 <1>   0.1400 
  9 C        3.9650     1.7640     0.3050 C.3   1 <1>  -0.1600 
 10 N        0.0020    -3.8860     0.0150 N.pl3 1 <1>   0.3140 
 11 C        0.3250    -1.8900    -1.4590 C.3   1 <1>  -0.2400 
 12 N        5.8650     0.1300     0.1540 N.am  1 <1>  -0.6600 
 13 C        4.8870     0.9510    -0.6170 C.3   1 <1>   0.1400 
 14 N       -0.6570    -4.4350     1.0550 N.2   1 <1>  -0.7070 
 15 C        0.3470    -4.8330    -0.8860 C.2   1 <1>  -0.3020 
 16 C        7.0760     0.5720     0.6140 C.2   1 <1>   0.5690 
 17 C       -0.7270    -5.7020     0.7830 C.2   1 <1>   0.1390 
 18 C       -0.1130    -6.0140    -0.4230 C.2   1 <1>  -0.1500 
 19 O        7.7790    -0.1260     1.3070 O.2   1 <1>  -0.5700 
 20 C        7.5630     1.9680     0.2670 C.3   1 <1>  -0.0990 
 21 C        8.9200     2.2930     0.9060 C.3   1 <1>   0.0960 
 22 N        9.3600     3.6460     0.5070 N.pl3 1 <1>   0.0480 
 23 C       10.3590     4.0220    -0.3330 C.2   1 <1>   0.0070 
 24 C        8.8040     4.8020     0.9160 C.2   1 <1>  -0.3020 
 25 N       10.4570     5.3040    -0.4760 N.2   1 <1>  -0.5650 
 26 C       11.2950     3.0550    -1.0420 C.3   1 <1>   0.0200 
 27 C        9.4830     5.7970     0.3080 C.2   1 <1>   0.0770 
 28 C       10.6190     2.3780    -2.2390 C.3   1 <1>  -0.2400 
 29 H        1.6010    -2.6970     1.6720 H     1 <1>   0.0800 
 30 H        2.4350    -2.6270     0.1380 H     1 <1>   0.0800 
 31 H        4.0310    -2.2990     1.7460 H     1 <1>   0.0800 
 32 H        4.8790    -1.0090     2.5170 H     1 <1>   0.0800 
 33 H        4.3530     1.1370     2.3230 H     1 <1>   0.0800 
 34 H        2.6980     1.5730     2.0310 H     1 <1>   0.0800 
 35 H       -0.4740    -1.9350     0.5290 H     1 <1>   0.0800 
 36 H        4.9460    -1.6850    -0.4270 H     1 <1>   0.0800 
 37 H        6.2300    -1.8820     0.7160 H     1 <1>   0.0800 
 38 H        4.4400     2.6940     0.5550 H     1 <1>   0.0800 
 39 H        3.0750     2.0130    -0.2440 H     1 <1>   0.0800 
 40 H        1.1480    -2.2970    -2.0190 H     1 <1>   0.0800 
 41 H        0.4180    -0.8190    -1.4550 H     1 <1>   0.0800 
 42 H       -0.6000    -2.1370    -1.9510 H     1 <1>   0.0800 
 43 H        5.3990     1.6090    -1.2960 H     1 <1>   0.0800 
 44 H        4.2780     0.2940    -1.2160 H     1 <1>   0.0800 
 45 H        0.8880    -4.6250    -1.7900 H     1 <1>   0.1500 
 46 H       -1.2070    -6.4200     1.4270 H     1 <1>   0.1500 
 47 H       -0.0380    -6.9920    -0.8620 H     1 <1>   0.1500 
 48 H        6.8370     2.6780     0.6120 H     1 <1>   0.0800 
 49 H        7.6490     2.0420    -0.8000 H     1 <1>   0.0800 
 50 H        9.6540     1.5710     0.6000 H     1 <1>   0.0800 
 51 H        8.8410     2.2580     1.9780 H     1 <1>   0.0800 
 52 H        7.9790     4.8570     1.6010 H     1 <1>   0.1500 
 53 H       11.6540     2.3170    -0.3480 H     1 <1>   0.0800 
 54 H       12.1490     3.6080    -1.3940 H     1 <1>   0.0800 
 55 H        9.3220     6.8580     0.3940 H     1 <1>   0.1500 
 56 H        9.8030     1.7590    -1.9170 H     1 <1>   0.0800 
 57 H       11.3300     1.7650    -2.7640 H     1 <1>   0.0800 
 58 H       10.2440     3.1270    -2.9140 H     1 <1>   0.0800 
@<TRIPOS>BOND
  1   1   2  2   
  2   2   3  am  
  3   2   4  1   
  4   3   5  1   
  5   3   6  1   
  6   4   7  1   
  7   4  29  1   
  8   4  30  1   
  9   5   8  1   
 10   5  31  1   
 11   5  32  1   
 12   6   9  1   
 13   6  33  1   
 14   6  34  1   
 15   7  10  1   
 16   7  11  1   
 17   7  35  1   
 18   8  12  1   
 19   8  36  1   
 20   8  37  1   
 21   9  13  1   
 22   9  38  1   
 23   9  39  1   
 24  10  14  1   
 25  10  15  1   
 26  11  40  1   
 27  11  41  1   
 28  11  42  1   
 29  12  13  1   
 30  12  16  am  
 31  13  43  1   
 32  13  44  1   
 33  14  17  2   
 34  15  18  2   
 35  15  45  1   
 36  16  19  2   
 37  16  20  1   
 38  17  18  1   
 39  17  46  1   
 40  18  47  1   
 41  20  21  1   
 42  20  48  1   
 43  20  49  1   
 44  21  22  1   
 45  21  50  1   
 46  21  51  1   
 47  22  23  1   
 48  22  24  1   
 49  23  25  2   
 50  23  26  1   
 51  24  27  2   
 52  24  52  1   
 53  25  27  1   
 54  26  28  1   
 55  26  53  1   
 56  26  54  1   
 57  27  55  1   
 58  28  56  1   
 59  28  57  1   
 60  28  58  1   
@<TRIPOS>SUBSTRUCTURE
  1 ****  12 GROUP 4 **** **** 0

# MOE 2024.06 (io_trps.svl 2023.06)
