@<TRIPOS>MOLECULE
NONAME
53 56 1 0 0 
SMALL
USER_CHARGES


@<TRIPOS>ATOM
  1 O        3.8600    -1.3020    -0.7770 O.2   1 <1>  -0.5700 
  2 C        2.6890    -1.4110    -0.4920 C.2   1 <1>   0.5690 
  3 N        1.8910    -0.3260    -0.2100 N.am  1 <1>  -0.4940 
  4 C        2.0850    -2.8190    -0.4650 C.3   1 <1>   0.2370 
  5 C        2.0460     1.0770    -0.3510 C.2   1 <1>  -0.0880 
  6 N        0.6270    -2.7400    -0.1820 N.pl3 1 <1>   0.0480 
  7 C        2.8240    -3.7390     0.5290 C.3   1 <1>   0.0200 
  8 N        3.1640     1.8590    -0.2640 N.pl3 1 <1>   0.3140 
  9 C        1.0200     1.9200    -0.6140 C.2   1 <1>  -0.1500 
 10 C        0.0190    -2.5590     1.0250 C.2   1 <1>  -0.3020 
 11 C       -0.3460    -2.6390    -1.1290 C.2   1 <1>  -0.3020 
 12 C        2.3600    -5.1940     0.5110 C.2   1 <1>  -0.3320 
 13 N        2.8640     3.1640    -0.4890 N.2   1 <1>  -0.7070 
 14 C        4.5660     1.4710     0.0420 C.3   1 <1>   0.1760 
 15 C        1.5850     3.1850    -0.6910 C.2   1 <1>   0.1390 
 16 C       -1.3110    -2.3600     0.8420 C.2   1 <1>  -0.1500 
 17 C       -1.5440    -2.4110    -0.5340 C.2   1 <1>  -0.1500 
 18 N        2.9670    -6.1540     1.2380 N.pl3 1 <1>   0.0330 
 19 C        1.3550    -5.8150    -0.1530 C.2   1 <1>   0.0770 
 20 C        5.2200     2.4330     1.0500 C.3   1 <1>  -0.1600 
 21 C        5.3810     1.4350    -1.2600 C.3   1 <1>  -0.1600 
 22 C        2.2960    -7.2910     0.9620 C.2   1 <1>   0.0360 
 23 N        1.3220    -7.1300     0.1290 N.2   1 <1>  -0.5650 
 24 C        6.6810     2.0630     1.2850 C.3   1 <1>   0.3430 
 25 C        6.8320     1.0720    -0.9810 C.3   1 <1>   0.3430 
 26 N        7.4120     2.0530    -0.0160 N.4   1 <1>  -0.9590 
 27 C        8.8700     1.8010     0.1890 C.3   1 <1>   0.2630 
 28 H        0.9160    -0.5990    -0.0150 H     1 <1>   0.3700 
 29 H        2.2020    -3.2350    -1.4480 H     1 <1>   0.0800 
 30 H        2.7350    -3.3430     1.5240 H     1 <1>   0.0800 
 31 H        3.8700    -3.7290     0.2760 H     1 <1>   0.0800 
 32 H       -0.0210     1.6910    -0.7490 H     1 <1>   0.1500 
 33 H        0.5510    -2.5820     1.9600 H     1 <1>   0.1500 
 34 H       -0.1440    -2.7330    -2.1830 H     1 <1>   0.1500 
 35 H        4.5510     0.5020     0.4970 H     1 <1>   0.0800 
 36 H        1.0310     4.0870    -0.8970 H     1 <1>   0.1500 
 37 H       -2.0670    -2.1950     1.5930 H     1 <1>   0.1500 
 38 H       -2.5060    -2.2900    -1.0040 H     1 <1>   0.1500 
 39 H        3.7670    -6.0630     1.8700 H     1 <1>   0.2700 
 40 H        0.6340    -5.3890    -0.8320 H     1 <1>   0.1500 
 41 H        4.6880     2.3850     1.9840 H     1 <1>   0.0800 
 42 H        5.1720     3.4480     0.6950 H     1 <1>   0.0800 
 43 H        5.3370     2.3930    -1.7510 H     1 <1>   0.0800 
 44 H        4.9620     0.7060    -1.9310 H     1 <1>   0.0800 
 45 H        2.5610    -8.2360     1.4040 H     1 <1>   0.1500 
 46 H        6.7390     1.0890     1.7440 H     1 <1>   0.0800 
 47 H        7.1280     2.7810     1.9540 H     1 <1>   0.0800 
 48 H        7.3890     1.0860    -1.9050 H     1 <1>   0.0800 
 49 H        6.8810     0.0760    -0.5700 H     1 <1>   0.0800 
 50 H        7.2990     2.9900    -0.4350 H     1 <1>   0.4500 
 51 H        9.0260     0.8270     0.6240 H     1 <1>   0.0800 
 52 H        9.2890     2.5440     0.8490 H     1 <1>   0.0800 
 53 H        9.3940     1.8460    -0.7520 H     1 <1>   0.0800 
@<TRIPOS>BOND
  1   1   2  2   
  2   2   3  am  
  3   2   4  1   
  4   3   5  1   
  5   3  28  1   
  6   4   6  1   
  7   4   7  1   
  8   4  29  1   
  9   5   8  1   
 10   5   9  2   
 11   6  10  1   
 12   6  11  1   
 13   7  12  1   
 14   7  30  1   
 15   7  31  1   
 16   8  13  1   
 17   8  14  1   
 18   9  15  1   
 19   9  32  1   
 20  10  16  2   
 21  10  33  1   
 22  11  17  2   
 23  11  34  1   
 24  12  18  1   
 25  12  19  2   
 26  13  15  2   
 27  14  20  1   
 28  14  21  1   
 29  14  35  1   
 30  15  36  1   
 31  16  17  1   
 32  16  37  1   
 33  17  38  1   
 34  18  22  1   
 35  18  39  1   
 36  19  23  1   
 37  19  40  1   
 38  20  24  1   
 39  20  41  1   
 40  20  42  1   
 41  21  25  1   
 42  21  43  1   
 43  21  44  1   
 44  22  23  2   
 45  22  45  1   
 46  24  26  1   
 47  24  46  1   
 48  24  47  1   
 49  25  26  1   
 50  25  48  1   
 51  25  49  1   
 52  26  27  1   
 53  26  50  1   
 54  27  51  1   
 55  27  52  1   
 56  27  53  1   
@<TRIPOS>SUBSTRUCTURE
  1 ****   2 GROUP 4 **** **** 0

# MOE 2024.06 (io_trps.svl 2023.06)
