@<TRIPOS>MOLECULE
NONAME
52 54 1 0 0 
SMALL
USER_CHARGES


@<TRIPOS>ATOM
  1 O        0.4530     1.6740    -2.4420 O.2   1 <1>  -0.5700 
  2 C        0.2290     2.0340    -1.2920 C.2   1 <1>   0.5690 
  3 N        1.0400     1.6290    -0.2730 N.am  1 <1>  -0.7300 
  4 C       -1.0060     2.9260    -0.9900 C.3   1 <1>   0.2810 
  5 C        2.1510     0.6550    -0.4070 C.3   1 <1>   0.1400 
  6 N       -2.2050     2.0960    -0.8300 N.am  1 <1>  -0.7300 
  7 C       -0.8400     3.7950     0.2770 C.3   1 <1>  -0.0170 
  8 C        2.1820    -0.3240     0.7710 C.3   1 <1>   0.0960 
  9 C       -3.4620     2.5270    -0.9200 C.2   1 <1>   0.5690 
 10 C        0.5000     4.4910     0.4640 C.ar  1 <1>  -0.1430 
 11 N        1.0690    -1.2930     0.7310 N.pl3 1 <1>   0.3140 
 12 O       -3.7020     3.7180    -1.1030 O.2   1 <1>  -0.5700 
 13 C       -4.6100     1.4860    -0.7230 C.3   1 <1>   0.2810 
 14 C        1.1170     5.1610    -0.6110 C.ar  1 <1>  -0.1500 
 15 C        1.1360     4.4600     1.7210 C.ar  1 <1>  -0.1500 
 16 N        1.2960    -2.6050     0.6290 N.2   1 <1>  -0.4180 
 17 C       -0.2460    -1.0820     0.8320 C.2   1 <1>  -0.3020 
 18 N       -4.3080     0.4280     0.2540 N.am  1 <1>  -0.7300 
 19 C       -5.9410     2.1230    -0.3060 C.3   1 <1>  -0.2400 
 20 C        2.3680     5.7770    -0.4340 C.ar  1 <1>  -0.1500 
 21 C        2.3870     5.0790     1.8960 C.ar  1 <1>  -0.1500 
 22 N        0.1660    -3.2190     0.6430 N.2   1 <1>  -0.2270 
 23 C       -0.8010    -2.3030     0.7630 C.2   1 <1>   0.0460 
 24 C       -3.4620    -0.6040     0.0240 C.2   1 <1>   0.5690 
 25 C        3.0050     5.7340     0.8180 C.ar  1 <1>  -0.1500 
 26 C       -2.2560    -2.7450     0.7960 C.3   1 <1>   0.0210 
 27 O       -2.8670    -0.6940    -1.0190 O.2   1 <1>  -0.5700 
 28 C       -3.2660    -1.6310     1.1240 C.3   1 <1>  -0.0990 
 29 H        1.0310     2.1890     0.5840 H     1 <1>   0.3700 
 30 H       -1.1390     3.5870    -1.8470 H     1 <1>   0.0800 
 31 H        2.0590     0.1070    -1.3310 H     1 <1>   0.0800 
 32 H        3.0780     1.2020    -0.4390 H     1 <1>   0.0800 
 33 H       -2.0810     1.0850    -0.8210 H     1 <1>   0.3700 
 34 H       -1.6150     4.5620     0.2680 H     1 <1>   0.0800 
 35 H       -1.0280     3.1640     1.1460 H     1 <1>   0.0800 
 36 H        2.1510     0.2070     1.7030 H     1 <1>   0.0800 
 37 H        3.1000    -0.8810     0.7330 H     1 <1>   0.0800 
 38 H       -4.7580     1.0130    -1.6950 H     1 <1>   0.0800 
 39 H        0.6380     5.2070    -1.5790 H     1 <1>   0.1500 
 40 H        0.6670     3.9710     2.5630 H     1 <1>   0.1500 
 41 H       -0.6880    -0.1110     0.9290 H     1 <1>   0.1500 
 42 H       -4.7790     0.4870     1.1400 H     1 <1>   0.3700 
 43 H       -5.8240     2.6350     0.6500 H     1 <1>   0.0800 
 44 H       -6.7120     1.3570    -0.2260 H     1 <1>   0.0800 
 45 H       -6.2440     2.8520    -1.0590 H     1 <1>   0.0800 
 46 H        2.8400     6.2870    -1.2630 H     1 <1>   0.1500 
 47 H        2.8720     5.0560     2.8620 H     1 <1>   0.1500 
 48 H        3.9660     6.2110     0.9520 H     1 <1>   0.1500 
 49 H       -2.5010    -3.1900    -0.1530 H     1 <1>   0.0800 
 50 H       -2.3430    -3.5150     1.5420 H     1 <1>   0.0800 
 51 H       -2.9550    -1.1280     2.0210 H     1 <1>   0.0800 
 52 H       -4.2200    -2.0870     1.3140 H     1 <1>   0.0800 
@<TRIPOS>BOND
  1   1   2  2   
  2   2   3  am  
  3   2   4  1   
  4   3   5  1   
  5   3  29  1   
  6   4   6  1   
  7   4   7  1   
  8   4  30  1   
  9   5   8  1   
 10   5  31  1   
 11   5  32  1   
 12   6   9  am  
 13   6  33  1   
 14   7  10  1   
 15   7  34  1   
 16   7  35  1   
 17   8  11  1   
 18   8  36  1   
 19   8  37  1   
 20   9  12  2   
 21   9  13  1   
 22  10  14  ar  
 23  10  15  ar  
 24  11  16  1   
 25  11  17  1   
 26  13  18  1   
 27  13  19  1   
 28  13  38  1   
 29  14  20  ar  
 30  14  39  1   
 31  15  21  ar  
 32  15  40  1   
 33  16  22  2   
 34  17  23  2   
 35  17  41  1   
 36  18  24  am  
 37  18  42  1   
 38  19  43  1   
 39  19  44  1   
 40  19  45  1   
 41  20  25  ar  
 42  20  46  1   
 43  21  25  ar  
 44  21  47  1   
 45  22  23  1   
 46  23  26  1   
 47  24  27  2   
 48  24  28  1   
 49  25  48  1   
 50  26  28  1   
 51  26  49  1   
 52  26  50  1   
 53  28  51  1   
 54  28  52  1   
@<TRIPOS>SUBSTRUCTURE
  1 ****   2 GROUP 4 **** **** 0

# MOE 2024.06 (io_trps.svl 2023.06)
