@<TRIPOS>MOLECULE
NONAME
41 42 1 0 0 
SMALL
USER_CHARGES


@<TRIPOS>ATOM
  1 O        2.0230    -2.0780     0.9650 O.3   1 <1>  -0.0190 
  2 N        1.5910    -3.1990     0.4720 N.2   1 <1>  -0.4100 
  3 C        1.4040    -1.1610     0.2610 C.2   1 <1>   0.2980 
  4 C        0.7680    -2.9080    -0.4570 C.2   1 <1>   0.3350 
  5 N        0.6170    -1.6000    -0.6370 N.2   1 <1>  -0.5650 
  6 C        1.6680     0.3110     0.5650 C.3   1 <1>   0.1000 
  7 C        0.0210    -3.9340    -1.3110 C.3   1 <1>   0.2910 
  8 C        3.1450     0.6670     0.3500 C.3   1 <1>  -0.2400 
  9 C        1.2340     0.6680     1.9930 C.3   1 <1>  -0.2400 
 10 N       -1.2130    -4.4490    -0.6620 N.3   1 <1>  -0.8100 
 11 C       -1.6530    -5.7210    -1.2840 C.3   1 <1>   0.2900 
 12 C       -2.2770    -3.4160    -0.6540 C.3   1 <1>   0.1100 
 13 C       -2.4050    -6.6120    -0.3030 C.2   1 <1>   0.0060 
 14 C       -3.4400    -3.7590     0.2860 C.3   1 <1>   0.1200 
 15 N       -3.5380    -7.1750    -0.5890 N.2   1 <1>  -0.5650 
 16 N       -1.9560    -6.8980     0.9460 N.pl3 1 <1>   0.0480 
 17 O       -4.1910    -2.6120     0.5150 O.3   1 <1>  -0.6800 
 18 C       -3.8490    -7.8560     0.5280 C.2   1 <1>   0.0770 
 19 C       -2.8980    -7.7000     1.4730 C.2   1 <1>  -0.3020 
 20 C       -0.7270    -6.4380     1.6220 C.3   1 <1>   0.0160 
 21 H        1.0790     0.8960    -0.1210 H     1 <1>   0.0800 
 22 H        0.7030    -4.7480    -1.4790 H     1 <1>   0.0800 
 23 H       -0.2170    -3.4980    -2.2660 H     1 <1>   0.0800 
 24 H        3.7710     0.1140     1.0280 H     1 <1>   0.0800 
 25 H        3.3050     1.7180     0.5110 H     1 <1>   0.0800 
 26 H        3.4370     0.4270    -0.6580 H     1 <1>   0.0800 
 27 H        1.8120     0.1160     2.7140 H     1 <1>   0.0800 
 28 H        0.1940     0.4280     2.1310 H     1 <1>   0.0800 
 29 H        1.3690     1.7190     2.1740 H     1 <1>   0.0800 
 30 H       -0.8000    -6.2830    -1.6210 H     1 <1>   0.0800 
 31 H       -2.2740    -5.5240    -2.1410 H     1 <1>   0.0800 
 32 H       -2.6570    -3.2690    -1.6510 H     1 <1>   0.0800 
 33 H       -1.8540    -2.4870    -0.3160 H     1 <1>   0.0800 
 34 H       -3.0760    -4.1150     1.2340 H     1 <1>   0.0800 
 35 H       -4.0880    -4.4950    -0.1550 H     1 <1>   0.0800 
 36 H       -3.6680    -1.9610     1.0200 H     1 <1>   0.4000 
 37 H       -4.7570    -8.4320     0.5950 H     1 <1>   0.1500 
 38 H       -2.8460    -8.1050     2.4660 H     1 <1>   0.1500 
 39 H        0.1070    -6.5280     0.9500 H     1 <1>   0.0800 
 40 H       -0.5500    -7.0330     2.4980 H     1 <1>   0.0800 
 41 H       -0.8440    -5.4070     1.9030 H     1 <1>   0.0800 
@<TRIPOS>BOND
  1   1   2  1   
  2   1   3  1   
  3   2   4  2   
  4   3   5  2   
  5   3   6  1   
  6   4   5  1   
  7   4   7  1   
  8   6   8  1   
  9   6   9  1   
 10   6  21  1   
 11   7  10  1   
 12   7  22  1   
 13   7  23  1   
 14   8  24  1   
 15   8  25  1   
 16   8  26  1   
 17   9  27  1   
 18   9  28  1   
 19   9  29  1   
 20  10  11  1   
 21  10  12  1   
 22  11  13  1   
 23  11  30  1   
 24  11  31  1   
 25  12  14  1   
 26  12  32  1   
 27  12  33  1   
 28  13  15  2   
 29  13  16  1   
 30  14  17  1   
 31  14  34  1   
 32  14  35  1   
 33  15  18  1   
 34  16  19  1   
 35  16  20  1   
 36  17  36  1   
 37  18  19  2   
 38  18  37  1   
 39  19  38  1   
 40  20  39  1   
 41  20  40  1   
 42  20  41  1   
@<TRIPOS>SUBSTRUCTURE
  1 ****  10 GROUP 4 **** **** 0

# MOE 2024.06 (io_trps.svl 2023.06)
