@<TRIPOS>MOLECULE
NONAME
36 38 1 0 0 
SMALL
USER_CHARGES


@<TRIPOS>ATOM
  1 O       -2.7870     1.3010    -1.4400 O.2   1 <1>  -0.5700 
  2 C       -2.2340     1.1370    -0.3700 C.2   1 <1>   0.7160 
  3 N       -2.0660    -0.1370     0.0830 N.am  1 <1>  -0.7300 
  4 C       -1.7800     2.2610     0.4090 C.2   1 <1>  -0.0860 
  5 C       -2.4900    -1.3590    -0.6360 C.3   1 <1>   0.2200 
  6 C       -1.0440     2.2270     1.5990 C.2   1 <1>   0.1390 
  7 C       -1.9450     3.5960     0.1910 C.2   1 <1>  -0.3020 
  8 C       -3.8250    -1.8260    -0.0800 C.3   1 <1>  -0.0800 
  9 C       -1.5750    -2.5150    -0.2520 C.3   1 <1>   0.1200 
 10 N       -0.7840     3.4050     2.0710 N.2   1 <1>  -0.7070 
 11 N       -1.3440     4.2550     1.1920 N.pl3 1 <1>   0.3000 
 12 C       -3.4030    -2.6590     1.1390 C.3   1 <1>   0.1200 
 13 C       -4.6060    -2.6570    -1.1160 C.3   1 <1>  -0.0160 
 14 O       -2.0500    -2.9760     0.9760 O.3   1 <1>  -0.5600 
 15 C       -5.9540    -3.1030    -0.5700 C.ar  1 <1>  -0.1430 
 16 C       -7.0080    -2.2220    -0.4370 C.ar  1 <1>  -0.1500 
 17 C       -6.1970    -4.4060    -0.1840 C.ar  1 <1>  -0.1500 
 18 C       -8.2170    -2.6710     0.0670 C.ar  1 <1>   0.1600 
 19 C       -7.4440    -4.7530     0.3090 C.ar  1 <1>   0.1600 
 20 N       -8.4600    -3.9160     0.4460 N.ar  1 <1>  -0.6200 
 21 H       -1.7080    -0.3060     1.0230 H     1 <1>   0.3700 
 22 H       -2.5050    -1.1840    -1.6990 H     1 <1>   0.0800 
 23 H       -0.7170     1.3240     2.0840 H     1 <1>   0.1500 
 24 H       -2.4550     4.0800    -0.6230 H     1 <1>   0.1500 
 25 H       -4.4340    -0.9910     0.2180 H     1 <1>   0.0800 
 26 H       -0.5460    -2.2190    -0.1560 H     1 <1>   0.0800 
 27 H       -1.6590    -3.3200    -0.9590 H     1 <1>   0.0800 
 28 H       -1.2940     5.2750     1.3100 H     1 <1>   0.2700 
 29 H       -3.9630    -3.5720     1.2390 H     1 <1>   0.0800 
 30 H       -3.4960    -2.0840     2.0440 H     1 <1>   0.0800 
 31 H       -4.0340    -3.5190    -1.4130 H     1 <1>   0.0800 
 32 H       -4.7740    -2.0610    -1.9960 H     1 <1>   0.0800 
 33 H       -6.9010    -1.1910    -0.7210 H     1 <1>   0.1500 
 34 H       -5.4310    -5.1560    -0.2590 H     1 <1>   0.1500 
 35 H       -9.0270    -1.9690     0.1640 H     1 <1>   0.1500 
 36 H       -7.6150    -5.7730     0.6070 H     1 <1>   0.1500 
@<TRIPOS>BOND
  1   1   2  2   
  2   2   3  am  
  3   2   4  1   
  4   3   5  1   
  5   3  21  1   
  6   4   6  1   
  7   4   7  2   
  8   5   8  1   
  9   5   9  1   
 10   5  22  1   
 11   6  10  2   
 12   6  23  1   
 13   7  11  1   
 14   7  24  1   
 15   8  12  1   
 16   8  13  1   
 17   8  25  1   
 18   9  14  1   
 19   9  26  1   
 20   9  27  1   
 21  10  11  1   
 22  11  28  1   
 23  12  14  1   
 24  12  29  1   
 25  12  30  1   
 26  13  15  1   
 27  13  31  1   
 28  13  32  1   
 29  15  16  ar  
 30  15  17  ar  
 31  16  18  ar  
 32  16  33  1   
 33  17  19  ar  
 34  17  34  1   
 35  18  20  ar  
 36  18  35  1   
 37  19  20  ar  
 38  19  36  1   
@<TRIPOS>SUBSTRUCTURE
  1 ****   8 GROUP 4 **** **** 0

# MOE 2024.06 (io_trps.svl 2023.06)
