@<TRIPOS>MOLECULE
NONAME
56 59 1 0 0 
SMALL
USER_CHARGES


@<TRIPOS>ATOM
  1 O        0.0840    -0.0100     0.4270 O.2   1 <1>  -0.5700 
  2 C        1.1270    -0.5720     0.1490 C.2   1 <1>   0.5440 
  3 N        2.2280     0.2050    -0.0500 N.am  1 <1>  -0.7300 
  4 C        1.2030    -2.0170     0.0450 C.ar  1 <1>   0.0860 
  5 C        2.2740     1.6850     0.1140 C.3   1 <1>   0.2840 
  6 C        0.2320    -2.8340     0.6300 C.ar  1 <1>  -0.1500 
  7 C        2.2400    -2.6600    -0.6380 C.ar  1 <1>  -0.1500 
  8 C        3.6970     2.2530     0.0360 C.ar  1 <1>   0.4760 
  9 C        0.2850    -4.2140     0.5560 C.ar  1 <1>  -0.1440 
 10 C        2.3040    -4.0350    -0.7180 C.ar  1 <1>  -0.1500 
 11 N        3.7850     3.5710     0.0710 N.ar  1 <1>  -0.6200 
 12 N        4.7010     1.3880    -0.0600 N.ar  1 <1>  -0.6200 
 13 C        1.3340    -4.8340    -0.1230 C.ar  1 <1>   0.1000 
 14 C       -0.8020    -5.0500     1.2160 C.3   1 <1>  -0.0970 
 15 C        4.9970     4.0740     0.0080 C.ar  1 <1>   0.1670 
 16 C        5.9060     1.9050    -0.1240 C.ar  1 <1>   0.1670 
 17 N        1.4150    -6.2140    -0.2130 N.pl3 1 <1>  -0.8380 
 18 C        6.1190     3.2700    -0.0860 C.ar  1 <1>  -0.1430 
 19 C        5.0850     5.5920     0.0610 C.3   1 <1>  -0.0170 
 20 C        7.0430     0.9050    -0.2410 C.3   1 <1>  -0.0970 
 21 C        1.1480    -6.8320    -1.5430 C.3   1 <1>   0.2090 
 22 C        2.5230    -6.8900     0.5180 C.3   1 <1>   0.2090 
 23 C        7.5250     3.8700    -0.1530 C.3   1 <1>  -0.0170 
 24 C        6.4540     6.1360    -0.3650 C.3   1 <1>  -0.1600 
 25 C        1.0150    -8.3600    -1.4160 C.3   1 <1>   0.1200 
 26 C        2.3140    -8.4150     0.5340 C.3   1 <1>   0.1200 
 27 C        7.5740     5.3330     0.3000 C.3   1 <1>  -0.1600 
 28 O        2.1280    -8.9110    -0.7650 O.3   1 <1>  -0.5600 
 29 H        3.1650    -0.2000    -0.1290 H     1 <1>   0.3700 
 30 H        1.8500     1.9460     1.0670 H     1 <1>   0.0800 
 31 H        1.6750     2.1390    -0.6540 H     1 <1>   0.0800 
 32 H       -0.5790    -2.3580     1.1530 H     1 <1>   0.1500 
 33 H        3.0030    -2.0760    -1.1190 H     1 <1>   0.1500 
 34 H        3.1100    -4.5070    -1.2470 H     1 <1>   0.1500 
 35 H       -1.5340    -4.4290     1.6990 H     1 <1>   0.0800 
 36 H       -0.3610    -5.7010     1.9490 H     1 <1>   0.0800 
 37 H       -1.2940    -5.6520     0.4740 H     1 <1>   0.0800 
 38 H        4.8770     5.8990     1.0700 H     1 <1>   0.0800 
 39 H        4.3240     6.0140    -0.5720 H     1 <1>   0.0800 
 40 H        6.6700    -0.0420    -0.5890 H     1 <1>   0.0800 
 41 H        7.4960     0.7610     0.7220 H     1 <1>   0.0800 
 42 H        7.7830     1.2470    -0.9390 H     1 <1>   0.0800 
 43 H        1.9540    -6.6010    -2.2170 H     1 <1>   0.0800 
 44 H        0.2400    -6.4220    -1.9490 H     1 <1>   0.0800 
 45 H        2.5610    -6.5200     1.5270 H     1 <1>   0.0800 
 46 H        3.4610    -6.6670     0.0410 H     1 <1>   0.0800 
 47 H        7.8700     3.8080    -1.1710 H     1 <1>   0.0800 
 48 H        8.2000     3.3010     0.4620 H     1 <1>   0.0800 
 49 H        6.5300     7.1750    -0.0910 H     1 <1>   0.0800 
 50 H        6.5490     6.0650    -1.4350 H     1 <1>   0.0800 
 51 H        0.9490    -8.8090    -2.3910 H     1 <1>   0.0800 
 52 H        0.1300    -8.6110    -0.8580 H     1 <1>   0.0800 
 53 H        1.4510    -8.6660     1.1250 H     1 <1>   0.0800 
 54 H        3.1760    -8.9040     0.9510 H     1 <1>   0.0800 
 55 H        8.5300     5.7570     0.0470 H     1 <1>   0.0800 
 56 H        7.4610     5.3810     1.3700 H     1 <1>   0.0800 
@<TRIPOS>BOND
  1   1   2  2   
  2   2   3  am  
  3   2   4  1   
  4   3   5  1   
  5   3  29  1   
  6   4   6  ar  
  7   4   7  ar  
  8   5   8  1   
  9   5  30  1   
 10   5  31  1   
 11   6   9  ar  
 12   6  32  1   
 13   7  10  ar  
 14   7  33  1   
 15   8  11  ar  
 16   8  12  ar  
 17   9  13  ar  
 18   9  14  1   
 19  10  13  ar  
 20  10  34  1   
 21  11  15  ar  
 22  12  16  ar  
 23  13  17  1   
 24  14  35  1   
 25  14  36  1   
 26  14  37  1   
 27  15  18  ar  
 28  15  19  1   
 29  16  18  ar  
 30  16  20  1   
 31  17  21  1   
 32  17  22  1   
 33  18  23  1   
 34  19  24  1   
 35  19  38  1   
 36  19  39  1   
 37  20  40  1   
 38  20  41  1   
 39  20  42  1   
 40  21  25  1   
 41  21  43  1   
 42  21  44  1   
 43  22  26  1   
 44  22  45  1   
 45  22  46  1   
 46  23  27  1   
 47  23  47  1   
 48  23  48  1   
 49  24  27  1   
 50  24  49  1   
 51  24  50  1   
 52  25  28  1   
 53  25  51  1   
 54  25  52  1   
 55  26  28  1   
 56  26  53  1   
 57  26  54  1   
 58  27  55  1   
 59  27  56  1   
@<TRIPOS>SUBSTRUCTURE
  1 ****   3 GROUP 4 **** **** 0

# MOE 2024.06 (io_trps.svl 2023.06)
