@<TRIPOS>MOLECULE
NONAME
43 45 1 0 0 
SMALL
USER_CHARGES


@<TRIPOS>ATOM
  1 CL       1.9710    -0.1880     2.5480 Cl    1 <1>  -0.1770 
  2 C        2.7290     0.9640     1.4790 C.ar  1 <1>   0.1770 
  3 C        3.4380     2.0230     2.0190 C.ar  1 <1>  -0.1500 
  4 C        2.6090     0.7990     0.1100 C.ar  1 <1>  -0.1500 
  5 C        4.0420     2.9400     1.1740 C.ar  1 <1>  -0.1500 
  6 C        3.2120     1.7150    -0.7360 C.ar  1 <1>  -0.1500 
  7 C        3.9220     2.7770    -0.2000 C.ar  1 <1>   0.1020 
  8 S        4.6720     3.9220    -1.3710 S.3   1 <1>  -0.3320 
  9 C        5.5220     5.2250    -0.3750 C.3   1 <1>   0.0700 
 10 C        6.1400     6.2290    -1.3440 C.3   1 <1>   0.2090 
 11 N        6.8600     7.2770    -0.5820 N.pl3 1 <1>  -0.8690 
 12 C        8.2010     7.4930    -0.7590 C.ar  1 <1>   0.4100 
 13 N        8.5060     8.7650    -0.8930 N.ar  1 <1>  -0.6200 
 14 C        9.1570     6.4660    -0.7920 C.ar  1 <1>   0.1600 
 15 C        9.8180     8.9910    -1.0820 C.ar  1 <1>   0.3960 
 16 N       10.4470     6.6480    -0.9790 N.ar  1 <1>  -0.6200 
 17 C       10.3430    10.3480    -1.2590 C.2   1 <1>   0.5440 
 18 C       10.7360     7.9350    -1.1260 C.ar  1 <1>   0.1600 
 19 O       11.3350    10.5070    -1.9520 O.2   1 <1>  -0.5700 
 20 N        9.8040    11.4770    -0.6650 N.am  1 <1>  -0.6600 
 21 C        8.6810    11.5050     0.3000 C.3   1 <1>   0.1400 
 22 C       10.4210    12.8170    -0.7890 C.3   1 <1>   0.1400 
 23 C        8.5380    12.9680     0.7080 C.3   1 <1>  -0.1600 
 24 C        9.8960    13.5950     0.4110 C.3   1 <1>  -0.1600 
 25 H        3.5120     2.1220     3.0880 H     1 <1>   0.1500 
 26 H        2.0530    -0.0340    -0.2820 H     1 <1>   0.1500 
 27 H        4.5910     3.7590     1.5970 H     1 <1>   0.1500 
 28 H        3.1330     1.6090    -1.8040 H     1 <1>   0.1500 
 29 H        6.2770     4.7380     0.2160 H     1 <1>   0.0800 
 30 H        4.7810     5.6920     0.2480 H     1 <1>   0.0800 
 31 H        5.3620     6.6870    -1.9320 H     1 <1>   0.0800 
 32 H        6.8140     5.7210    -2.0140 H     1 <1>   0.0800 
 33 H        6.3620     8.1730    -0.5760 H     1 <1>   0.4000 
 34 H        8.8150     5.4580    -0.6540 H     1 <1>   0.1500 
 35 H       11.7720     8.1760    -1.2910 H     1 <1>   0.1500 
 36 H        8.9280    10.8950     1.1520 H     1 <1>   0.0800 
 37 H        7.7740    11.1460    -0.1550 H     1 <1>   0.0800 
 38 H       10.0920    13.2680    -1.7090 H     1 <1>   0.0800 
 39 H       11.4960    12.7550    -0.7810 H     1 <1>   0.0800 
 40 H        8.2560    13.0690     1.7410 H     1 <1>   0.0800 
 41 H        7.7830    13.4270     0.0940 H     1 <1>   0.0800 
 42 H        9.8280    14.6490     0.2050 H     1 <1>   0.0800 
 43 H       10.5610    13.4420     1.2430 H     1 <1>   0.0800 
@<TRIPOS>BOND
  1   1   2  1   
  2   2   3  ar  
  3   2   4  ar  
  4   3   5  ar  
  5   3  25  1   
  6   4   6  ar  
  7   4  26  1   
  8   5   7  ar  
  9   5  27  1   
 10   6   7  ar  
 11   6  28  1   
 12   7   8  1   
 13   8   9  1   
 14   9  10  1   
 15   9  29  1   
 16   9  30  1   
 17  10  11  1   
 18  10  31  1   
 19  10  32  1   
 20  11  12  1   
 21  11  33  1   
 22  12  13  ar  
 23  12  14  ar  
 24  13  15  ar  
 25  14  16  ar  
 26  14  34  1   
 27  15  17  1   
 28  15  18  ar  
 29  16  18  ar  
 30  17  19  2   
 31  17  20  am  
 32  18  35  1   
 33  20  21  1   
 34  20  22  1   
 35  21  23  1   
 36  21  36  1   
 37  21  37  1   
 38  22  24  1   
 39  22  38  1   
 40  22  39  1   
 41  23  24  1   
 42  23  40  1   
 43  23  41  1   
 44  24  42  1   
 45  24  43  1   
@<TRIPOS>SUBSTRUCTURE
  1 ****  11 GROUP 4 **** **** 0

# MOE 2024.06 (io_trps.svl 2023.06)
