@<TRIPOS>MOLECULE
NONAME
42 43 1 0 0 
SMALL
USER_CHARGES


@<TRIPOS>ATOM
  1 O       -0.5240     0.5630     1.9500 O.2   1 <1>  -0.5700 
  2 C       -1.3540     1.0490     1.2430 C.2   1 <1>   0.4480 
  3 C       -2.6190     0.3910     0.8240 C.3   1 <1>   0.0420 
  4 C       -1.3600     2.4660     0.7130 C.3   1 <1>   0.1810 
  5 C       -2.3730    -0.3960    -0.4340 C.2   1 <1>   0.6590 
  6 C       -3.4880     1.6150     0.5590 C.3   1 <1>   0.2580 
  7 O       -2.6630     2.7070     0.2490 O.3   1 <1>  -0.5380 
  8 O       -1.6580     0.0030    -1.3170 O.2   1 <1>  -0.5700 
  9 O       -3.0270    -1.5440    -0.5240 O.3   1 <1>  -0.4300 
 10 C       -4.7330     1.4880    -0.3580 C.3   1 <1>   0.2250 
 11 C       -4.4880     1.9680     1.6900 C.3   1 <1>   0.2250 
 12 C       -2.9140    -2.3730    -1.6580 C.3   1 <1>   0.1200 
 13 N       -5.5350     1.2570     0.8870 N.am  1 <1>  -0.5100 
 14 C       -3.8210    -3.5810    -1.4520 C.3   1 <1>  -0.2400 
 15 C       -6.8650     1.5070     0.9980 C.2   1 <1>   0.7800 
 16 O       -7.3590     1.8880     2.0400 O.2   1 <1>  -0.5700 
 17 O       -7.5990     1.3160    -0.1000 O.3   1 <1>  -0.4300 
 18 C       -8.9880     1.5150    -0.2430 C.3   1 <1>   0.2800 
 19 C       -9.3400     2.9880    -0.0060 C.3   1 <1>  -0.2400 
 20 C       -9.2950     1.1510    -1.6960 C.3   1 <1>  -0.2400 
 21 C       -9.7580     0.5710     0.6880 C.3   1 <1>  -0.2400 
 22 H       -3.0140    -0.2450     1.5940 H     1 <1>   0.0800 
 23 H       -0.6770     2.5700    -0.1110 H     1 <1>   0.0800 
 24 H       -1.1270     3.1720     1.4900 H     1 <1>   0.0800 
 25 H       -4.7470     0.6230    -0.9960 H     1 <1>   0.0000 
 26 H       -5.0220     2.4050    -0.8410 H     1 <1>   0.0000 
 27 H       -4.7100     3.0170     1.7760 H     1 <1>   0.0000 
 28 H       -4.3020     1.4690     2.6240 H     1 <1>   0.0000 
 29 H       -1.8840    -2.6740    -1.7590 H     1 <1>   0.0800 
 30 H       -3.2120    -1.8090    -2.5260 H     1 <1>   0.0800 
 31 H       -3.5160    -4.1290    -0.5780 H     1 <1>   0.0800 
 32 H       -3.7560    -4.2330    -2.3040 H     1 <1>   0.0800 
 33 H       -4.8430    -3.2640    -1.3410 H     1 <1>   0.0800 
 34 H       -8.7320     3.6230    -0.6250 H     1 <1>   0.0800 
 35 H       -9.2010     3.2600     1.0240 H     1 <1>   0.0800 
 36 H      -10.3720     3.1620    -0.2500 H     1 <1>   0.0800 
 37 H       -8.7440     1.7870    -2.3650 H     1 <1>   0.0800 
 38 H      -10.3440     1.2740    -1.8990 H     1 <1>   0.0800 
 39 H       -9.0310     0.1260    -1.8880 H     1 <1>   0.0800 
 40 H       -9.6190     0.8430     1.7190 H     1 <1>   0.0800 
 41 H       -9.4350    -0.4440     0.5430 H     1 <1>   0.0800 
 42 H      -10.8100     0.6270     0.4790 H     1 <1>   0.0800 
@<TRIPOS>BOND
  1   1   2  2   
  2   2   3  1   
  3   2   4  1   
  4   3   5  1   
  5   3   6  1   
  6   3  22  1   
  7   4   7  1   
  8   4  23  1   
  9   4  24  1   
 10   5   8  2   
 11   5   9  1   
 12   6   7  1   
 13   6  10  1   
 14   6  11  1   
 15   9  12  1   
 16  10  13  1   
 17  10  25  1   
 18  10  26  1   
 19  11  13  1   
 20  11  27  1   
 21  11  28  1   
 22  12  14  1   
 23  12  29  1   
 24  12  30  1   
 25  13  15  am  
 26  14  31  1   
 27  14  32  1   
 28  14  33  1   
 29  15  16  2   
 30  15  17  1   
 31  17  18  1   
 32  18  19  1   
 33  18  20  1   
 34  18  21  1   
 35  19  34  1   
 36  19  35  1   
 37  19  36  1   
 38  20  37  1   
 39  20  38  1   
 40  20  39  1   
 41  21  40  1   
 42  21  41  1   
 43  21  42  1   
@<TRIPOS>SUBSTRUCTURE
  1 ****  10 GROUP 4 **** **** 0

# MOE 2024.06 (io_trps.svl 2023.06)
