@<TRIPOS>MOLECULE
NONAME
47 49 1 0 0 
SMALL
USER_CHARGES


@<TRIPOS>ATOM
  1 O        1.5660    -0.4920    -2.3600 O.2   1 <1>  -0.5700 
  2 C        1.5510    -1.1820    -1.3530 C.2   1 <1>   0.5440 
  3 N        1.3960    -0.5180    -0.1480 N.am  1 <1>  -0.6600 
  4 C        1.7120    -2.6350    -1.4900 C.ar  1 <1>   0.3960 
  5 C        1.4400    -1.1190     1.2040 C.3   1 <1>   0.1400 
  6 C        1.1920     0.9460    -0.0650 C.3   1 <1>   0.1400 
  7 N        1.2440    -3.4830    -0.5550 N.ar  1 <1>  -0.6200 
  8 C        2.3580    -3.1130    -2.6370 C.ar  1 <1>   0.1600 
  9 C        1.5260     0.0670     2.1580 C.3   1 <1>  -0.1600 
 10 C        0.8680     1.2160     1.4000 C.3   1 <1>  -0.1600 
 11 C        1.4540    -4.7500    -0.8330 C.ar  1 <1>   0.4100 
 12 N        2.5860    -4.3880    -2.9260 N.ar  1 <1>  -0.6200 
 13 N        0.9540    -5.5980     0.1140 N.pl3 1 <1>  -0.8690 
 14 C        2.1200    -5.1850    -1.9880 C.ar  1 <1>   0.1600 
 15 C       -0.1450    -6.5050    -0.2620 C.3   1 <1>   0.4330 
 16 C       -1.4130    -5.9510     0.3750 C.ar  1 <1>  -0.1430 
 17 C        0.1760    -7.9620     0.1610 C.3   1 <1>  -0.0800 
 18 C       -1.6030    -5.9830     1.7500 C.ar  1 <1>   0.1600 
 19 C       -2.4010    -5.3890    -0.4120 C.ar  1 <1>  -0.1500 
 20 C        1.4480    -8.5040    -0.5160 C.3   1 <1>  -0.2400 
 21 C       -0.9910    -8.9170    -0.1500 C.3   1 <1>  -0.2400 
 22 N       -2.6680    -5.5190     2.3840 N.ar  1 <1>  -0.6200 
 23 C       -3.5170    -4.9000     0.2300 C.ar  1 <1>  -0.1500 
 24 C       -3.6000    -4.9890     1.6090 C.ar  1 <1>   0.1600 
 25 H        2.2870    -1.7750     1.3120 H     1 <1>   0.0800 
 26 H        0.5290    -1.6690     1.3730 H     1 <1>   0.0800 
 27 H        0.3920     1.2580    -0.7150 H     1 <1>   0.0800 
 28 H        2.1030     1.4420    -0.3510 H     1 <1>   0.0800 
 29 H        2.7060    -2.3920    -3.3560 H     1 <1>   0.1500 
 30 H        2.5620     0.2940     2.3390 H     1 <1>   0.0800 
 31 H        1.0420    -0.1390     3.0960 H     1 <1>   0.0800 
 32 H       -0.1990     1.1780     1.5330 H     1 <1>   0.0800 
 33 H        1.2280     2.1780     1.7180 H     1 <1>   0.0800 
 34 H        0.6520    -5.0410     0.9180 H     1 <1>   0.4000 
 35 H        2.2610    -6.2410    -2.1160 H     1 <1>   0.1500 
 36 H       -0.2660    -6.4900    -1.3320 H     1 <1>   0.0800 
 37 H        0.3400    -7.9790     1.2240 H     1 <1>   0.0800 
 38 H       -0.8350    -6.4100     2.3720 H     1 <1>   0.1500 
 39 H       -2.3090    -5.3260    -1.4830 H     1 <1>   0.1500 
 40 H        1.3410    -8.5030    -1.5860 H     1 <1>   0.0800 
 41 H        1.6420    -9.5120    -0.1930 H     1 <1>   0.0800 
 42 H        2.3010    -7.9050    -0.2500 H     1 <1>   0.0800 
 43 H       -1.2060    -8.9250    -1.2040 H     1 <1>   0.0800 
 44 H       -1.8810    -8.6230     0.3790 H     1 <1>   0.0800 
 45 H       -0.7460    -9.9190     0.1550 H     1 <1>   0.0800 
 46 H       -4.3180    -4.4510    -0.3290 H     1 <1>   0.1500 
 47 H       -4.4770    -4.6040     2.1000 H     1 <1>   0.1500 
@<TRIPOS>BOND
  1   1   2  2   
  2   2   3  am  
  3   2   4  1   
  4   3   5  1   
  5   3   6  1   
  6   4   7  ar  
  7   4   8  ar  
  8   5   9  1   
  9   5  25  1   
 10   5  26  1   
 11   6  10  1   
 12   6  27  1   
 13   6  28  1   
 14   7  11  ar  
 15   8  12  ar  
 16   8  29  1   
 17   9  10  1   
 18   9  30  1   
 19   9  31  1   
 20  10  32  1   
 21  10  33  1   
 22  11  13  1   
 23  11  14  ar  
 24  12  14  ar  
 25  13  15  1   
 26  13  34  1   
 27  14  35  1   
 28  15  16  1   
 29  15  17  1   
 30  15  36  1   
 31  16  18  ar  
 32  16  19  ar  
 33  17  20  1   
 34  17  21  1   
 35  17  37  1   
 36  18  22  ar  
 37  18  38  1   
 38  19  23  ar  
 39  19  39  1   
 40  20  40  1   
 41  20  41  1   
 42  20  42  1   
 43  21  43  1   
 44  21  44  1   
 45  21  45  1   
 46  22  24  ar  
 47  23  24  ar  
 48  23  46  1   
 49  24  47  1   
@<TRIPOS>SUBSTRUCTURE
  1 ****   7 GROUP 4 **** **** 0

# MOE 2024.06 (io_trps.svl 2023.06)
