@<TRIPOS>MOLECULE
NONAME
46 48 1 0 0 
SMALL
USER_CHARGES


@<TRIPOS>ATOM
  1 F       -0.0130     4.3140    -2.1620 F     1 <1>  -0.1900 
  2 C       -0.8370     3.8910    -1.2380 C.ar  1 <1>   0.1900 
  3 C       -0.3430     3.4010    -0.0310 C.ar  1 <1>  -0.1440 
  4 C       -2.1870     3.9630    -1.5210 C.ar  1 <1>  -0.1500 
  5 C       -1.2610     2.9770     0.9250 C.ar  1 <1>  -0.1500 
  6 C        1.1490     3.3200     0.2910 C.3   1 <1>   0.4330 
  7 C       -3.0600     3.5260    -0.5460 C.ar  1 <1>   0.1900 
  8 C       -2.6240     3.0350     0.6720 C.ar  1 <1>  -0.1500 
  9 N        1.7690     4.6370     0.0920 N.pl3 1 <1>  -0.8690 
 10 C        1.8740     2.3110    -0.5920 C.3   1 <1>  -0.2400 
 11 F       -4.3430     3.5790    -0.7800 F     1 <1>  -0.1900 
 12 C        1.7020     5.6130     1.0560 C.ar  1 <1>   0.4100 
 13 N        1.5570     5.2320     2.3170 N.ar  1 <1>  -0.6200 
 14 C        1.7930     6.9420     0.6690 C.ar  1 <1>  -0.1500 
 15 C        1.4890     6.2050     3.2090 C.ar  1 <1>   0.1600 
 16 C        1.7430     7.9630     1.6000 C.ar  1 <1>   0.0860 
 17 C        1.5720     7.5490     2.9130 C.ar  1 <1>  -0.1500 
 18 C        1.8480     9.3640     1.2420 C.2   1 <1>   0.5440 
 19 O        1.0480    10.1510     1.7130 O.2   1 <1>  -0.5700 
 20 N        2.8300     9.8320     0.3950 N.am  1 <1>  -0.6600 
 21 C        4.1280     9.1390     0.1630 C.3   1 <1>   0.1400 
 22 C        2.7420    11.1810    -0.2280 C.3   1 <1>   0.1400 
 23 C        4.3760     8.9970    -1.3420 C.3   1 <1>  -0.1600 
 24 C        2.9840    11.0660    -1.7380 C.3   1 <1>  -0.1600 
 25 C        4.3100    10.3570    -2.0520 C.3   1 <1>  -0.1600 
 26 H       -2.5440     4.3440    -2.4590 H     1 <1>   0.1500 
 27 H       -0.9190     2.6050     1.8760 H     1 <1>   0.1500 
 28 H        1.2790     3.0100     1.3140 H     1 <1>   0.0800 
 29 H       -3.3390     2.7090     1.4060 H     1 <1>   0.1500 
 30 H        1.5850     4.9640    -0.8580 H     1 <1>   0.4000 
 31 H        1.8150     2.5870    -1.6280 H     1 <1>   0.0800 
 32 H        1.4310     1.3410    -0.4680 H     1 <1>   0.0800 
 33 H        2.9070     2.2550    -0.2990 H     1 <1>   0.0800 
 34 H        1.9040     7.1790    -0.3710 H     1 <1>   0.1500 
 35 H        1.3590     5.9100     4.2370 H     1 <1>   0.1500 
 36 H        1.5020     8.2860     3.6930 H     1 <1>   0.1500 
 37 H        4.1440     8.1710     0.6330 H     1 <1>   0.0800 
 38 H        4.9150     9.7280     0.6020 H     1 <1>   0.0800 
 39 H        3.4820    11.8230     0.2180 H     1 <1>   0.0800 
 40 H        1.7720    11.6160    -0.0540 H     1 <1>   0.0800 
 41 H        3.6390     8.3340    -1.7590 H     1 <1>   0.0800 
 42 H        5.3430     8.5530    -1.5030 H     1 <1>   0.0800 
 43 H        2.9880    12.0500    -2.1710 H     1 <1>   0.0800 
 44 H        2.1670    10.5190    -2.1760 H     1 <1>   0.0800 
 45 H        4.4060    10.2190    -3.1150 H     1 <1>   0.0800 
 46 H        5.1290    10.9720    -1.7200 H     1 <1>   0.0800 
@<TRIPOS>BOND
  1   1   2  1   
  2   2   3  ar  
  3   2   4  ar  
  4   3   5  ar  
  5   3   6  1   
  6   4   7  ar  
  7   4  26  1   
  8   5   8  ar  
  9   5  27  1   
 10   6   9  1   
 11   6  10  1   
 12   6  28  1   
 13   7   8  ar  
 14   7  11  1   
 15   8  29  1   
 16   9  12  1   
 17   9  30  1   
 18  10  31  1   
 19  10  32  1   
 20  10  33  1   
 21  12  13  ar  
 22  12  14  ar  
 23  13  15  ar  
 24  14  16  ar  
 25  14  34  1   
 26  15  17  ar  
 27  15  35  1   
 28  16  17  ar  
 29  16  18  1   
 30  17  36  1   
 31  18  19  2   
 32  18  20  am  
 33  20  21  1   
 34  20  22  1   
 35  21  23  1   
 36  21  37  1   
 37  21  38  1   
 38  22  24  1   
 39  22  39  1   
 40  22  40  1   
 41  23  25  1   
 42  23  41  1   
 43  23  42  1   
 44  24  25  1   
 45  24  43  1   
 46  24  44  1   
 47  25  45  1   
 48  25  46  1   
@<TRIPOS>SUBSTRUCTURE
  1 ****  14 GROUP 4 **** **** 0

# MOE 2024.06 (io_trps.svl 2023.06)
