@<TRIPOS>MOLECULE
NONAME
54 56 1 0 0 
SMALL
USER_CHARGES


@<TRIPOS>ATOM
  1 O        2.3120    -0.2510    -2.7940 O.2   1 <1>  -0.5700 
  2 C        2.8380    -0.0110    -1.7310 C.2   1 <1>   0.7150 
  3 N        3.1200    -1.1050    -0.9760 N.am  1 <1>  -0.7300 
  4 C        3.1170     1.3460    -1.3620 C.2   1 <1>  -0.2370 
  5 C        3.4370    -1.3100     0.4640 C.3   1 <1>   0.1400 
  6 N        3.9230     1.7640    -0.3600 N.pl3 1 <1>   0.3140 
  7 C        2.6650     2.4870    -1.9410 C.2   1 <1>  -0.1500 
  8 C        3.7120    -0.0370     1.2790 C.3   1 <1>   0.2000 
  9 N        3.9890     3.0940    -0.2760 N.2   1 <1>  -0.7070 
 10 C        4.6700     0.9320     0.5910 C.3   1 <1>   0.0960 
 11 C        3.2170     3.5620    -1.2470 C.2   1 <1>   0.2030 
 12 O        4.2660    -0.4180     2.4950 O.3   1 <1>  -0.6800 
 13 C        2.9460     4.9580    -1.6060 C.2   1 <1>   0.7160 
 14 O        2.3720     5.1850    -2.6620 O.2   1 <1>  -0.5700 
 15 N        3.2950     6.0520    -0.8250 N.am  1 <1>  -0.6600 
 16 C        3.1890     7.4450    -1.3430 C.3   1 <1>   0.2840 
 17 C        3.9320     5.9430     0.5160 C.3   1 <1>   0.0600 
 18 C        4.5770     7.9810    -1.6730 C.ar  1 <1>  -0.1430 
 19 C        5.1980     8.9430    -0.8790 C.ar  1 <1>   0.0830 
 20 C        5.2300     7.4930    -2.7940 C.ar  1 <1>  -0.1500 
 21 O        4.5270     9.3920     0.2140 O.3   1 <1>  -0.3620 
 22 C        6.4670     9.4030    -1.2250 C.ar  1 <1>  -0.1500 
 23 C        6.4900     7.9530    -3.1320 C.ar  1 <1>  -0.1500 
 24 C        5.0720    10.3690     1.0750 C.3   1 <1>   0.1200 
 25 C        7.1080     8.9090    -2.3470 C.ar  1 <1>  -0.1500 
 26 C        4.0730    10.6660     2.2050 C.3   1 <1>  -0.0800 
 27 C        2.7470    11.2190     1.6630 C.3   1 <1>  -0.2400 
 28 C        4.6810    11.6640     3.1980 C.3   1 <1>  -0.2400 
 29 H        2.8590    -1.9630    -1.4680 H     1 <1>   0.3700 
 30 H        4.3040    -1.9470     0.5150 H     1 <1>   0.0800 
 31 H        2.6140    -1.8330     0.9220 H     1 <1>   0.0800 
 32 H        2.0030     2.5710    -2.7870 H     1 <1>   0.1500 
 33 H        2.7860     0.4630     1.5090 H     1 <1>   0.0800 
 34 H        5.1130     1.5870     1.3200 H     1 <1>   0.0800 
 35 H        5.4430     0.4090     0.0610 H     1 <1>   0.0800 
 36 H        5.1420    -0.8360     2.3830 H     1 <1>   0.4000 
 37 H        2.7000     8.0580    -0.6080 H     1 <1>   0.0800 
 38 H        2.5830     7.4820    -2.2310 H     1 <1>   0.0800 
 39 H        3.4200     5.2080     1.1110 H     1 <1>   0.0800 
 40 H        3.8920     6.8870     1.0320 H     1 <1>   0.0800 
 41 H        4.9620     5.6530     0.4010 H     1 <1>   0.0800 
 42 H        4.7540     6.7450    -3.4060 H     1 <1>   0.1500 
 43 H        6.9740    10.1430    -0.6360 H     1 <1>   0.1500 
 44 H        6.9870     7.5660    -4.0040 H     1 <1>   0.1500 
 45 H        5.2650    11.2570     0.4990 H     1 <1>   0.0800 
 46 H        5.9910     9.9820     1.4790 H     1 <1>   0.0800 
 47 H        8.0880     9.2670    -2.6100 H     1 <1>   0.1500 
 48 H        3.8800     9.7460     2.7300 H     1 <1>   0.0800 
 49 H        2.9100    12.1310     1.1170 H     1 <1>   0.0800 
 50 H        2.0650    11.4170     2.4710 H     1 <1>   0.0800 
 51 H        2.2850    10.5050     1.0030 H     1 <1>   0.0800 
 52 H        4.8930    12.6020     2.7140 H     1 <1>   0.0800 
 53 H        5.5960    11.2750     3.6090 H     1 <1>   0.0800 
 54 H        3.9980    11.8450     4.0090 H     1 <1>   0.0800 
@<TRIPOS>BOND
  1   1   2  2   
  2   2   3  am  
  3   2   4  1   
  4   3   5  1   
  5   3  29  1   
  6   4   6  1   
  7   4   7  2   
  8   5   8  1   
  9   5  30  1   
 10   5  31  1   
 11   6   9  1   
 12   6  10  1   
 13   7  11  1   
 14   7  32  1   
 15   8  10  1   
 16   8  12  1   
 17   8  33  1   
 18   9  11  2   
 19  10  34  1   
 20  10  35  1   
 21  11  13  1   
 22  12  36  1   
 23  13  14  2   
 24  13  15  am  
 25  15  16  1   
 26  15  17  1   
 27  16  18  1   
 28  16  37  1   
 29  16  38  1   
 30  17  39  1   
 31  17  40  1   
 32  17  41  1   
 33  18  19  ar  
 34  18  20  ar  
 35  19  21  1   
 36  19  22  ar  
 37  20  23  ar  
 38  20  42  1   
 39  21  24  1   
 40  22  25  ar  
 41  22  43  1   
 42  23  25  ar  
 43  23  44  1   
 44  24  26  1   
 45  24  45  1   
 46  24  46  1   
 47  25  47  1   
 48  26  27  1   
 49  26  28  1   
 50  26  48  1   
 51  27  49  1   
 52  27  50  1   
 53  27  51  1   
 54  28  52  1   
 55  28  53  1   
 56  28  54  1   
@<TRIPOS>SUBSTRUCTURE
  1 ****  15 GROUP 4 **** **** 0

# MOE 2024.06 (io_trps.svl 2023.06)
