@<TRIPOS>MOLECULE
NONAME
38 40 1 0 0 
SMALL
USER_CHARGES


@<TRIPOS>ATOM
  1 O       -0.2620     0.9440     0.6850 O.2   1 <1>  -0.5700 
  2 C       -0.2480     2.1230     0.4380 C.2   1 <1>   0.5690 
  3 N       -1.2050     2.9440     0.9200 N.am  1 <1>  -0.7300 
  4 C        0.8370     2.7110    -0.4610 C.3   1 <1>   0.1810 
  5 C       -1.3210     4.3810     0.5640 C.3   1 <1>   0.3640 
  6 O        1.0090     4.0940    -0.2480 O.3   1 <1>  -0.5600 
  7 C       -2.6940     4.5940    -0.0740 C.ar  1 <1>  -0.1440 
  8 C       -0.1800     4.8740    -0.3730 C.3   1 <1>   0.2610 
  9 C       -3.4720     5.6780     0.3080 C.ar  1 <1>  -0.1500 
 10 C       -3.1860     3.7240    -1.0400 C.ar  1 <1>  -0.1500 
 11 C        0.1330     6.3470    -0.0810 C.2   1 <1>   0.5690 
 12 C       -4.7170     5.8870    -0.2590 C.ar  1 <1>  -0.1500 
 13 C       -4.4320     3.9320    -1.6080 C.ar  1 <1>  -0.1500 
 14 O       -0.7610     7.1580    -0.1130 O.2   1 <1>  -0.5700 
 15 N        1.4190     6.6840     0.2150 N.am  1 <1>  -0.6550 
 16 C       -5.1990     5.0140    -1.2170 C.ar  1 <1>  -0.1500 
 17 C        2.0190     8.0000     0.5440 C.3   1 <1>   0.2250 
 18 C        1.2980     8.8080     1.6570 C.3   1 <1>   0.0000 
 19 C        1.6840     9.1570    -0.4350 C.3   1 <1>   0.0000 
 20 C        1.5870    10.0760     0.8110 C.3   1 <1>   0.0000 
 21 H       -1.9690     2.5390     1.4630 H     1 <1>   0.3700 
 22 H        0.5810     2.5510    -1.4930 H     1 <1>   0.0800 
 23 H        1.7730     2.2260    -0.2530 H     1 <1>   0.0800 
 24 H       -1.2750     4.9460     1.4790 H     1 <1>   0.0800 
 25 H       -0.5050     4.8040    -1.3960 H     1 <1>   0.0800 
 26 H       -3.1110     6.3760     1.0450 H     1 <1>   0.1500 
 27 H       -2.6080     2.8740    -1.3580 H     1 <1>   0.1500 
 28 H       -5.3090     6.7340     0.0440 H     1 <1>   0.1500 
 29 H       -4.8050     3.2510    -2.3530 H     1 <1>   0.1500 
 30 H        2.0850     5.9040     0.2120 H     1 <1>   0.3700 
 31 H       -6.1670     5.1770    -1.6580 H     1 <1>   0.1500 
 32 H        3.0760     7.9180     0.7250 H     1 <1>   0.0000 
 33 H        0.2450     8.6120     1.7450 H     1 <1>   0.0000 
 34 H        1.8180     8.8050     2.5980 H     1 <1>   0.0000 
 35 H        2.4970     9.4210    -1.0880 H     1 <1>   0.0000 
 36 H        0.7400     9.0620    -0.9410 H     1 <1>   0.0000 
 37 H        2.5290    10.5330     1.0610 H     1 <1>   0.0000 
 38 H        0.7670    10.7710     0.7760 H     1 <1>   0.0000 
@<TRIPOS>BOND
  1   1   2  2   
  2   2   3  am  
  3   2   4  1   
  4   3   5  1   
  5   3  21  1   
  6   4   6  1   
  7   4  22  1   
  8   4  23  1   
  9   5   7  1   
 10   5   8  1   
 11   5  24  1   
 12   6   8  1   
 13   7   9  ar  
 14   7  10  ar  
 15   8  11  1   
 16   8  25  1   
 17   9  12  ar  
 18   9  26  1   
 19  10  13  ar  
 20  10  27  1   
 21  11  14  2   
 22  11  15  am  
 23  12  16  ar  
 24  12  28  1   
 25  13  16  ar  
 26  13  29  1   
 27  15  17  1   
 28  15  30  1   
 29  16  31  1   
 30  17  18  1   
 31  17  19  1   
 32  17  32  1   
 33  18  20  1   
 34  18  33  1   
 35  18  34  1   
 36  19  20  1   
 37  19  35  1   
 38  19  36  1   
 39  20  37  1   
 40  20  38  1   
@<TRIPOS>SUBSTRUCTURE
  1 ****   8 GROUP 4 **** **** 0

# MOE 2024.06 (io_trps.svl 2023.06)
