@<TRIPOS>MOLECULE
NONAME
25 25 1 0 0 
SMALL
USER_CHARGES


@<TRIPOS>ATOM
  1 O        4.1100     3.4460    -0.1420 O.3   1 <1>  -0.6800 
  2 C        5.0330     2.6880     0.5400 C.3   1 <1>   0.1200 
  3 C        5.1870     1.3820    -0.2430 C.3   1 <1>  -0.1600 
  4 C        6.3850     0.5430     0.2070 C.3   1 <1>   0.4230 
  5 N        7.6330     1.2150    -0.2160 N.4   1 <1>  -0.8530 
  6 C        6.3470    -0.8630    -0.4070 C.3   1 <1>   0.0000 
  7 C        5.2980    -1.8180     0.2250 C.3   1 <1>   0.0000 
  8 C        7.4340    -1.8390     0.1200 C.3   1 <1>   0.0000 
  9 C        6.3500    -2.9460     0.0760 C.3   1 <1>   0.0000 
 10 H        3.8420     4.2420     0.3640 H     1 <1>   0.4000 
 11 H        4.6580     2.5070     1.5350 H     1 <1>   0.0800 
 12 H        5.9460     3.2550     0.5880 H     1 <1>   0.0800 
 13 H        5.2650     1.5880    -1.2980 H     1 <1>   0.0800 
 14 H        4.2850     0.8130    -0.0940 H     1 <1>   0.0800 
 15 H        6.3680     0.4480     1.2820 H     1 <1>   0.0800 
 16 H        7.6340     1.3290    -1.2360 H     1 <1>   0.4500 
 17 H        8.4510     0.6510     0.0400 H     1 <1>   0.4500 
 18 H        7.7260     2.1420     0.2070 H     1 <1>   0.4500 
 19 H        6.2850    -0.8630    -1.4830 H     1 <1>   0.0000 
 20 H        4.4180    -1.9600    -0.3780 H     1 <1>   0.0000 
 21 H        5.0830    -1.5890     1.2560 H     1 <1>   0.0000 
 22 H        7.7530    -1.6150     1.1240 H     1 <1>   0.0000 
 23 H        8.2470    -1.9970    -0.5660 H     1 <1>   0.0000 
 24 H        6.2980    -3.4390    -0.8800 H     1 <1>   0.0000 
 25 H        6.3840    -3.6240     0.9100 H     1 <1>   0.0000 
@<TRIPOS>BOND
  1   1   2  1   
  2   1  10  1   
  3   2   3  1   
  4   2  11  1   
  5   2  12  1   
  6   3   4  1   
  7   3  13  1   
  8   3  14  1   
  9   4   5  1   
 10   4   6  1   
 11   4  15  1   
 12   5  16  1   
 13   5  17  1   
 14   5  18  1   
 15   6   7  1   
 16   6   8  1   
 17   6  19  1   
 18   7   9  1   
 19   7  20  1   
 20   7  21  1   
 21   8   9  1   
 22   8  22  1   
 23   8  23  1   
 24   9  24  1   
 25   9  25  1   
@<TRIPOS>SUBSTRUCTURE
  1 ****   4 GROUP 4 **** **** 0

# MOE 2024.06 (io_trps.svl 2023.06)
