@<TRIPOS>MOLECULE
NONAME
39 41 1 0 0 
SMALL
USER_CHARGES


@<TRIPOS>ATOM
  1 O       -0.1750    -0.2130    -0.1250 O.2   1 <1>  -0.5700 
  2 C       -0.1530    -1.2390     0.5220 C.2   1 <1>   0.5440 
  3 N       -1.1150    -1.3540     1.4660 N.am  1 <1>  -0.8000 
  4 C        0.8630    -2.2450     0.3010 C.ar  1 <1>   0.0860 
  5 C        0.6360    -3.6260     0.4690 C.ar  1 <1>   0.4100 
  6 C        2.1330    -1.8530    -0.0990 C.ar  1 <1>  -0.1500 
  7 N        1.5810    -4.5500     0.2920 N.ar  1 <1>  -0.6200 
  8 N       -0.6200    -4.1100     0.8010 N.3   1 <1>  -0.5900 
  9 C        3.1080    -2.8080    -0.2910 C.ar  1 <1>  -0.1430 
 10 C        2.7780    -4.1410    -0.0740 C.ar  1 <1>   0.1670 
 11 C       -0.8980    -5.5310     1.2350 C.3   1 <1>   0.2450 
 12 C       -1.6280    -4.2840    -0.3020 C.3   1 <1>   0.2450 
 13 C        4.4990    -2.3710    -0.7300 C.3   1 <1>  -0.0970 
 14 C        3.8080    -5.2400    -0.2590 C.3   1 <1>  -0.0970 
 15 C       -1.4590    -5.8160    -0.1770 C.3   1 <1>   0.1080 
 16 C       -2.7650    -6.6070    -0.2120 C.ar  1 <1>  -0.1080 
 17 C       -2.9980    -7.6760     0.6310 C.ar  1 <1>  -0.1500 
 18 C       -3.7780    -6.3050    -1.1020 C.ar  1 <1>  -0.1500 
 19 C       -4.2020    -8.3570     0.5590 C.ar  1 <1>   0.1600 
 20 C       -4.9450    -7.0500    -1.0920 C.ar  1 <1>   0.1600 
 21 N       -5.1820    -8.0660    -0.2800 N.ar  1 <1>  -0.6200 
 22 H       -1.8290    -0.6310     1.5450 H     1 <1>   0.3700 
 23 H       -1.2930    -2.2500     1.9270 H     1 <1>   0.3700 
 24 H        2.3390    -0.8080    -0.2520 H     1 <1>   0.1500 
 25 H       -1.6440    -5.5490     2.0100 H     1 <1>   0.0000 
 26 H       -0.0170    -6.0960     1.4780 H     1 <1>   0.0000 
 27 H       -1.2870    -3.8860    -1.2420 H     1 <1>   0.0000 
 28 H       -2.5940    -3.9200     0.0030 H     1 <1>   0.0000 
 29 H        4.5230    -1.3170    -0.9430 H     1 <1>   0.0800 
 30 H        4.7910    -2.8970    -1.6200 H     1 <1>   0.0800 
 31 H        5.2130    -2.5730     0.0490 H     1 <1>   0.0800 
 32 H        3.4300    -6.1740     0.1150 H     1 <1>   0.0800 
 33 H        4.7080    -5.0040     0.2770 H     1 <1>   0.0800 
 34 H        4.0310    -5.3560    -1.3030 H     1 <1>   0.0800 
 35 H       -0.7130    -6.2040    -0.8480 H     1 <1>   0.0000 
 36 H       -2.2580    -7.9910     1.3440 H     1 <1>   0.1500 
 37 H       -3.6760    -5.4990    -1.8050 H     1 <1>   0.1500 
 38 H       -4.3670    -9.1850     1.2270 H     1 <1>   0.1500 
 39 H       -5.7250    -6.7970    -1.7910 H     1 <1>   0.1500 
@<TRIPOS>BOND
  1   1   2  2   
  2   2   3  am  
  3   2   4  1   
  4   3  22  1   
  5   3  23  1   
  6   4   5  ar  
  7   4   6  ar  
  8   5   7  ar  
  9   5   8  1   
 10   6   9  ar  
 11   6  24  1   
 12   7  10  ar  
 13   8  11  1   
 14   8  12  1   
 15   9  10  ar  
 16   9  13  1   
 17  10  14  1   
 18  11  15  1   
 19  11  25  1   
 20  11  26  1   
 21  12  15  1   
 22  12  27  1   
 23  12  28  1   
 24  13  29  1   
 25  13  30  1   
 26  13  31  1   
 27  14  32  1   
 28  14  33  1   
 29  14  34  1   
 30  15  16  1   
 31  15  35  1   
 32  16  17  ar  
 33  16  18  ar  
 34  17  19  ar  
 35  17  36  1   
 36  18  20  ar  
 37  18  37  1   
 38  19  21  ar  
 39  19  38  1   
 40  20  21  ar  
 41  20  39  1   
@<TRIPOS>SUBSTRUCTURE
  1 ****   8 GROUP 4 **** **** 0

# MOE 2024.06 (io_trps.svl 2023.06)
