@<TRIPOS>MOLECULE
NONAME
46 48 1 0 0 
SMALL
USER_CHARGES


@<TRIPOS>ATOM
  1 CL      -0.0820    -1.5490     0.2130 Cl    1 <1>  -0.1770 
  2 C       -1.7580    -1.8760     0.5600 C.ar  1 <1>   0.1770 
  3 C       -2.4400    -2.8090    -0.1980 C.ar  1 <1>  -0.1500 
  4 C       -2.3840    -1.1980     1.5870 C.ar  1 <1>  -0.1500 
  5 C       -3.7740    -3.0720     0.0690 C.ar  1 <1>  -0.1440 
  6 C       -3.7150    -1.4620     1.8520 C.ar  1 <1>  -0.1500 
  7 C       -4.4360    -2.3950     1.1030 C.ar  1 <1>   0.0860 
  8 C       -4.5150    -4.1060    -0.7690 C.3   1 <1>  -0.0960 
  9 C       -5.8350    -2.6260     1.4080 C.2   1 <1>   0.5440 
 10 O       -6.1440    -3.5980     2.0710 O.2   1 <1>  -0.5700 
 11 N       -6.8170    -1.7660     0.9600 N.am  1 <1>  -0.6600 
 12 C       -8.2600    -1.9540     1.3120 C.3   1 <1>   0.1400 
 13 C       -6.5750    -0.6400     0.0200 C.3   1 <1>   0.1400 
 14 C       -9.1080    -2.2160     0.0420 C.3   1 <1>   0.0000 
 15 C       -7.3780    -0.8630    -1.2660 C.3   1 <1>  -0.1600 
 16 C      -10.6000    -2.3650     0.3860 C.3   1 <1>   0.2000 
 17 C       -8.8740    -1.0790    -0.9770 C.3   1 <1>  -0.1600 
 18 C       -8.7850    -3.6030    -0.5400 C.3   1 <1>  -0.1600 
 19 O      -11.0010    -1.4360     1.3490 O.3   1 <1>  -0.5600 
 20 C      -10.7680    -3.8030     0.8890 C.3   1 <1>  -0.1600 
 21 C       -9.5980    -4.5980     0.2940 C.3   1 <1>  -0.1600 
 22 C      -12.3790    -1.3020     1.4990 C.3   1 <1>   0.0400 
 23 H       -1.9180    -3.3190    -0.9880 H     1 <1>   0.1500 
 24 H       -1.8340    -0.4790     2.1670 H     1 <1>   0.1500 
 25 H       -4.2160    -0.9450     2.6520 H     1 <1>   0.1500 
 26 H       -3.8590    -4.5740    -1.4810 H     1 <1>   0.0800 
 27 H       -5.3210    -3.6380    -1.3040 H     1 <1>   0.0800 
 28 H       -4.9230    -4.8720    -0.1320 H     1 <1>   0.0800 
 29 H       -8.3780    -2.7620     2.0120 H     1 <1>   0.0800 
 30 H       -8.6050    -1.0590     1.7990 H     1 <1>   0.0800 
 31 H       -6.8890     0.2770     0.4900 H     1 <1>   0.0800 
 32 H       -5.5300    -0.5500    -0.2210 H     1 <1>   0.0800 
 33 H       -7.2580    -0.0090    -1.9090 H     1 <1>   0.0800 
 34 H       -6.9780    -1.7170    -1.7830 H     1 <1>   0.0800 
 35 H      -11.1830    -2.2190    -0.5080 H     1 <1>   0.0800 
 36 H       -9.3930    -1.2890    -1.8960 H     1 <1>   0.0800 
 37 H       -9.2830    -0.1680    -0.5730 H     1 <1>   0.0800 
 38 H       -9.1170    -3.6550    -1.5620 H     1 <1>   0.0800 
 39 H       -7.7350    -3.8340    -0.5090 H     1 <1>   0.0800 
 40 H      -10.7090    -3.8300     1.9630 H     1 <1>   0.0800 
 41 H      -11.7100    -4.2080     0.5660 H     1 <1>   0.0800 
 42 H       -8.9840    -4.9850     1.0920 H     1 <1>   0.0800 
 43 H       -9.9400    -5.4210    -0.3100 H     1 <1>   0.0800 
 44 H      -12.5620    -0.5490     2.2450 H     1 <1>   0.0800 
 45 H      -12.7990    -2.2390     1.8220 H     1 <1>   0.0800 
 46 H      -12.8110    -0.9950     0.5620 H     1 <1>   0.0800 
@<TRIPOS>BOND
  1   1   2  1   
  2   2   3  ar  
  3   2   4  ar  
  4   3   5  ar  
  5   3  23  1   
  6   4   6  ar  
  7   4  24  1   
  8   5   7  ar  
  9   5   8  1   
 10   6   7  ar  
 11   6  25  1   
 12   7   9  1   
 13   8  26  1   
 14   8  27  1   
 15   8  28  1   
 16   9  10  2   
 17   9  11  am  
 18  11  12  1   
 19  11  13  1   
 20  12  14  1   
 21  12  29  1   
 22  12  30  1   
 23  13  15  1   
 24  13  31  1   
 25  13  32  1   
 26  14  16  1   
 27  14  17  1   
 28  14  18  1   
 29  15  17  1   
 30  15  33  1   
 31  15  34  1   
 32  16  19  1   
 33  16  20  1   
 34  16  35  1   
 35  17  36  1   
 36  17  37  1   
 37  18  21  1   
 38  18  38  1   
 39  18  39  1   
 40  19  22  1   
 41  20  21  1   
 42  20  40  1   
 43  20  41  1   
 44  21  42  1   
 45  21  43  1   
 46  22  44  1   
 47  22  45  1   
 48  22  46  1   
@<TRIPOS>SUBSTRUCTURE
  1 ****  11 GROUP 4 **** **** 0

# MOE 2024.06 (io_trps.svl 2023.06)
