@<TRIPOS>MOLECULE
NONAME
46 49 1 0 0 
SMALL
USER_CHARGES


@<TRIPOS>ATOM
  1 S        0.3040    -0.0680     0.0750 S.3   1 <1>  -0.0800 
  2 C       -0.5260     1.4700     0.1610 C.ar  1 <1>   0.0400 
  3 C       -1.2530    -0.8890     0.0280 C.2   1 <1>   0.1980 
  4 C       -1.8860     1.2230     0.1470 C.ar  1 <1>   0.2270 
  5 C        0.0180     2.7400     0.2330 C.ar  1 <1>  -0.1500 
  6 N       -2.2630    -0.1170     0.0710 N.2   1 <1>  -0.5650 
  7 C       -1.2100    -2.4040    -0.0570 C.3   1 <1>   0.0200 
  8 C       -2.7510     2.3060     0.2070 C.ar  1 <1>  -0.1500 
  9 C       -0.8600     3.8090     0.2930 C.ar  1 <1>  -0.1500 
 10 C       -2.6190    -3.0190    -0.0980 C.3   1 <1>  -0.0990 
 11 C       -2.2360     3.5920     0.2800 C.ar  1 <1>  -0.1500 
 12 C       -2.6180    -4.5350    -0.1880 C.2   1 <1>   0.5690 
 13 O       -1.5650    -5.1270    -0.1740 O.2   1 <1>  -0.5700 
 14 N       -3.8090    -5.1990    -0.2820 N.am  1 <1>  -0.6600 
 15 C       -5.1610    -4.5880    -0.2630 C.3   1 <1>   0.1400 
 16 C       -3.9010    -6.6760    -0.3600 C.3   1 <1>   0.1400 
 17 C       -6.1320    -5.7670    -0.3470 C.3   1 <1>   0.2000 
 18 C       -5.3320    -7.0020     0.0690 C.3   1 <1>  -0.0800 
 19 O       -7.2130    -5.5980     0.5020 O.3   1 <1>  -0.6800 
 20 C       -5.8950    -8.3000    -0.5360 C.3   1 <1>  -0.0170 
 21 C       -5.1110    -9.5220    -0.0850 C.ar  1 <1>   0.1670 
 22 N       -3.9930    -9.7830    -0.7430 N.ar  1 <1>  -0.6200 
 23 C       -5.5790   -10.2990     0.9730 C.ar  1 <1>   0.1600 
 24 C       -3.3800   -10.8570    -0.2760 C.ar  1 <1>   0.1600 
 25 N       -4.9680   -11.3750     1.4420 N.ar  1 <1>  -0.6200 
 26 C       -3.8510   -11.6270     0.7810 C.ar  1 <1>   0.1600 
 27 H        1.0840     2.8810     0.2420 H     1 <1>   0.1500 
 28 H       -0.6690    -2.6870    -0.9430 H     1 <1>   0.0800 
 29 H       -0.6770    -2.7840     0.7960 H     1 <1>   0.0800 
 30 H       -3.8100     2.1280     0.1970 H     1 <1>   0.1500 
 31 H       -0.4790     4.8150     0.3500 H     1 <1>   0.1500 
 32 H       -3.1430    -2.6260    -0.9490 H     1 <1>   0.0800 
 33 H       -3.1500    -2.7300     0.7900 H     1 <1>   0.0800 
 34 H       -2.9060     4.4340     0.3270 H     1 <1>   0.1500 
 35 H       -5.2950    -4.0410     0.6540 H     1 <1>   0.0800 
 36 H       -5.2860    -3.9340    -1.1090 H     1 <1>   0.0800 
 37 H       -3.7220    -6.9850    -1.3770 H     1 <1>   0.0800 
 38 H       -3.1760    -7.1470     0.2830 H     1 <1>   0.0800 
 39 H       -6.5020    -5.8610    -1.3540 H     1 <1>   0.0800 
 40 H       -5.3280    -7.0810     1.1420 H     1 <1>   0.0800 
 41 H       -6.9120    -5.5200     1.4280 H     1 <1>   0.4000 
 42 H       -5.8690    -8.2460    -1.6100 H     1 <1>   0.0800 
 43 H       -6.9250    -8.4070    -0.2440 H     1 <1>   0.0800 
 44 H       -6.4990   -10.0190     1.4550 H     1 <1>   0.1500 
 45 H       -2.4590   -11.1430    -0.7520 H     1 <1>   0.1500 
 46 H       -3.2800   -12.4840     1.0900 H     1 <1>   0.1500 
@<TRIPOS>BOND
  1   1   2  1   
  2   1   3  1   
  3   2   4  ar  
  4   2   5  ar  
  5   3   6  2   
  6   3   7  1   
  7   4   6  1   
  8   4   8  ar  
  9   5   9  ar  
 10   5  27  1   
 11   7  10  1   
 12   7  28  1   
 13   7  29  1   
 14   8  11  ar  
 15   8  30  1   
 16   9  11  ar  
 17   9  31  1   
 18  10  12  1   
 19  10  32  1   
 20  10  33  1   
 21  11  34  1   
 22  12  13  2   
 23  12  14  am  
 24  14  15  1   
 25  14  16  1   
 26  15  17  1   
 27  15  35  1   
 28  15  36  1   
 29  16  18  1   
 30  16  37  1   
 31  16  38  1   
 32  17  18  1   
 33  17  19  1   
 34  17  39  1   
 35  18  20  1   
 36  18  40  1   
 37  19  41  1   
 38  20  21  1   
 39  20  42  1   
 40  20  43  1   
 41  21  22  ar  
 42  21  23  ar  
 43  22  24  ar  
 44  23  25  ar  
 45  23  44  1   
 46  24  26  ar  
 47  24  45  1   
 48  25  26  ar  
 49  26  46  1   
@<TRIPOS>SUBSTRUCTURE
  1 ****  12 GROUP 4 **** **** 0

# MOE 2024.06 (io_trps.svl 2023.06)
