@<TRIPOS>MOLECULE
NONAME
57 59 1 0 0 
SMALL
USER_CHARGES


@<TRIPOS>ATOM
  1 O       -0.4660    -1.2310     0.3580 O.2   1 <1>  -0.5700 
  2 C        0.6660    -1.4550     0.7360 C.2   1 <1>   0.5690 
  3 N        1.2010    -0.7610     1.8020 N.am  1 <1>  -0.6600 
  4 C        1.5240    -2.5150     0.0020 C.3   1 <1>   0.1710 
  5 C        0.3750     0.1910     2.5980 C.3   1 <1>   0.0600 
  6 C        2.6110    -0.8710     2.2710 C.3   1 <1>   0.0600 
  7 N        0.7950    -3.5240    -0.8240 N.3   1 <1>  -0.8100 
  8 C        0.1630    -2.9200    -2.0190 C.3   1 <1>   0.1100 
  9 C        1.6050    -4.6910    -1.1750 C.3   1 <1>   0.1100 
 10 C       -1.2940    -3.3850    -2.1770 C.3   1 <1>   0.2090 
 11 C        0.7100    -5.9130    -1.4240 C.3   1 <1>  -0.1600 
 12 N       -1.5100    -4.8640    -1.9480 N.pl3 1 <1>  -0.8380 
 13 C       -0.3970    -5.7210    -2.4740 C.3   1 <1>   0.2090 
 14 C       -2.5680    -5.3120    -1.2370 C.ar  1 <1>   0.4610 
 15 N       -2.5280    -6.5350    -0.7160 N.ar  1 <1>  -0.1790 
 16 C       -3.7460    -4.5620    -0.9860 C.ar  1 <1>  -0.1500 
 17 C       -3.5210    -7.1230     0.0460 C.ar  1 <1>   0.3610 
 18 C       -4.7770    -5.0580    -0.2470 C.ar  1 <1>  -0.1440 
 19 C       -4.6870    -6.3770     0.2960 C.ar  1 <1>   0.0000 
 20 C       -3.3660    -8.4270     0.5560 C.ar  1 <1>  -0.1440 
 21 C       -6.0190    -4.2090    -0.0040 C.3   1 <1>  -0.0970 
 22 C       -5.6900    -6.9780     1.0660 C.ar  1 <1>  -0.1500 
 23 C       -4.3810    -8.9860     1.3130 C.ar  1 <1>  -0.1440 
 24 C       -2.0720    -9.1970     0.2600 C.3   1 <1>  -0.0970 
 25 C       -5.5390    -8.2490     1.5590 C.ar  1 <1>  -0.1500 
 26 C       -4.3110   -10.3890     1.9090 C.3   1 <1>  -0.0970 
 27 H        2.0680    -3.0460     0.7610 H     1 <1>   0.0800 
 28 H        2.2370    -2.0020    -0.6170 H     1 <1>   0.0800 
 29 H       -0.6620     0.1360     2.3140 H     1 <1>   0.0800 
 30 H        0.7210     1.1960     2.4350 H     1 <1>   0.0800 
 31 H        0.4520    -0.0450     3.6450 H     1 <1>   0.0800 
 32 H        3.2550    -1.2320     1.4900 H     1 <1>   0.0800 
 33 H        2.6600    -1.5420     3.1120 H     1 <1>   0.0800 
 34 H        2.9690     0.0970     2.5770 H     1 <1>   0.0800 
 35 H        0.7210    -3.1550    -2.9090 H     1 <1>   0.0800 
 36 H        0.1560    -1.8460    -1.9440 H     1 <1>   0.0800 
 37 H        2.2690    -4.9270    -0.3600 H     1 <1>   0.0800 
 38 H        2.2120    -4.4790    -2.0400 H     1 <1>   0.0800 
 39 H       -1.6450    -3.1170    -3.1580 H     1 <1>   0.0800 
 40 H       -1.8590    -2.8160    -1.4590 H     1 <1>   0.0800 
 41 H        0.2850    -6.2160    -0.4850 H     1 <1>   0.0800 
 42 H        1.3500    -6.7110    -1.7550 H     1 <1>   0.0800 
 43 H       -0.7910    -6.6820    -2.7590 H     1 <1>   0.0800 
 44 H        0.0150    -5.2840    -3.3690 H     1 <1>   0.0800 
 45 H       -1.6620    -7.0370    -0.8420 H     1 <1>   0.4570 
 46 H       -3.8160    -3.5780    -1.4080 H     1 <1>   0.1500 
 47 H       -5.9300    -3.2460    -0.4740 H     1 <1>   0.0800 
 48 H       -6.1590    -4.0510     1.0510 H     1 <1>   0.0800 
 49 H       -6.8890    -4.6980    -0.4050 H     1 <1>   0.0800 
 50 H       -6.5990    -6.4440     1.2810 H     1 <1>   0.1500 
 51 H       -1.9450    -9.3210    -0.8010 H     1 <1>   0.0800 
 52 H       -2.0650   -10.1790     0.6930 H     1 <1>   0.0800 
 53 H       -1.2240    -8.6710     0.6630 H     1 <1>   0.0800 
 54 H       -6.3320    -8.6800     2.1480 H     1 <1>   0.1500 
 55 H       -3.4770   -10.4660     2.5820 H     1 <1>   0.0800 
 56 H       -4.2060   -11.1200     1.1280 H     1 <1>   0.0800 
 57 H       -5.2030   -10.6240     2.4620 H     1 <1>   0.0800 
@<TRIPOS>BOND
  1   1   2  2   
  2   2   3  am  
  3   2   4  1   
  4   3   5  1   
  5   3   6  1   
  6   4   7  1   
  7   4  27  1   
  8   4  28  1   
  9   5  29  1   
 10   5  30  1   
 11   5  31  1   
 12   6  32  1   
 13   6  33  1   
 14   6  34  1   
 15   7   8  1   
 16   7   9  1   
 17   8  10  1   
 18   8  35  1   
 19   8  36  1   
 20   9  11  1   
 21   9  37  1   
 22   9  38  1   
 23  10  12  1   
 24  10  39  1   
 25  10  40  1   
 26  11  13  1   
 27  11  41  1   
 28  11  42  1   
 29  12  13  1   
 30  12  14  1   
 31  13  43  1   
 32  13  44  1   
 33  14  15  ar  
 34  14  16  ar  
 35  15  17  ar  
 36  15  45  1   
 37  16  18  ar  
 38  16  46  1   
 39  17  19  ar  
 40  17  20  ar  
 41  18  19  ar  
 42  18  21  1   
 43  19  22  ar  
 44  20  23  ar  
 45  20  24  1   
 46  21  47  1   
 47  21  48  1   
 48  21  49  1   
 49  22  25  ar  
 50  22  50  1   
 51  23  25  ar  
 52  23  26  1   
 53  24  51  1   
 54  24  52  1   
 55  24  53  1   
 56  25  54  1   
 57  26  55  1   
 58  26  56  1   
 59  26  57  1   
@<TRIPOS>SUBSTRUCTURE
  1 ****  14 GROUP 4 **** **** 0

# MOE 2024.06 (io_trps.svl 2023.06)
