@<TRIPOS>MOLECULE
NONAME
49 52 1 0 0 
SMALL
USER_CHARGES


@<TRIPOS>ATOM
  1 O        2.5270    -0.6300     0.9380 O.3   1 <1>  -0.5600 
  2 C        2.6200    -1.1890    -0.3560 C.3   1 <1>   0.4240 
  3 C        1.2930    -0.7190     1.5910 C.3   1 <1>   0.1200 
  4 C        1.7980    -2.4850    -0.4950 C.ar  1 <1>  -0.1440 
  5 C        4.1200    -1.4670    -0.5600 C.3   1 <1>  -0.1600 
  6 C        2.1720    -0.1140    -1.3580 C.3   1 <1>  -0.1600 
  7 C        0.9830    -2.1870     1.8620 C.3   1 <1>  -0.0160 
  8 C        1.0290    -2.9630     0.5610 C.ar  1 <1>  -0.1440 
  9 C        1.8030    -3.2030    -1.6870 C.ar  1 <1>  -0.1500 
 10 C        4.9610    -0.2100    -0.8200 C.3   1 <1>   0.3430 
 11 C        2.9610     1.1960    -1.2250 C.3   1 <1>   0.3430 
 12 C        0.2990    -4.1340     0.4340 C.ar  1 <1>  -0.1500 
 13 C        1.0730    -4.3690    -1.8160 C.ar  1 <1>  -0.1500 
 14 N        4.2030     1.0000    -0.4150 N.4   1 <1>  -0.9590 
 15 C        0.3190    -4.8460    -0.7590 C.ar  1 <1>   0.0820 
 16 C        5.0370     2.2260    -0.2850 C.3   1 <1>   0.4860 
 17 O       -0.3650    -5.9990    -0.9670 O.3   1 <1>  -0.3620 
 18 C        4.1890     3.3440     0.2850 C.ar  1 <1>  -0.1440 
 19 C       -1.1480    -6.5830     0.0500 C.3   1 <1>   0.0400 
 20 C        3.7620     3.2920     1.6040 C.ar  1 <1>   0.1600 
 21 C        3.8180     4.4240    -0.4940 C.ar  1 <1>  -0.1500 
 22 N        2.9970     4.1980     2.1830 N.ar  1 <1>  -0.6200 
 23 C        3.0290     5.3830     0.1030 C.ar  1 <1>  -0.1500 
 24 C        2.6500     5.2250     1.4250 C.ar  1 <1>   0.1600 
 25 H        0.5310    -0.2720     0.9760 H     1 <1>   0.0800 
 26 H        1.3630    -0.1740     2.5170 H     1 <1>   0.0800 
 27 H        4.2660    -2.1260    -1.3950 H     1 <1>   0.0800 
 28 H        4.4960    -1.9880     0.3030 H     1 <1>   0.0800 
 29 H        1.1210     0.0810    -1.2480 H     1 <1>   0.0800 
 30 H        2.3060    -0.4860    -2.3570 H     1 <1>   0.0800 
 31 H        0.0080    -2.2650     2.3080 H     1 <1>   0.0800 
 32 H        1.7030    -2.5890     2.5530 H     1 <1>   0.0800 
 33 H        2.3730    -2.8700    -2.5350 H     1 <1>   0.1500 
 34 H        5.2020    -0.1470    -1.8690 H     1 <1>   0.0800 
 35 H        5.8820    -0.2800    -0.2640 H     1 <1>   0.0800 
 36 H        2.3350     1.9270    -0.7370 H     1 <1>   0.0800 
 37 H        3.2070     1.5700    -2.2060 H     1 <1>   0.0800 
 38 H       -0.2800    -4.4810     1.2680 H     1 <1>   0.1500 
 39 H        1.0810    -4.9230    -2.7380 H     1 <1>   0.1500 
 40 H        3.8310     0.7640     0.5260 H     1 <1>   0.4500 
 41 H        5.4220     2.5150    -1.2490 H     1 <1>   0.0800 
 42 H        5.8700     2.0380     0.3730 H     1 <1>   0.0800 
 43 H       -1.5820    -7.4860    -0.3410 H     1 <1>   0.0800 
 44 H       -1.9250    -5.8950     0.3300 H     1 <1>   0.0800 
 45 H       -0.5150    -6.8150     0.8880 H     1 <1>   0.0800 
 46 H        4.0560     2.4620     2.2260 H     1 <1>   0.1500 
 47 H        4.1230     4.5320    -1.5220 H     1 <1>   0.1500 
 48 H        2.7070     6.2510    -0.4450 H     1 <1>   0.1500 
 49 H        2.0320     5.9810     1.8820 H     1 <1>   0.1500 
@<TRIPOS>BOND
  1   1   2  1   
  2   1   3  1   
  3   2   4  1   
  4   2   5  1   
  5   2   6  1   
  6   3   7  1   
  7   3  25  1   
  8   3  26  1   
  9   4   8  ar  
 10   4   9  ar  
 11   5  10  1   
 12   5  27  1   
 13   5  28  1   
 14   6  11  1   
 15   6  29  1   
 16   6  30  1   
 17   7   8  1   
 18   7  31  1   
 19   7  32  1   
 20   8  12  ar  
 21   9  13  ar  
 22   9  33  1   
 23  10  14  1   
 24  10  34  1   
 25  10  35  1   
 26  11  14  1   
 27  11  36  1   
 28  11  37  1   
 29  12  15  ar  
 30  12  38  1   
 31  13  15  ar  
 32  13  39  1   
 33  14  16  1   
 34  14  40  1   
 35  15  17  1   
 36  16  18  1   
 37  16  41  1   
 38  16  42  1   
 39  17  19  1   
 40  18  20  ar  
 41  18  21  ar  
 42  19  43  1   
 43  19  44  1   
 44  19  45  1   
 45  20  22  ar  
 46  20  46  1   
 47  21  23  ar  
 48  21  47  1   
 49  22  24  ar  
 50  23  24  ar  
 51  23  48  1   
 52  24  49  1   
@<TRIPOS>SUBSTRUCTURE
  1 ****   2 GROUP 4 **** **** 0

# MOE 2024.06 (io_trps.svl 2023.06)
