@<TRIPOS>MOLECULE
NONAME
35 36 1 0 0 
SMALL
USER_CHARGES


@<TRIPOS>ATOM
  1 F       -0.8530     0.1100     0.7310 F     1 <1>  -0.1900 
  2 C       -1.8070     0.7230     0.0840 C.ar  1 <1>   0.1900 
  3 C       -2.7440    -0.0160    -0.6530 C.ar  1 <1>   0.3960 
  4 C       -1.8500     2.0960     0.1810 C.ar  1 <1>  -0.1500 
  5 N       -3.7620     0.6030    -1.2940 N.ar  1 <1>  -0.6200 
  6 C       -2.6120    -1.4660    -0.7220 C.2   1 <1>   0.5440 
  7 C       -2.8910     2.6840    -0.4960 C.ar  1 <1>   0.1900 
  8 C       -3.8090     1.9250    -1.2060 C.ar  1 <1>   0.1600 
  9 O       -1.6480    -1.9430    -1.2980 O.2   1 <1>  -0.5700 
 10 N       -3.5230    -2.3340    -0.1380 N.am  1 <1>  -0.6600 
 11 F       -3.0170     3.9810    -0.4660 F     1 <1>  -0.1900 
 12 C       -3.3280    -3.8120    -0.2520 C.3   1 <1>   0.3200 
 13 C       -4.5940    -1.8540     0.7920 C.3   1 <1>   0.1400 
 14 C       -4.6420    -4.5280    -0.4990 C.2   1 <1>  -0.3320 
 15 C       -5.9230    -1.6160     0.0640 C.3   1 <1>   0.1200 
 16 N       -5.4560    -4.9990     0.4660 N.pl3 1 <1>   0.0330 
 17 C       -5.2380    -4.8270    -1.6730 C.2   1 <1>   0.0770 
 18 O       -6.8850    -1.2860     1.0090 O.3   1 <1>  -0.6800 
 19 C       -6.5030    -5.5450    -0.1880 C.2   1 <1>   0.0070 
 20 N       -6.4080    -5.4620    -1.4740 N.2   1 <1>  -0.5650 
 21 C       -7.6710    -6.1870     0.5280 C.3   1 <1>  -0.0600 
 22 H       -1.1290     2.6630     0.7410 H     1 <1>   0.1500 
 23 H       -4.6090     2.4350    -1.7170 H     1 <1>   0.1500 
 24 H       -2.8630    -4.1810     0.6450 H     1 <1>   0.0800 
 25 H       -2.6700    -4.0370    -1.0740 H     1 <1>   0.0800 
 26 H       -4.2870    -0.9350     1.2580 H     1 <1>   0.0800 
 27 H       -4.7400    -2.5800     1.5700 H     1 <1>   0.0800 
 28 H       -6.2550    -2.4980    -0.4530 H     1 <1>   0.0800 
 29 H       -5.8410    -0.8010    -0.6330 H     1 <1>   0.0800 
 30 H       -5.3280    -4.9510     1.4800 H     1 <1>   0.2700 
 31 H       -4.8830    -4.6090    -2.6670 H     1 <1>   0.1500 
 32 H       -7.7500    -1.1500     0.5730 H     1 <1>   0.4000 
 33 H       -8.1510    -5.4700     1.1680 H     1 <1>   0.0800 
 34 H       -7.3320    -7.0220     1.1140 H     1 <1>   0.0800 
 35 H       -8.3870    -6.5400    -0.1930 H     1 <1>   0.0800 
@<TRIPOS>BOND
  1   1   2  1   
  2   2   3  ar  
  3   2   4  ar  
  4   3   5  ar  
  5   3   6  1   
  6   4   7  ar  
  7   4  22  1   
  8   5   8  ar  
  9   6   9  2   
 10   6  10  am  
 11   7   8  ar  
 12   7  11  1   
 13   8  23  1   
 14  10  12  1   
 15  10  13  1   
 16  12  14  1   
 17  12  24  1   
 18  12  25  1   
 19  13  15  1   
 20  13  26  1   
 21  13  27  1   
 22  14  16  1   
 23  14  17  2   
 24  15  18  1   
 25  15  28  1   
 26  15  29  1   
 27  16  19  1   
 28  16  30  1   
 29  17  20  1   
 30  17  31  1   
 31  18  32  1   
 32  19  20  2   
 33  19  21  1   
 34  21  33  1   
 35  21  34  1   
 36  21  35  1   
@<TRIPOS>SUBSTRUCTURE
  1 ****  10 GROUP 4 **** **** 0

# MOE 2024.06 (io_trps.svl 2023.06)
