@<TRIPOS>MOLECULE
NONAME
40 42 1 0 0 
SMALL
USER_CHARGES


@<TRIPOS>ATOM
  1 O       -0.0590     0.4140    -0.1210 O.2   1 <1>  -0.5700 
  2 C       -0.0990     1.6300    -0.1170 C.2   1 <1>   0.5440 
  3 N       -1.3240     2.2570    -0.1880 N.am  1 <1>  -0.6600 
  4 C        1.1410     2.3760    -0.0250 C.ar  1 <1>   0.0860 
  5 C       -2.5450     1.4740    -0.5460 C.3   1 <1>   0.1400 
  6 C       -1.5300     3.6710     0.2490 C.3   1 <1>   0.1400 
  7 C        2.1210     2.0600     0.9040 C.ar  1 <1>  -0.1500 
  8 C        1.4470     3.4450    -0.8560 C.ar  1 <1>  -0.1500 
  9 C       -3.6160     2.3910    -1.1400 C.3   1 <1>  -0.1600 
 10 C       -2.9230     3.8330     0.8530 C.3   1 <1>  -0.1600 
 11 C        3.2850     2.8010     0.9720 C.ar  1 <1>   0.1600 
 12 C        2.6410     4.1240    -0.7090 C.ar  1 <1>   0.1600 
 13 C       -4.0100     3.5430    -0.1960 C.3   1 <1>   0.4180 
 14 N        3.5650     3.8310     0.1910 N.ar  1 <1>  -0.6200 
 15 O       -4.1440     4.6710    -1.0250 O.3   1 <1>  -0.5600 
 16 C       -5.3360     3.2180     0.4910 C.2   1 <1>  -0.2880 
 17 C       -4.9520     5.7260    -0.5780 C.3   1 <1>   0.1200 
 18 C       -6.4340     3.9720     0.4030 C.2   1 <1>  -0.2760 
 19 C       -6.4020     5.2620    -0.3920 C.3   1 <1>  -0.0220 
 20 C       -7.7670     3.6330     1.0470 C.3   1 <1>  -0.1020 
 21 H       -2.9200     0.9870     0.3380 H     1 <1>   0.0800 
 22 H       -2.2860     0.7110    -1.2630 H     1 <1>   0.0800 
 23 H       -1.4290     4.3260    -0.6000 H     1 <1>   0.0800 
 24 H       -0.7890     3.9400     0.9830 H     1 <1>   0.0800 
 25 H        1.9660     1.2310     1.5710 H     1 <1>   0.1500 
 26 H        0.7520     3.7400    -1.6200 H     1 <1>   0.1500 
 27 H       -4.4840     1.8080    -1.3840 H     1 <1>   0.0800 
 28 H       -3.2280     2.7890    -2.0600 H     1 <1>   0.0800 
 29 H       -3.0400     4.8200     1.2560 H     1 <1>   0.0800 
 30 H       -3.0150     3.1450     1.6730 H     1 <1>   0.0800 
 31 H        4.0270     2.5330     1.7060 H     1 <1>   0.1500 
 32 H        2.8520     4.9510    -1.3660 H     1 <1>   0.1500 
 33 H       -5.2990     2.3000     1.0500 H     1 <1>   0.1500 
 34 H       -4.9020     6.5110    -1.3120 H     1 <1>   0.0800 
 35 H       -4.5560     6.0960     0.3510 H     1 <1>   0.0800 
 36 H       -6.8630     5.1120    -1.3520 H     1 <1>   0.0800 
 37 H       -6.9430     6.0340     0.1250 H     1 <1>   0.0800 
 38 H       -8.0500     4.4000     1.7450 H     1 <1>   0.0800 
 39 H       -7.7030     2.6980     1.5750 H     1 <1>   0.0800 
 40 H       -8.5290     3.5480     0.2930 H     1 <1>   0.0800 
@<TRIPOS>BOND
  1   1   2  2   
  2   2   3  am  
  3   2   4  1   
  4   3   5  1   
  5   3   6  1   
  6   4   7  ar  
  7   4   8  ar  
  8   5   9  1   
  9   5  21  1   
 10   5  22  1   
 11   6  10  1   
 12   6  23  1   
 13   6  24  1   
 14   7  11  ar  
 15   7  25  1   
 16   8  12  ar  
 17   8  26  1   
 18   9  13  1   
 19   9  27  1   
 20   9  28  1   
 21  10  13  1   
 22  10  29  1   
 23  10  30  1   
 24  11  14  ar  
 25  11  31  1   
 26  12  14  ar  
 27  12  32  1   
 28  13  15  1   
 29  13  16  1   
 30  15  17  1   
 31  16  18  2   
 32  16  33  1   
 33  17  19  1   
 34  17  34  1   
 35  17  35  1   
 36  18  19  1   
 37  18  20  1   
 38  19  36  1   
 39  19  37  1   
 40  20  38  1   
 41  20  39  1   
 42  20  40  1   
@<TRIPOS>SUBSTRUCTURE
  1 ****   6 GROUP 4 **** **** 0

# MOE 2024.06 (io_trps.svl 2023.06)
