@<TRIPOS>MOLECULE
NONAME
45 47 1 0 0 
SMALL
USER_CHARGES


@<TRIPOS>ATOM
  1 O       -3.0580     1.5150    -1.9610 O.2   1 <1>  -0.5700 
  2 C       -2.4830     1.4420    -0.9030 C.2   1 <1>   0.5690 
  3 N       -2.2330     0.2560    -0.3010 N.am  1 <1>  -0.7300 
  4 C       -2.0230     2.7130    -0.2360 C.3   1 <1>  -0.0990 
  5 C       -2.6090    -1.0660    -0.8500 C.3   1 <1>   0.2200 
  6 C       -0.9930     3.4200    -1.1210 C.3   1 <1>   0.0960 
  7 C       -3.7860    -1.6170    -0.0650 C.3   1 <1>  -0.0800 
  8 C       -1.5180    -2.0820    -0.5310 C.3   1 <1>   0.1200 
  9 N       -0.4810     4.6230    -0.4460 N.pl3 1 <1>   0.3140 
 10 C       -3.0940    -2.2580     1.1440 C.3   1 <1>   0.1200 
 11 C       -4.5860    -2.6420    -0.8910 C.3   1 <1>  -0.0170 
 12 O       -1.7770    -2.5360     0.7650 O.3   1 <1>  -0.5600 
 13 N        0.3400     4.5400     0.6160 N.2   1 <1>  -0.7070 
 14 C       -0.7490     5.9060    -0.7580 C.2   1 <1>  -0.3020 
 15 C       -5.7800    -3.1760    -0.1140 C.ar  1 <1>  -0.1440 
 16 C        0.5760     5.7690     0.9520 C.2   1 <1>   0.1080 
 17 C       -0.0800     6.6740     0.1260 C.2   1 <1>  -0.1500 
 18 C       -5.7870    -4.4390     0.4440 C.ar  1 <1>  -0.1500 
 19 C       -6.9210    -2.4220     0.0720 C.ar  1 <1>  -0.1500 
 20 C        1.4690     6.1330     2.1140 C.3   1 <1>  -0.0590 
 21 C       -6.9010    -4.8710     1.1450 C.ar  1 <1>   0.1600 
 22 C       -7.9810    -2.9490     0.7900 C.ar  1 <1>   0.1600 
 23 N       -7.9980    -4.1560     1.3330 N.ar  1 <1>  -0.6200 
 24 H       -1.7490     0.2160     0.6000 H     1 <1>   0.3700 
 25 H       -2.8750     3.3510    -0.0880 H     1 <1>   0.0800 
 26 H       -1.5870     2.4860     0.7190 H     1 <1>   0.0800 
 27 H       -2.8000    -0.9920    -1.9080 H     1 <1>   0.0800 
 28 H       -1.4360     3.7040    -2.0580 H     1 <1>   0.0800 
 29 H       -0.1620     2.7670    -1.3150 H     1 <1>   0.0800 
 30 H       -4.4510    -0.8290     0.2440 H     1 <1>   0.0800 
 31 H       -0.5300    -1.6590    -0.5770 H     1 <1>   0.0800 
 32 H       -1.5820    -2.9290    -1.1910 H     1 <1>   0.0800 
 33 H       -3.5640    -3.1690     1.4690 H     1 <1>   0.0800 
 34 H       -3.0540    -1.5660     1.9680 H     1 <1>   0.0800 
 35 H       -3.9540    -3.4610    -1.1870 H     1 <1>   0.0800 
 36 H       -4.9470    -2.1710    -1.7900 H     1 <1>   0.0800 
 37 H       -1.3870     6.1950    -1.5730 H     1 <1>   0.1500 
 38 H       -0.0450     7.7460     0.2000 H     1 <1>   0.1500 
 39 H       -4.9390    -5.0910     0.3420 H     1 <1>   0.1500 
 40 H       -6.9960    -1.4300    -0.3360 H     1 <1>   0.1500 
 41 H        1.5220     7.2000     2.2280 H     1 <1>   0.0800 
 42 H        2.4560     5.7460     1.9410 H     1 <1>   0.0800 
 43 H        1.0770     5.7000     3.0160 H     1 <1>   0.0800 
 44 H       -6.8880    -5.8590     1.5740 H     1 <1>   0.1500 
 45 H       -8.8630    -2.3460     0.9250 H     1 <1>   0.1500 
@<TRIPOS>BOND
  1   1   2  2   
  2   2   3  am  
  3   2   4  1   
  4   3   5  1   
  5   3  24  1   
  6   4   6  1   
  7   4  25  1   
  8   4  26  1   
  9   5   7  1   
 10   5   8  1   
 11   5  27  1   
 12   6   9  1   
 13   6  28  1   
 14   6  29  1   
 15   7  10  1   
 16   7  11  1   
 17   7  30  1   
 18   8  12  1   
 19   8  31  1   
 20   8  32  1   
 21   9  13  1   
 22   9  14  1   
 23  10  12  1   
 24  10  33  1   
 25  10  34  1   
 26  11  15  1   
 27  11  35  1   
 28  11  36  1   
 29  13  16  2   
 30  14  17  2   
 31  14  37  1   
 32  15  18  ar  
 33  15  19  ar  
 34  16  17  1   
 35  16  20  1   
 36  17  38  1   
 37  18  21  ar  
 38  18  39  1   
 39  19  22  ar  
 40  19  40  1   
 41  20  41  1   
 42  20  42  1   
 43  20  43  1   
 44  21  23  ar  
 45  21  44  1   
 46  22  23  ar  
 47  22  45  1   
@<TRIPOS>SUBSTRUCTURE
  1 ****   3 GROUP 4 **** **** 0

# MOE 2024.06 (io_trps.svl 2023.06)
