@<TRIPOS>MOLECULE
NONAME
50 52 1 0 0 
SMALL
USER_CHARGES


@<TRIPOS>ATOM
  1 O        0.2920     0.2790     0.1800 O.3   1 <1>  -0.5600 
  2 C        0.2770     1.5690     0.7280 C.3   1 <1>   0.2950 
  3 C        1.4810    -0.4280     0.3960 C.3   1 <1>   0.2000 
  4 C       -1.1400     2.1300     0.5080 C.3   1 <1>  -0.1950 
  5 C        1.4170     2.4220     0.1230 C.3   1 <1>   0.2090 
  6 C        2.6790     0.3200    -0.2350 C.3   1 <1>   0.2090 
  7 C        1.2680    -1.8300    -0.1900 C.3   1 <1>  -0.1600 
  8 C       -1.6160     2.6960    -0.7950 C.3   1 <1>  -0.2000 
  9 C       -1.4440     3.5940     0.3990 C.3   1 <1>  -0.2000 
 10 N        2.7450     1.7360     0.2370 N.pl3 1 <1>  -0.8380 
 11 C        2.4320    -2.7920     0.1010 C.3   1 <1>  -0.1600 
 12 C        3.9030     2.4650     0.0450 C.ar  1 <1>   0.4100 
 13 C        2.1230    -4.2000    -0.4200 C.3   1 <1>  -0.1600 
 14 N        3.8060     3.6210    -0.5760 N.ar  1 <1>  -0.6200 
 15 C        5.1190     2.0020     0.4910 C.ar  1 <1>  -0.1500 
 16 C        3.2810    -5.1600    -0.1350 C.3   1 <1>  -0.2400 
 17 C        4.9340     4.2820    -0.7490 C.ar  1 <1>   0.7030 
 18 C        6.2230     2.7720     0.2530 C.ar  1 <1>   0.3930 
 19 O        4.7890     5.4570    -1.3900 O.3   1 <1>  -0.3630 
 20 N        6.1580     3.9300    -0.3750 N.ar  1 <1>  -0.6200 
 21 O        7.4180     2.3190     0.6840 O.3   1 <1>  -0.3630 
 22 C        5.8870     6.3050    -1.6620 C.3   1 <1>   0.0400 
 23 C        8.6000     3.0680     0.4810 C.3   1 <1>   0.0400 
 24 H        0.4460     1.4810     1.7870 H     1 <1>   0.0800 
 25 H        1.6300    -0.5080     1.4590 H     1 <1>   0.0800 
 26 H       -1.8550     1.5430     1.0580 H     1 <1>   0.1000 
 27 H        1.4620     3.3660     0.6360 H     1 <1>   0.0800 
 28 H        1.2130     2.6170    -0.9140 H     1 <1>   0.0800 
 29 H        2.5780     0.3110    -1.3060 H     1 <1>   0.0800 
 30 H        3.5900    -0.1900     0.0180 H     1 <1>   0.0800 
 31 H        0.3690    -2.2370     0.2380 H     1 <1>   0.0800 
 32 H        1.1250    -1.7500    -1.2540 H     1 <1>   0.0800 
 33 H       -0.9290     2.7810    -1.6180 H     1 <1>   0.1000 
 34 H       -2.6110     2.4460    -1.1220 H     1 <1>   0.1000 
 35 H       -2.3260     3.9740     0.8870 H     1 <1>   0.1000 
 36 H       -0.6540     4.3240     0.3670 H     1 <1>   0.1000 
 37 H        3.3320    -2.4370    -0.3710 H     1 <1>   0.0800 
 38 H        2.6030    -2.8370     1.1640 H     1 <1>   0.0800 
 39 H        1.2300    -4.5740     0.0510 H     1 <1>   0.0800 
 40 H        1.9480    -4.1630    -1.4820 H     1 <1>   0.0800 
 41 H        5.2030     1.0740     1.0150 H     1 <1>   0.1500 
 42 H        3.4590    -5.2320     0.9240 H     1 <1>   0.0800 
 43 H        4.1810    -4.8200    -0.6170 H     1 <1>   0.0800 
 44 H        3.0450    -6.1420    -0.5070 H     1 <1>   0.0800 
 45 H        5.5210     7.1750    -2.1760 H     1 <1>   0.0800 
 46 H        6.5890     5.7760    -2.2830 H     1 <1>   0.0800 
 47 H        6.3460     6.5900    -0.7320 H     1 <1>   0.0800 
 48 H        9.4240     2.5220     0.9030 H     1 <1>   0.0800 
 49 H        8.4970     4.0200     0.9710 H     1 <1>   0.0800 
 50 H        8.7480     3.2030    -0.5760 H     1 <1>   0.0800 
@<TRIPOS>BOND
  1   1   2  1   
  2   1   3  1   
  3   2   4  1   
  4   2   5  1   
  5   2  24  1   
  6   3   6  1   
  7   3   7  1   
  8   3  25  1   
  9   4   8  1   
 10   4   9  1   
 11   4  26  1   
 12   5  10  1   
 13   5  27  1   
 14   5  28  1   
 15   6  10  1   
 16   6  29  1   
 17   6  30  1   
 18   7  11  1   
 19   7  31  1   
 20   7  32  1   
 21   8   9  1   
 22   8  33  1   
 23   8  34  1   
 24   9  35  1   
 25   9  36  1   
 26  10  12  1   
 27  11  13  1   
 28  11  37  1   
 29  11  38  1   
 30  12  14  ar  
 31  12  15  ar  
 32  13  16  1   
 33  13  39  1   
 34  13  40  1   
 35  14  17  ar  
 36  15  18  ar  
 37  15  41  1   
 38  16  42  1   
 39  16  43  1   
 40  16  44  1   
 41  17  19  1   
 42  17  20  ar  
 43  18  20  ar  
 44  18  21  1   
 45  19  22  1   
 46  21  23  1   
 47  22  45  1   
 48  22  46  1   
 49  22  47  1   
 50  23  48  1   
 51  23  49  1   
 52  23  50  1   
@<TRIPOS>SUBSTRUCTURE
  1 ****  10 GROUP 4 **** **** 0

# MOE 2024.06 (io_trps.svl 2023.06)
