@<TRIPOS>MOLECULE
NONAME
52 55 1 0 0 
SMALL
USER_CHARGES


@<TRIPOS>ATOM
  1 S       -0.4950     1.6360     1.5190 S.3   1 <1>  -0.0800 
  2 C       -1.5900     1.2600     0.1880 C.2   1 <1>   0.3250 
  3 C       -1.3540     3.1160     1.8230 C.2   1 <1>  -0.1400 
  4 N       -2.4570     2.1990     0.0120 N.2   1 <1>  -0.5650 
  5 C       -1.3990     0.0660    -0.6060 C.ar  1 <1>   0.0530 
  6 C       -2.3630     3.2050     0.9470 C.2   1 <1>   0.0770 
  7 C       -0.8500     4.0220     2.9230 C.3   1 <1>   0.3890 
  8 C       -0.9930    -1.1760    -0.0870 C.ar  1 <1>   0.0830 
  9 C       -1.6390     0.1420    -1.9800 C.ar  1 <1>  -0.1500 
 10 N        0.3230     4.8190     2.4620 N.pl3 1 <1>  -0.8690 
 11 O       -0.8200    -1.2890     1.2530 O.3   1 <1>  -0.3630 
 12 C       -0.7970    -2.2630    -0.9380 C.ar  1 <1>  -0.1500 
 13 C       -1.4510    -0.9400    -2.8170 C.ar  1 <1>  -0.1500 
 14 C        0.9620     4.9980     1.2960 C.ar  1 <1>   0.7710 
 15 C       -0.5430    -2.5190     1.8900 C.3   1 <1>   0.0400 
 16 C       -1.0220    -2.1450    -2.2960 C.ar  1 <1>  -0.1500 
 17 N        1.9720     5.8410     1.3400 N.ar  1 <1>  -0.6200 
 18 N        0.5960     4.3660     0.1640 N.ar  1 <1>  -0.1790 
 19 C        2.6590     6.0540     0.2310 C.ar  1 <1>   0.4100 
 20 C        1.2560     4.5690    -0.9990 C.ar  1 <1>   0.2110 
 21 N        3.7200     6.9000     0.2980 N.pl3 1 <1>  -0.8380 
 22 C        2.3030     5.4260    -0.9800 C.ar  1 <1>  -0.1500 
 23 C        4.9510     6.7940    -0.5540 C.3   1 <1>   0.2090 
 24 C        3.8140     7.9990     1.3100 C.3   1 <1>   0.2090 
 25 C        5.2070     8.1190    -1.2900 C.3   1 <1>   0.2000 
 26 C        4.0540     9.3350     0.5940 C.3   1 <1>  -0.1600 
 27 O        6.3980     8.0420    -1.9900 O.3   1 <1>  -0.6800 
 28 C        5.2940     9.3000    -0.3160 C.3   1 <1>  -0.1600 
 29 H       -3.0920     4.0010     0.8970 H     1 <1>   0.1500 
 30 H       -0.5730     3.4290     3.7800 H     1 <1>   0.0800 
 31 H       -1.6360     4.6960     3.2220 H     1 <1>   0.0800 
 32 H       -1.9840     1.0700    -2.4020 H     1 <1>   0.1500 
 33 H        0.7460     5.3650     3.2200 H     1 <1>   0.4000 
 34 H       -0.4730    -3.2150    -0.5640 H     1 <1>   0.1500 
 35 H       -1.6410    -0.8500    -3.8730 H     1 <1>   0.1500 
 36 H       -0.5070    -2.3450     2.9500 H     1 <1>   0.0800 
 37 H        0.4090    -2.8840     1.5480 H     1 <1>   0.0800 
 38 H       -1.3300    -3.2160     1.6620 H     1 <1>   0.0800 
 39 H       -0.8710    -2.9900    -2.9460 H     1 <1>   0.1500 
 40 H       -0.1880     3.7170     0.2430 H     1 <1>   0.4570 
 41 H        0.9310     4.0520    -1.8880 H     1 <1>   0.1500 
 42 H        2.8560     5.6460    -1.8730 H     1 <1>   0.1500 
 43 H        4.8680     5.9950    -1.2660 H     1 <1>   0.0800 
 44 H        5.7880     6.5790     0.0880 H     1 <1>   0.0800 
 45 H        4.6250     7.7900     1.9860 H     1 <1>   0.0800 
 46 H        2.9080     8.0700     1.8880 H     1 <1>   0.0800 
 47 H        4.4220     8.2820    -2.0080 H     1 <1>   0.0800 
 48 H        4.1710    10.1120     1.3300 H     1 <1>   0.0800 
 49 H        3.1820     9.5720     0.0090 H     1 <1>   0.0800 
 50 H        7.1580     8.1280    -1.3830 H     1 <1>   0.4000 
 51 H        5.3590    10.2200    -0.8700 H     1 <1>   0.0800 
 52 H        6.1700     9.2010     0.2990 H     1 <1>   0.0800 
@<TRIPOS>BOND
  1   1   2  1   
  2   1   3  1   
  3   2   4  2   
  4   2   5  1   
  5   3   6  2   
  6   3   7  1   
  7   4   6  1   
  8   5   8  ar  
  9   5   9  ar  
 10   6  29  1   
 11   7  10  1   
 12   7  30  1   
 13   7  31  1   
 14   8  11  1   
 15   8  12  ar  
 16   9  13  ar  
 17   9  32  1   
 18  10  14  1   
 19  10  33  1   
 20  11  15  1   
 21  12  16  ar  
 22  12  34  1   
 23  13  16  ar  
 24  13  35  1   
 25  14  17  ar  
 26  14  18  ar  
 27  15  36  1   
 28  15  37  1   
 29  15  38  1   
 30  16  39  1   
 31  17  19  ar  
 32  18  20  ar  
 33  18  40  1   
 34  19  21  1   
 35  19  22  ar  
 36  20  22  ar  
 37  20  41  1   
 38  21  23  1   
 39  21  24  1   
 40  22  42  1   
 41  23  25  1   
 42  23  43  1   
 43  23  44  1   
 44  24  26  1   
 45  24  45  1   
 46  24  46  1   
 47  25  27  1   
 48  25  28  1   
 49  25  47  1   
 50  26  28  1   
 51  26  48  1   
 52  26  49  1   
 53  27  50  1   
 54  28  51  1   
 55  28  52  1   
@<TRIPOS>SUBSTRUCTURE
  1 ****  18 GROUP 4 **** **** 0

# MOE 2024.06 (io_trps.svl 2023.06)
