@<TRIPOS>MOLECULE
NONAME
54 57 1 0 0 
SMALL
USER_CHARGES


@<TRIPOS>ATOM
  1 O       -2.3070     0.2380     2.3870 O.2   1 <1>  -0.5700 
  2 C       -2.0250     0.7110     1.3010 C.2   1 <1>   0.7160 
  3 N       -2.3750     0.0240     0.1640 N.am  1 <1>  -0.6600 
  4 C       -1.3900     2.0050     1.2280 C.2   1 <1>  -0.0860 
  5 C       -2.5140    -1.4690     0.2420 C.3   1 <1>   0.3640 
  6 C       -3.1320     0.7420    -0.8980 C.3   1 <1>   0.1400 
  7 C       -0.4570     2.5450     0.3860 C.2   1 <1>  -0.3320 
  8 C       -1.6420     3.0400     2.1310 C.2   1 <1>   0.1390 
  9 C       -1.1260    -2.0530     0.5360 C.ar  1 <1>  -0.1440 
 10 C       -3.1030    -2.1600    -1.0280 C.3   1 <1>   0.2000 
 11 C       -3.2980    -0.1100    -2.1550 C.3   1 <1>   0.1200 
 12 N       -0.2270     3.8020     0.8040 N.pl3 1 <1>   0.3000 
 13 C        0.2680     1.9060    -0.7900 C.3   1 <1>   0.1000 
 14 N       -0.9660     4.1160     1.8790 N.2   1 <1>  -0.7070 
 15 C       -0.9000    -2.7290     1.7250 C.ar  1 <1>  -0.1500 
 16 C       -0.0790    -1.9150    -0.3670 C.ar  1 <1>  -0.1500 
 17 O       -3.9050    -1.3120    -1.8080 O.3   1 <1>  -0.5600 
 18 C       -3.9690    -3.3840    -0.6860 C.3   1 <1>   0.1200 
 19 C        1.7390     1.6520    -0.4360 C.3   1 <1>  -0.1600 
 20 C        0.1440     2.7630    -2.0590 C.3   1 <1>  -0.1600 
 21 C        0.3440    -3.2670     2.0050 C.ar  1 <1>  -0.1500 
 22 C        1.1660    -2.4520    -0.0900 C.ar  1 <1>  -0.1500 
 23 O       -3.3110    -4.2640     0.1690 O.3   1 <1>  -0.6800 
 24 C        2.4960     1.0180    -1.6130 C.3   1 <1>  -0.1600 
 25 C        0.8910     2.1220    -3.2370 C.3   1 <1>  -0.1600 
 26 C        1.3780    -3.1300     1.0970 C.ar  1 <1>  -0.1500 
 27 C        2.3630     1.8690    -2.8840 C.3   1 <1>  -0.1600 
 28 H       -3.1680    -1.6960     1.0680 H     1 <1>   0.0800 
 29 H       -4.1080     0.9960    -0.5200 H     1 <1>   0.0800 
 30 H       -2.6290     1.6570    -1.1530 H     1 <1>   0.0800 
 31 H       -2.3320     2.9500     2.9550 H     1 <1>   0.1500 
 32 H       -2.3030    -2.4890    -1.6640 H     1 <1>   0.0800 
 33 H       -2.3490    -0.3090    -2.6230 H     1 <1>   0.0800 
 34 H       -3.9380     0.3900    -2.8600 H     1 <1>   0.0800 
 35 H        0.4360     4.4670     0.3880 H     1 <1>   0.2700 
 36 H       -0.1810     0.9520    -0.9910 H     1 <1>   0.0800 
 37 H       -1.6960    -2.8370     2.4440 H     1 <1>   0.1500 
 38 H       -0.2280    -1.3860    -1.2910 H     1 <1>   0.1500 
 39 H       -4.2250    -3.9200    -1.5830 H     1 <1>   0.0800 
 40 H       -4.8710    -3.0690    -0.1900 H     1 <1>   0.0800 
 41 H        2.2150     2.5780    -0.1680 H     1 <1>   0.0800 
 42 H        1.7890     0.9960     0.4160 H     1 <1>   0.0800 
 43 H       -0.8940     2.8830    -2.3140 H     1 <1>   0.0800 
 44 H        0.5550     3.7410    -1.8800 H     1 <1>   0.0800 
 45 H        0.5060    -3.7880     2.9320 H     1 <1>   0.1500 
 46 H        1.9710    -2.3420    -0.7950 H     1 <1>   0.1500 
 47 H       -2.4380    -4.5280    -0.1880 H     1 <1>   0.4000 
 48 H        3.5360     0.9110    -1.3570 H     1 <1>   0.0800 
 49 H        2.1010     0.0350    -1.8020 H     1 <1>   0.0800 
 50 H        0.4220     1.1890    -3.4960 H     1 <1>   0.0800 
 51 H        0.8350     2.7690    -4.0960 H     1 <1>   0.0800 
 52 H        2.3460    -3.5460     1.3160 H     1 <1>   0.1500 
 53 H        2.8500     1.3690    -3.7040 H     1 <1>   0.0800 
 54 H        2.8610     2.8120    -2.7340 H     1 <1>   0.0800 
@<TRIPOS>BOND
  1   1   2  2   
  2   2   3  am  
  3   2   4  1   
  4   3   5  1   
  5   3   6  1   
  6   4   7  2   
  7   4   8  1   
  8   5   9  1   
  9   5  10  1   
 10   5  28  1   
 11   6  11  1   
 12   6  29  1   
 13   6  30  1   
 14   7  12  1   
 15   7  13  1   
 16   8  14  2   
 17   8  31  1   
 18   9  15  ar  
 19   9  16  ar  
 20  10  17  1   
 21  10  18  1   
 22  10  32  1   
 23  11  17  1   
 24  11  33  1   
 25  11  34  1   
 26  12  14  1   
 27  12  35  1   
 28  13  19  1   
 29  13  20  1   
 30  13  36  1   
 31  15  21  ar  
 32  15  37  1   
 33  16  22  ar  
 34  16  38  1   
 35  18  23  1   
 36  18  39  1   
 37  18  40  1   
 38  19  24  1   
 39  19  41  1   
 40  19  42  1   
 41  20  25  1   
 42  20  43  1   
 43  20  44  1   
 44  21  26  ar  
 45  21  45  1   
 46  22  26  ar  
 47  22  46  1   
 48  23  47  1   
 49  24  27  1   
 50  24  48  1   
 51  24  49  1   
 52  25  27  1   
 53  25  50  1   
 54  25  51  1   
 55  26  52  1   
 56  27  53  1   
 57  27  54  1   
@<TRIPOS>SUBSTRUCTURE
  1 ****   3 GROUP 4 **** **** 0

# MOE 2024.06 (io_trps.svl 2023.06)
