@<TRIPOS>MOLECULE
NONAME
46 49 1 0 0 
SMALL
USER_CHARGES


@<TRIPOS>ATOM
  1 O        0.0670     0.8050    -1.6480 O.2   1 <1>  -0.5700 
  2 C        0.0300     1.9270    -1.1780 C.2   1 <1>   0.7150 
  3 N       -1.1580     2.6270    -1.1890 N.am  1 <1>  -0.6600 
  4 C        1.2190     2.5000    -0.6210 C.2   1 <1>  -0.2370 
  5 C       -1.3750     3.9080    -0.4630 C.3   1 <1>   0.1400 
  6 C       -2.3730     2.1170    -1.8840 C.3   1 <1>   0.1400 
  7 N        1.8470     1.9830     0.4790 N.pl3 1 <1>   0.2940 
  8 C        1.9220     3.6060    -1.0300 C.2   1 <1>  -0.1500 
  9 C       -2.4830     3.7130     0.5740 C.3   1 <1>  -0.1600 
 10 C       -3.4940     1.9160    -0.8630 C.3   1 <1>  -0.1600 
 11 C        2.9150     2.7730     0.7530 C.2   1 <1>  -0.3020 
 12 C        1.4070     0.8230     1.2930 C.3   1 <1>  -0.0910 
 13 C        2.9930     3.7770    -0.1600 C.2   1 <1>  -0.1500 
 14 C       -3.7770     3.1950    -0.0700 C.3   1 <1>   0.4180 
 15 C        2.4190    -0.0920     1.9200 C.3   1 <1>  -0.2000 
 16 C        1.5990    -0.5650     0.7620 C.3   1 <1>  -0.2000 
 17 O       -4.2440     4.1400    -1.0030 O.3   1 <1>  -0.5600 
 18 C       -4.8420     2.9190     0.9880 C.2   1 <1>  -0.2880 
 19 C       -4.9710     5.2310    -0.5090 C.3   1 <1>   0.1200 
 20 C       -5.9830     3.6030     1.1000 C.2   1 <1>  -0.2760 
 21 C       -6.2700     4.7570     0.1580 C.3   1 <1>  -0.0220 
 22 C       -7.0670     3.3100     2.1230 C.3   1 <1>  -0.1020 
 23 H       -1.6640     4.6670    -1.1710 H     1 <1>   0.0800 
 24 H       -0.4790     4.2350     0.0320 H     1 <1>   0.0800 
 25 H       -2.1690     1.1870    -2.3870 H     1 <1>   0.0800 
 26 H       -2.6790     2.8340    -2.6270 H     1 <1>   0.0800 
 27 H        1.6970     4.2360    -1.8740 H     1 <1>   0.1500 
 28 H       -2.6690     4.6330     1.0930 H     1 <1>   0.0800 
 29 H       -2.1440     3.0010     1.3040 H     1 <1>   0.0800 
 30 H       -3.2070     1.1280    -0.1910 H     1 <1>   0.0800 
 31 H       -4.3930     1.6060    -1.3640 H     1 <1>   0.0800 
 32 H        3.5660     2.5810     1.5870 H     1 <1>   0.1500 
 33 H        0.5010     1.0370     1.8310 H     1 <1>   0.1000 
 34 H        3.7290     4.5620    -0.2170 H     1 <1>   0.1500 
 35 H        2.2150    -0.5150     2.8870 H     1 <1>   0.1000 
 36 H        3.4700     0.0780     1.7560 H     1 <1>   0.1000 
 37 H        2.0590    -0.6780    -0.2060 H     1 <1>   0.1000 
 38 H        0.8270    -1.2930     0.9360 H     1 <1>   0.1000 
 39 H       -4.5820     2.1010     1.6350 H     1 <1>   0.1500 
 40 H       -5.1920     5.8810    -1.3370 H     1 <1>   0.0800 
 41 H       -4.3590     5.7630     0.1960 H     1 <1>   0.0800 
 42 H       -6.9730     4.4480    -0.5940 H     1 <1>   0.0800 
 43 H       -6.6970     5.5830     0.6980 H     1 <1>   0.0800 
 44 H       -7.2190     4.1630     2.7600 H     1 <1>   0.0800 
 45 H       -6.7890     2.4710     2.7350 H     1 <1>   0.0800 
 46 H       -7.9910     3.0770     1.6250 H     1 <1>   0.0800 
@<TRIPOS>BOND
  1   1   2  2   
  2   2   3  am  
  3   2   4  1   
  4   3   5  1   
  5   3   6  1   
  6   4   7  1   
  7   4   8  2   
  8   5   9  1   
  9   5  23  1   
 10   5  24  1   
 11   6  10  1   
 12   6  25  1   
 13   6  26  1   
 14   7  11  1   
 15   7  12  1   
 16   8  13  1   
 17   8  27  1   
 18   9  14  1   
 19   9  28  1   
 20   9  29  1   
 21  10  14  1   
 22  10  30  1   
 23  10  31  1   
 24  11  13  2   
 25  11  32  1   
 26  12  15  1   
 27  12  16  1   
 28  12  33  1   
 29  13  34  1   
 30  14  17  1   
 31  14  18  1   
 32  15  16  1   
 33  15  35  1   
 34  15  36  1   
 35  16  37  1   
 36  16  38  1   
 37  17  19  1   
 38  18  20  2   
 39  18  39  1   
 40  19  21  1   
 41  19  40  1   
 42  19  41  1   
 43  20  21  1   
 44  20  22  1   
 45  21  42  1   
 46  21  43  1   
 47  22  44  1   
 48  22  45  1   
 49  22  46  1   
@<TRIPOS>SUBSTRUCTURE
  1 ****   3 GROUP 4 **** **** 0

# MOE 2024.06 (io_trps.svl 2023.06)
