@<TRIPOS>MOLECULE
NONAME
52 55 1 0 0 
SMALL
USER_CHARGES


@<TRIPOS>ATOM
  1 O        0.1640     0.2670    -1.0060 O.2   1 <1>  -0.5700 
  2 C        1.0180    -0.3880    -0.4510 C.2   1 <1>   0.5690 
  3 N        2.1220     0.2290     0.0940 N.am  1 <1>  -0.6600 
  4 C        0.8800    -1.9260    -0.3560 C.3   1 <1>   0.1710 
  5 C        2.2710     1.7230     0.0750 C.3   1 <1>   0.1400 
  6 C        3.3200    -0.4570     0.6630 C.3   1 <1>   0.1400 
  7 N       -0.4030    -2.5550    -0.7770 N.3   1 <1>  -0.8100 
  8 C        3.6190     2.1450    -0.5390 C.3   1 <1>   0.3430 
  9 C        4.6040     0.0720    -0.0010 C.3   1 <1>   0.1200 
 10 C       -1.5350    -2.1290     0.0820 C.3   1 <1>   0.1100 
 11 C       -0.3010    -4.0320    -0.7760 C.3   1 <1>   0.1100 
 12 O        4.6730     1.4650     0.0970 O.3   1 <1>  -0.5600 
 13 C        3.8240     3.6510    -0.4020 C.ar  1 <1>  -0.1440 
 14 C       -2.8720    -2.7680    -0.3410 C.3   1 <1>   0.2090 
 15 C       -1.6060    -4.7110    -1.2350 C.3   1 <1>   0.2090 
 16 C        4.3960     4.2030     0.7360 C.ar  1 <1>  -0.1500 
 17 C        3.4200     4.4940    -1.4280 C.ar  1 <1>  -0.1500 
 18 N       -2.7600    -4.2600    -0.3990 N.pl3 1 <1>  -0.8380 
 19 C        4.5600     5.5730     0.8480 C.ar  1 <1>  -0.1500 
 20 C        3.5830     5.8640    -1.3180 C.ar  1 <1>  -0.1500 
 21 C       -3.6790    -5.1210     0.1670 C.ar  1 <1>   0.7200 
 22 C        4.1530     6.4050    -0.1800 C.ar  1 <1>  -0.1500 
 23 N       -3.4320    -6.4280     0.0690 N.ar  1 <1>  -0.6200 
 24 N       -4.7380    -4.5760     0.7670 N.ar  1 <1>  -0.6200 
 25 C       -4.3130    -7.2330     0.6090 C.ar  1 <1>   0.1600 
 26 C       -5.6030    -5.4050     1.2970 C.ar  1 <1>   0.1600 
 27 C       -5.4360    -6.7660     1.2460 C.ar  1 <1>  -0.1500 
 28 H        1.0740    -2.2100     0.6620 H     1 <1>   0.0800 
 29 H        1.6610    -2.3380    -0.9670 H     1 <1>   0.0800 
 30 H        2.2140     2.0960     1.0820 H     1 <1>   0.0800 
 31 H        1.4770     2.1820    -0.4860 H     1 <1>   0.0800 
 32 H        3.2680    -1.5200     0.5200 H     1 <1>   0.0800 
 33 H        3.3680    -0.2650     1.7210 H     1 <1>   0.0800 
 34 H        3.6370     1.8780    -1.5810 H     1 <1>   0.0800 
 35 H        4.6370    -0.2030    -1.0410 H     1 <1>   0.0800 
 36 H        5.4710    -0.3320     0.4910 H     1 <1>   0.0800 
 37 H       -1.6480    -1.0610     0.0320 H     1 <1>   0.0800 
 38 H       -1.3390    -2.3960     1.1060 H     1 <1>   0.0800 
 39 H       -0.0650    -4.3820     0.2140 H     1 <1>   0.0800 
 40 H        0.4900    -4.3340    -1.4390 H     1 <1>   0.0800 
 41 H       -3.1440    -2.3980    -1.3140 H     1 <1>   0.0800 
 42 H       -3.6330    -2.4590     0.3520 H     1 <1>   0.0800 
 43 H       -1.4760    -5.7760    -1.1860 H     1 <1>   0.0800 
 44 H       -1.7950    -4.4500    -2.2610 H     1 <1>   0.0800 
 45 H        4.7190     3.5640     1.5390 H     1 <1>   0.1500 
 46 H        2.9730     4.0880    -2.3190 H     1 <1>   0.1500 
 47 H        5.0060     5.9900     1.7340 H     1 <1>   0.1500 
 48 H        3.2660     6.5100    -2.1190 H     1 <1>   0.1500 
 49 H        4.2810     7.4700    -0.0940 H     1 <1>   0.1500 
 50 H       -4.1350    -8.2930     0.5410 H     1 <1>   0.1500 
 51 H       -6.4670    -4.9870     1.7850 H     1 <1>   0.1500 
 52 H       -6.1510    -7.4350     1.6840 H     1 <1>   0.1500 
@<TRIPOS>BOND
  1   1   2  2   
  2   2   3  am  
  3   2   4  1   
  4   3   5  1   
  5   3   6  1   
  6   4   7  1   
  7   4  28  1   
  8   4  29  1   
  9   5   8  1   
 10   5  30  1   
 11   5  31  1   
 12   6   9  1   
 13   6  32  1   
 14   6  33  1   
 15   7  10  1   
 16   7  11  1   
 17   8  12  1   
 18   8  13  1   
 19   8  34  1   
 20   9  12  1   
 21   9  35  1   
 22   9  36  1   
 23  10  14  1   
 24  10  37  1   
 25  10  38  1   
 26  11  15  1   
 27  11  39  1   
 28  11  40  1   
 29  13  16  ar  
 30  13  17  ar  
 31  14  18  1   
 32  14  41  1   
 33  14  42  1   
 34  15  18  1   
 35  15  43  1   
 36  15  44  1   
 37  16  19  ar  
 38  16  45  1   
 39  17  20  ar  
 40  17  46  1   
 41  18  21  1   
 42  19  22  ar  
 43  19  47  1   
 44  20  22  ar  
 45  20  48  1   
 46  21  23  ar  
 47  21  24  ar  
 48  22  49  1   
 49  23  25  ar  
 50  24  26  ar  
 51  25  27  ar  
 52  25  50  1   
 53  26  27  ar  
 54  26  51  1   
 55  27  52  1   
@<TRIPOS>SUBSTRUCTURE
  1 ****   2 GROUP 4 **** **** 0

# MOE 2024.06 (io_trps.svl 2023.06)
