@<TRIPOS>MOLECULE
NONAME
50 53 1 0 0 
SMALL
USER_CHARGES


@<TRIPOS>ATOM
  1 CL       1.1690    -1.0020    -2.0430 Cl    1 <1>  -0.1770 
  2 C        0.5580    -2.0260    -0.7650 C.ar  1 <1>   0.1770 
  3 C       -0.0180    -3.2320    -1.0780 C.ar  1 <1>  -0.1500 
  4 C        0.6760    -1.5800     0.5560 C.ar  1 <1>  -0.1500 
  5 C       -0.5010    -4.0350    -0.0380 C.ar  1 <1>   0.0000 
  6 C        0.2040    -2.3620     1.5850 C.ar  1 <1>  -0.1500 
  7 C       -0.3880    -3.5920     1.2760 C.ar  1 <1>  -0.1520 
  8 C       -1.1260    -5.2960     0.0190 C.2   1 <1>  -0.1810 
  9 N       -0.9280    -4.5490     2.0910 N.pl3 1 <1>   0.0330 
 10 C       -1.4070    -5.5840     1.3280 C.2   1 <1>  -0.2370 
 11 C       -1.3740    -6.1530    -1.2090 C.3   1 <1>  -0.0590 
 12 C       -2.0440    -6.7040     1.9740 C.2   1 <1>   0.7150 
 13 O       -1.5770    -7.1020     3.0250 O.2   1 <1>  -0.5700 
 14 N       -3.1870    -7.2970     1.4750 N.am  1 <1>  -0.6600 
 15 C       -4.1860    -6.4850     0.7180 C.3   1 <1>   0.2200 
 16 C       -3.5750    -8.6730     1.9200 C.3   1 <1>   0.0600 
 17 C       -4.8950    -7.2290    -0.4120 C.3   1 <1>  -0.1600 
 18 C       -5.3220    -5.9840     1.6020 C.3   1 <1>  -0.1600 
 19 C       -6.1420    -6.3800    -0.6960 C.3   1 <1>  -0.0800 
 20 C       -6.4410    -5.6180     0.6170 C.3   1 <1>  -0.0800 
 21 C       -7.3160    -7.2090    -1.2540 C.3   1 <1>   0.1400 
 22 C       -7.8510    -5.8800     1.1760 C.3   1 <1>  -0.0990 
 23 N       -8.5890    -6.4610    -1.1050 N.am  1 <1>  -0.6600 
 24 C       -8.8820    -5.8180     0.0660 C.2   1 <1>   0.5690 
 25 C       -9.5330    -6.5040    -2.2540 C.3   1 <1>   0.0600 
 26 O       -9.9110    -5.2160     0.2550 O.2   1 <1>  -0.5700 
 27 H       -0.0990    -3.5600    -2.0960 H     1 <1>   0.1500 
 28 H        1.1370    -0.6270     0.7450 H     1 <1>   0.1500 
 29 H        0.2830    -2.0440     2.6090 H     1 <1>   0.1500 
 30 H       -0.9250    -4.5460     3.1170 H     1 <1>   0.2700 
 31 H       -0.4600    -6.2600    -1.7660 H     1 <1>   0.0800 
 32 H       -2.1130    -5.6920    -1.8370 H     1 <1>   0.0800 
 33 H       -1.7120    -7.1330    -0.9250 H     1 <1>   0.0800 
 34 H       -3.7120    -5.6190     0.2900 H     1 <1>   0.0800 
 35 H       -3.6390    -9.3270     1.0700 H     1 <1>   0.0800 
 36 H       -4.5220    -8.6520     2.4280 H     1 <1>   0.0800 
 37 H       -2.8410    -9.0810     2.5940 H     1 <1>   0.0800 
 38 H       -4.2710    -7.3190    -1.2820 H     1 <1>   0.0800 
 39 H       -5.2040    -8.2040    -0.0860 H     1 <1>   0.0800 
 40 H       -5.6520    -6.7660     2.2610 H     1 <1>   0.0800 
 41 H       -5.0170    -5.1330     2.1850 H     1 <1>   0.0800 
 42 H       -5.8800    -5.6470    -1.4410 H     1 <1>   0.0800 
 43 H       -6.3690    -4.5650     0.3970 H     1 <1>   0.0800 
 44 H       -7.4080    -8.1360    -0.7150 H     1 <1>   0.0800 
 45 H       -7.1370    -7.4370    -2.2910 H     1 <1>   0.0800 
 46 H       -8.0910    -5.1520     1.9300 H     1 <1>   0.0800 
 47 H       -7.9090    -6.8560     1.6190 H     1 <1>   0.0800 
 48 H       -9.0730    -6.0630    -3.1200 H     1 <1>   0.0800 
 49 H      -10.4310    -5.9560    -2.0250 H     1 <1>   0.0800 
 50 H       -9.7980    -7.5240    -2.4700 H     1 <1>   0.0800 
@<TRIPOS>BOND
  1   1   2  1   
  2   2   3  ar  
  3   2   4  ar  
  4   3   5  ar  
  5   3  27  1   
  6   4   6  ar  
  7   4  28  1   
  8   5   7  ar  
  9   5   8  1   
 10   6   7  ar  
 11   6  29  1   
 12   7   9  1   
 13   8  10  2   
 14   8  11  1   
 15   9  10  1   
 16   9  30  1   
 17  10  12  1   
 18  11  31  1   
 19  11  32  1   
 20  11  33  1   
 21  12  13  2   
 22  12  14  am  
 23  14  15  1   
 24  14  16  1   
 25  15  17  1   
 26  15  18  1   
 27  15  34  1   
 28  16  35  1   
 29  16  36  1   
 30  16  37  1   
 31  17  19  1   
 32  17  38  1   
 33  17  39  1   
 34  18  20  1   
 35  18  40  1   
 36  18  41  1   
 37  19  20  1   
 38  19  21  1   
 39  19  42  1   
 40  20  22  1   
 41  20  43  1   
 42  21  23  1   
 43  21  44  1   
 44  21  45  1   
 45  22  24  1   
 46  22  46  1   
 47  22  47  1   
 48  23  24  am  
 49  23  25  1   
 50  24  26  2   
 51  25  48  1   
 52  25  49  1   
 53  25  50  1   
@<TRIPOS>SUBSTRUCTURE
  1 ****  15 GROUP 4 **** **** 0

# MOE 2024.06 (io_trps.svl 2023.06)
