@<TRIPOS>MOLECULE
NONAME
52 54 1 0 0 
SMALL
USER_CHARGES


@<TRIPOS>ATOM
  1 O       -1.3200     0.5700    -2.2980 O.2   1 <1>  -0.5700 
  2 C       -1.3900     1.2970    -1.3330 C.2   1 <1>   0.5690 
  3 N       -2.0850     0.9150    -0.2090 N.am  1 <1>  -0.6600 
  4 C       -0.6810     2.6350    -1.4320 C.3   1 <1>   0.0440 
  5 C       -2.6610    -0.4600    -0.1320 C.3   1 <1>   0.1400 
  6 C       -2.2840     1.7820     0.9920 C.3   1 <1>   0.1400 
  7 C        0.4740     2.7210    -0.4530 C.ar  1 <1>   0.1660 
  8 C       -4.0840    -0.4940    -0.7080 C.3   1 <1>   0.1400 
  9 C       -3.7040     1.7050     1.5720 C.3   1 <1>  -0.1600 
 10 N        0.4240     3.6970     0.4430 N.ar  1 <1>  -0.6200 
 11 C        1.5080     1.7990    -0.5380 C.ar  1 <1>  -0.1500 
 12 N       -5.0830     0.1630     0.1980 N.am  1 <1>  -0.6600 
 13 C       -4.8110     1.5960     0.5170 C.3   1 <1>   0.1400 
 14 C        1.4450     3.7550     1.2840 C.ar  1 <1>   0.1600 
 15 C        2.5620     1.8710     0.3470 C.ar  1 <1>  -0.1500 
 16 C       -6.1650    -0.4690     0.7630 C.2   1 <1>   0.5690 
 17 C        2.5190     2.8830     1.2810 C.ar  1 <1>  -0.1500 
 18 O       -6.7910     0.0440     1.6600 O.2   1 <1>  -0.5700 
 19 C       -6.5920    -1.8560     0.2850 C.3   1 <1>  -0.0990 
 20 C       -8.0480    -2.2530     0.6120 C.3   1 <1>  -0.0800 
 21 C       -8.2940    -3.7250     0.2340 C.3   1 <1>   0.1200 
 22 C       -9.0640    -1.3510    -0.1120 C.3   1 <1>  -0.1600 
 23 O       -9.6180    -4.0770     0.5000 O.3   1 <1>  -0.5600 
 24 C      -10.4850    -1.8820     0.1100 C.3   1 <1>  -0.1600 
 25 C      -10.5720    -3.3730    -0.2350 C.3   1 <1>   0.1200 
 26 H       -1.3840     3.4280    -1.2640 H     1 <1>   0.0800 
 27 H       -0.2950     2.7550    -2.4270 H     1 <1>   0.0800 
 28 H       -2.6630    -0.8120     0.8840 H     1 <1>   0.0800 
 29 H       -2.0430    -1.1320    -0.7030 H     1 <1>   0.0800 
 30 H       -2.0960     2.8080     0.7350 H     1 <1>   0.0800 
 31 H       -1.5690     1.5060     1.7490 H     1 <1>   0.0800 
 32 H       -4.3390    -1.5230    -0.8670 H     1 <1>   0.0800 
 33 H       -4.0910    -0.0060    -1.6680 H     1 <1>   0.0800 
 34 H       -3.8660     2.6030     2.1400 H     1 <1>   0.0800 
 35 H       -3.7830     0.8870     2.2660 H     1 <1>   0.0800 
 36 H        1.4880     1.0300    -1.2910 H     1 <1>   0.1500 
 37 H       -4.5400     2.1290    -0.3780 H     1 <1>   0.0800 
 38 H       -5.7080     2.0520     0.9030 H     1 <1>   0.0800 
 39 H        1.4250     4.5440     2.0170 H     1 <1>   0.1500 
 40 H        3.3780     1.1700     0.3080 H     1 <1>   0.1500 
 41 H        3.3100     2.9970     1.9990 H     1 <1>   0.1500 
 42 H       -5.9270    -2.5660     0.7410 H     1 <1>   0.0800 
 43 H       -6.4680    -1.9100    -0.7790 H     1 <1>   0.0800 
 44 H       -8.1970    -2.1640     1.6750 H     1 <1>   0.0800 
 45 H       -7.6660    -4.3730     0.8190 H     1 <1>   0.0800 
 46 H       -8.1010    -3.8980    -0.8110 H     1 <1>   0.0800 
 47 H       -8.8530    -1.3380    -1.1680 H     1 <1>   0.0800 
 48 H       -8.9980    -0.3410     0.2550 H     1 <1>   0.0800 
 49 H      -11.1810    -1.3300    -0.4950 H     1 <1>   0.0800 
 50 H      -10.7650    -1.7500     1.1400 H     1 <1>   0.0800 
 51 H      -11.5400    -3.7640     0.0240 H     1 <1>   0.0800 
 52 H      -10.3920    -3.5430    -1.2830 H     1 <1>   0.0800 
@<TRIPOS>BOND
  1   1   2  2   
  2   2   3  am  
  3   2   4  1   
  4   3   5  1   
  5   3   6  1   
  6   4   7  1   
  7   4  26  1   
  8   4  27  1   
  9   5   8  1   
 10   5  28  1   
 11   5  29  1   
 12   6   9  1   
 13   6  30  1   
 14   6  31  1   
 15   7  10  ar  
 16   7  11  ar  
 17   8  12  1   
 18   8  32  1   
 19   8  33  1   
 20   9  13  1   
 21   9  34  1   
 22   9  35  1   
 23  10  14  ar  
 24  11  15  ar  
 25  11  36  1   
 26  12  13  1   
 27  12  16  am  
 28  13  37  1   
 29  13  38  1   
 30  14  17  ar  
 31  14  39  1   
 32  15  17  ar  
 33  15  40  1   
 34  16  18  2   
 35  16  19  1   
 36  17  41  1   
 37  19  20  1   
 38  19  42  1   
 39  19  43  1   
 40  20  21  1   
 41  20  22  1   
 42  20  44  1   
 43  21  23  1   
 44  21  45  1   
 45  21  46  1   
 46  22  24  1   
 47  22  47  1   
 48  22  48  1   
 49  23  25  1   
 50  24  25  1   
 51  24  49  1   
 52  24  50  1   
 53  25  51  1   
 54  25  52  1   
@<TRIPOS>SUBSTRUCTURE
  1 ****   8 GROUP 4 **** **** 0

# MOE 2024.06 (io_trps.svl 2023.06)
