@<TRIPOS>MOLECULE
NONAME
50 52 1 0 0 
SMALL
USER_CHARGES


@<TRIPOS>ATOM
  1 N       -0.8510    -0.1980     0.3380 N.pl3 1 <1>   0.0330 
  2 C       -1.8810    -0.9590     0.7790 C.2   1 <1>   0.0060 
  3 C       -1.1750     1.0620     0.6730 C.2   1 <1>  -0.3320 
  4 N       -2.8140    -0.2720     1.3590 N.2   1 <1>  -0.5650 
  5 C       -1.9210    -2.4740     0.6300 C.3   1 <1>   0.5230 
  6 C       -2.3690     0.9970     1.3010 C.2   1 <1>   0.0770 
  7 C       -0.2970     2.2660     0.3780 C.3   1 <1>  -0.0600 
  8 N       -2.5280    -2.9370    -0.6730 N.4   1 <1>  -0.9590 
  9 C       -3.9830    -2.6500    -0.9020 C.3   1 <1>   0.4230 
 10 C       -2.2820    -4.4020    -0.8370 C.3   1 <1>   0.2630 
 11 C       -4.2190    -1.2830    -1.5390 C.3   1 <1>  -0.1600 
 12 C       -4.8990    -2.7290     0.3250 C.3   1 <1>  -0.1600 
 13 C       -5.6490    -0.8850    -1.1450 C.3   1 <1>  -0.0800 
 14 C       -6.0710    -1.7830     0.0220 C.3   1 <1>  -0.0800 
 15 C       -5.8010     0.5610    -0.6440 C.3   1 <1>  -0.1600 
 16 C       -6.4400    -0.8280     1.1700 C.3   1 <1>  -0.1600 
 17 C       -6.8080     0.5040     0.5090 C.3   1 <1>   0.4230 
 18 N       -8.2160     0.4790    -0.0050 N.4   1 <1>  -0.9590 
 19 C       -8.5700     1.7200    -0.7690 C.3   1 <1>   0.2630 
 20 C       -9.2220     0.3040     1.0920 C.3   1 <1>   0.2630 
 21 H        0.0170    -0.4870    -0.1260 H     1 <1>   0.2700 
 22 H       -2.4740    -2.8830     1.4580 H     1 <1>   0.0800 
 23 H       -0.9120    -2.8440     0.7090 H     1 <1>   0.0800 
 24 H       -2.9310     1.8150     1.7230 H     1 <1>   0.1500 
 25 H       -0.7590     3.1630     0.7500 H     1 <1>   0.0800 
 26 H       -0.1480     2.3730    -0.6820 H     1 <1>   0.0800 
 27 H        0.6610     2.1560     0.8560 H     1 <1>   0.0800 
 28 H       -2.0300    -2.4380    -1.4190 H     1 <1>   0.4500 
 29 H       -4.3620    -3.3690    -1.6120 H     1 <1>   0.0800 
 30 H       -2.8030    -4.9580    -0.0730 H     1 <1>   0.0800 
 31 H       -1.2290    -4.6200    -0.7640 H     1 <1>   0.0800 
 32 H       -2.6320    -4.7350    -1.8010 H     1 <1>   0.0800 
 33 H       -3.5160    -0.5560    -1.1860 H     1 <1>   0.0800 
 34 H       -4.1320    -1.3450    -2.6100 H     1 <1>   0.0800 
 35 H       -5.2540    -3.7340     0.4670 H     1 <1>   0.0800 
 36 H       -4.4110    -2.4100     1.2230 H     1 <1>   0.0800 
 37 H       -6.3160    -1.0570    -1.9760 H     1 <1>   0.0800 
 38 H       -6.9360    -2.3560    -0.2710 H     1 <1>   0.0800 
 39 H       -6.0510     1.2440    -1.4330 H     1 <1>   0.0800 
 40 H       -4.8700     0.8960    -0.2220 H     1 <1>   0.0800 
 41 H       -5.5720    -0.6360     1.7780 H     1 <1>   0.0800 
 42 H       -7.1920    -1.2360     1.8180 H     1 <1>   0.0800 
 43 H       -6.6720     1.3300     1.1890 H     1 <1>   0.0800 
 44 H       -8.2840    -0.3260    -0.6420 H     1 <1>   0.4500 
 45 H       -8.4230     2.5930    -0.1530 H     1 <1>   0.0800 
 46 H       -9.6030     1.6860    -1.0760 H     1 <1>   0.0800 
 47 H       -7.9630     1.8140    -1.6530 H     1 <1>   0.0800 
 48 H       -9.1170     1.0870     1.8260 H     1 <1>   0.0800 
 49 H       -9.0950    -0.6470     1.5810 H     1 <1>   0.0800 
 50 H      -10.2220     0.3420     0.6900 H     1 <1>   0.0800 
@<TRIPOS>BOND
  1   1   2  1   
  2   1   3  1   
  3   1  21  1   
  4   2   4  2   
  5   2   5  1   
  6   3   6  2   
  7   3   7  1   
  8   4   6  1   
  9   5   8  1   
 10   5  22  1   
 11   5  23  1   
 12   6  24  1   
 13   7  25  1   
 14   7  26  1   
 15   7  27  1   
 16   8   9  1   
 17   8  10  1   
 18   8  28  1   
 19   9  11  1   
 20   9  12  1   
 21   9  29  1   
 22  10  30  1   
 23  10  31  1   
 24  10  32  1   
 25  11  13  1   
 26  11  33  1   
 27  11  34  1   
 28  12  14  1   
 29  12  35  1   
 30  12  36  1   
 31  13  14  1   
 32  13  15  1   
 33  13  37  1   
 34  14  16  1   
 35  14  38  1   
 36  15  17  1   
 37  15  39  1   
 38  15  40  1   
 39  16  17  1   
 40  16  41  1   
 41  16  42  1   
 42  17  18  1   
 43  17  43  1   
 44  18  19  1   
 45  18  20  1   
 46  18  44  1   
 47  19  45  1   
 48  19  46  1   
 49  19  47  1   
 50  20  48  1   
 51  20  49  1   
 52  20  50  1   
@<TRIPOS>SUBSTRUCTURE
  1 ****  11 GROUP 4 **** **** 0

# MOE 2024.06 (io_trps.svl 2023.06)
