@<TRIPOS>MOLECULE
NONAME
42 44 1 0 0 
SMALL
USER_CHARGES


@<TRIPOS>ATOM
  1 O        1.1310     0.4550    -2.3130 O.2   1 <1>  -0.5700 
  2 C        1.6080     0.4860    -1.1940 C.2   1 <1>   0.5440 
  3 N        0.8580     1.0490    -0.1850 N.am  1 <1>  -0.6600 
  4 C        2.9090    -0.0930    -0.9650 C.ar  1 <1>   0.0860 
  5 C       -0.6200     1.0760    -0.2310 C.3   1 <1>   0.1400 
  6 C        1.3570     1.5600     1.1110 C.3   1 <1>   0.1400 
  7 C        3.0850    -1.1130    -0.0120 C.ar  1 <1>   0.4100 
  8 C        4.0110     0.2900    -1.7140 C.ar  1 <1>  -0.1500 
  9 C       -1.0570     1.5370     1.1580 C.3   1 <1>  -0.1600 
 10 C        0.1740     1.3780     2.0510 C.3   1 <1>  -0.1600 
 11 N        4.2340    -1.7460     0.2010 N.ar  1 <1>  -0.6200 
 12 N        2.0420    -1.5220     0.7770 N.pl3 1 <1>  -0.8690 
 13 C        5.2070    -0.3520    -1.4820 C.ar  1 <1>  -0.1500 
 14 C        5.2600    -1.3520    -0.5270 C.ar  1 <1>   0.1600 
 15 C        1.5520    -2.8920     0.6820 C.3   1 <1>   0.4330 
 16 C        0.0700    -2.7860     0.3540 C.ar  1 <1>  -0.1440 
 17 C        1.8430    -3.6090     1.9960 C.3   1 <1>  -0.2400 
 18 C       -0.8540    -2.3630     1.3010 C.ar  1 <1>   0.1600 
 19 C       -0.3790    -3.0710    -0.9210 C.ar  1 <1>  -0.1500 
 20 N       -2.1510    -2.2090     1.0860 N.ar  1 <1>  -0.6200 
 21 C       -1.7270    -2.9220    -1.1630 C.ar  1 <1>  -0.1500 
 22 C       -2.5570    -2.4960    -0.1400 C.ar  1 <1>   0.1600 
 23 H       -0.9890     0.0860    -0.4390 H     1 <1>   0.0800 
 24 H       -0.9590     1.7520    -0.9970 H     1 <1>   0.0800 
 25 H        1.5890     2.6060     1.0050 H     1 <1>   0.0800 
 26 H        2.2290     1.0330     1.4580 H     1 <1>   0.0800 
 27 H        3.9180     1.0610    -2.4600 H     1 <1>   0.1500 
 28 H       -1.8940     0.9620     1.5160 H     1 <1>   0.0800 
 29 H       -1.3430     2.5730     1.1070 H     1 <1>   0.0800 
 30 H        0.1900     2.0910     2.8560 H     1 <1>   0.0800 
 31 H        0.2020     0.3850     2.4640 H     1 <1>   0.0800 
 32 H        1.2400    -0.8800     0.7280 H     1 <1>   0.4000 
 33 H        6.0890    -0.0880    -2.0380 H     1 <1>   0.1500 
 34 H        6.1980    -1.8530    -0.3560 H     1 <1>   0.1500 
 35 H        2.0640    -3.4060    -0.1160 H     1 <1>   0.0800 
 36 H        1.4520    -3.0640     2.8340 H     1 <1>   0.0800 
 37 H        2.9060    -3.7080     2.1150 H     1 <1>   0.0800 
 38 H        1.4070    -4.5910     1.9790 H     1 <1>   0.0800 
 39 H       -0.5100    -2.1270     2.2930 H     1 <1>   0.1500 
 40 H        0.2910    -3.3880    -1.7020 H     1 <1>   0.1500 
 41 H       -2.1330    -3.1280    -2.1360 H     1 <1>   0.1500 
 42 H       -3.6090    -2.3830    -0.3430 H     1 <1>   0.1500 
@<TRIPOS>BOND
  1   1   2  2   
  2   2   3  am  
  3   2   4  1   
  4   3   5  1   
  5   3   6  1   
  6   4   7  ar  
  7   4   8  ar  
  8   5   9  1   
  9   5  23  1   
 10   5  24  1   
 11   6  10  1   
 12   6  25  1   
 13   6  26  1   
 14   7  11  ar  
 15   7  12  1   
 16   8  13  ar  
 17   8  27  1   
 18   9  10  1   
 19   9  28  1   
 20   9  29  1   
 21  10  30  1   
 22  10  31  1   
 23  11  14  ar  
 24  12  15  1   
 25  12  32  1   
 26  13  14  ar  
 27  13  33  1   
 28  14  34  1   
 29  15  16  1   
 30  15  17  1   
 31  15  35  1   
 32  16  18  ar  
 33  16  19  ar  
 34  17  36  1   
 35  17  37  1   
 36  17  38  1   
 37  18  20  ar  
 38  18  39  1   
 39  19  21  ar  
 40  19  40  1   
 41  20  22  ar  
 42  21  22  ar  
 43  21  41  1   
 44  22  42  1   
@<TRIPOS>SUBSTRUCTURE
  1 ****  12 GROUP 4 **** **** 0

# MOE 2024.06 (io_trps.svl 2023.06)
