@<TRIPOS>MOLECULE
NONAME
51 53 1 0 0 
SMALL
USER_CHARGES


@<TRIPOS>ATOM
  1 O       -1.5880     0.0030     1.1610 O.2   1 <1>  -0.5700 
  2 C       -2.3820     0.9160     1.0090 C.2   1 <1>   0.5440 
  3 N       -3.7240     0.6060     1.0400 N.am  1 <1>  -0.6600 
  4 C       -1.9110     2.2690     0.7770 C.ar  1 <1>   0.0860 
  5 C       -4.1770    -0.6960     1.6060 C.3   1 <1>   0.1400 
  6 C       -4.6860     1.1800     0.0550 C.3   1 <1>   0.1400 
  7 C       -0.7540     2.5110     0.0360 C.ar  1 <1>  -0.1500 
  8 C       -2.5870     3.3780     1.2850 C.ar  1 <1>  -0.1500 
  9 C       -4.2750    -1.7080     0.4440 C.3   1 <1>   0.4230 
 10 C       -4.8970     0.1720    -1.0890 C.3   1 <1>  -0.1600 
 11 C       -0.2940     3.7940    -0.2080 C.ar  1 <1>  -0.1440 
 12 C       -2.1440     4.6650     1.0520 C.ar  1 <1>  -0.1500 
 13 N       -4.5600    -3.1250     0.8500 N.4   1 <1>  -0.9590 
 14 C       -5.3310    -1.2360    -0.5830 C.3   1 <1>  -0.1060 
 15 C       -0.9930     4.8850     0.2990 C.ar  1 <1>   0.0830 
 16 C        0.9730     4.0000    -1.0260 C.3   1 <1>  -0.0970 
 17 C       -4.5510    -4.0940    -0.2860 C.3   1 <1>   0.3430 
 18 C       -3.8010    -3.6170     2.0310 C.3   1 <1>   0.2630 
 19 C       -6.6900    -1.1760     0.1390 C.2   1 <1>   0.9060 
 20 C       -5.4260    -2.2220    -1.7850 C.3   1 <1>  -0.1600 
 21 O       -0.5130     6.1240     0.0340 O.3   1 <1>  -0.3630 
 22 C       -4.4570    -3.4080    -1.6570 C.3   1 <1>  -0.1600 
 23 O       -6.9850    -2.1020     0.9120 O.co2 1 <1>  -0.9000 
 24 O       -7.4430    -0.2200    -0.0380 O.co2 1 <1>  -0.9000 
 25 C       -1.1310     7.2920     0.5270 C.3   1 <1>   0.0400 
 26 H       -3.4620    -1.0240     2.3370 H     1 <1>   0.0800 
 27 H       -5.1280    -0.5650     2.0930 H     1 <1>   0.0800 
 28 H       -5.6210     1.3900     0.5480 H     1 <1>   0.0800 
 29 H       -4.3140     2.1050    -0.3520 H     1 <1>   0.0800 
 30 H       -0.2130     1.6650    -0.3500 H     1 <1>   0.1500 
 31 H       -3.4750     3.2220     1.8740 H     1 <1>   0.1500 
 32 H       -3.3120    -1.6960    -0.0390 H     1 <1>   0.0800 
 33 H       -5.6530     0.5630    -1.7500 H     1 <1>   0.0800 
 34 H       -3.9840     0.0980    -1.6520 H     1 <1>   0.0800 
 35 H       -2.7040     5.4830     1.4630 H     1 <1>   0.1500 
 36 H       -5.5790    -3.0330     1.1150 H     1 <1>   0.4500 
 37 H        1.3900     3.0620    -1.3450 H     1 <1>   0.0800 
 38 H        1.7060     4.5180    -0.4340 H     1 <1>   0.0800 
 39 H        0.7530     4.5930    -1.8950 H     1 <1>   0.0800 
 40 H       -3.7220    -4.7740    -0.1810 H     1 <1>   0.0800 
 41 H       -5.4620    -4.6700    -0.2480 H     1 <1>   0.0800 
 42 H       -2.7440    -3.6020     1.8250 H     1 <1>   0.0800 
 43 H       -4.1000    -4.6240     2.2700 H     1 <1>   0.0800 
 44 H       -4.0000    -2.9930     2.8860 H     1 <1>   0.0800 
 45 H       -6.4310    -2.6070    -1.8460 H     1 <1>   0.0800 
 46 H       -5.2400    -1.7120    -2.7150 H     1 <1>   0.0800 
 47 H       -3.4470    -3.0720    -1.8140 H     1 <1>   0.0800 
 48 H       -4.6720    -4.1310    -2.4240 H     1 <1>   0.0800 
 49 H       -0.5600     8.1380     0.1910 H     1 <1>   0.0800 
 50 H       -1.1350     7.2570     1.6020 H     1 <1>   0.0800 
 51 H       -2.1320     7.3480     0.1380 H     1 <1>   0.0800 
@<TRIPOS>BOND
  1   1   2  2   
  2   2   3  am  
  3   2   4  1   
  4   3   5  1   
  5   3   6  1   
  6   4   7  ar  
  7   4   8  ar  
  8   5   9  1   
  9   5  26  1   
 10   5  27  1   
 11   6  10  1   
 12   6  28  1   
 13   6  29  1   
 14   7  11  ar  
 15   7  30  1   
 16   8  12  ar  
 17   8  31  1   
 18   9  13  1   
 19   9  14  1   
 20   9  32  1   
 21  10  14  1   
 22  10  33  1   
 23  10  34  1   
 24  11  15  ar  
 25  11  16  1   
 26  12  15  ar  
 27  12  35  1   
 28  13  17  1   
 29  13  18  1   
 30  13  36  1   
 31  14  19  1   
 32  14  20  1   
 33  15  21  1   
 34  16  37  1   
 35  16  38  1   
 36  16  39  1   
 37  17  22  1   
 38  17  40  1   
 39  17  41  1   
 40  18  42  1   
 41  18  43  1   
 42  18  44  1   
 43  19  23  ar  
 44  19  24  ar  
 45  20  22  1   
 46  20  45  1   
 47  20  46  1   
 48  21  25  1   
 49  22  47  1   
 50  22  48  1   
 51  25  49  1   
 52  25  50  1   
 53  25  51  1   
@<TRIPOS>SUBSTRUCTURE
  1 ****   3 GROUP 4 **** **** 0

# MOE 2024.06 (io_trps.svl 2023.06)
