@<TRIPOS>MOLECULE
NONAME
38 39 1 0 0 
SMALL
USER_CHARGES


@<TRIPOS>ATOM
  1 S       -1.3240     0.4300     1.9140 S.3   1 <1>  -0.0800 
  2 C       -1.3340     1.9950     1.1370 C.2   1 <1>   0.1980 
  3 C       -0.2730    -0.1550     0.6510 C.2   1 <1>  -0.1100 
  4 N       -0.6480     2.0440     0.0780 N.2   1 <1>  -0.5650 
  5 C       -2.1250     3.1400     1.7230 C.3   1 <1>   0.0200 
  6 C       -0.0070     0.8350    -0.2290 C.2   1 <1>  -0.0060 
  7 C       -2.0070     4.3850     0.8230 C.3   1 <1>   0.2090 
  8 C        0.8640     0.7800    -1.4000 C.2   1 <1>   1.0330 
  9 N       -0.7110     5.1030     1.0040 N.pl3 1 <1>  -0.8690 
 10 O        1.1010     1.8480    -2.0100 O.co2 1 <1>  -0.9000 
 11 O        1.4070    -0.2700    -1.7740 O.co2 1 <1>  -0.9000 
 12 C        0.3990     5.2160     0.2510 C.ar  1 <1>   0.7710 
 13 N        1.0960     6.2980     0.5380 N.ar  1 <1>  -0.6200 
 14 N        0.7770     4.3430    -0.7090 N.ar  1 <1>  -0.1790 
 15 C        2.1650     6.5690    -0.1870 C.ar  1 <1>   0.4100 
 16 C        1.8890     4.5730    -1.4460 C.ar  1 <1>   0.2110 
 17 N        2.8030     7.7360     0.0990 N.pl3 1 <1>  -0.8380 
 18 C        2.6170     5.6920    -1.2040 C.ar  1 <1>  -0.1430 
 19 C        2.9790     8.1970     1.5050 C.3   1 <1>   0.1290 
 20 C        3.0310     8.7950    -0.9220 C.3   1 <1>   0.1290 
 21 C        3.9040     5.9430    -1.9860 C.3   1 <1>  -0.0970 
 22 H        0.0630    -1.1760     0.6790 H     1 <1>   0.1500 
 23 H       -1.7860     3.3600     2.7180 H     1 <1>   0.0800 
 24 H       -3.1560     2.8400     1.7710 H     1 <1>   0.0800 
 25 H       -2.8030     5.0660     1.0740 H     1 <1>   0.0800 
 26 H       -2.1400     4.1120    -0.2120 H     1 <1>   0.0800 
 27 H       -0.7450     5.8230     1.7300 H     1 <1>   0.4000 
 28 H        0.3010     3.4270    -0.8170 H     1 <1>   0.4570 
 29 H        2.1750     3.8540    -2.1960 H     1 <1>   0.1500 
 30 H        2.8840     7.3670     2.1840 H     1 <1>   0.0800 
 31 H        2.2290     8.9300     1.7460 H     1 <1>   0.0800 
 32 H        3.9560     8.6310     1.6300 H     1 <1>   0.0800 
 33 H        2.5760     8.5190    -1.8570 H     1 <1>   0.0800 
 34 H        4.0870     8.9400    -1.0680 H     1 <1>   0.0800 
 35 H        2.5910     9.7210    -0.5940 H     1 <1>   0.0800 
 36 H        4.6860     6.2580    -1.3160 H     1 <1>   0.0800 
 37 H        3.7510     6.7040    -2.7280 H     1 <1>   0.0800 
 38 H        4.2330     5.0470    -2.4830 H     1 <1>   0.0800 
@<TRIPOS>BOND
  1   1   2  1   
  2   1   3  1   
  3   2   4  2   
  4   2   5  1   
  5   3   6  2   
  6   3  22  1   
  7   4   6  1   
  8   5   7  1   
  9   5  23  1   
 10   5  24  1   
 11   6   8  1   
 12   7   9  1   
 13   7  25  1   
 14   7  26  1   
 15   8  10  ar  
 16   8  11  ar  
 17   9  12  1   
 18   9  27  1   
 19  12  13  ar  
 20  12  14  ar  
 21  13  15  ar  
 22  14  16  ar  
 23  14  28  1   
 24  15  17  1   
 25  15  18  ar  
 26  16  18  ar  
 27  16  29  1   
 28  17  19  1   
 29  17  20  1   
 30  18  21  1   
 31  19  30  1   
 32  19  31  1   
 33  19  32  1   
 34  20  33  1   
 35  20  34  1   
 36  20  35  1   
 37  21  36  1   
 38  21  37  1   
 39  21  38  1   
@<TRIPOS>SUBSTRUCTURE
  1 ****  14 GROUP 4 **** **** 0

# MOE 2024.06 (io_trps.svl 2023.06)
