@<TRIPOS>MOLECULE
NONAME
38 40 1 0 0 
SMALL
USER_CHARGES


@<TRIPOS>ATOM
  1 O       -0.0140     1.4310     1.1570 O.co2 1 <1>  -0.9000 
  2 C        1.0710     1.4360     1.7540 C.2   1 <1>   0.9470 
  3 O        1.1640     1.8910     2.9030 O.co2 1 <1>  -0.9000 
  4 C        2.3560     1.1120     0.9880 C.3   1 <1>  -0.2420 
  5 C        3.1680    -0.1470     0.7980 C.3   1 <1>  -0.2420 
  6 C        3.3300     2.2650     1.1120 C.3   1 <1>   0.2350 
  7 C        2.2410     0.3220    -0.2930 C.3   1 <1>  -0.2000 
  8 C        2.9840    -1.5440     1.3960 C.2   1 <1>   0.9470 
  9 C        4.6380     0.2420     0.7660 C.3   1 <1>   0.2350 
 10 N        4.6440     1.7280     0.6560 N.am  1 <1>  -0.6600 
 11 O        3.5000    -1.7960     2.4930 O.co2 1 <1>  -0.9000 
 12 O        2.4610    -2.4360     0.7130 O.co2 1 <1>  -0.9000 
 13 C        5.6420     2.4380     0.0510 C.2   1 <1>   0.5690 
 14 O        6.6110     1.8900    -0.4270 O.2   1 <1>  -0.5700 
 15 C        5.5110     3.9600    -0.0560 C.3   1 <1>   0.1810 
 16 O        6.7620     4.6290     0.0070 O.3   1 <1>  -0.3630 
 17 C        6.8360     5.9820    -0.0640 C.ar  1 <1>   0.0820 
 18 C        5.7260     6.8180    -0.1570 C.ar  1 <1>  -0.1500 
 19 C        8.1040     6.5370    -0.0410 C.ar  1 <1>  -0.1500 
 20 C        5.8970     8.1900    -0.2240 C.ar  1 <1>  -0.1500 
 21 C        8.2710     7.9090    -0.1080 C.ar  1 <1>  -0.1500 
 22 C        7.1690     8.7430    -0.2000 C.ar  1 <1>  -0.1430 
 23 C        7.3660    10.2470    -0.2740 C.3   1 <1>  -0.0970 
 24 H        3.4110     2.5690     2.1430 H     1 <1>   0.0800 
 25 H        2.9970     3.0900     0.5090 H     1 <1>   0.0800 
 26 H        2.6510     0.7180    -1.2030 H     1 <1>   0.1000 
 27 H        1.3400    -0.2450    -0.4580 H     1 <1>   0.1000 
 28 H        5.1390    -0.2170    -0.0680 H     1 <1>   0.0800 
 29 H        5.1210    -0.0480     1.6840 H     1 <1>   0.0800 
 30 H        4.9130     4.3280     0.7560 H     1 <1>   0.0800 
 31 H        5.0500     4.2020    -0.9950 H     1 <1>   0.0800 
 32 H        4.7280     6.4270    -0.1770 H     1 <1>   0.1500 
 33 H        8.9570     5.8870     0.0300 H     1 <1>   0.1500 
 34 H        5.0340     8.8280    -0.2950 H     1 <1>   0.1500 
 35 H        9.2630     8.3240    -0.0890 H     1 <1>   0.1500 
 36 H        6.4220    10.7570    -0.3410 H     1 <1>   0.0800 
 37 H        7.9530    10.4960    -1.1390 H     1 <1>   0.0800 
 38 H        7.8800    10.5910     0.6060 H     1 <1>   0.0800 
@<TRIPOS>BOND
  1   1   2  ar  
  2   2   3  ar  
  3   2   4  1   
  4   4   5  1   
  5   4   6  1   
  6   4   7  1   
  7   5   7  1   
  8   5   8  1   
  9   5   9  1   
 10   6  10  1   
 11   6  24  1   
 12   6  25  1   
 13   7  26  1   
 14   7  27  1   
 15   8  11  ar  
 16   8  12  ar  
 17   9  10  1   
 18   9  28  1   
 19   9  29  1   
 20  10  13  am  
 21  13  14  2   
 22  13  15  1   
 23  15  16  1   
 24  15  30  1   
 25  15  31  1   
 26  16  17  1   
 27  17  18  ar  
 28  17  19  ar  
 29  18  20  ar  
 30  18  32  1   
 31  19  21  ar  
 32  19  33  1   
 33  20  22  ar  
 34  20  34  1   
 35  21  22  ar  
 36  21  35  1   
 37  22  23  1   
 38  23  36  1   
 39  23  37  1   
 40  23  38  1   
@<TRIPOS>SUBSTRUCTURE
  1 ****  13 GROUP 4 **** **** 0

# MOE 2024.06 (io_trps.svl 2023.06)
