@<TRIPOS>MOLECULE
NONAME
50 52 1 0 0 
SMALL
USER_CHARGES


@<TRIPOS>ATOM
  1 O       -0.4210     0.2010     0.8100 O.2   1 <1>  -0.5700 
  2 C       -1.4370     0.7510     0.4490 C.2   1 <1>   0.5690 
  3 N       -2.5270     0.0460     0.0180 N.am  1 <1>  -0.6600 
  4 C       -1.4400     2.2900     0.4770 C.3   1 <1>   0.4040 
  5 C       -3.8550     0.5870    -0.3770 C.3   1 <1>   0.1400 
  6 C       -2.5440    -1.4410    -0.0240 C.3   1 <1>   0.1400 
  7 N       -0.0520     2.8880     0.4330 N.4   1 <1>  -0.9590 
  8 C       -4.7050    -0.6390    -0.7170 C.3   1 <1>   0.2000 
  9 C       -4.0250    -1.8250    -0.0360 C.3   1 <1>  -0.0800 
 10 C       -0.0230     4.3190     0.8440 C.3   1 <1>   0.3430 
 11 C        0.6070     2.6460    -0.8830 C.3   1 <1>   0.3430 
 12 O       -6.0000    -0.4980    -0.2500 O.3   1 <1>  -0.6800 
 13 C       -4.3260    -3.1620    -0.7400 C.3   1 <1>  -0.0170 
 14 C        1.4260     4.7990     0.9300 C.3   1 <1>  -0.1600 
 15 C        2.0640     3.1060    -0.8200 C.3   1 <1>  -0.1600 
 16 C       -3.6650    -4.3380    -0.0370 C.ar  1 <1>   0.1670 
 17 C        2.1790     4.5760    -0.3900 C.3   1 <1>  -0.0800 
 18 N       -2.3740    -4.5120    -0.2670 N.ar  1 <1>  -0.6200 
 19 C       -4.4160    -5.1640     0.7980 C.ar  1 <1>   0.1600 
 20 C        3.6490     4.9820    -0.2480 C.3   1 <1>  -0.2400 
 21 C       -1.8880    -5.5540     0.3880 C.ar  1 <1>   0.1600 
 22 N       -3.9320    -6.2040     1.4550 N.ar  1 <1>  -0.6200 
 23 C       -2.6410    -6.3720     1.2210 C.ar  1 <1>   0.1600 
 24 H       -1.9300     2.5930     1.3870 H     1 <1>   0.0800 
 25 H       -2.0190     2.6530    -0.3530 H     1 <1>   0.0800 
 26 H       -4.2860     1.1280     0.4470 H     1 <1>   0.0800 
 27 H       -3.7640     1.2240    -1.2400 H     1 <1>   0.0800 
 28 H       -2.0560    -1.7740    -0.9250 H     1 <1>   0.0800 
 29 H       -2.0350    -1.8650     0.8270 H     1 <1>   0.0800 
 30 H        0.4980     2.3360     1.1130 H     1 <1>   0.4500 
 31 H       -4.7440    -0.7690    -1.7860 H     1 <1>   0.0800 
 32 H       -4.3450    -1.8850     0.9900 H     1 <1>   0.0800 
 33 H       -0.5560     4.9170     0.1230 H     1 <1>   0.0800 
 34 H       -0.4960     4.4400     1.8050 H     1 <1>   0.0800 
 35 H        0.5790     1.5940    -1.1230 H     1 <1>   0.0800 
 36 H        0.0920     3.1890    -1.6590 H     1 <1>   0.0800 
 37 H       -6.0280    -0.5230     0.7260 H     1 <1>   0.4000 
 38 H       -3.9790    -3.1290    -1.7580 H     1 <1>   0.0800 
 39 H       -5.3910    -3.3130    -0.7690 H     1 <1>   0.0800 
 40 H        1.4310     5.8480     1.1710 H     1 <1>   0.0800 
 41 H        1.9230     4.2820     1.7330 H     1 <1>   0.0800 
 42 H        2.6020     2.4730    -0.1350 H     1 <1>   0.0800 
 43 H        2.5100     2.9800    -1.7910 H     1 <1>   0.0800 
 44 H        1.7320     5.1950    -1.1530 H     1 <1>   0.0800 
 45 H       -5.4630    -4.9570     0.9300 H     1 <1>   0.1500 
 46 H        4.1430     4.3900     0.5040 H     1 <1>   0.0800 
 47 H        3.7280     6.0190     0.0290 H     1 <1>   0.0800 
 48 H        4.1680     4.8460    -1.1820 H     1 <1>   0.0800 
 49 H       -0.8420    -5.7720     0.2590 H     1 <1>   0.1500 
 50 H       -2.1550    -7.1960     1.7120 H     1 <1>   0.1500 
@<TRIPOS>BOND
  1   1   2  2   
  2   2   3  am  
  3   2   4  1   
  4   3   5  1   
  5   3   6  1   
  6   4   7  1   
  7   4  24  1   
  8   4  25  1   
  9   5   8  1   
 10   5  26  1   
 11   5  27  1   
 12   6   9  1   
 13   6  28  1   
 14   6  29  1   
 15   7  10  1   
 16   7  11  1   
 17   7  30  1   
 18   8   9  1   
 19   8  12  1   
 20   8  31  1   
 21   9  13  1   
 22   9  32  1   
 23  10  14  1   
 24  10  33  1   
 25  10  34  1   
 26  11  15  1   
 27  11  35  1   
 28  11  36  1   
 29  12  37  1   
 30  13  16  1   
 31  13  38  1   
 32  13  39  1   
 33  14  17  1   
 34  14  40  1   
 35  14  41  1   
 36  15  17  1   
 37  15  42  1   
 38  15  43  1   
 39  16  18  ar  
 40  16  19  ar  
 41  17  20  1   
 42  17  44  1   
 43  18  21  ar  
 44  19  22  ar  
 45  19  45  1   
 46  20  46  1   
 47  20  47  1   
 48  20  48  1   
 49  21  23  ar  
 50  21  49  1   
 51  22  23  ar  
 52  23  50  1   
@<TRIPOS>SUBSTRUCTURE
  1 ****   3 GROUP 4 **** **** 0

# MOE 2024.06 (io_trps.svl 2023.06)
