@<TRIPOS>MOLECULE
NONAME
48 50 1 0 0 
SMALL
USER_CHARGES


@<TRIPOS>ATOM
  1 S       -2.2770    -0.5580     0.1320 S.3   1 <1>  -0.0800 
  2 C       -1.2200    -1.9020     0.4030 C.2   1 <1>   0.4420 
  3 C       -0.8740     0.4590     0.1570 C.2   1 <1>   0.1980 
  4 N        0.0100    -1.5440     0.4850 N.2   1 <1>  -0.3380 
  5 N       -1.8150    -3.1400     0.5000 N.am  1 <1>  -0.4940 
  6 N        0.2010    -0.1970     0.3440 N.2   1 <1>  -0.3380 
  7 C       -1.0410     1.9610    -0.0460 C.3   1 <1>   0.3800 
  8 C       -1.2550    -4.3830     0.6380 C.2   1 <1>   0.5690 
  9 O       -2.0540     2.4380     0.7950 O.3   1 <1>  -0.5600 
 10 C       -1.4160     2.2980    -1.4910 C.3   1 <1>  -0.2400 
 11 O       -0.0600    -4.5550     0.6050 O.2   1 <1>  -0.5700 
 12 C       -2.2180    -5.5820     0.8350 C.3   1 <1>   0.2040 
 13 C       -1.9060     3.7550     1.2270 C.3   1 <1>   0.0400 
 14 C       -3.6030    -5.2200     0.2500 C.ar  1 <1>  -0.1430 
 15 C       -2.2800    -5.9720     2.3240 C.3   1 <1>  -0.1600 
 16 C       -1.6700    -6.8810     0.2070 C.3   1 <1>  -0.1600 
 17 C       -3.8170    -5.3060    -1.1220 C.ar  1 <1>  -0.1500 
 18 C       -4.6450    -4.7600     1.0500 C.ar  1 <1>  -0.1500 
 19 C       -1.0600    -6.8550     2.5820 C.3   1 <1>  -0.1600 
 20 C       -0.7560    -7.5390     1.2480 C.3   1 <1>  -0.1600 
 21 C       -5.0350    -4.9630    -1.6800 C.ar  1 <1>  -0.1500 
 22 C       -5.8640    -4.4150     0.4940 C.ar  1 <1>  -0.1500 
 23 C       -6.0720    -4.5150    -0.8700 C.ar  1 <1>   0.0830 
 24 O       -7.2960    -4.1620    -1.3310 O.3   1 <1>  -0.3630 
 25 C       -7.6300    -4.2840    -2.6960 C.3   1 <1>   0.0400 
 26 H       -2.8320    -3.1400     0.4260 H     1 <1>   0.3700 
 27 H       -0.1120     2.4370     0.2190 H     1 <1>   0.0800 
 28 H       -2.3750     1.8760    -1.7350 H     1 <1>   0.0800 
 29 H       -0.6810     1.8860    -2.1580 H     1 <1>   0.0800 
 30 H       -1.4450     3.3610    -1.6380 H     1 <1>   0.0800 
 31 H       -2.7440     3.9950     1.8580 H     1 <1>   0.0800 
 32 H       -1.8940     4.4160     0.3790 H     1 <1>   0.0800 
 33 H       -0.9940     3.8430     1.7930 H     1 <1>   0.0800 
 34 H       -3.1620    -6.5640     2.5040 H     1 <1>   0.0800 
 35 H       -2.2900    -5.1140     2.9730 H     1 <1>   0.0800 
 36 H       -1.1410    -6.6920    -0.7110 H     1 <1>   0.0800 
 37 H       -2.4890    -7.5500     0.0030 H     1 <1>   0.0800 
 38 H       -3.0300    -5.6400    -1.7770 H     1 <1>   0.1500 
 39 H       -4.5330    -4.6590     2.1150 H     1 <1>   0.1500 
 40 H       -1.2450    -7.5700     3.3660 H     1 <1>   0.0800 
 41 H       -0.2210    -6.2390     2.8630 H     1 <1>   0.0800 
 42 H        0.2780    -7.3810     0.9880 H     1 <1>   0.0800 
 43 H       -0.9440    -8.5980     1.3020 H     1 <1>   0.0800 
 44 H       -5.1580    -5.0490    -2.7430 H     1 <1>   0.1500 
 45 H       -6.6680    -4.0650     1.1170 H     1 <1>   0.1500 
 46 H       -8.6520    -3.9740    -2.8190 H     1 <1>   0.0800 
 47 H       -7.5230    -5.3130    -2.9900 H     1 <1>   0.0800 
 48 H       -6.9830    -3.6480    -3.2720 H     1 <1>   0.0800 
@<TRIPOS>BOND
  1   1   2  1   
  2   1   3  1   
  3   2   4  2   
  4   2   5  1   
  5   3   6  2   
  6   3   7  1   
  7   4   6  1   
  8   5   8  am  
  9   5  26  1   
 10   7   9  1   
 11   7  10  1   
 12   7  27  1   
 13   8  11  2   
 14   8  12  1   
 15   9  13  1   
 16  10  28  1   
 17  10  29  1   
 18  10  30  1   
 19  12  14  1   
 20  12  15  1   
 21  12  16  1   
 22  13  31  1   
 23  13  32  1   
 24  13  33  1   
 25  14  17  ar  
 26  14  18  ar  
 27  15  19  1   
 28  15  34  1   
 29  15  35  1   
 30  16  20  1   
 31  16  36  1   
 32  16  37  1   
 33  17  21  ar  
 34  17  38  1   
 35  18  22  ar  
 36  18  39  1   
 37  19  20  1   
 38  19  40  1   
 39  19  41  1   
 40  20  42  1   
 41  20  43  1   
 42  21  23  ar  
 43  21  44  1   
 44  22  23  ar  
 45  22  45  1   
 46  23  24  1   
 47  24  25  1   
 48  25  46  1   
 49  25  47  1   
 50  25  48  1   
@<TRIPOS>SUBSTRUCTURE
  1 ****   5 GROUP 4 **** **** 0

# MOE 2024.06 (io_trps.svl 2023.06)
