@<TRIPOS>MOLECULE
NONAME
49 51 1 0 0 
SMALL
USER_CHARGES


@<TRIPOS>ATOM
  1 O       -2.4680     0.5690    -2.2870 O.2   1 <1>  -0.5700 
  2 C       -2.2400     0.9290    -1.1490 C.2   1 <1>   0.7160 
  3 N       -2.4130     0.0010    -0.1440 N.am  1 <1>  -0.6600 
  4 C       -1.9340     2.3080    -0.8560 C.2   1 <1>  -0.0860 
  5 C       -3.1970     0.3520     1.0780 C.3   1 <1>   0.1400 
  6 C       -2.4620    -1.4510    -0.4780 C.3   1 <1>   0.1400 
  7 C       -1.1280     2.8670     0.0910 C.2   1 <1>  -0.0400 
  8 C       -2.4740     3.4140    -1.5430 C.2   1 <1>  -0.1500 
  9 C       -4.6700    -0.1070     0.9430 C.3   1 <1>   0.4230 
 10 C       -3.9250    -1.8900    -0.6690 C.3   1 <1>   0.3430 
 11 O       -1.1790     4.1740     0.0370 O.3   1 <1>  -0.2800 
 12 C       -0.2130     2.2490     1.1290 C.3   1 <1>  -0.0600 
 13 C       -1.9810     4.5150    -0.9470 C.2   1 <1>  -0.0400 
 14 N       -4.7810    -1.5720     0.5410 N.4   1 <1>  -0.9590 
 15 C       -5.4400     0.7980    -0.0490 C.3   1 <1>   0.1200 
 16 C       -2.1940     5.9850    -1.2340 C.3   1 <1>  -0.0600 
 17 C       -6.2340    -1.9250     0.3530 C.3   1 <1>   0.4230 
 18 O       -6.7710     0.3810    -0.1490 O.3   1 <1>  -0.5600 
 19 C       -6.9410    -0.9320    -0.6030 C.3   1 <1>   0.1200 
 20 C       -6.3850    -3.3900    -0.0890 C.3   1 <1>  -0.1600 
 21 C       -7.8230    -3.9070     0.0770 C.3   1 <1>  -0.1600 
 22 C       -7.9150    -5.3900    -0.2920 C.3   1 <1>  -0.2400 
 23 H       -2.7480    -0.1230     1.9330 H     1 <1>   0.0800 
 24 H       -3.1710     1.4140     1.2540 H     1 <1>   0.0800 
 25 H       -1.9090    -1.6420    -1.3830 H     1 <1>   0.0800 
 26 H       -2.0010    -2.0220     0.3090 H     1 <1>   0.0800 
 27 H       -3.1450     3.3470    -2.3820 H     1 <1>   0.1500 
 28 H       -5.1380     0.0260     1.9040 H     1 <1>   0.0800 
 29 H       -3.9460    -2.9480    -0.8700 H     1 <1>   0.0800 
 30 H       -4.3150    -1.3820    -1.5370 H     1 <1>   0.0800 
 31 H       -0.1890     1.1800     1.0360 H     1 <1>   0.0800 
 32 H       -0.5470     2.5150     2.1150 H     1 <1>   0.0800 
 33 H        0.7850     2.6260     0.9920 H     1 <1>   0.0800 
 34 H       -4.4310    -2.1340     1.3250 H     1 <1>   0.4500 
 35 H       -5.0000     0.7820    -1.0310 H     1 <1>   0.0800 
 36 H       -5.4460     1.8160     0.3020 H     1 <1>   0.0800 
 37 H       -2.8660     6.1080    -2.0630 H     1 <1>   0.0800 
 38 H       -1.2540     6.4460    -1.4730 H     1 <1>   0.0800 
 39 H       -2.6100     6.4680    -0.3690 H     1 <1>   0.0800 
 40 H       -6.7250    -1.8320     1.3080 H     1 <1>   0.0800 
 41 H       -7.9990    -1.1240    -0.6260 H     1 <1>   0.0800 
 42 H       -6.5600    -1.0070    -1.6060 H     1 <1>   0.0800 
 43 H       -6.1010    -3.5010    -1.1210 H     1 <1>   0.0800 
 44 H       -5.7420    -4.0080     0.5140 H     1 <1>   0.0800 
 45 H       -8.1460    -3.7840     1.0980 H     1 <1>   0.0800 
 46 H       -8.5000    -3.3570    -0.5550 H     1 <1>   0.0800 
 47 H       -7.2800    -5.9840     0.3420 H     1 <1>   0.0800 
 48 H       -7.6260    -5.5470    -1.3170 H     1 <1>   0.0800 
 49 H       -8.9270    -5.7360    -0.1720 H     1 <1>   0.0800 
@<TRIPOS>BOND
  1   1   2  2   
  2   2   3  am  
  3   2   4  1   
  4   3   5  1   
  5   3   6  1   
  6   4   7  2   
  7   4   8  1   
  8   5   9  1   
  9   5  23  1   
 10   5  24  1   
 11   6  10  1   
 12   6  25  1   
 13   6  26  1   
 14   7  11  1   
 15   7  12  1   
 16   8  13  2   
 17   8  27  1   
 18   9  14  1   
 19   9  15  1   
 20   9  28  1   
 21  10  14  1   
 22  10  29  1   
 23  10  30  1   
 24  11  13  1   
 25  12  31  1   
 26  12  32  1   
 27  12  33  1   
 28  13  16  1   
 29  14  17  1   
 30  14  34  1   
 31  15  18  1   
 32  15  35  1   
 33  15  36  1   
 34  16  37  1   
 35  16  38  1   
 36  16  39  1   
 37  17  19  1   
 38  17  20  1   
 39  17  40  1   
 40  18  19  1   
 41  19  41  1   
 42  19  42  1   
 43  20  21  1   
 44  20  43  1   
 45  20  44  1   
 46  21  22  1   
 47  21  45  1   
 48  21  46  1   
 49  22  47  1   
 50  22  48  1   
 51  22  49  1   
@<TRIPOS>SUBSTRUCTURE
  1 ****   3 GROUP 4 **** **** 0

# MOE 2024.06 (io_trps.svl 2023.06)
