@<TRIPOS>MOLECULE
NONAME
37 38 1 0 0 
SMALL
USER_CHARGES


@<TRIPOS>ATOM
  1 O        0.1300    -0.3020     0.7960 O.2   1 <1>  -0.5700 
  2 C        1.1830    -0.8070     0.4660 C.2   1 <1>   0.5440 
  3 N        2.2370    -0.0260     0.0500 N.am  1 <1>  -0.4940 
  4 C        1.3340    -2.2440     0.4970 C.ar  1 <1>   0.0860 
  5 C        2.4410     1.3760     0.0760 C.2   1 <1>  -0.0880 
  6 C        2.5050    -2.8360     0.9660 C.ar  1 <1>   0.1600 
  7 C        0.3280    -3.0970     0.0640 C.ar  1 <1>  -0.1500 
  8 N        1.5280     2.3640    -0.1510 N.pl3 1 <1>   0.3140 
  9 C        3.6220     1.9990     0.3080 C.2   1 <1>  -0.1810 
 10 N        2.7580    -4.1320     1.0030 N.ar  1 <1>  -0.6200 
 11 C        0.5570    -4.4560     0.1020 C.ar  1 <1>  -0.1430 
 12 N        2.0980     3.5860    -0.0740 N.2   1 <1>  -0.7070 
 13 C        0.1200     2.2510    -0.5510 C.3   1 <1>   0.0160 
 14 C        3.3420     3.3600     0.2040 C.2   1 <1>   0.1080 
 15 C        4.9760     1.3860     0.6210 C.3   1 <1>  -0.0590 
 16 C        1.7800    -4.9130     0.5710 C.ar  1 <1>   0.1600 
 17 C       -0.5100    -5.4330    -0.3640 C.3   1 <1>  -0.0970 
 18 C        4.3400     4.4900     0.3810 C.3   1 <1>   0.0210 
 19 C        5.0350     4.8270    -0.9430 C.3   1 <1>  -0.2400 
 20 H        3.0560    -0.5440    -0.2640 H     1 <1>   0.3700 
 21 H        3.2830    -2.1930     1.3400 H     1 <1>   0.1500 
 22 H       -0.6050    -2.6910    -0.2900 H     1 <1>   0.1500 
 23 H       -0.0040     1.3960    -1.1860 H     1 <1>   0.0800 
 24 H       -0.1690     3.1400    -1.0800 H     1 <1>   0.0800 
 25 H       -0.4840     2.1450     0.3310 H     1 <1>   0.0800 
 26 H        4.9130     0.3150     0.6610 H     1 <1>   0.0800 
 27 H        5.3240     1.7420     1.5740 H     1 <1>   0.0800 
 28 H        5.6860     1.6620    -0.1360 H     1 <1>   0.0800 
 29 H        1.9630    -5.9740     0.5960 H     1 <1>   0.1500 
 30 H       -1.4880    -4.9940    -0.2800 H     1 <1>   0.0800 
 31 H       -0.4900    -6.3260     0.2360 H     1 <1>   0.0800 
 32 H       -0.3380    -5.7010    -1.3910 H     1 <1>   0.0800 
 33 H        5.0700     4.2160     1.1200 H     1 <1>   0.0800 
 34 H        3.8150     5.3580     0.7400 H     1 <1>   0.0800 
 35 H        5.5690     3.9710    -1.3130 H     1 <1>   0.0800 
 36 H        5.7260     5.6390    -0.8040 H     1 <1>   0.0800 
 37 H        4.3000     5.1170    -1.6730 H     1 <1>   0.0800 
@<TRIPOS>BOND
  1   1   2  2   
  2   2   3  am  
  3   2   4  1   
  4   3   5  1   
  5   3  20  1   
  6   4   6  ar  
  7   4   7  ar  
  8   5   8  1   
  9   5   9  2   
 10   6  10  ar  
 11   6  21  1   
 12   7  11  ar  
 13   7  22  1   
 14   8  12  1   
 15   8  13  1   
 16   9  14  1   
 17   9  15  1   
 18  10  16  ar  
 19  11  16  ar  
 20  11  17  1   
 21  12  14  2   
 22  13  23  1   
 23  13  24  1   
 24  13  25  1   
 25  14  18  1   
 26  15  26  1   
 27  15  27  1   
 28  15  28  1   
 29  16  29  1   
 30  17  30  1   
 31  17  31  1   
 32  17  32  1   
 33  18  19  1   
 34  18  33  1   
 35  18  34  1   
 36  19  35  1   
 37  19  36  1   
 38  19  37  1   
@<TRIPOS>SUBSTRUCTURE
  1 ****   3 GROUP 4 **** **** 0

# MOE 2024.06 (io_trps.svl 2023.06)
