@<TRIPOS>MOLECULE
NONAME
48 51 1 0 0 
SMALL
USER_CHARGES


@<TRIPOS>ATOM
  1 O       -1.4450    -1.5470    -0.1400 O.2   1 <1>  -0.5700 
  2 C       -0.4350    -2.1710     0.0730 C.2   1 <1>   0.5690 
  3 N       -0.3990    -3.3290     0.8000 N.am  1 <1>  -0.6600 
  4 C        0.8750    -1.6550    -0.4850 C.3   1 <1>  -0.0990 
  5 C        0.8840    -4.0300     1.0470 C.3   1 <1>   0.1400 
  6 C       -1.6150    -3.9120     1.4310 C.3   1 <1>   0.0600 
  7 C        1.6760    -2.8070    -1.1200 C.3   1 <1>  -0.0800 
  8 C        1.7150    -4.0880    -0.2520 C.3   1 <1>  -0.0800 
  9 C        3.1330    -2.4370    -1.4280 C.3   1 <1>  -0.1600 
 10 C        3.2010    -4.3870    -0.0090 C.3   1 <1>  -0.1600 
 11 C        3.9110    -3.7260    -1.1890 C.3   1 <1>   0.4230 
 12 N        5.3640    -3.4940    -0.9800 N.4   1 <1>  -0.9590 
 13 C        5.7580    -2.7210     0.2450 C.3   1 <1>   0.5240 
 14 C        6.1570    -4.7570    -1.0940 C.3   1 <1>   0.2630 
 15 C        7.0790    -2.0110    -0.0180 C.2   1 <1>   0.1080 
 16 N        7.4870    -1.6990    -1.1990 N.2   1 <1>  -0.4100 
 17 C        8.0050    -1.6110     0.9450 C.2   1 <1>  -0.1500 
 18 O        8.6390    -1.1150    -1.0390 O.3   1 <1>  -0.0190 
 19 C        8.9810    -1.0440     0.2210 C.2   1 <1>   0.0550 
 20 C       10.2920    -0.3980     0.6390 C.3   1 <1>  -0.0150 
 21 C       10.8300     0.7920    -0.0900 C.3   1 <1>  -0.2000 
 22 C       11.5220    -0.5380    -0.2000 C.3   1 <1>  -0.2000 
 23 H        0.6750    -0.8940    -1.2180 H     1 <1>   0.0800 
 24 H        1.4180    -1.2070     0.3260 H     1 <1>   0.0800 
 25 H        1.4140    -3.4920     1.8130 H     1 <1>   0.0800 
 26 H        0.6960    -5.0290     1.4040 H     1 <1>   0.0800 
 27 H       -1.7840    -4.9040     1.0500 H     1 <1>   0.0800 
 28 H       -2.4810    -3.3100     1.2110 H     1 <1>   0.0800 
 29 H       -1.4890    -3.9540     2.4980 H     1 <1>   0.0800 
 30 H        1.1840    -3.0640    -2.0450 H     1 <1>   0.0800 
 31 H        1.3080    -4.8890    -0.8490 H     1 <1>   0.0800 
 32 H        3.4530    -1.6560    -0.7630 H     1 <1>   0.0800 
 33 H        3.2350    -2.0990    -2.4450 H     1 <1>   0.0800 
 34 H        3.3800    -5.4470     0.0220 H     1 <1>   0.0800 
 35 H        3.5010    -3.9400     0.9210 H     1 <1>   0.0800 
 36 H        3.7720    -4.3530    -2.0570 H     1 <1>   0.0800 
 37 H        5.6940    -2.8820    -1.7490 H     1 <1>   0.4500 
 38 H        5.0150    -1.9770     0.4740 H     1 <1>   0.0800 
 39 H        5.8530    -3.3810     1.0900 H     1 <1>   0.0800 
 40 H        5.9080    -5.4340    -0.2920 H     1 <1>   0.0800 
 41 H        7.2130    -4.5400    -1.0510 H     1 <1>   0.0800 
 42 H        5.9500    -5.2440    -2.0340 H     1 <1>   0.0800 
 43 H        7.9440    -1.7310     2.0120 H     1 <1>   0.1500 
 44 H       10.4290    -0.4140     1.7060 H     1 <1>   0.1000 
 45 H       10.2970     1.1660    -0.9470 H     1 <1>   0.1000 
 46 H       11.3020     1.5760     0.4770 H     1 <1>   0.1000 
 47 H       12.4700    -0.6720     0.2900 H     1 <1>   0.1000 
 48 H       11.4620    -1.0700    -1.1340 H     1 <1>   0.1000 
@<TRIPOS>BOND
  1   1   2  2   
  2   2   3  am  
  3   2   4  1   
  4   3   5  1   
  5   3   6  1   
  6   4   7  1   
  7   4  23  1   
  8   4  24  1   
  9   5   8  1   
 10   5  25  1   
 11   5  26  1   
 12   6  27  1   
 13   6  28  1   
 14   6  29  1   
 15   7   8  1   
 16   7   9  1   
 17   7  30  1   
 18   8  10  1   
 19   8  31  1   
 20   9  11  1   
 21   9  32  1   
 22   9  33  1   
 23  10  11  1   
 24  10  34  1   
 25  10  35  1   
 26  11  12  1   
 27  11  36  1   
 28  12  13  1   
 29  12  14  1   
 30  12  37  1   
 31  13  15  1   
 32  13  38  1   
 33  13  39  1   
 34  14  40  1   
 35  14  41  1   
 36  14  42  1   
 37  15  16  2   
 38  15  17  1   
 39  16  18  1   
 40  17  19  2   
 41  17  43  1   
 42  18  19  1   
 43  19  20  1   
 44  20  21  1   
 45  20  22  1   
 46  20  44  1   
 47  21  22  1   
 48  21  45  1   
 49  21  46  1   
 50  22  47  1   
 51  22  48  1   
@<TRIPOS>SUBSTRUCTURE
  1 ****  13 GROUP 4 **** **** 0

# MOE 2024.06 (io_trps.svl 2023.06)
