@<TRIPOS>MOLECULE
NONAME
52 54 1 0 0 
SMALL
USER_CHARGES


@<TRIPOS>ATOM
  1 O        1.7840     1.3930    -2.8050 O.2   1 <1>  -0.5700 
  2 C        2.1130     1.4430    -1.6400 C.2   1 <1>   0.5440 
  3 N        1.1020     1.5240    -0.7430 N.am  1 <1>  -0.8000 
  4 C        3.5020     1.4000    -1.2450 C.ar  1 <1>   0.0860 
  5 C        3.9440     1.9700    -0.0530 C.ar  1 <1>   0.1600 
  6 C        4.4720     0.7970    -2.0400 C.ar  1 <1>  -0.1500 
  7 N        5.1870     1.9790     0.3960 N.ar  1 <1>  -0.6200 
  8 C        5.7690     0.7930    -1.5900 C.ar  1 <1>  -0.1500 
  9 C        6.0960     1.3820    -0.3700 C.ar  1 <1>   0.4100 
 10 N        7.4040     1.3700     0.0780 N.pl3 1 <1>  -0.8380 
 11 C        7.8940     2.4160     1.0200 C.3   1 <1>   0.2090 
 12 C        8.1010     0.0590     0.2030 C.3   1 <1>   0.1290 
 13 C        7.8540     3.8100     0.3650 C.3   1 <1>  -0.0800 
 14 C        8.6360     3.8640    -0.9600 C.3   1 <1>  -0.1600 
 15 C        8.3890     4.8860     1.3230 C.3   1 <1>  -0.1600 
 16 C        8.5900     5.2600    -1.5730 C.3   1 <1>   0.3430 
 17 C        8.3530     6.2710     0.6770 C.3   1 <1>   0.3430 
 18 N        9.1270     6.2530    -0.6010 N.4   1 <1>  -0.9590 
 19 C        9.2190     7.6090    -1.2040 C.3   1 <1>   0.4860 
 20 C       10.0030     8.5030    -0.2640 C.ar  1 <1>  -0.1430 
 21 C       11.3800     8.3650    -0.1520 C.ar  1 <1>  -0.1500 
 22 C        9.3490     9.4630     0.4960 C.ar  1 <1>  -0.1500 
 23 C       12.0910     9.1690     0.7210 C.ar  1 <1>  -0.1500 
 24 C       10.0630    10.2660     1.3680 C.ar  1 <1>  -0.1500 
 25 C       11.4330    10.1170     1.4830 C.ar  1 <1>  -0.1500 
 26 H        0.1460     1.5090    -1.1040 H     1 <1>   0.3700 
 27 H        1.2040     1.3520     0.2570 H     1 <1>   0.3700 
 28 H        3.2160     2.4590     0.5690 H     1 <1>   0.1500 
 29 H        4.1980     0.3500    -2.9810 H     1 <1>   0.1500 
 30 H        6.5470     0.3410    -2.1740 H     1 <1>   0.1500 
 31 H        8.9040     2.1870     1.3120 H     1 <1>   0.0800 
 32 H        7.2820     2.4060     1.9070 H     1 <1>   0.0800 
 33 H        7.5290    -0.7260    -0.2620 H     1 <1>   0.0800 
 34 H        8.2280    -0.1910     1.2430 H     1 <1>   0.0800 
 35 H        9.0660     0.1130    -0.2690 H     1 <1>   0.0800 
 36 H        6.8230     4.0440     0.1610 H     1 <1>   0.0800 
 37 H        8.1990     3.1750    -1.6620 H     1 <1>   0.0800 
 38 H        9.6560     3.5620    -0.8070 H     1 <1>   0.0800 
 39 H        9.3960     4.6570     1.6250 H     1 <1>   0.0800 
 40 H        7.7810     4.9060     2.2120 H     1 <1>   0.0800 
 41 H        7.5690     5.5050    -1.8220 H     1 <1>   0.0800 
 42 H        9.1740     5.2710    -2.4800 H     1 <1>   0.0800 
 43 H        8.7770     6.9920     1.3580 H     1 <1>   0.0800 
 44 H        7.3300     6.5490     0.4810 H     1 <1>   0.0800 
 45 H       10.0860     5.9790    -0.3560 H     1 <1>   0.4500 
 46 H        8.2340     8.0160    -1.3650 H     1 <1>   0.0800 
 47 H        9.7290     7.5610    -2.1520 H     1 <1>   0.0800 
 48 H       11.9180     7.6400    -0.7390 H     1 <1>   0.1500 
 49 H        8.2840     9.6010     0.4200 H     1 <1>   0.1500 
 50 H       13.1600     9.0630     0.8090 H     1 <1>   0.1500 
 51 H        9.5560    11.0110     1.9590 H     1 <1>   0.1500 
 52 H       11.9880    10.7430     2.1620 H     1 <1>   0.1500 
@<TRIPOS>BOND
  1   1   2  2   
  2   2   3  am  
  3   2   4  1   
  4   3  26  1   
  5   3  27  1   
  6   4   5  ar  
  7   4   6  ar  
  8   5   7  ar  
  9   5  28  1   
 10   6   8  ar  
 11   6  29  1   
 12   7   9  ar  
 13   8   9  ar  
 14   8  30  1   
 15   9  10  1   
 16  10  11  1   
 17  10  12  1   
 18  11  13  1   
 19  11  31  1   
 20  11  32  1   
 21  12  33  1   
 22  12  34  1   
 23  12  35  1   
 24  13  14  1   
 25  13  15  1   
 26  13  36  1   
 27  14  16  1   
 28  14  37  1   
 29  14  38  1   
 30  15  17  1   
 31  15  39  1   
 32  15  40  1   
 33  16  18  1   
 34  16  41  1   
 35  16  42  1   
 36  17  18  1   
 37  17  43  1   
 38  17  44  1   
 39  18  19  1   
 40  18  45  1   
 41  19  20  1   
 42  19  46  1   
 43  19  47  1   
 44  20  21  ar  
 45  20  22  ar  
 46  21  23  ar  
 47  21  48  1   
 48  22  24  ar  
 49  22  49  1   
 50  23  25  ar  
 51  23  50  1   
 52  24  25  ar  
 53  24  51  1   
 54  25  52  1   
@<TRIPOS>SUBSTRUCTURE
  1 ****  13 GROUP 4 **** **** 0

# MOE 2024.06 (io_trps.svl 2023.06)
