@<TRIPOS>MOLECULE
NONAME
43 43 1 0 0 
SMALL
USER_CHARGES


@<TRIPOS>ATOM
  1 O       -0.8730     0.6500    -1.2490 O.2   1 <1>  -0.5700 
  2 C       -0.6490     1.5600    -0.4800 C.2   1 <1>   0.5690 
  3 N        0.6320     1.8450    -0.1020 N.am  1 <1>  -0.7300 
  4 C       -1.8200     2.4260     0.0980 C.3   1 <1>   0.3310 
  5 C        1.8420     1.0850    -0.4940 C.3   1 <1>   0.0600 
  6 N       -1.5140     3.9020     0.0380 N.3   1 <1>  -0.8100 
  7 C       -1.9800     2.0250     1.5750 C.3   1 <1>  -0.2400 
  8 C       -3.1500     2.1200    -0.6260 C.3   1 <1>  -0.2400 
  9 C       -1.1740     4.3620    -1.3390 C.3   1 <1>   0.2900 
 10 C       -2.5320     4.8040     0.6290 C.3   1 <1>   0.0300 
 11 C       -0.6490     5.7960    -1.3820 C.2   1 <1>   0.0060 
 12 N       -1.1820     6.7120    -2.1290 N.2   1 <1>  -0.5650 
 13 N        0.4100     6.2390    -0.6570 N.pl3 1 <1>   0.0480 
 14 C       -0.4410     7.8060    -1.8830 C.2   1 <1>   0.0770 
 15 C        0.5340     7.5380    -0.9900 C.2   1 <1>  -0.3020 
 16 C        1.2790     5.5090     0.2870 C.3   1 <1>   0.0960 
 17 C        2.4300     4.8570    -0.4710 C.3   1 <1>   0.1200 
 18 O        3.1570     4.0850     0.4310 O.3   1 <1>  -0.5600 
 19 C        4.3840     3.6490    -0.0610 C.3   1 <1>   0.0400 
 20 H        0.7810     2.6550     0.5070 H     1 <1>   0.3700 
 21 H        1.5640     0.1270    -0.9020 H     1 <1>   0.0800 
 22 H        2.4680     0.9300     0.3670 H     1 <1>   0.0800 
 23 H        2.3890     1.6350    -1.2380 H     1 <1>   0.0800 
 24 H       -1.1400     2.3710     2.1500 H     1 <1>   0.0800 
 25 H       -2.0210     0.9530     1.6540 H     1 <1>   0.0800 
 26 H       -2.8880     2.4110     1.9990 H     1 <1>   0.0800 
 27 H       -3.0750     2.3390    -1.6740 H     1 <1>   0.0800 
 28 H       -3.9720     2.6630    -0.2010 H     1 <1>   0.0800 
 29 H       -3.3730     1.0720    -0.5350 H     1 <1>   0.0800 
 30 H       -2.0480     4.3090    -1.9650 H     1 <1>   0.0800 
 31 H       -0.4230     3.7280    -1.7750 H     1 <1>   0.0800 
 32 H       -2.7650     4.5210     1.6390 H     1 <1>   0.0800 
 33 H       -3.4330     4.8030     0.0410 H     1 <1>   0.0800 
 34 H       -2.1600     5.8130     0.6640 H     1 <1>   0.0800 
 35 H       -0.6530     8.7440    -2.3690 H     1 <1>   0.1500 
 36 H        1.2880     8.1870    -0.5840 H     1 <1>   0.1500 
 37 H        0.7030     4.7650     0.8010 H     1 <1>   0.0800 
 38 H        1.6660     6.2040     1.0080 H     1 <1>   0.0800 
 39 H        3.0730     5.6150    -0.8870 H     1 <1>   0.0800 
 40 H        2.0600     4.2110    -1.2490 H     1 <1>   0.0800 
 41 H        4.8380     3.0170     0.6830 H     1 <1>   0.0800 
 42 H        5.0160     4.5010    -0.2440 H     1 <1>   0.0800 
 43 H        4.2310     3.0920    -0.9680 H     1 <1>   0.0800 
@<TRIPOS>BOND
  1   1   2  2   
  2   2   3  am  
  3   2   4  1   
  4   3   5  1   
  5   3  20  1   
  6   4   6  1   
  7   4   7  1   
  8   4   8  1   
  9   5  21  1   
 10   5  22  1   
 11   5  23  1   
 12   6   9  1   
 13   6  10  1   
 14   7  24  1   
 15   7  25  1   
 16   7  26  1   
 17   8  27  1   
 18   8  28  1   
 19   8  29  1   
 20   9  11  1   
 21   9  30  1   
 22   9  31  1   
 23  10  32  1   
 24  10  33  1   
 25  10  34  1   
 26  11  12  2   
 27  11  13  1   
 28  12  14  1   
 29  13  15  1   
 30  13  16  1   
 31  14  15  2   
 32  14  35  1   
 33  15  36  1   
 34  16  17  1   
 35  16  37  1   
 36  16  38  1   
 37  17  18  1   
 38  17  39  1   
 39  17  40  1   
 40  18  19  1   
 41  19  41  1   
 42  19  42  1   
 43  19  43  1   
@<TRIPOS>SUBSTRUCTURE
  1 ****   9 GROUP 4 **** **** 0

# MOE 2024.06 (io_trps.svl 2023.06)
