@<TRIPOS>MOLECULE
NONAME
48 50 1 0 0 
SMALL
USER_CHARGES


@<TRIPOS>ATOM
  1 O        0.8860    -0.1510    -1.9920 O.2   1 <1>  -0.5700 
  2 C        1.8110    -0.7500    -1.4750 C.2   1 <1>   0.5440 
  3 N        3.0400    -0.1290    -1.3850 N.am  1 <1>  -0.6600 
  4 C        1.5890    -2.0890    -0.9780 C.ar  1 <1>   0.0860 
  5 C        3.2580     1.2870    -1.8190 C.3   1 <1>   0.1400 
  6 C        4.2330    -0.7160    -0.6970 C.3   1 <1>   0.1400 
  7 C        1.5590    -2.4140     0.3880 C.ar  1 <1>   0.0830 
  8 C        1.4190    -3.1280    -1.8940 C.ar  1 <1>  -0.1500 
  9 C        3.6950     2.1680    -0.6370 C.3   1 <1>   0.2090 
 10 C        4.6610     0.1520     0.4980 C.3   1 <1>   0.2090 
 11 O        1.6780    -1.4980     1.3760 O.3   1 <1>  -0.3630 
 12 C        1.4140    -3.7320     0.7940 C.ar  1 <1>  -0.1500 
 13 C        1.2590    -4.4380    -1.4850 C.ar  1 <1>  -0.1500 
 14 N        4.8780     1.5770     0.0750 N.pl3 1 <1>  -0.8380 
 15 C        0.8580    -0.3460     1.3670 C.3   1 <1>   0.0400 
 16 C        1.2640    -4.7440    -0.1350 C.ar  1 <1>  -0.1500 
 17 C        6.0480     2.2600     0.2930 C.ar  1 <1>   0.7200 
 18 N        6.0860     3.5470    -0.0530 N.ar  1 <1>  -0.6200 
 19 N        7.0630     1.5930     0.8370 N.ar  1 <1>  -0.6200 
 20 C        7.2020     4.2000     0.1480 C.ar  1 <1>   0.1670 
 21 C        8.1720     2.2620     1.0200 C.ar  1 <1>   0.1600 
 22 C        8.3400     3.5900     0.6690 C.ar  1 <1>   0.0860 
 23 C        7.1480     5.6770    -0.2050 C.3   1 <1>  -0.0970 
 24 C        9.6250     4.2020     0.8630 C.2   1 <1>   0.4230 
 25 O       10.2850     4.0160     1.8510 O.2   1 <1>  -0.5700 
 26 C       10.2480     5.0670    -0.2150 C.3   1 <1>  -0.1790 
 27 H        2.3630     1.6970    -2.2510 H     1 <1>   0.0800 
 28 H        4.0250     1.3080    -2.5730 H     1 <1>   0.0800 
 29 H        5.0500    -0.7690    -1.3950 H     1 <1>   0.0800 
 30 H        4.0330    -1.7140    -0.3530 H     1 <1>   0.0800 
 31 H        1.4170    -2.8920    -2.9450 H     1 <1>   0.1500 
 32 H        2.8780     2.2560     0.0570 H     1 <1>   0.0800 
 33 H        3.9100     3.1530    -1.0090 H     1 <1>   0.0800 
 34 H        5.5470    -0.2730     0.9320 H     1 <1>   0.0800 
 35 H        3.8910     0.1230     1.2490 H     1 <1>   0.0800 
 36 H        1.4140    -3.9590     1.8450 H     1 <1>   0.1500 
 37 H        1.1330    -5.2210    -2.2130 H     1 <1>   0.1500 
 38 H        0.7170    -0.0270     2.3840 H     1 <1>   0.0800 
 39 H       -0.0920    -0.5860     0.9220 H     1 <1>   0.0800 
 40 H        1.3480     0.4330     0.8110 H     1 <1>   0.0800 
 41 H        1.1460    -5.7640     0.1890 H     1 <1>   0.1500 
 42 H        9.0030     1.7400     1.4650 H     1 <1>   0.1500 
 43 H        6.1330     6.0310    -0.1440 H     1 <1>   0.0800 
 44 H        7.4970     5.8300    -1.2090 H     1 <1>   0.0800 
 45 H        7.7380     6.2590     0.4790 H     1 <1>   0.0800 
 46 H        9.7930     4.8790    -1.1690 H     1 <1>   0.0800 
 47 H       11.2970     4.8400    -0.2880 H     1 <1>   0.0800 
 48 H       10.1430     6.1040     0.0420 H     1 <1>   0.0800 
@<TRIPOS>BOND
  1   1   2  2   
  2   2   3  am  
  3   2   4  1   
  4   3   5  1   
  5   3   6  1   
  6   4   7  ar  
  7   4   8  ar  
  8   5   9  1   
  9   5  27  1   
 10   5  28  1   
 11   6  10  1   
 12   6  29  1   
 13   6  30  1   
 14   7  11  1   
 15   7  12  ar  
 16   8  13  ar  
 17   8  31  1   
 18   9  14  1   
 19   9  32  1   
 20   9  33  1   
 21  10  14  1   
 22  10  34  1   
 23  10  35  1   
 24  11  15  1   
 25  12  16  ar  
 26  12  36  1   
 27  13  16  ar  
 28  13  37  1   
 29  14  17  1   
 30  15  38  1   
 31  15  39  1   
 32  15  40  1   
 33  16  41  1   
 34  17  18  ar  
 35  17  19  ar  
 36  18  20  ar  
 37  19  21  ar  
 38  20  22  ar  
 39  20  23  1   
 40  21  22  ar  
 41  21  42  1   
 42  22  24  1   
 43  23  43  1   
 44  23  44  1   
 45  23  45  1   
 46  24  25  2   
 47  24  26  1   
 48  26  46  1   
 49  26  47  1   
 50  26  48  1   
@<TRIPOS>SUBSTRUCTURE
  1 ****  10 GROUP 4 **** **** 0

# MOE 2024.06 (io_trps.svl 2023.06)
