@<TRIPOS>MOLECULE
NONAME
38 39 1 0 0 
SMALL
USER_CHARGES


@<TRIPOS>ATOM
  1 O        0.6690     0.8200     0.7510 O.2   1 <1>  -0.5700 
  2 C        1.3320     1.8120     0.6060 C.2   1 <1>   0.5690 
  3 N        0.7310     3.0220     0.5910 N.am  1 <1>  -0.7300 
  4 C        2.8250     1.6580     0.4350 C.3   1 <1>  -0.0990 
  5 C        1.3020     4.3650     0.2980 C.3   1 <1>   0.1400 
  6 C        3.2940     2.1900    -0.9160 C.3   1 <1>   0.2090 
  7 C        2.1130     4.3880    -1.0080 C.3   1 <1>   0.2090 
  8 N        3.4350     3.6780    -0.8570 N.pl3 1 <1>  -0.8380 
  9 C        4.5760     4.3820    -0.6020 C.ar  1 <1>   0.7710 
 10 N        4.5000     5.6900    -0.4240 N.ar  1 <1>  -0.6200 
 11 N        5.7510     3.7330    -0.5240 N.ar  1 <1>  -0.1790 
 12 C        5.6010     6.3630    -0.1500 C.ar  1 <1>   0.4100 
 13 C        6.9110     4.3870    -0.2820 C.ar  1 <1>   0.2110 
 14 N        5.4500     7.6940     0.0680 N.pl3 1 <1>  -0.8380 
 15 C        6.8680     5.7280    -0.0940 C.ar  1 <1>  -0.1440 
 16 C        5.8880     8.3640     1.3250 C.3   1 <1>   0.1290 
 17 C        4.5360     8.5220    -0.7700 C.3   1 <1>   0.1290 
 18 C        8.1590     6.5160     0.1280 C.3   1 <1>  -0.0970 
 19 H       -0.2760     2.9960     0.7730 H     1 <1>   0.3700 
 20 H        3.0490     0.6080     0.4880 H     1 <1>   0.0800 
 21 H        3.3340     2.1450     1.2460 H     1 <1>   0.0800 
 22 H        1.9190     4.6910     1.1180 H     1 <1>   0.0800 
 23 H        0.4870     5.0620     0.2040 H     1 <1>   0.0800 
 24 H        2.5840     1.9150    -1.6810 H     1 <1>   0.0800 
 25 H        4.2280     1.7260    -1.1780 H     1 <1>   0.0800 
 26 H        2.2640     5.4140    -1.2980 H     1 <1>   0.0800 
 27 H        1.5340     3.9330    -1.7950 H     1 <1>   0.0800 
 28 H        5.7160     2.7340    -0.6800 H     1 <1>   0.4570 
 29 H        7.8310     3.8240    -0.2560 H     1 <1>   0.1500 
 30 H        6.2570     7.6400     2.0290 H     1 <1>   0.0800 
 31 H        5.0570     8.8790     1.7750 H     1 <1>   0.0800 
 32 H        6.6650     9.0770     1.1070 H     1 <1>   0.0800 
 33 H        4.3190     8.0190    -1.6970 H     1 <1>   0.0800 
 34 H        4.9990     9.4680    -0.9940 H     1 <1>   0.0800 
 35 H        3.6130     8.6930    -0.2440 H     1 <1>   0.0800 
 36 H        8.1540     7.4080    -0.4750 H     1 <1>   0.0800 
 37 H        9.0230     5.9370    -0.1440 H     1 <1>   0.0800 
 38 H        8.2540     6.8000     1.1600 H     1 <1>   0.0800 
@<TRIPOS>BOND
  1   1   2  2   
  2   2   3  am  
  3   2   4  1   
  4   3   5  1   
  5   3  19  1   
  6   4   6  1   
  7   4  20  1   
  8   4  21  1   
  9   5   7  1   
 10   5  22  1   
 11   5  23  1   
 12   6   8  1   
 13   6  24  1   
 14   6  25  1   
 15   7   8  1   
 16   7  26  1   
 17   7  27  1   
 18   8   9  1   
 19   9  10  ar  
 20   9  11  ar  
 21  10  12  ar  
 22  11  13  ar  
 23  11  28  1   
 24  12  14  1   
 25  12  15  ar  
 26  13  15  ar  
 27  13  29  1   
 28  14  16  1   
 29  14  17  1   
 30  15  18  1   
 31  16  30  1   
 32  16  31  1   
 33  16  32  1   
 34  17  33  1   
 35  17  34  1   
 36  17  35  1   
 37  18  36  1   
 38  18  37  1   
 39  18  38  1   
@<TRIPOS>SUBSTRUCTURE
  1 ****   9 GROUP 4 **** **** 0

# MOE 2024.06 (io_trps.svl 2023.06)
