@<TRIPOS>MOLECULE
NONAME
57 58 1 0 0 
SMALL
USER_CHARGES


@<TRIPOS>ATOM
  1 O       -2.9960     2.2420     0.8000 O.2   1 <1>  -0.5700 
  2 C       -2.5120     1.3570     0.1250 C.2   1 <1>   0.5690 
  3 N       -3.3320     0.7710    -0.8260 N.am  1 <1>  -0.6600 
  4 C       -1.0250     0.9520     0.4270 C.3   1 <1>   0.3410 
  5 C       -3.0780    -0.4960    -1.5930 C.3   1 <1>   0.3210 
  6 C       -4.6970     1.3480    -1.0610 C.3   1 <1>   0.1400 
  7 O       -0.3790     1.9420     1.2270 O.3   1 <1>  -0.3630 
  8 C       -1.0120    -0.2930     1.3250 C.3   1 <1>  -0.2400 
  9 C       -0.0990     0.7050    -0.7880 C.3   1 <1>  -0.2400 
 10 C       -3.7370    -1.7220    -0.9570 C.2   1 <1>   0.0460 
 11 C       -5.6350     1.0600     0.1300 C.3   1 <1>   0.3430 
 12 C       -0.0410     3.2020     0.8340 C.ar  1 <1>   0.0820 
 13 N       -5.0580    -1.7450    -0.6660 N.2   1 <1>  -0.5650 
 14 C       -3.1610    -2.9090    -0.6420 C.2   1 <1>  -0.3320 
 15 N       -6.4890     2.2320     0.5310 N.4   1 <1>  -0.9590 
 16 C        0.8420     3.8800     1.6580 C.ar  1 <1>  -0.1500 
 17 C       -0.5140     3.8320    -0.3140 C.ar  1 <1>  -0.1500 
 18 C       -5.2520    -2.9280    -0.1810 C.2   1 <1>   0.0360 
 19 N       -4.1380    -3.6840    -0.1360 N.pl3 1 <1>   0.0330 
 20 C       -1.7370    -3.4250    -0.7900 C.3   1 <1>  -0.0600 
 21 C       -5.6520     3.3060     1.1600 C.3   1 <1>   0.2630 
 22 C       -7.5420     1.7780     1.4860 C.3   1 <1>   0.2630 
 23 C        1.2600     5.1610     1.3430 C.ar  1 <1>  -0.1500 
 24 C       -0.0930     5.1130    -0.6280 C.ar  1 <1>  -0.1500 
 25 C        0.7970     5.7830     0.1950 C.ar  1 <1>  -0.1440 
 26 C        1.2520     7.1870    -0.1550 C.3   1 <1>  -0.0970 
 27 H       -2.0340    -0.6790    -1.6980 H     1 <1>   0.0800 
 28 H       -3.4680    -0.3850    -2.5890 H     1 <1>   0.0800 
 29 H       -5.1270     0.9290    -1.9540 H     1 <1>   0.0800 
 30 H       -4.5930     2.4080    -1.2090 H     1 <1>   0.0800 
 31 H       -1.5500    -0.0890     2.2340 H     1 <1>   0.0800 
 32 H       -0.0020    -0.5690     1.5710 H     1 <1>   0.0800 
 33 H       -1.4860    -1.1190     0.8360 H     1 <1>   0.0800 
 34 H       -0.3850     1.3190    -1.6210 H     1 <1>   0.0800 
 35 H       -0.1160    -0.3210    -1.0980 H     1 <1>   0.0800 
 36 H        0.9210     0.9290    -0.5270 H     1 <1>   0.0800 
 37 H       -5.0320     0.7570     0.9710 H     1 <1>   0.0800 
 38 H       -6.2680     0.2290    -0.1340 H     1 <1>   0.0800 
 39 H       -6.9430     2.6100    -0.3120 H     1 <1>   0.4500 
 40 H        1.2000     3.3980     2.5490 H     1 <1>   0.1500 
 41 H       -1.2110     3.3520    -0.9680 H     1 <1>   0.1500 
 42 H       -6.2040    -3.3010     0.1570 H     1 <1>   0.1500 
 43 H       -4.0630    -4.6490     0.2000 H     1 <1>   0.2700 
 44 H       -1.1000    -2.6880    -1.2440 H     1 <1>   0.0800 
 45 H       -1.7260    -4.3040    -1.4100 H     1 <1>   0.0800 
 46 H       -1.3310    -3.6780     0.1740 H     1 <1>   0.0800 
 47 H       -5.1240     2.9150     2.0160 H     1 <1>   0.0800 
 48 H       -6.2680     4.1310     1.4770 H     1 <1>   0.0800 
 49 H       -4.9180     3.6720     0.4610 H     1 <1>   0.0800 
 50 H       -7.0870     1.3730     2.3760 H     1 <1>   0.0800 
 51 H       -8.1530     1.0140     1.0340 H     1 <1>   0.0800 
 52 H       -8.1740     2.6040     1.7670 H     1 <1>   0.0800 
 53 H        1.9460     5.6700     1.9970 H     1 <1>   0.1500 
 54 H       -0.4640     5.5900    -1.5180 H     1 <1>   0.1500 
 55 H        2.2090     7.3960     0.2890 H     1 <1>   0.0800 
 56 H        0.5370     7.9020     0.2090 H     1 <1>   0.0800 
 57 H        1.3430     7.2960    -1.2210 H     1 <1>   0.0800 
@<TRIPOS>BOND
  1   1   2  2   
  2   2   3  am  
  3   2   4  1   
  4   3   5  1   
  5   3   6  1   
  6   4   7  1   
  7   4   8  1   
  8   4   9  1   
  9   5  10  1   
 10   5  27  1   
 11   5  28  1   
 12   6  11  1   
 13   6  29  1   
 14   6  30  1   
 15   7  12  1   
 16   8  31  1   
 17   8  32  1   
 18   8  33  1   
 19   9  34  1   
 20   9  35  1   
 21   9  36  1   
 22  10  13  1   
 23  10  14  2   
 24  11  15  1   
 25  11  37  1   
 26  11  38  1   
 27  12  16  ar  
 28  12  17  ar  
 29  13  18  2   
 30  14  19  1   
 31  14  20  1   
 32  15  21  1   
 33  15  22  1   
 34  15  39  1   
 35  16  23  ar  
 36  16  40  1   
 37  17  24  ar  
 38  17  41  1   
 39  18  19  1   
 40  18  42  1   
 41  19  43  1   
 42  20  44  1   
 43  20  45  1   
 44  20  46  1   
 45  21  47  1   
 46  21  48  1   
 47  21  49  1   
 48  22  50  1   
 49  22  51  1   
 50  22  52  1   
 51  23  25  ar  
 52  23  53  1   
 53  24  25  ar  
 54  24  54  1   
 55  25  26  1   
 56  26  55  1   
 57  26  56  1   
 58  26  57  1   
@<TRIPOS>SUBSTRUCTURE
  1 ****   2 GROUP 4 **** **** 0

# MOE 2024.06 (io_trps.svl 2023.06)
