@<TRIPOS>MOLECULE
NONAME
50 51 1 0 0 
SMALL
USER_CHARGES


@<TRIPOS>ATOM
  1 O        3.8600     1.6340     1.3870 O.co2 1 <1>  -0.9000 
  2 C        3.1890     0.7200     0.8890 C.2   1 <1>   0.9060 
  3 O        3.2360    -0.4250     1.3370 O.co2 1 <1>  -0.9000 
  4 C        2.5140     0.9440    -0.4750 C.3   1 <1>  -0.1060 
  5 C        3.3320     0.0420    -1.4240 C.3   1 <1>   0.2000 
  6 C        2.6590     2.4230    -0.9620 C.3   1 <1>  -0.1600 
  7 C        1.0190     0.5200    -0.4360 C.3   1 <1>  -0.1600 
  8 O        2.8910     0.2090    -2.7390 O.3   1 <1>  -0.6800 
  9 C        4.8370     0.4070    -1.3450 C.3   1 <1>   0.3430 
 10 C        4.0220     2.7520    -1.5970 C.3   1 <1>   0.3430 
 11 C        0.1780     1.3240     0.5690 C.3   1 <1>  -0.1600 
 12 N        5.0810     1.8640    -1.0520 N.4   1 <1>  -0.9590 
 13 C       -1.2750     0.8420     0.5760 C.3   1 <1>  -0.2400 
 14 C        6.4690     2.2790    -1.3550 C.3   1 <1>   0.4860 
 15 C        6.7070     3.7010    -0.8900 C.ar  1 <1>  -0.1430 
 16 C        6.9630     3.9300     0.4530 C.ar  1 <1>   0.0820 
 17 C        6.6670     4.7710    -1.7710 C.ar  1 <1>  -0.1500 
 18 O        7.0200     2.8590     1.2770 O.3   1 <1>  -0.3620 
 19 C        7.1600     5.2240     0.9170 C.ar  1 <1>  -0.1500 
 20 C        6.8660     6.0610    -1.3060 C.ar  1 <1>  -0.1500 
 21 C        6.3630     2.9260     2.5260 C.3   1 <1>   0.0400 
 22 C        7.1090     6.2940     0.0380 C.ar  1 <1>  -0.1430 
 23 C        7.3280     7.7100     0.5410 C.3   1 <1>  -0.0970 
 24 H        3.2060    -0.9970    -1.1680 H     1 <1>   0.0800 
 25 H        2.4910     3.0940    -0.1370 H     1 <1>   0.0800 
 26 H        1.9050     2.6440    -1.6950 H     1 <1>   0.0800 
 27 H        0.5810     0.6220    -1.4130 H     1 <1>   0.0800 
 28 H        0.9670    -0.5210    -0.1610 H     1 <1>   0.0800 
 29 H        1.9480    -0.0460    -2.7920 H     1 <1>   0.4000 
 30 H        5.3060     0.1200    -2.2700 H     1 <1>   0.0800 
 31 H        5.2760    -0.1720    -0.5480 H     1 <1>   0.0800 
 32 H        4.2600     3.7850    -1.4030 H     1 <1>   0.0800 
 33 H        3.9590     2.6060    -2.6630 H     1 <1>   0.0800 
 34 H        0.5880     1.2100     1.5590 H     1 <1>   0.0800 
 35 H        0.1970     2.3710     0.3210 H     1 <1>   0.0800 
 36 H        4.9560     1.9520    -0.0070 H     1 <1>   0.4500 
 37 H       -1.3220    -0.1970     0.8540 H     1 <1>   0.0800 
 38 H       -1.7200     0.9630    -0.3960 H     1 <1>   0.0800 
 39 H       -1.8460     1.4100     1.2880 H     1 <1>   0.0800 
 40 H        7.1580     1.6270    -0.8430 H     1 <1>   0.0800 
 41 H        6.6510     2.2070    -2.4140 H     1 <1>   0.0800 
 42 H        6.4800     4.6150    -2.8190 H     1 <1>   0.1500 
 43 H        7.3630     5.3940     1.9580 H     1 <1>   0.1500 
 44 H        6.8330     6.8860    -1.9960 H     1 <1>   0.1500 
 45 H        6.2060     1.9210     2.8770 H     1 <1>   0.0800 
 46 H        5.4090     3.4080     2.3980 H     1 <1>   0.0800 
 47 H        6.9770     3.4700     3.2200 H     1 <1>   0.0800 
 48 H        6.7530     8.4090    -0.0390 H     1 <1>   0.0800 
 49 H        8.3690     7.9660     0.4620 H     1 <1>   0.0800 
 50 H        7.0270     7.7960     1.5700 H     1 <1>   0.0800 
@<TRIPOS>BOND
  1   1   2  ar  
  2   2   3  ar  
  3   2   4  1   
  4   4   5  1   
  5   4   6  1   
  6   4   7  1   
  7   5   8  1   
  8   5   9  1   
  9   5  24  1   
 10   6  10  1   
 11   6  25  1   
 12   6  26  1   
 13   7  11  1   
 14   7  27  1   
 15   7  28  1   
 16   8  29  1   
 17   9  12  1   
 18   9  30  1   
 19   9  31  1   
 20  10  12  1   
 21  10  32  1   
 22  10  33  1   
 23  11  13  1   
 24  11  34  1   
 25  11  35  1   
 26  12  14  1   
 27  12  36  1   
 28  13  37  1   
 29  13  38  1   
 30  13  39  1   
 31  14  15  1   
 32  14  40  1   
 33  14  41  1   
 34  15  16  ar  
 35  15  17  ar  
 36  16  18  1   
 37  16  19  ar  
 38  17  20  ar  
 39  17  42  1   
 40  18  21  1   
 41  19  22  ar  
 42  19  43  1   
 43  20  22  ar  
 44  20  44  1   
 45  21  45  1   
 46  21  46  1   
 47  21  47  1   
 48  22  23  1   
 49  23  48  1   
 50  23  49  1   
 51  23  50  1   
@<TRIPOS>SUBSTRUCTURE
  1 ****  12 GROUP 4 **** **** 0

# MOE 2024.06 (io_trps.svl 2023.06)
