@<TRIPOS>MOLECULE
NONAME
49 51 1 0 0 
SMALL
USER_CHARGES


@<TRIPOS>ATOM
  1 S        1.8850    -0.1020    -1.1570 S.3   1 <1>  -0.0800 
  2 C        2.0000    -0.1690     0.5960 C.2   1 <1>  -0.1400 
  3 C        0.2540    -0.7450    -1.1220 C.2   1 <1>  -0.1100 
  4 C        0.8580    -0.6530     1.1210 C.2   1 <1>  -0.1500 
  5 C        3.2920     0.2930     1.2570 C.3   1 <1>   0.0810 
  6 C       -0.1360    -0.9800     0.1440 C.2   1 <1>  -0.1500 
  7 C        3.4830     1.8040     1.2010 C.2   1 <1>   0.5690 
  8 O        3.0030     2.4440     2.1080 O.2   1 <1>  -0.5700 
  9 N        4.2020     2.4200     0.2020 N.am  1 <1>  -0.6600 
 10 C        4.8890     1.7460    -0.9470 C.3   1 <1>   0.1400 
 11 C        4.3310     3.9030     0.1780 C.3   1 <1>   0.1400 
 12 C        6.4150     1.6920    -0.7670 C.3   1 <1>   0.1400 
 13 C        5.5230     4.3730     1.0210 C.3   1 <1>  -0.1600 
 14 N        7.0090     3.0400    -0.5020 N.am  1 <1>  -0.6600 
 15 C        6.8000     3.5290     0.8940 C.3   1 <1>   0.1400 
 16 C        7.6680     3.7230    -1.4920 C.2   1 <1>   0.5690 
 17 O        7.7760     3.2780    -2.6090 O.2   1 <1>  -0.5700 
 18 C        8.3160     5.0650    -1.2270 C.3   1 <1>  -0.0990 
 19 C        9.7300     4.8480    -0.6920 C.3   1 <1>   0.1400 
 20 N       10.3210     6.1420    -0.2650 N.am  1 <1>  -0.4690 
 21 C       10.0230     6.6520     0.9930 C.2   1 <1>   0.6900 
 22 C       11.1850     6.8250    -1.1140 C.2   1 <1>  -0.0410 
 23 O        9.2520     6.0980     1.7510 O.2   1 <1>  -0.5700 
 24 N       10.6100     7.8170     1.3770 N.am  1 <1>  -0.4900 
 25 C       11.7480     7.9850    -0.7080 C.2   1 <1>  -0.1360 
 26 C       11.4650     8.5140     0.5830 C.2   1 <1>   0.6160 
 27 O       11.9440     9.5470     1.0000 O.2   1 <1>  -0.5700 
 28 H       -0.2460    -0.8790    -2.0640 H     1 <1>   0.1500 
 29 H        0.6620    -0.7930     2.1700 H     1 <1>   0.1500 
 30 H        4.1300    -0.2170     0.8280 H     1 <1>   0.0800 
 31 H        3.2560     0.0130     2.2940 H     1 <1>   0.0800 
 32 H       -1.0920    -1.3740     0.4420 H     1 <1>   0.1500 
 33 H        4.6670     2.2770    -1.8560 H     1 <1>   0.0800 
 34 H        4.5230     0.7460    -1.0770 H     1 <1>   0.0800 
 35 H        3.4270     4.3540     0.5500 H     1 <1>   0.0800 
 36 H        4.4610     4.2340    -0.8390 H     1 <1>   0.0800 
 37 H        6.8490     1.2680    -1.6560 H     1 <1>   0.0800 
 38 H        6.6540     1.0300     0.0460 H     1 <1>   0.0800 
 39 H        5.2270     4.3800     2.0550 H     1 <1>   0.0800 
 40 H        5.7430     5.3920     0.7610 H     1 <1>   0.0800 
 41 H        6.7160     2.6810     1.5510 H     1 <1>   0.0800 
 42 H        7.6470     4.1000     1.2290 H     1 <1>   0.0800 
 43 H        7.7260     5.6290    -0.5320 H     1 <1>   0.0800 
 44 H        8.3620     5.6130    -2.1500 H     1 <1>   0.0800 
 45 H       10.3420     4.3980    -1.4550 H     1 <1>   0.0800 
 46 H        9.7070     4.1760     0.1490 H     1 <1>   0.0800 
 47 H       11.3770     6.3950    -2.0850 H     1 <1>   0.1500 
 48 H       10.3950     8.1830     2.2970 H     1 <1>   0.3700 
 49 H       12.4220     8.5540    -1.3200 H     1 <1>   0.1500 
@<TRIPOS>BOND
  1   1   2  1   
  2   1   3  1   
  3   2   4  2   
  4   2   5  1   
  5   3   6  2   
  6   3  28  1   
  7   4   6  1   
  8   4  29  1   
  9   5   7  1   
 10   5  30  1   
 11   5  31  1   
 12   6  32  1   
 13   7   8  2   
 14   7   9  am  
 15   9  10  1   
 16   9  11  1   
 17  10  12  1   
 18  10  33  1   
 19  10  34  1   
 20  11  13  1   
 21  11  35  1   
 22  11  36  1   
 23  12  14  1   
 24  12  37  1   
 25  12  38  1   
 26  13  15  1   
 27  13  39  1   
 28  13  40  1   
 29  14  15  1   
 30  14  16  am  
 31  15  41  1   
 32  15  42  1   
 33  16  17  2   
 34  16  18  1   
 35  18  19  1   
 36  18  43  1   
 37  18  44  1   
 38  19  20  1   
 39  19  45  1   
 40  19  46  1   
 41  20  21  am  
 42  20  22  1   
 43  21  23  2   
 44  21  24  am  
 45  22  25  2   
 46  22  47  1   
 47  24  26  am  
 48  24  48  1   
 49  25  26  1   
 50  25  49  1   
 51  26  27  2   
@<TRIPOS>SUBSTRUCTURE
  1 ****  15 GROUP 4 **** **** 0

# MOE 2024.06 (io_trps.svl 2023.06)
